data_PCOD8098562
_publ_section_title
;
Structure prediction by ZEFSAII (Michael W. Deem and Ramdas Pophale) SiO2 
 PCOD8098562
Probable space group: C 2/M
;
_chemical_formula_sum "Si O2"
_cell_formula_units_Z 56
_cell_length_a 12.787811
_cell_length_b 12.347184
_cell_length_c 17.549309
_cell_angle_alpha 90.000000
_cell_angle_beta 129.046171
_cell_angle_gamma 90.000000
_cell_volume 2152.004180
_symmetry_space_group_name_H-M "C 2/M"
_symmetry_group_IT_number 12
_symmetry_cell_setting 'monoclinic'
loop_
_space_group_symop_operation_xyz
x,y,z
-x,y,-z
-x,-y,-z
x,-y,z
1/2+x,1/2+y,z
1/2-x,1/2+y,-z
1/2-x,1/2-y,-z
1/2+x,1/2-y,z
loop_
_atom_site_type_symbol
_atom_site_label
_atom_site_fract_x
_atom_site_fract_y
_atom_site_fract_z
Si Si1 0.889015 0.375984 0.731841
Si Si2 0.369145 0.671465 0.485195
Si Si3 0.817301 0.371276 0.155212
Si Si4 0.315608 0.371382 0.059115
Si Si5 0.379500 0.628707 0.803637
Si Si6 0.235016 0.878770 0.408213
Si Si7 0.632198 0.871240 0.107449
O O1 0.913837 0.500000 0.764059
O O2 0.765283 0.369292 0.617428
O O3 0.865469 0.318904 0.804865
O O4 0.028704 0.334862 0.757039
O O5 0.500000 0.631541 0.500000
O O6 0.362392 0.802783 0.487919
O O7 0.372955 0.622091 0.572023
O O8 0.799235 0.500000 0.148340
O O9 0.713548 0.324355 0.170782
O O10 0.779038 0.325864 0.052990
O O11 0.302383 0.500000 0.051587
O O12 0.467707 0.335719 0.112706
O O13 0.263338 0.331530 0.118850
O O14 0.366151 0.500000 0.792086
O O15 0.333125 0.673655 0.698737
O O16 0.287970 0.000000 0.417949
O O17 0.636962 0.000000 0.117861
O O18 0.500000 0.835791 0.000000
#
# Coordination Sequence:
#
# PCOD8098562 Si02
#       7
#     8   8   8   8   8   8   8
#     4  10  20  34  57  91 131 173 215 268 334 394
#     4  11  26  45  69 100 131 168 218 281 341 396
#     4   9  16  29  51  85 127 170 216 260 311 382
#     4   9  15  25  47  84 125 163 213 265 310 374
#     4   9  18  31  55  87 119 163 214 264 316 377
#     4  10  24  47  69  95 130 169 218 271 335 404
#     4   9  15  26  47  81 125 171 215 260 318 390
#
# _framework density 26.022254
#
# number of rings (size 3 to 8) (size 9 to 14) (size 15 to 20)
#    0.000    2.429    1.429    0.857    2.000    5.429 
#    0.000    1.429    0.000    2.571    0.000    0.000 
#    0.000    0.000    0.000    0.000    0.000    0.286 
#
# Total GULP energy -347299.016502 kJ/mol
# GULP energy per Si atom -12403.536304 kJ/mol
# Density = 2.596303 g / cm^3
# Si number density = 26.022254 Si / 1000 Ang^3
#
#
#
# Elastic Constant Matrix: (Units=GPa)
#
#
# Indices 1 2 3 4 5 6 
#
# 1 245.4308 28.0480 101.5467 0.0000 -4.7398 0.0000
# 2 28.0480 59.5230 22.3492 0.0000 -10.8771 0.0000
# 3 101.5467 22.3492 157.2219 0.0000 -18.9768 0.0000
# 4 0.0000 0.0000 0.0000 34.5745 0.0000 -11.3932
# 5 -4.7398 -10.8771 -18.9768 0.0000 49.9119 0.0000
# 6 0.0000 0.0000 0.0000 -11.3932 0.0000 34.7670
#
#
#
# Elastic Compliance Matrix: (Units=1/GPa)
#
#
# Indices 1 2 3 4 5 6 
#
# 1 0.005727 -0.001554 -0.003619 0.000000 -0.001171 0.000000
# 2 -0.001554 0.018623 -0.001228 0.000000 0.003444 0.000000
# 3 -0.003619 -0.001228 0.009222 0.000000 0.002895 0.000000
# 4 0.000000 0.000000 0.000000 0.032424 0.000000 0.010625
# 5 -0.001171 0.003444 0.002895 0.000000 0.021775 0.000000
# 6 0.000000 0.000000 0.000000 0.010625 0.000000 0.032245
#
#
# Mechanical properties :
#
#
# Convention : Reuss Voigt Hill
#
# Bulk Modulus (GPa) = 48.14724 85.11817 66.63270
# Shear Modulus (GPa) = 35.78026 44.53279 40.15652
#
# Velocity S-wave (km/s) = 3.71210 4.14132 3.93257
# Velocity P-wave (km/s) = 6.07581 7.45977 6.80307
#
# Compressibility (1/GPa) = 0.02076962
#
# Stress axis : x y z
#
# Youngs Moduli (GPa) = 174.61394 53.69775 108.43465
#
# Poissons Ratio (x) = 0.08342 0.39247
# Poissons Ratio (y) = 0.27128 0.13317
# Poissons Ratio (z) = 0.63200 0.06595
#
# Static dielectric constant tensor:
#      x y z
#    x 4.816340 0.000000 -0.341140 
#    y 0.000000 5.325360 0.000000 
#    z -0.341140 0.000000 4.435670 
# 
# 
# High freq. dielectric constant tensor:
#      x y z
#    x 2.042130 0.000000 -0.024430 
#    y 0.000000 2.112210 0.000000 
#    z -0.024430 0.000000 2.021490 
# 
# From -- ./inp_files/263390.got.cif
#   From: 2010.06.25/outbox.cif.g09.slc.cpg/sg12_132_cif.got.tgz:263390.got - 2010.06.28 00:19:55.
