data_PCOD8098979
_publ_section_title
;
Structure prediction by ZEFSAII (Michael W. Deem and Ramdas Pophale) SiO2 
 PCOD8098979
Probable space group: C 2/M
;
_chemical_formula_sum "Si O2"
_cell_formula_units_Z 64
_cell_length_a 30.030512
_cell_length_b 9.030586
_cell_length_c 19.330130
_cell_angle_alpha 90.000000
_cell_angle_beta 141.976712
_cell_angle_gamma 90.000000
_cell_volume 3229.098283
_symmetry_space_group_name_H-M "C 2/M"
_symmetry_group_IT_number 12
_symmetry_cell_setting 'monoclinic'
loop_
_space_group_symop_operation_xyz
x,y,z
-x,y,-z
-x,-y,-z
x,-y,z
1/2+x,1/2+y,z
1/2-x,1/2+y,-z
1/2-x,1/2-y,-z
1/2+x,1/2-y,z
loop_
_atom_site_type_symbol
_atom_site_label
_atom_site_fract_x
_atom_site_fract_y
_atom_site_fract_z
Si Si1 0.447940 0.327087 0.599653
Si Si2 0.332635 0.829008 0.538944
Si Si3 0.851008 0.825642 0.972080
Si Si4 0.607954 0.327024 0.828374
Si Si5 0.920357 0.667259 0.431414
Si Si6 0.416460 0.323900 0.908218
Si Si7 0.694238 0.174579 0.821516
Si Si8 0.692178 0.827890 0.330839
O O1 0.437546 0.500000 0.599997
O O2 0.410024 0.238334 0.614658
O O3 0.531991 0.281929 0.701409
O O4 0.411134 0.279390 0.483185
O O5 0.328420 0.802866 0.615094
O O6 0.270918 0.746052 0.418491
O O7 0.327693 0.000000 0.512813
O O8 0.889091 0.762215 0.949470
O O9 0.769838 0.763974 0.884111
O O10 0.847768 0.000000 0.958884
O O11 0.895767 0.780568 0.095351
O O12 0.623955 0.500000 0.841476
O O13 0.673723 0.245727 0.870151
O O14 0.901504 0.500000 0.432383
O O15 0.866142 0.723325 0.306778
O O16 0.000000 0.675472 0.500000
O O17 0.408260 0.500000 0.892001
O O18 0.367543 0.250445 0.789420
O O19 0.500000 0.276449 0.000000
O O20 0.697483 0.000000 0.837231
O O21 0.696916 0.000000 0.316629
#
# Coordination Sequence:
#
# PCOD8098979 Si02
#       8
#     8   8   8   8   8   8   8   8
#     4  11  23  35  56  87 118 153 193 244 297 348
#     4  10  22  40  63  88 118 156 194 238 295 364
#     4   9  20  38  58  84 113 151 200 245 291 344
#     4  10  21  37  57  82 118 154 193 247 297 343
#     4  10  20  35  54  79 114 154 193 235 291 357
#     4  10  22  39  63  89 118 162 207 244 292 359
#     4  10  20  36  59  82 111 151 198 247 293 351
#     4  10  22  41  63  90 121 151 192 248 304 351
#
# _framework density 19.819775
#
# number of rings (size 3 to 8) (size 9 to 14) (size 15 to 20)
#    0.000    2.000    1.250    1.500    3.500    3.000 
#    0.000    1.250    0.000    0.000    0.000    0.000 
#    0.000    0.000    0.000    0.000    0.000    0.000 
#
# Total GULP energy -396805.843476 kJ/mol
# GULP energy per Si atom -12400.182609 kJ/mol
# Density = 1.977466 g / cm^3
# Si number density = 19.819775 Si / 1000 Ang^3
#
#
#
# Elastic Constant Matrix: (Units=GPa)
#
#
# Indices 1 2 3 4 5 6 
#
# 1 131.7788 48.5865 51.4987 0.0000 8.1250 0.0000
# 2 48.5865 60.5187 42.9189 0.0000 -3.8320 0.0000
# 3 51.4987 42.9189 111.8005 0.0000 -0.4248 0.0000
# 4 0.0000 0.0000 0.0000 20.9295 0.0000 -5.4074
# 5 8.1250 -3.8320 -0.4248 0.0000 20.0238 0.0000
# 6 0.0000 0.0000 0.0000 -5.4074 0.0000 31.2940
#
#
#
# Elastic Compliance Matrix: (Units=1/GPa)
#
#
# Indices 1 2 3 4 5 6 
#
# 1 0.011994 -0.008391 -0.002328 0.000000 -0.006522 0.000000
# 2 -0.008391 0.028928 -0.007206 0.000000 0.008788 0.000000
# 3 -0.002328 -0.007206 0.012783 0.000000 -0.000163 0.000000
# 4 0.000000 0.000000 0.000000 0.050012 0.000000 0.008642
# 5 -0.006522 0.008788 -0.000163 0.000000 0.054265 0.000000
# 6 0.000000 0.000000 0.000000 0.008642 0.000000 0.033448
#
#
# Mechanical properties :
#
#
# Convention : Reuss Voigt Hill
#
# Bulk Modulus (GPa) = 56.01341 65.56736 60.79039
# Shear Modulus (GPa) = 21.43775 25.18905 23.31340
#
# Velocity S-wave (km/s) = 3.29239 3.56884 3.43340
# Velocity P-wave (km/s) = 6.54032 7.08066 6.81585
#
# Compressibility (1/GPa) = 0.01785287
#
# Stress axis : x y z
#
# Youngs Moduli (GPa) = 83.37257 34.56910 78.22950
#
# Poissons Ratio (x) = 0.29007 0.18216
# Poissons Ratio (y) = 0.69959 0.56375
# Poissons Ratio (z) = 0.19413 0.24912
#
# Static dielectric constant tensor:
#      x y z
#    x 3.780240 0.000000 0.039900 
#    y 0.000000 3.426700 0.000000 
#    z 0.039900 0.000000 3.700560 
# 
# 
# High freq. dielectric constant tensor:
#      x y z
#    x 1.781130 0.000000 0.001140 
#    y 0.000000 1.753920 0.000000 
#    z 0.001140 0.000000 1.781110 
# 
# From -- ./inp_files/295794.got.cif
#   From: 2010.06.25/outbox.cif.g09.slc.cpg/sg12_148_cif.got.tgz:295794.got - 2010.06.28 00:19:55.
