data_PCOD8098089
_publ_section_title
;
Structure prediction by ZEFSAII (Michael W. Deem and Ramdas Pophale) SiO2 
 PCOD8098089
Probable space group: C 2/M
;
_chemical_formula_sum "Si O2"
_cell_formula_units_Z 56
_cell_length_a 24.690318
_cell_length_b 8.727205
_cell_length_c 16.512044
_cell_angle_alpha 90.000000
_cell_angle_beta 119.866987
_cell_angle_gamma 90.000000
_cell_volume 3085.416997
_symmetry_space_group_name_H-M "C 2/M"
_symmetry_group_IT_number 12
_symmetry_cell_setting 'monoclinic'
loop_
_space_group_symop_operation_xyz
x,y,z
-x,y,-z
-x,-y,-z
x,-y,z
1/2+x,1/2+y,z
1/2-x,1/2+y,-z
1/2-x,1/2-y,-z
1/2+x,1/2-y,z
loop_
_atom_site_type_symbol
_atom_site_label
_atom_site_fract_x
_atom_site_fract_y
_atom_site_fract_z
Si Si1 0.756933 0.824385 0.724396
Si Si2 0.438082 0.175813 0.283742
Si Si3 0.153357 0.177709 0.899690
Si Si4 0.876581 0.820545 0.391262
Si Si5 0.079619 0.323123 0.416685
Si Si6 0.808042 0.176696 0.588755
Si Si7 0.281505 0.177677 0.907292
O O1 0.688676 0.765978 0.650779
O O2 0.801100 0.805324 0.679731
O O3 0.788096 0.727482 0.819415
O O4 0.751825 0.000000 0.748331
O O5 0.405706 0.226725 0.176065
O O6 0.413117 0.281122 0.337143
O O7 0.511708 0.199529 0.327191
O O8 0.421790 0.000000 0.291363
O O9 0.211368 0.214805 0.883936
O O10 0.136216 0.000000 0.886719
O O11 0.168910 0.228841 0.002391
O O12 0.918285 0.771518 0.498510
O O13 0.863056 0.000000 0.382657
O O14 0.093697 0.500000 0.446967
O O15 0.128862 0.262271 0.388386
O O16 0.750000 0.250000 0.500000
O O17 0.812290 0.000000 0.565713
O O18 0.297080 0.000000 0.928458
#
# Coordination Sequence:
#
# PCOD8098089 Si02
#       7
#     8   8   8   8   8   8   8
#     4  11  22  36  57  83 115 149 184 231 284 333
#     4  11  23  38  57  81 115 153 188 231 282 338
#     4  10  20  34  55  83 115 148 184 227 278 336
#     4  12  23  35  55  83 114 151 189 230 280 335
#     4  11  24  40  57  80 112 153 194 233 281 333
#     4  11  23  38  59  83 111 149 191 236 282 329
#     4  10  20  34  55  84 114 147 185 227 279 334
#
# _framework density 18.149896999999999
#
# number of rings (size 3 to 8) (size 9 to 14) (size 15 to 20)
#    0.000    1.143    2.857    4.286    0.000    6.857 
#    0.000    0.000    0.000    0.857    0.000    6.000 
#    0.000    0.000    0.000    0.000    0.000    0.000 
#
# Total GULP energy -347393.183463 kJ/mol
# GULP energy per Si atom -12406.899409 kJ/mol
# Density = 1.810859 g / cm^3
# Si number density = 18.149897 Si / 1000 Ang^3
#
#
#
# Elastic Constant Matrix: (Units=GPa)
#
#
# Indices 1 2 3 4 5 6 
#
# 1 73.5832 33.1482 32.7635 0.0000 10.9573 0.0000
# 2 33.1482 58.8180 26.8925 0.0000 0.6391 0.0000
# 3 32.7635 26.8925 109.7634 0.0000 5.7866 0.0000
# 4 0.0000 0.0000 0.0000 35.7767 0.0000 -1.0309
# 5 10.9573 0.6391 5.7866 0.0000 20.0503 0.0000
# 6 0.0000 0.0000 0.0000 -1.0309 0.0000 27.4448
#
#
#
# Elastic Compliance Matrix: (Units=1/GPa)
#
#
# Indices 1 2 3 4 5 6 
#
# 1 0.021256 -0.010378 -0.003257 0.000000 -0.010345 0.000000
# 2 -0.010378 0.024224 -0.003144 0.000000 0.005806 0.000000
# 3 -0.003257 -0.003144 0.010920 0.000000 -0.001272 0.000000
# 4 0.000000 0.000000 0.000000 0.027981 0.000000 0.001051
# 5 -0.010345 0.005806 -0.001272 0.000000 0.055710 0.000000
# 6 0.000000 0.000000 0.000000 0.001051 0.000000 0.036476
#
#
# Mechanical properties :
#
#
# Convention : Reuss Voigt Hill
#
# Bulk Modulus (GPa) = 43.77509 47.53035 45.65272
# Shear Modulus (GPa) = 22.96335 26.61171 24.78753
#
# Velocity S-wave (km/s) = 3.56083 3.83328 3.69956
# Velocity P-wave (km/s) = 6.40914 6.77027 6.59218
#
# Compressibility (1/GPa) = 0.02284404
#
# Stress axis : x y z
#
# Youngs Moduli (GPa) = 47.04628 41.28072 91.57664
#
# Poissons Ratio (x) = 0.42840 0.29823
# Poissons Ratio (y) = 0.48823 0.28787
# Poissons Ratio (z) = 0.15321 0.12977
#
# Static dielectric constant tensor:
#      x y z
#    x 3.220830 0.000000 -0.003330 
#    y 0.000000 3.539310 0.000000 
#    z -0.003330 0.000000 3.372570 
# 
# 
# High freq. dielectric constant tensor:
#      x y z
#    x 1.677760 0.000000 -0.000820 
#    y 0.000000 1.724380 0.000000 
#    z -0.000820 0.000000 1.706700 
# 
# From -- ./inp_files/238964.got.cif
#   From: 2010.06.25/outbox.cif.g09.slc.cpg/sg12_120_cif.got.tgz:238964.got - 2010.06.28 00:19:55.
