data_PCOD8098428
_publ_section_title
;
Structure prediction by ZEFSAII (Michael W. Deem and Ramdas Pophale) SiO2 
 PCOD8098428
Probable space group: C 2/M
;
_chemical_formula_sum "Si O2"
_cell_formula_units_Z 48
_cell_length_a 24.761221
_cell_length_b 9.204609
_cell_length_c 19.724668
_cell_angle_alpha 90.000000
_cell_angle_beta 146.445754
_cell_angle_gamma 90.000000
_cell_volume 2484.832872
_symmetry_space_group_name_H-M "C 2/M"
_symmetry_group_IT_number 12
_symmetry_cell_setting 'monoclinic'
loop_
_space_group_symop_operation_xyz
x,y,z
-x,y,-z
-x,-y,-z
x,-y,z
1/2+x,1/2+y,z
1/2-x,1/2+y,-z
1/2-x,1/2-y,-z
1/2+x,1/2-y,z
loop_
_atom_site_type_symbol
_atom_site_label
_atom_site_fract_x
_atom_site_fract_y
_atom_site_fract_z
Si Si1 0.289546 0.327727 0.339990
Si Si2 0.494210 0.669010 0.184109
Si Si3 0.123789 0.834586 0.705848
Si Si4 0.447512 0.328017 0.608194
Si Si5 0.797481 0.666474 0.987970
Si Si6 0.912115 0.168435 0.859811
O O1 0.274135 0.500000 0.318549
O O2 0.359599 0.270482 0.352140
O O3 0.343996 0.282201 0.466801
O O4 0.184738 0.255395 0.224001
O O5 0.464743 0.500000 0.159196
O O6 0.547257 0.725319 0.308389
O O7 0.565063 0.696582 0.195149
O O8 0.397767 0.760987 0.070414
O O9 0.226863 0.820525 0.850524
O O10 0.037210 0.757433 0.658454
O O11 0.090904 0.000000 0.663070
O O12 0.458723 0.500000 0.619234
O O13 0.815023 0.500000 0.027499
O O14 0.750000 0.750000 0.000000
O O15 0.892395 0.000000 0.853984
O O16 0.000000 0.224043 0.000000
#
# Coordination Sequence:
#
# PCOD8098428 Si02
#       6
#     8   8   8   8   8   8
#     4  10  20  34  57  82 103 136 180 223 262 307
#     4  10  20  36  56  77 106 144 180 217 261 314
#     4   9  17  31  53  80 108 137 173 217 264 313
#     4   9  17  32  54  80 107 136 175 220 267 313
#     4  11  20  32  53  81 110 139 173 216 264 311
#     4  10  22  39  56  75 106 146 178 212 267 322
#
# _framework density 19.317194000000001
#
# number of rings (size 3 to 8) (size 9 to 14) (size 15 to 20)
#    0.000    2.167    1.667    2.000    0.000    3.667 
#    0.000    1.667    0.000    1.000    0.000    0.000 
#    0.000    0.000    0.000    0.000    0.000    0.000 
#
# Total GULP energy -297527.756811 kJ/mol
# GULP energy per Si atom -12396.989867 kJ/mol
# Density = 1.927323 g / cm^3
# Si number density = 19.317194 Si / 1000 Ang^3
#
#
#
# Elastic Constant Matrix: (Units=GPa)
#
#
# Indices 1 2 3 4 5 6 
#
# 1 107.0960 24.0624 60.0450 0.0000 -12.6222 0.0000
# 2 24.0624 42.4692 23.5688 0.0000 2.0332 0.0000
# 3 60.0450 23.5688 118.9835 0.0000 -2.7179 0.0000
# 4 0.0000 0.0000 0.0000 24.4094 0.0000 5.1258
# 5 -12.6222 2.0332 -2.7179 0.0000 30.7853 0.0000
# 6 0.0000 0.0000 0.0000 5.1258 0.0000 21.5102
#
#
#
# Elastic Compliance Matrix: (Units=1/GPa)
#
#
# Indices 1 2 3 4 5 6 
#
# 1 0.014684 -0.005122 -0.006263 0.000000 0.005806 0.000000
# 2 -0.005122 0.028393 -0.003137 0.000000 -0.004252 0.000000
# 3 -0.006263 -0.003137 0.012157 0.000000 -0.001287 0.000000
# 4 0.000000 0.000000 0.000000 0.043126 0.000000 -0.010277
# 5 0.005806 -0.004252 -0.001287 0.000000 0.035031 0.000000
# 6 0.000000 0.000000 0.000000 -0.010277 0.000000 0.048939
#
#
# Mechanical properties :
#
#
# Convention : Reuss Voigt Hill
#
# Bulk Modulus (GPa) = 38.18143 53.76678 45.97411
# Shear Modulus (GPa) = 22.71676 26.06583 24.39129
#
# Velocity S-wave (km/s) = 3.43299 3.67735 3.55727
# Velocity P-wave (km/s) = 5.96006 6.77677 6.38149
#
# Compressibility (1/GPa) = 0.02619074
#
# Stress axis : x y z
#
# Youngs Moduli (GPa) = 68.10155 35.22036 82.25673
#
# Poissons Ratio (x) = 0.18040 0.51518
# Poissons Ratio (y) = 0.34881 0.25800
# Poissons Ratio (z) = 0.42652 0.11047
#
# Static dielectric constant tensor:
#      x y z
#    x 3.775270 0.000000 0.084320 
#    y 0.000000 3.509120 0.000000 
#    z 0.084320 0.000000 4.704840 
# 
# 
# High freq. dielectric constant tensor:
#      x y z
#    x 1.761180 0.000000 -0.010340 
#    y 0.000000 1.706890 0.000000 
#    z -0.010340 0.000000 1.763160 
# 
# From -- ./inp_files/327345.got.cif
#   From: 2010.06.25/outbox.cif.g09.slc.cpg/sg12_164_cif.got.tgz:327345.got - 2010.06.28 00:19:55.
