data_PCOD8098831
_publ_section_title
;
Structure prediction by ZEFSAII (Michael W. Deem and Ramdas Pophale) SiO2 
 PCOD8098831
Probable space group: C 2/M
;
_chemical_formula_sum "Si O2"
_cell_formula_units_Z 48
_cell_length_a 30.609168
_cell_length_b 14.719022
_cell_length_c 5.169493
_cell_angle_alpha 90.000000
_cell_angle_beta 87.818955
_cell_angle_gamma 90.000000
_cell_volume 2327.360705
_symmetry_space_group_name_H-M "C 2/M"
_symmetry_group_IT_number 12
_symmetry_cell_setting 'monoclinic'
loop_
_space_group_symop_operation_xyz
x,y,z
-x,y,-z
-x,-y,-z
x,-y,z
1/2+x,1/2+y,z
1/2-x,1/2+y,-z
1/2-x,1/2-y,-z
1/2+x,1/2-y,z
loop_
_atom_site_type_symbol
_atom_site_label
_atom_site_fract_x
_atom_site_fract_y
_atom_site_fract_z
Si Si1 0.331194 0.845821 0.951120
Si Si2 0.624627 0.097504 0.542113
Si Si3 0.736246 0.393733 0.047418
Si Si4 0.681431 0.395000 0.562588
Si Si5 0.610666 0.278820 0.338563
Si Si6 0.471783 0.604773 0.757690
O O1 0.352728 0.896744 0.186370
O O2 0.337540 0.904559 0.687002
O O3 0.279692 0.832365 0.010795
O O4 0.355687 0.748707 0.900178
O O5 0.593883 0.185486 0.487287
O O6 0.599180 0.000000 0.537452
O O7 0.749033 0.500000 0.024533
O O8 0.702776 0.366915 0.828417
O O9 0.715023 0.370864 0.326997
O O10 0.668045 0.500000 0.558899
O O11 0.636511 0.339407 0.541642
O O12 0.570753 0.332892 0.225692
O O13 0.500000 0.626646 0.500000
O O14 0.456839 0.500000 0.767571
O O15 0.500000 0.630310 0.000000
#
# Coordination Sequence:
#
# PCOD8098831 Si02
#       6
#     8   8   8   8   8   8
#     4  10  22  35  59  80 115 159 202 246 286 334
#     4  10  21  37  57  84 113 155 202 244 292 338
#     4  10  20  35  53  79 117 163 206 242 288 341
#     4  10  22  36  55  81 120 161 194 247 301 344
#     4  10  25  38  63  90 120 149 201 245 298 352
#     4  10  23  43  70  97 123 154 187 233 296 366
#
# _framework density 20.624219
#
# number of rings (size 3 to 8) (size 9 to 14) (size 15 to 20)
#    1.000    1.000    0.000    3.000    4.667    2.667 
#    0.000    5.000    0.000    1.000    0.000    0.000 
#    0.000    0.000    0.000    0.000    0.000    0.000 
#
# Total GULP energy -297438.581427 kJ/mol
# GULP energy per Si atom -12393.274226 kJ/mol
# Density = 2.057728 g / cm^3
# Si number density = 20.624219 Si / 1000 Ang^3
#
#
#
# Elastic Constant Matrix: (Units=GPa)
#
#
# Indices 1 2 3 4 5 6 
#
# 1 82.7643 64.4657 13.5485 0.0000 18.4260 0.0000
# 2 64.4657 119.3495 26.6706 0.0000 13.4843 0.0000
# 3 13.5485 26.6706 107.3188 0.0000 1.5146 0.0000
# 4 0.0000 0.0000 0.0000 147.6870 0.0000 80.0325
# 5 18.4260 13.4843 1.5146 0.0000 19.6249 0.0000
# 6 0.0000 0.0000 0.0000 80.0325 0.0000 67.4922
#
#
#
# Elastic Compliance Matrix: (Units=1/GPa)
#
#
# Indices 1 2 3 4 5 6 
#
# 1 0.024340 -0.011451 -0.000016 0.000000 -0.014984 0.000000
# 2 -0.011451 0.015006 -0.002292 0.000000 0.000617 0.000000
# 3 -0.000016 -0.002292 0.009878 0.000000 0.000828 0.000000
# 4 0.000000 0.000000 0.000000 0.018945 0.000000 -0.022465
# 5 -0.014984 0.000617 0.000828 0.000000 0.064537 0.000000
# 6 0.000000 0.000000 0.000000 -0.022465 0.000000 0.041456
#
#
# Mechanical properties :
#
#
# Convention : Reuss Voigt Hill
#
# Bulk Modulus (GPa) = 46.06842 57.64469 51.85656
# Shear Modulus (GPa) = 23.93320 60.61066 42.27193
#
# Velocity S-wave (km/s) = 3.41022 5.42696 4.53219
# Velocity P-wave (km/s) = 6.15562 8.20243 7.25161
#
# Compressibility (1/GPa) = 0.02170684
#
# Stress axis : x y z
#
# Youngs Moduli (GPa) = 41.08465 66.63879 101.23460
#
# Poissons Ratio (x) = 0.76306 0.00159
# Poissons Ratio (y) = 0.47044 0.23208
# Poissons Ratio (z) = 0.00064 0.15277
#
# Static dielectric constant tensor:
#      x y z
#    x 3.203300 0.000000 -0.011510 
#    y 0.000000 3.927660 0.000000 
#    z -0.011510 0.000000 3.817010 
# 
# 
# High freq. dielectric constant tensor:
#      x y z
#    x 1.753390 0.000000 0.001460 
#    y 0.000000 1.818500 0.000000 
#    z 0.001460 0.000000 1.824390 
# 
# From -- ./inp_files/31293.got.cif
#   From: 2010.06.25/outbox.cif.g09.slc.cpg/sg12_16_cif.got.tgz:31293.got - 2010.06.28 00:19:55.
