data_PCOD8098025
_publ_section_title
;
Structure prediction by ZEFSAII (Michael W. Deem and Ramdas Pophale) SiO2 
 PCOD8098025
Probable space group: C 2/M
;
_chemical_formula_sum "Si O2"
_cell_formula_units_Z 56
_cell_length_a 17.851434
_cell_length_b 14.202428
_cell_length_c 17.093149
_cell_angle_alpha 90.000000
_cell_angle_beta 40.675919
_cell_angle_gamma 90.000000
_cell_volume 2824.610821
_symmetry_space_group_name_H-M "C 2/M"
_symmetry_group_IT_number 12
_symmetry_cell_setting 'monoclinic'
loop_
_space_group_symop_operation_xyz
x,y,z
-x,y,-z
-x,-y,-z
x,-y,z
1/2+x,1/2+y,z
1/2-x,1/2+y,-z
1/2-x,1/2-y,-z
1/2+x,1/2-y,z
loop_
_atom_site_type_symbol
_atom_site_label
_atom_site_fract_x
_atom_site_fract_y
_atom_site_fract_z
Si Si1 0.409148 0.389448 0.431678
Si Si2 0.369587 0.105613 0.628582
Si Si3 0.751916 0.283841 0.323314
Si Si4 0.305224 0.349979 0.949099
Si Si5 0.464594 0.733155 0.248452
Si Si6 0.886798 0.603091 0.792122
Si Si7 0.828087 0.105279 0.753520
O O1 0.391658 0.500000 0.426368
O O2 0.317642 0.356818 0.568057
O O3 0.388872 0.325760 0.370652
O O4 0.537195 0.369951 0.362651
O O5 0.500000 0.111012 0.500000
O O6 0.299269 0.178697 0.631422
O O7 0.357422 0.136884 0.728251
O O8 0.320735 0.000000 0.653937
O O9 0.883915 0.275882 0.245320
O O10 0.747538 0.323765 0.238597
O O11 0.440950 0.339640 0.862222
O O12 0.289972 0.388544 0.873646
O O13 0.250000 0.250000 0.000000
O O14 0.234010 0.412971 0.066193
O O15 0.528265 0.821403 0.237703
O O16 0.947660 0.500000 0.741357
O O17 0.804876 0.000000 0.741708
#
# Coordination Sequence:
#
# PCOD8098025 Si02
#       7
#     8   8   8   8   8   8   8
#     4  10  21  37  57  80 111 155 197 228 271 338
#     4  10  21  37  58  82 110 147 190 234 277 331
#     4  12  21  34  55  83 118 147 179 231 291 344
#     4   9  18  37  58  76 104 146 193 232 270 329
#     4  10  22  36  55  84 115 145 182 236 291 336
#     4  10  20  38  62  82 105 147 197 233 271 334
#     4  10  20  34  55  82 111 147 190 234 280 334
#
# _framework density 19.82574
#
# number of rings (size 3 to 8) (size 9 to 14) (size 15 to 20)
#    0.000    1.857    0.000    6.000    0.000    3.429 
#    0.000    7.857    0.000    6.000    0.000    0.000 
#    0.000    0.000    0.000    0.000    0.000    0.000 
#
# Total GULP energy -347118.331855 kJ/mol
# GULP energy per Si atom -12397.083281 kJ/mol
# Density = 1.978062 g / cm^3
# Si number density = 19.825740 Si / 1000 Ang^3
#
#
#
# Elastic Constant Matrix: (Units=GPa)
#
#
# Indices 1 2 3 4 5 6 
#
# 1 90.1564 43.6544 39.9472 0.0000 -3.8502 0.0000
# 2 43.6544 108.7550 16.3174 0.0000 -7.4555 0.0000
# 3 39.9472 16.3174 99.5792 0.0000 14.1013 0.0000
# 4 0.0000 0.0000 0.0000 21.3225 0.0000 0.5793
# 5 -3.8502 -7.4555 14.1013 0.0000 17.2740 0.0000
# 6 0.0000 0.0000 0.0000 0.5793 0.0000 6.2133
#
#
#
# Elastic Compliance Matrix: (Units=1/GPa)
#
#
# Indices 1 2 3 4 5 6 
#
# 1 0.017074 -0.005307 -0.007004 0.000000 0.007233 0.000000
# 2 -0.005307 0.011666 -0.000371 0.000000 0.004155 0.000000
# 3 -0.007004 -0.000371 0.014876 0.000000 -0.013865 0.000000
# 4 0.000000 0.000000 0.000000 0.047018 0.000000 -0.004384
# 5 0.007233 0.004155 -0.013865 0.000000 0.072615 0.000000
# 6 0.000000 0.000000 0.000000 -0.004384 0.000000 0.161354
#
#
# Mechanical properties :
#
#
# Convention : Reuss Voigt Hill
#
# Bulk Modulus (GPa) = 54.78856 55.36987 55.07921
# Shear Modulus (GPa) = 14.04299 22.20006 18.12153
#
# Velocity S-wave (km/s) = 2.66432 3.34991 3.02659
# Velocity P-wave (km/s) = 6.09589 6.55374 6.32895
#
# Compressibility (1/GPa) = 0.01825199
#
# Stress axis : x y z
#
# Youngs Moduli (GPa) = 58.57001 85.72199 67.22145
#
# Poissons Ratio (x) = 0.45490 0.47081
# Poissons Ratio (y) = 0.31081 0.02495
# Poissons Ratio (z) = 0.41022 0.03181
#
# Static dielectric constant tensor:
#      x y z
#    x 3.346990 0.000000 0.083560 
#    y 0.000000 3.987410 0.000000 
#    z 0.083560 0.000000 4.099130 
# 
# 
# High freq. dielectric constant tensor:
#      x y z
#    x 1.741230 0.000000 0.013770 
#    y 0.000000 1.796250 0.000000 
#    z 0.013770 0.000000 1.770110 
# 
# From -- ./inp_files/277798.got.cif
#   From: 2010.06.25/outbox.cif.g09.slc.cpg/sg12_139_cif.got.tgz:277798.got - 2010.06.28 00:19:55.
