data_PCOD8098652
_publ_section_title
;
Structure prediction by ZEFSAII (Michael W. Deem and Ramdas Pophale) SiO2 
 PCOD8098652
Probable space group: C 2/M
;
_chemical_formula_sum "Si O2"
_cell_formula_units_Z 44
_cell_length_a 8.854002
_cell_length_b 10.480881
_cell_length_c 24.036892
_cell_angle_alpha 90.000000
_cell_angle_beta 112.452434
_cell_angle_gamma 90.000000
_cell_volume 2061.485245
_symmetry_space_group_name_H-M "C 2/M"
_symmetry_group_IT_number 12
_symmetry_cell_setting 'monoclinic'
loop_
_space_group_symop_operation_xyz
x,y,z
-x,y,-z
-x,-y,-z
x,-y,z
1/2+x,1/2+y,z
1/2-x,1/2+y,-z
1/2-x,1/2-y,-z
1/2+x,1/2-y,z
loop_
_atom_site_type_symbol
_atom_site_label
_atom_site_fract_x
_atom_site_fract_y
_atom_site_fract_z
Si Si1 0.030612 0.359108 0.206101
Si Si2 0.217677 0.000000 0.584694
Si Si3 0.832492 0.000000 0.547635
Si Si4 0.188858 0.787705 0.369756
Si Si5 0.686395 0.141310 0.920636
Si Si6 0.642167 0.224373 0.713854
Si Si7 0.000000 0.286603 0.000000
O O1 0.071707 0.500000 0.190825
O O2 0.923705 0.289294 0.142592
O O3 0.929317 0.369407 0.249433
O O4 0.203444 0.293009 0.237717
O O5 0.254727 0.000000 0.524164
O O6 0.292248 0.132600 0.619953
O O7 0.026224 0.000000 0.569181
O O8 0.772123 0.129301 0.570087
O O9 0.305318 0.841412 0.336921
O O10 0.004569 0.820152 0.324017
O O11 0.862397 0.204494 0.950109
O O12 0.723821 0.000000 0.904632
O O13 0.590195 0.131568 0.965593
#
# Coordination Sequence:
#
# PCOD8098652 Si02
#       7
#     8   4   4   8   8   8   4
#     4  10  22  39  59  83 120 157 199 250 298 356
#     4  11  24  45  63  95 129 159 197 260 309 365
#     4  11  24  43  67  93 125 163 201 252 311 365
#     4  11  23  41  67  91 123 161 208 251 308 371
#     4  10  20  36  57  86 116 157 197 242 302 348
#     4  10  23  37  60  85 117 155 202 247 300 352
#     4  10  20  34  60  84 122 148 198 244 290 362
#
# _framework density 21.343834000000001
#
# number of rings (size 3 to 8) (size 9 to 14) (size 15 to 20)
#    0.000    1.636    1.818    2.182    7.636    0.000 
#    0.000    0.909    0.000   10.909    0.000    0.000 
#    0.000    0.000    0.000    0.000    0.000    0.000 
#
# Total GULP energy -272564.497013 kJ/mol
# GULP energy per Si atom -12389.295319 kJ/mol
# Density = 2.129525 g / cm^3
# Si number density = 21.343834 Si / 1000 Ang^3
#
#
#
# Elastic Constant Matrix: (Units=GPa)
#
#
# Indices 1 2 3 4 5 6 
#
# 1 85.2548 2.2396 15.6068 0.0000 9.2942 0.0000
# 2 2.2396 78.1953 12.1667 0.0000 8.2829 0.0000
# 3 15.6068 12.1667 104.6270 0.0000 6.6675 0.0000
# 4 0.0000 0.0000 0.0000 24.5517 0.0000 0.9836
# 5 9.2942 8.2829 6.6675 0.0000 37.7978 0.0000
# 6 0.0000 0.0000 0.0000 0.9836 0.0000 22.2087
#
#
#
# Elastic Compliance Matrix: (Units=1/GPa)
#
#
# Indices 1 2 3 4 5 6 
#
# 1 0.012336 0.000204 -0.001687 0.000000 -0.002780 0.000000
# 2 0.000204 0.013288 -0.001403 0.000000 -0.002715 0.000000
# 3 -0.001687 -0.001403 0.010039 0.000000 -0.001049 0.000000
# 4 0.000000 0.000000 0.000000 0.040803 0.000000 -0.001807
# 5 -0.002780 -0.002715 -0.001049 0.000000 0.027920 0.000000
# 6 0.000000 0.000000 0.000000 -0.001807 0.000000 0.045107
#
#
# Mechanical properties :
#
#
# Convention : Reuss Voigt Hill
#
# Bulk Modulus (GPa) = 33.45313 36.45590 34.95452
# Shear Modulus (GPa) = 30.26092 32.78258 31.52175
#
# Velocity S-wave (km/s) = 3.76943 3.92334 3.84716
# Velocity P-wave (km/s) = 5.88662 6.13522 6.01220
#
# Compressibility (1/GPa) = 0.02989257
#
# Stress axis : x y z
#
# Youngs Moduli (GPa) = 81.06317 75.25333 99.60858
#
# Poissons Ratio (x) = -0.01532 0.16800
# Poissons Ratio (y) = -0.01651 0.13972
# Poissons Ratio (z) = 0.13672 0.10555
#
# Static dielectric constant tensor:
#      x y z
#    x 4.001090 0.000000 -0.058190 
#    y 0.000000 3.455250 0.000000 
#    z -0.058190 0.000000 4.162760 
# 
# 
# High freq. dielectric constant tensor:
#      x y z
#    x 1.849050 0.000000 -0.001310 
#    y 0.000000 1.803930 0.000000 
#    z -0.001310 0.000000 1.857630 
# 
# From -- ./inp_files/332331.got.cif
#   From: 2010.06.25/outbox.cif.g09.slc.cpg/sg12_167_cif.got.tgz:332331.got - 2010.06.28 00:19:55.
