data_PCOD8098394
_publ_section_title
;
Structure prediction by ZEFSAII (Michael W. Deem and Ramdas Pophale) SiO2 
 PCOD8098394
Probable space group: C 2/M
;
_chemical_formula_sum "Si O2"
_cell_formula_units_Z 64
_cell_length_a 22.258478
_cell_length_b 24.287003
_cell_length_c 12.089874
_cell_angle_alpha 90.000000
_cell_angle_beta 30.764704
_cell_angle_gamma 90.000000
_cell_volume 3343.092314
_symmetry_space_group_name_H-M "C 2/M"
_symmetry_group_IT_number 12
_symmetry_cell_setting 'monoclinic'
loop_
_space_group_symop_operation_xyz
x,y,z
-x,y,-z
-x,-y,-z
x,-y,z
1/2+x,1/2+y,z
1/2-x,1/2+y,-z
1/2-x,1/2-y,-z
1/2+x,1/2-y,z
loop_
_atom_site_type_symbol
_atom_site_label
_atom_site_fract_x
_atom_site_fract_y
_atom_site_fract_z
Si Si1 0.247754 0.329666 0.451599
Si Si2 0.381623 0.331461 0.007988
Si Si3 0.324663 0.060295 0.506691
Si Si4 0.105182 0.768901 0.611577
Si Si5 0.123234 0.227284 0.328078
Si Si6 0.048644 0.438711 0.301571
Si Si7 0.201019 0.332617 0.097390
Si Si8 0.430065 0.441553 0.997183
O O1 0.195674 0.391172 0.549949
O O2 0.136804 0.288487 0.620821
O O3 0.324522 0.317615 0.438275
O O4 0.328604 0.323222 0.214182
O O5 0.465528 0.280283 0.843210
O O6 0.282025 0.340270 0.075740
O O7 0.460992 0.387558 0.877254
O O8 0.440370 0.075340 0.392903
O O9 0.210897 0.059258 0.765140
O O10 0.338428 0.000000 0.427502
O O11 0.147013 0.763967 0.419431
O O12 0.111088 0.284930 0.278523
O O13 0.000000 0.196399 0.500000
O O14 0.227731 0.189129 0.120521
O O15 0.101518 0.500000 0.188965
O O16 0.143048 0.389441 0.147494
O O17 0.000000 0.440939 0.500000
O O18 0.464167 0.500000 0.885139
O O19 0.500000 0.437199 0.000000
#
# Coordination Sequence:
#
# PCOD8098394 Si02
#       8
#     8   8   8   8   8   8   8   8
#     4  10  21  35  55  84 115 145 180 230 283 341
#     4  11  19  34  54  81 112 145 179 231 278 335
#     4   9  18  33  54  80 112 145 180 229 284 337
#     4  11  22  36  54  80 117 149 187 227 280 333
#     4  11  23  39  55  81 112 152 196 233 274 340
#     4  10  20  34  56  87 116 144 186 240 294 341
#     4  11  23  35  59  81 111 151 191 235 286 336
#     4   9  17  29  49  79 111 142 175 216 274 335
#
# _framework density 19.143953
#
# number of rings (size 3 to 8) (size 9 to 14) (size 15 to 20)
#    0.000    1.750    2.500    3.750    1.750    1.500 
#    0.000    0.000    0.000    1.875    0.000    1.750 
#    0.000    0.000    0.000    0.000    0.000    0.000 
#
# Total GULP energy -396475.843480 kJ/mol
# GULP energy per Si atom -12389.870109 kJ/mol
# Density = 1.910038 g / cm^3
# Si number density = 19.143953 Si / 1000 Ang^3
#
#
#
# Elastic Constant Matrix: (Units=GPa)
#
#
# Indices 1 2 3 4 5 6 
#
# 1 77.8386 28.8666 30.2226 -0.0003 -12.1130 0.0001
# 2 28.8666 132.1687 42.0583 -0.0014 -14.7364 0.0006
# 3 30.2226 42.0583 70.0967 -0.0007 -13.7194 0.0008
# 4 -0.0003 -0.0014 -0.0007 15.1700 0.0011 -7.4220
# 5 -12.1130 -14.7364 -13.7194 0.0011 24.8118 -0.0006
# 6 0.0001 0.0006 0.0008 -7.4220 -0.0006 33.1598
#
#
#
# Elastic Compliance Matrix: (Units=1/GPa)
#
#
# Indices 1 2 3 4 5 6 
#
# 1 0.016047 -0.001362 -0.005301 0.000000 0.004095 0.000000
# 2 -0.001362 0.009637 -0.004716 0.000001 0.002452 0.000000
# 3 -0.005301 -0.004716 0.020550 0.000000 0.005975 0.000000
# 4 0.000000 0.000001 0.000000 0.074026 -0.000003 0.016569
# 5 0.004095 0.002452 0.005975 -0.000003 0.047062 0.000000
# 6 0.000000 0.000000 0.000000 0.016569 0.000000 0.033865
#
#
# Mechanical properties :
#
#
# Convention : Reuss Voigt Hill
#
# Bulk Modulus (GPa) = 42.59054 53.59990 48.09522
# Shear Modulus (GPa) = 21.57310 26.55875 24.06593
#
# Velocity S-wave (km/s) = 3.36056 3.72871 3.54941
# Velocity P-wave (km/s) = 6.11176 6.82619 6.47883
#
# Compressibility (1/GPa) = 0.02347940
#
# Stress axis : x y z
#
# Youngs Moduli (GPa) = 62.31583 103.76234 48.66172
#
# Poissons Ratio (x) = 0.14128 0.25793
# Poissons Ratio (y) = 0.08485 0.22947
# Poissons Ratio (z) = 0.33031 0.48930
#
# Static dielectric constant tensor:
#      x y z
#    x 3.296350 -0.000010 -0.143150 
#    y -0.000010 4.219890 0.000010 
#    z -0.143150 0.000010 3.197940 
# 
# 
# High freq. dielectric constant tensor:
#      x y z
#    x 1.745380 0.000000 -0.035930 
#    y 0.000000 1.759440 0.000000 
#    z -0.035930 0.000000 1.704930 
# 
# From -- ./inp_files/170579.got.cif
#   From: 2010.06.25/outbox.cif.g09.slc.cpg/sg12_86_cif.got.tgz:170579.got - 2010.06.28 00:19:55.
