data_PCOD8098444
_publ_section_title
;
Structure prediction by ZEFSAII (Michael W. Deem and Ramdas Pophale) SiO2 
 PCOD8098444
Probable space group: C 2/M
;
_chemical_formula_sum "Si O2"
_cell_formula_units_Z 56
_cell_length_a 23.165601
_cell_length_b 9.111998
_cell_length_c 14.426605
_cell_angle_alpha 90.000000
_cell_angle_beta 91.398010
_cell_angle_gamma 90.000000
_cell_volume 3044.332165
_symmetry_space_group_name_H-M "C 2/M"
_symmetry_group_IT_number 12
_symmetry_cell_setting 'monoclinic'
loop_
_space_group_symop_operation_xyz
x,y,z
-x,y,-z
-x,-y,-z
x,-y,z
1/2+x,1/2+y,z
1/2-x,1/2+y,-z
1/2-x,1/2-y,-z
1/2+x,1/2-y,z
loop_
_atom_site_type_symbol
_atom_site_label
_atom_site_fract_x
_atom_site_fract_y
_atom_site_fract_z
Si Si1 0.913834 0.825775 0.331270
Si Si2 0.301822 0.169236 0.271441
Si Si3 0.866624 0.662050 0.817110
Si Si4 0.028003 0.327912 0.296130
Si Si5 0.789881 0.337967 0.631936
Si Si6 0.897297 0.671616 0.522704
Si Si7 0.273938 0.331183 0.912347
O O1 0.859916 0.763182 0.271692
O O2 0.913853 0.768868 0.436111
O O3 0.971020 0.768907 0.282048
O O4 0.912039 0.000000 0.329778
O O5 0.261546 0.222139 0.355402
O O6 0.270131 0.195749 0.173227
O O7 0.316731 0.000000 0.289495
O O8 0.868967 0.500000 0.862738
O O9 0.930742 0.713163 0.789416
O O10 0.829532 0.654202 0.723218
O O11 0.837762 0.772179 0.889313
O O12 0.012704 0.500000 0.293899
O O13 0.058730 0.286933 0.393935
O O14 0.763353 0.500000 0.612786
O O15 0.831173 0.290094 0.548637
O O16 0.902604 0.500000 0.497626
O O17 0.280616 0.500000 0.937431
O O18 0.250000 0.250000 0.000000
#
# Coordination Sequence:
#
# PCOD8098444 Si02
#       7
#     8   8   8   8   8   8   8
#     4  12  24  33  46  70 101 138 175 215 256 289
#     4  10  21  36  52  72 100 134 168 201 247 305
#     4   8  15  30  53  78 102 129 162 201 246 295
#     4   9  18  34  54  73  98 136 176 211 249 294
#     4   8  15  30  51  73  97 127 165 209 253 295
#     4   9  18  33  52  72  97 133 175 215 254 296
#     4  10  20  34  57  85 107 128 156 196 246 300
#
# _framework density 18.394839000000001
#
# number of rings (size 3 to 8) (size 9 to 14) (size 15 to 20)
#    0.000    2.571    0.000    4.286    0.000    5.714 
#    0.000    2.857    0.000    0.857    0.000    6.000 
#    0.000    0.000    0.000    0.000    0.000    0.000 
#
# Total GULP energy -347148.019210 kJ/mol
# GULP energy per Si atom -12398.143543 kJ/mol
# Density = 1.835297 g / cm^3
# Si number density = 18.394839 Si / 1000 Ang^3
#
#
#
# Elastic Constant Matrix: (Units=GPa)
#
#
# Indices 1 2 3 4 5 6 
#
# 1 133.9879 81.4035 44.8192 0.0000 -26.4158 0.0000
# 2 81.4035 129.9581 40.5205 0.0000 -21.2828 0.0000
# 3 44.8192 40.5205 37.1313 0.0000 -25.5103 0.0000
# 4 0.0000 0.0000 0.0000 26.3911 0.0000 -6.4755
# 5 -26.4158 -21.2828 -25.5103 0.0000 26.7620 0.0000
# 6 0.0000 0.0000 0.0000 -6.4755 0.0000 34.3608
#
#
#
# Elastic Compliance Matrix: (Units=1/GPa)
#
#
# Indices 1 2 3 4 5 6 
#
# 1 0.014889 -0.005396 -0.014298 0.000000 -0.003225 0.000000
# 2 -0.005396 0.014288 -0.014291 0.000000 -0.007586 0.000000
# 3 -0.014298 -0.014291 0.122517 0.000000 0.091308 0.000000
# 4 0.000000 0.000000 0.000000 0.039729 0.000000 0.007487
# 5 -0.003225 -0.007586 0.091308 0.000000 0.115188 0.000000
# 6 0.000000 0.000000 0.000000 0.007487 0.000000 0.030514
#
#
# Mechanical properties :
#
#
# Convention : Reuss Voigt Hill
#
# Bulk Modulus (GPa) = 11.94410 70.50707 41.22558
# Shear Modulus (GPa) = 11.54728 26.45839 19.00283
#
# Velocity S-wave (km/s) = 2.50820 3.79669 3.21760
# Velocity P-wave (km/s) = 3.85945 7.59163 6.02197
#
# Compressibility (1/GPa) = 0.08372338
#
# Stress axis : x y z
#
# Youngs Moduli (GPa) = 67.16497 69.98740 8.16214
#
# Poissons Ratio (x) = 0.37765 0.11671
# Poissons Ratio (y) = 0.36242 0.11664
# Poissons Ratio (z) = 0.96035 1.00018
#
# Static dielectric constant tensor:
#      x y z
#    x 3.594340 0.000000 -0.242180 
#    y 0.000000 3.448230 0.000000 
#    z -0.242180 0.000000 3.126380 
# 
# 
# High freq. dielectric constant tensor:
#      x y z
#    x 1.716750 0.000000 -0.020120 
#    y 0.000000 1.712150 0.000000 
#    z -0.020120 0.000000 1.681320 
# 
# From -- ./inp_files/230876.got.cif
#   From: 2010.06.25/outbox.cif.g09.slc.cpg/sg12_116_cif.got.tgz:230876.got - 2010.06.28 00:19:55.
