data_PCOD8098238
_publ_section_title
;
Structure prediction by ZEFSAII (Michael W. Deem and Ramdas Pophale) SiO2 
 PCOD8098238
Probable space group: C 2/M
;
_chemical_formula_sum "Si O2"
_cell_formula_units_Z 64
_cell_length_a 24.668269
_cell_length_b 11.772166
_cell_length_c 11.762766
_cell_angle_alpha 90.000000
_cell_angle_beta 85.414054
_cell_angle_gamma 90.000000
_cell_volume 3404.959067
_symmetry_space_group_name_H-M "C 2/M"
_symmetry_group_IT_number 12
_symmetry_cell_setting 'monoclinic'
loop_
_space_group_symop_operation_xyz
x,y,z
-x,y,-z
-x,-y,-z
x,-y,z
1/2+x,1/2+y,z
1/2-x,1/2+y,-z
1/2-x,1/2-y,-z
1/2+x,1/2-y,z
loop_
_atom_site_type_symbol
_atom_site_label
_atom_site_fract_x
_atom_site_fract_y
_atom_site_fract_z
Si Si1 0.566798 0.696489 0.740196
Si Si2 0.737757 0.127859 0.296414
Si Si3 0.552303 0.870018 0.554523
Si Si4 0.630229 0.240570 0.375998
Si Si5 0.553571 0.371768 0.220211
Si Si6 0.401836 0.370207 0.026494
Si Si7 0.776411 0.869844 0.038008
Si Si8 0.666057 0.373505 0.578627
O O1 0.561906 0.817104 0.677328
O O2 0.509802 0.631445 0.738645
O O3 0.613381 0.627629 0.667873
O O4 0.582957 0.711263 0.870016
O O5 0.680943 0.193305 0.297296
O O6 0.768211 0.129210 0.172556
O O7 0.780932 0.189234 0.375483
O O8 0.723454 0.000000 0.335431
O O9 0.500000 0.815064 0.500000
O O10 0.603716 0.854237 0.462546
O O11 0.541474 0.000000 0.581627
O O12 0.586483 0.287834 0.295667
O O13 0.652636 0.337432 0.454092
O O14 0.575247 0.500000 0.233925
O O15 0.561809 0.334052 0.087812
O O16 0.414710 0.500000 0.061271
O O17 0.339690 0.356903 0.999047
O O18 0.757442 0.000000 0.995857
O O19 0.750000 0.750000 0.000000
O O20 0.686785 0.500000 0.567217
#
# Coordination Sequence:
#
# PCOD8098238 Si02
#       8
#     8   8   8   8   8   8   8   8
#     4  11  20  36  59  84 110 151 191 231 281 346
#     4  10  20  36  57  80 108 150 196 234 282 348
#     4  10  21  39  58  78 109 150 192 235 284 339
#     4  11  21  35  55  85 113 148 186 236 283 338
#     4  11  22  34  54  88 120 147 184 229 284 343
#     4  10  20  36  58  82 117 155 187 230 289 347
#     4  10  20  37  60  84 114 156 197 241 292 349
#     4  10  20  34  56  82 115 149 184 234 287 342
#
# _framework density 18.796115
#
# number of rings (size 3 to 8) (size 9 to 14) (size 15 to 20)
#    0.000    1.625    2.500    3.375    0.000    1.000 
#    0.000    3.125    0.000    3.750    0.000    0.000 
#    0.000    0.000    0.000    0.000    0.000    0.000 
#
# Total GULP energy -396501.652963 kJ/mol
# GULP energy per Si atom -12390.676655 kJ/mol
# Density = 1.875333 g / cm^3
# Si number density = 18.796115 Si / 1000 Ang^3
#
#
#
# Elastic Constant Matrix: (Units=GPa)
#
#
# Indices 1 2 3 4 5 6 
#
# 1 89.5404 28.6535 15.4533 0.0000 1.3753 0.0000
# 2 28.6535 78.5559 34.1208 0.0000 11.7027 0.0000
# 3 15.4533 34.1208 82.6410 0.0000 7.2053 0.0000
# 4 0.0000 0.0000 0.0000 11.8751 0.0000 5.2852
# 5 1.3753 11.7027 7.2053 0.0000 35.8197 0.0000
# 6 0.0000 0.0000 0.0000 5.2852 0.0000 23.7716
#
#
#
# Elastic Compliance Matrix: (Units=1/GPa)
#
#
# Indices 1 2 3 4 5 6 
#
# 1 0.012708 -0.004541 -0.000598 0.000000 0.001116 0.000000
# 2 -0.004541 0.017674 -0.006066 0.000000 -0.004380 0.000000
# 3 -0.000598 -0.006066 0.014802 0.000000 -0.000973 0.000000
# 4 0.000000 0.000000 0.000000 0.093457 0.000000 -0.020778
# 5 0.001116 -0.004380 -0.000973 0.000000 0.029501 0.000000
# 6 0.000000 0.000000 0.000000 -0.020778 0.000000 0.046687
#
#
# Mechanical properties :
#
#
# Convention : Reuss Voigt Hill
#
# Bulk Modulus (GPa) = 43.91545 45.24362 44.57954
# Shear Modulus (GPa) = 20.42231 25.79394 23.10812
#
# Velocity S-wave (km/s) = 3.29981 3.70848 3.51010
# Velocity P-wave (km/s) = 6.15899 6.51614 6.34008
#
# Compressibility (1/GPa) = 0.02277103
#
# Stress axis : x y z
#
# Youngs Moduli (GPa) = 78.69313 56.58185 67.55946
#
# Poissons Ratio (x) = 0.25697 0.04043
# Poissons Ratio (y) = 0.35738 0.40981
# Poissons Ratio (z) = 0.04710 0.34322
#
# Static dielectric constant tensor:
#      x y z
#    x 3.619600 0.000000 -0.008380 
#    y 0.000000 3.410390 0.000000 
#    z -0.008380 0.000000 3.443900 
# 
# 
# High freq. dielectric constant tensor:
#      x y z
#    x 1.743520 0.000000 -0.007850 
#    y 0.000000 1.706060 0.000000 
#    z -0.007850 0.000000 1.731930 
# 
# From -- ./inp_files/174599.got.cif
#   From: 2010.06.25/outbox.cif.g09.slc.cpg/sg12_88_cif.got.tgz:174599.got - 2010.06.28 00:19:55.
