data_PCOD8098633
_publ_section_title
;
Structure prediction by ZEFSAII (Michael W. Deem and Ramdas Pophale) SiO2 
 PCOD8098633
Probable space group: C 2/M
;
_chemical_formula_sum "Si O2"
_cell_formula_units_Z 56
_cell_length_a 22.164310
_cell_length_b 14.380833
_cell_length_c 20.553486
_cell_angle_alpha 90.000000
_cell_angle_beta 26.123635
_cell_angle_gamma 90.000000
_cell_volume 2884.575307
_symmetry_space_group_name_H-M "C 2/M"
_symmetry_group_IT_number 12
_symmetry_cell_setting 'monoclinic'
loop_
_space_group_symop_operation_xyz
x,y,z
-x,y,-z
-x,-y,-z
x,-y,z
1/2+x,1/2+y,z
1/2-x,1/2+y,-z
1/2-x,1/2-y,-z
1/2+x,1/2-y,z
loop_
_atom_site_type_symbol
_atom_site_label
_atom_site_fract_x
_atom_site_fract_y
_atom_site_fract_z
Si Si1 0.604182 0.607483 0.302578
Si Si2 0.560829 0.394530 0.132275
Si Si3 0.149504 0.732497 0.355960
Si Si4 0.655472 0.285290 0.492326
Si Si5 0.699369 0.106840 0.006088
Si Si6 0.126661 0.105418 0.918497
Si Si7 0.073939 0.284910 0.700602
O O1 0.594433 0.500000 0.331701
O O2 0.637609 0.665056 0.335273
O O3 0.459898 0.636949 0.409521
O O4 0.727761 0.625758 0.133045
O O5 0.520656 0.500000 0.192089
O O6 0.437922 0.325393 0.270625
O O7 0.699088 0.362123 0.034736
O O8 0.589059 0.387814 0.029429
O O9 0.200981 0.738079 0.380400
O O10 0.243463 0.668374 0.221188
O O11 0.000000 0.685373 0.500000
O O12 0.793495 0.327720 0.391053
O O13 0.594115 0.208857 0.602722
O O14 0.560372 0.164163 0.144426
O O15 0.658594 0.000000 0.053740
O O16 0.160469 0.000000 0.864720
O O17 0.000000 0.144853 0.000000
#
# Coordination Sequence:
#
# PCOD8098633 Si02
#       7
#     8   8   8   8   8   8   8
#     4  10  21  40  62  85 113 150 194 240 284 337
#     4  10  20  34  59  84 106 143 190 234 283 334
#     4  10  22  37  56  83 115 150 192 227 278 343
#     4  10  23  36  54  85 115 151 190 222 287 345
#     4  10  21  36  58  86 110 144 194 237 281 334
#     4  10  21  37  58  83 111 147 189 234 285 336
#     4  11  21  37  59  83 116 149 184 238 285 329
#
# _framework density 19.413602999999998
#
# number of rings (size 3 to 8) (size 9 to 14) (size 15 to 20)
#    0.000    1.857    1.429    2.143    4.000    3.429 
#    0.000    2.857    0.000    3.000    0.000    0.000 
#    0.000    0.000    0.000    0.000    0.000    0.000 
#
# Total GULP energy -347181.759181 kJ/mol
# GULP energy per Si atom -12399.348542 kJ/mol
# Density = 1.936942 g / cm^3
# Si number density = 19.413603 Si / 1000 Ang^3
#
#
#
# Elastic Constant Matrix: (Units=GPa)
#
#
# Indices 1 2 3 4 5 6 
#
# 1 108.8643 30.4002 38.1235 -0.0003 6.9970 0.0006
# 2 30.4002 72.2324 39.4569 -0.0002 -7.9166 0.0012
# 3 38.1235 39.4569 84.2373 -0.0004 -8.9772 0.0012
# 4 -0.0003 -0.0002 -0.0004 11.5513 0.0006 -4.6114
# 5 6.9970 -7.9166 -8.9772 0.0006 30.4704 -0.0011
# 6 0.0006 0.0012 0.0012 -4.6114 -0.0011 14.2243
#
#
#
# Elastic Compliance Matrix: (Units=1/GPa)
#
#
# Indices 1 2 3 4 5 6 
#
# 1 0.011930 -0.003120 -0.004456 0.000000 -0.004863 0.000000
# 2 -0.003120 0.019583 -0.007374 0.000000 0.003632 -0.000001
# 3 -0.004456 -0.007374 0.017806 0.000000 0.004353 0.000000
# 4 0.000000 0.000000 0.000000 0.099440 -0.000001 0.032238
# 5 -0.004863 0.003632 0.004353 -0.000001 0.036162 0.000002
# 6 0.000000 -0.000001 0.000000 0.032238 0.000002 0.080753
#
#
# Mechanical properties :
#
#
# Convention : Reuss Voigt Hill
#
# Bulk Modulus (GPa) = 51.49447 53.47724 52.48586
# Shear Modulus (GPa) = 16.55374 21.73943 19.14658
#
# Velocity S-wave (km/s) = 2.92325 3.34998 3.14386
# Velocity P-wave (km/s) = 6.16250 6.52451 6.34608
#
# Compressibility (1/GPa) = 0.01941956
#
# Stress axis : x y z
#
# Youngs Moduli (GPa) = 83.82228 51.06416 56.16144
#
# Poissons Ratio (x) = 0.15931 0.25026
# Poissons Ratio (y) = 0.26150 0.41413
# Poissons Ratio (z) = 0.37352 0.37654
#
# Static dielectric constant tensor:
#      x y z
#    x 3.644490 0.000000 0.078250 
#    y 0.000000 3.495190 0.000000 
#    z 0.078250 0.000000 3.596750 
# 
# 
# High freq. dielectric constant tensor:
#      x y z
#    x 1.764270 0.000000 0.010490 
#    y 0.000000 1.736800 0.000000 
#    z 0.010490 0.000000 1.766810 
# 
# From -- ./inp_files/284523.got.cif
#   From: 2010.06.25/outbox.cif.g09.slc.cpg/sg12_143_cif.got.tgz:284523.got - 2010.06.28 00:19:55.
