data_PCOD8098894
_publ_section_title
;
Structure prediction by ZEFSAII (Michael W. Deem and Ramdas Pophale) SiO2 
 PCOD8098894
Probable space group: C 2/M
;
_chemical_formula_sum "Si O2"
_cell_formula_units_Z 56
_cell_length_a 15.096467
_cell_length_b 9.167500
_cell_length_c 28.649762
_cell_angle_alpha 90.000000
_cell_angle_beta 48.860071
_cell_angle_gamma 90.000000
_cell_volume 2986.089647
_symmetry_space_group_name_H-M "C 2/M"
_symmetry_group_IT_number 12
_symmetry_cell_setting 'monoclinic'
loop_
_space_group_symop_operation_xyz
x,y,z
-x,y,-z
-x,-y,-z
x,-y,z
1/2+x,1/2+y,z
1/2-x,1/2+y,-z
1/2-x,1/2-y,-z
1/2+x,1/2-y,z
loop_
_atom_site_type_symbol
_atom_site_label
_atom_site_fract_x
_atom_site_fract_y
_atom_site_fract_z
Si Si1 0.873072 0.835594 0.064459
Si Si2 0.537370 0.327060 0.271189
Si Si3 0.295644 0.328947 0.938769
Si Si4 0.479057 0.671358 0.190622
Si Si5 0.388676 0.671324 0.506078
Si Si6 0.224246 0.165014 0.802774
Si Si7 0.854191 0.171214 0.411228
O O1 0.787181 0.712123 0.075414
O O2 0.866508 0.821664 0.122547
O O3 0.836539 0.000000 0.061538
O O4 0.000000 0.799025 0.000000
O O5 0.537946 0.500000 0.270798
O O6 0.492998 0.260544 0.237322
O O7 0.669134 0.275225 0.233321
O O8 0.452553 0.270045 0.341478
O O9 0.294043 0.500000 0.948881
O O10 0.424178 0.269375 0.879586
O O11 0.250000 0.250000 0.000000
O O12 0.500338 0.500000 0.186960
O O13 0.349479 0.708746 0.217447
O O14 0.500000 0.724612 0.500000
O O15 0.371149 0.500000 0.520250
O O16 0.267378 0.751064 0.561669
O O17 0.405174 0.707968 0.445242
O O18 0.272727 0.000000 0.782666
O O19 0.830698 0.000000 0.414395
#
# Coordination Sequence:
#
# PCOD8098894 Si02
#       7
#     8   8   8   8   8   8   8
#     4  10  20  35  54  76 105 137 175 225 278 332
#     4  10  20  37  56  77 110 144 181 225 272 320
#     4  11  21  35  55  77 104 137 177 222 277 334
#     4   9  19  36  55  74 103 142 174 214 273 330
#     4   9  18  34  55  80 113 147 181 222 269 317
#     4  10  20  35  55  77 103 138 180 219 268 329
#     4   9  19  34  54  80 109 146 184 223 267 316
#
# _framework density 18.753623000000001
#
# number of rings (size 3 to 8) (size 9 to 14) (size 15 to 20)
#    0.000    2.286    1.429    1.286    0.000    4.571 
#    0.000    3.571    0.000    0.000    0.000    0.000 
#    0.000    0.000    0.000    0.000    0.000    0.000 
#
# Total GULP energy -347061.527974 kJ/mol
# GULP energy per Si atom -12395.054570 kJ/mol
# Density = 1.871094 g / cm^3
# Si number density = 18.753623 Si / 1000 Ang^3
#
#
#
# Elastic Constant Matrix: (Units=GPa)
#
#
# Indices 1 2 3 4 5 6 
#
# 1 129.6457 23.1874 59.1553 0.0000 0.3066 0.0001
# 2 23.1874 30.1120 27.1206 0.0001 0.1484 0.0003
# 3 59.1553 27.1206 137.9365 0.0000 -1.6385 0.0000
# 4 0.0000 0.0001 0.0000 24.8462 0.0000 -4.8450
# 5 0.3066 0.1484 -1.6385 0.0000 23.8118 0.0000
# 6 0.0001 0.0003 0.0000 -4.8450 0.0000 30.7187
#
#
#
# Elastic Compliance Matrix: (Units=1/GPa)
#
#
# Indices 1 2 3 4 5 6 
#
# 1 0.010115 -0.004711 -0.003416 0.000000 -0.000336 0.000000
# 2 -0.004711 0.042565 -0.006356 0.000000 -0.000642 0.000000
# 3 -0.003416 -0.006356 0.009973 0.000000 0.000770 0.000000
# 4 0.000000 0.000000 0.000000 0.041525 0.000000 0.006549
# 5 -0.000336 -0.000642 0.000770 0.000000 0.042057 0.000000
# 6 0.000000 0.000000 0.000000 0.006549 0.000000 0.033586
#
#
# Mechanical properties :
#
#
# Convention : Reuss Voigt Hill
#
# Bulk Modulus (GPa) = 29.68450 57.40234 43.54342
# Shear Modulus (GPa) = 22.72547 28.42406 25.57477
#
# Velocity S-wave (km/s) = 3.48486 3.89737 3.69687
# Velocity P-wave (km/s) = 5.66174 7.13637 6.44139
#
# Compressibility (1/GPa) = 0.03368761
#
# Stress axis : x y z
#
# Youngs Moduli (GPa) = 98.86060 23.49352 100.26610
#
# Poissons Ratio (x) = 0.11068 0.34248
# Poissons Ratio (y) = 0.46574 0.63731
# Poissons Ratio (z) = 0.33768 0.14933
#
# Static dielectric constant tensor:
#      x y z
#    x -1.589010 0.000000 -4.502150 
#    y 0.000000 3.569630 0.000000 
#    z -4.502150 0.000000 -0.615720 
# 
# 
# High freq. dielectric constant tensor:
#      x y z
#    x 1.733510 0.000000 0.005270 
#    y 0.000000 1.706270 0.000000 
#    z 0.005270 0.000000 1.732060 
# 
# From -- ./inp_files/337902.got.cif
#   From: 2010.06.25/outbox.cif.g09.slc.cpg/sg12_169_cif.got.tgz:337902.got - 2010.06.28 00:19:55.
