data_PCOD8098826
_publ_section_title
;
Structure prediction by ZEFSAII (Michael W. Deem and Ramdas Pophale) SiO2 
 PCOD8098826
Probable space group: C 2/M
;
_chemical_formula_sum "Si O2"
_cell_formula_units_Z 56
_cell_length_a 17.505687
_cell_length_b 11.186232
_cell_length_c 18.058183
_cell_angle_alpha 90.000000
_cell_angle_beta 127.102883
_cell_angle_gamma 90.000000
_cell_volume 2820.310327
_symmetry_space_group_name_H-M "C 2/M"
_symmetry_group_IT_number 12
_symmetry_cell_setting 'monoclinic'
loop_
_space_group_symop_operation_xyz
x,y,z
-x,y,-z
-x,-y,-z
x,-y,z
1/2+x,1/2+y,z
1/2-x,1/2+y,-z
1/2-x,1/2-y,-z
1/2+x,1/2-y,z
loop_
_atom_site_type_symbol
_atom_site_label
_atom_site_fract_x
_atom_site_fract_y
_atom_site_fract_z
Si Si1 0.925936 0.364107 0.894157
Si Si2 0.128394 0.125065 0.931350
Si Si3 0.955291 0.768093 0.758480
Si Si4 0.106221 0.359694 0.755060
Si Si5 0.598975 0.140364 0.586653
Si Si6 0.733667 0.356536 0.429995
Si Si7 0.273893 0.794280 0.911035
O O1 0.951834 0.500000 0.889543
O O2 0.923348 0.291211 0.816824
O O3 0.818107 0.355459 0.864352
O O4 0.000000 0.316140 0.000000
O O5 0.222674 0.111356 0.934417
O O6 0.035982 0.135453 0.824865
O O7 0.119273 0.000000 0.970035
O O8 0.136675 0.234136 0.993106
O O9 0.868543 0.836085 0.667930
O O10 0.003061 0.672709 0.730281
O O11 0.116738 0.500000 0.762487
O O12 0.115505 0.305923 0.677850
O O13 0.195475 0.308193 0.851823
O O14 0.500000 0.198247 0.500000
O O15 0.685745 0.171186 0.583397
O O16 0.585436 0.000000 0.586759
O O17 0.740013 0.500000 0.460160
O O18 0.750000 0.250000 0.500000
#
# Coordination Sequence:
#
# PCOD8098826 Si02
#       7
#     8   8   8   8   8   8   8
#     4  11  22  37  56  83 122 163 207 260 317 375
#     4  10  20  35  54  76 108 151 198 249 304 361
#     4  11  22  38  59  88 122 159 205 254 315 374
#     4  10  20  35  59  87 117 157 209 258 301 366
#     4   9  18  35  59  86 116 154 200 252 304 362
#     4  11  24  42  67  96 130 163 203 259 319 380
#     4  10  20  35  53  79 110 153 204 249 303 361
#
# _framework density 19.855971
#
# number of rings (size 3 to 8) (size 9 to 14) (size 15 to 20)
#    0.000    1.714    1.429    3.429    0.000    2.286 
#    0.000    2.857    0.000    4.714    0.000    0.000 
#    0.000    0.000    0.000    0.000    0.000    0.000 
#
# Total GULP energy -346903.254056 kJ/mol
# GULP energy per Si atom -12389.401931 kJ/mol
# Density = 1.981078 g / cm^3
# Si number density = 19.855971 Si / 1000 Ang^3
#
#
#
# Elastic Constant Matrix: (Units=GPa)
#
#
# Indices 1 2 3 4 5 6 
#
# 1 100.0878 19.5848 27.5052 0.0000 -6.8546 0.0000
# 2 19.5848 81.2729 33.5024 0.0000 -2.6107 0.0000
# 3 27.5052 33.5024 100.3013 0.0000 6.5326 0.0000
# 4 0.0000 0.0000 0.0000 18.0816 0.0000 -5.8792
# 5 -6.8546 -2.6107 6.5326 0.0000 41.3836 0.0000
# 6 0.0000 0.0000 0.0000 -5.8792 0.0000 22.9304
#
#
#
# Elastic Compliance Matrix: (Units=1/GPa)
#
#
# Indices 1 2 3 4 5 6 
#
# 1 0.011179 -0.001509 -0.002704 0.000000 0.002183 0.000000
# 2 -0.001509 0.014588 -0.004549 0.000000 0.001388 0.000000
# 3 -0.002704 -0.004549 0.012406 0.000000 -0.002693 0.000000
# 4 0.000000 0.000000 0.000000 0.060335 0.000000 0.015470
# 5 0.002183 0.001388 -0.002693 0.000000 0.025038 0.000000
# 6 0.000000 0.000000 0.000000 0.015470 0.000000 0.047577
#
#
# Mechanical properties :
#
#
# Convention : Reuss Voigt Hill
#
# Bulk Modulus (GPa) = 48.42845 49.20521 48.81683
# Shear Modulus (GPa) = 25.57153 29.88376 27.72764
#
# Velocity S-wave (km/s) = 3.59256 3.88368 3.74095
# Velocity P-wave (km/s) = 6.45379 6.70414 6.58015
#
# Compressibility (1/GPa) = 0.02064902
#
# Stress axis : x y z
#
# Youngs Moduli (GPa) = 89.45295 68.55064 80.60439
#
# Poissons Ratio (x) = 0.10346 0.21793
# Poissons Ratio (y) = 0.13501 0.36668
# Poissons Ratio (z) = 0.24185 0.31185
#
# Static dielectric constant tensor:
#      x y z
#    x 3.755780 0.000000 -0.050520 
#    y 0.000000 3.433260 0.000000 
#    z -0.050520 0.000000 3.723780 
# 
# 
# High freq. dielectric constant tensor:
#      x y z
#    x 1.787740 0.000000 0.004240 
#    y 0.000000 1.757440 0.000000 
#    z 0.004240 0.000000 1.772180 
# 
# From -- ./inp_files/277076.got.cif
#   From: 2010.06.25/outbox.cif.g09.slc.cpg/sg12_139_cif.got.tgz:277076.got - 2010.06.28 00:19:55.
