data_PCOD8098510
_publ_section_title
;
Structure prediction by ZEFSAII (Michael W. Deem and Ramdas Pophale) SiO2 
 PCOD8098510
Probable space group: C 2/M
;
_chemical_formula_sum "Si O2"
_cell_formula_units_Z 56
_cell_length_a 14.785055
_cell_length_b 8.848964
_cell_length_c 22.755720
_cell_angle_alpha 90.000000
_cell_angle_beta 108.908925
_cell_angle_gamma 90.000000
_cell_volume 2816.521740
_symmetry_space_group_name_H-M "C 2/M"
_symmetry_group_IT_number 12
_symmetry_cell_setting 'monoclinic'
loop_
_space_group_symop_operation_xyz
x,y,z
-x,y,-z
-x,-y,-z
x,-y,z
1/2+x,1/2+y,z
1/2-x,1/2+y,-z
1/2-x,1/2-y,-z
1/2+x,1/2-y,z
loop_
_atom_site_type_symbol
_atom_site_label
_atom_site_fract_x
_atom_site_fract_y
_atom_site_fract_z
Si Si1 0.331441 0.822135 0.943058
Si Si2 0.107028 0.165997 0.499727
Si Si3 0.981926 0.179081 0.636494
Si Si4 0.620613 0.677631 0.929987
Si Si5 0.937871 0.324554 0.849393
Si Si6 0.331513 0.822870 0.377751
Si Si7 0.640027 0.176465 0.294028
O O1 0.221279 0.769325 0.923447
O O2 0.372236 0.767392 0.889311
O O3 0.340887 0.000000 0.952869
O O4 0.392770 0.746722 0.007911
O O5 0.166879 0.282742 0.552090
O O6 0.000000 0.154741 0.500000
O O7 0.098555 0.218252 0.430058
O O8 0.155286 0.000000 0.514431
O O9 0.086588 0.233787 0.639741
O O10 0.951569 0.267617 0.688450
O O11 0.986474 0.000000 0.648660
O O12 0.614747 0.500000 0.934039
O O13 0.537575 0.735539 0.869703
O O14 0.962277 0.500000 0.860746
O O15 0.880723 0.290390 0.778177
O O16 0.230805 0.775781 0.330107
O O17 0.347593 0.000000 0.373614
O O18 0.659289 0.000000 0.309883
#
# Coordination Sequence:
#
# PCOD8098510 Si02
#       7
#     8   8   8   8   8   8   8
#     4   9  19  37  58  81 112 147 180 218 272 331
#     4   8  16  33  57  83 110 143 184 231 285 341
#     4  10  21  39  61  84 113 148 187 235 289 342
#     4  10  20  34  57  88 114 140 180 228 274 322
#     4  10  22  39  57  78 109 150 188 224 272 329
#     4  11  22  37  59  86 115 148 187 234 288 341
#     4  11  24  40  57  81 113 152 198 238 279 336
#
# _framework density 19.882679
#
# number of rings (size 3 to 8) (size 9 to 14) (size 15 to 20)
#    0.000    2.143    0.000    3.857    0.000    8.857 
#    0.000    1.429    0.000    0.000    0.000    0.000 
#    0.000    0.000    0.000    0.000    0.000    0.000 
#
# Total GULP energy -347247.229120 kJ/mol
# GULP energy per Si atom -12401.686754 kJ/mol
# Density = 1.983743 g / cm^3
# Si number density = 19.882679 Si / 1000 Ang^3
#
#
#
# Elastic Constant Matrix: (Units=GPa)
#
#
# Indices 1 2 3 4 5 6 
#
# 1 53.1589 18.0742 18.6289 0.0000 -0.1263 0.0000
# 2 18.0742 62.2723 32.8570 0.0000 1.6599 0.0000
# 3 18.6289 32.8570 73.7245 0.0000 -0.9051 0.0000
# 4 0.0000 0.0000 0.0000 30.7506 0.0000 4.6939
# 5 -0.1263 1.6599 -0.9051 0.0000 30.2555 0.0000
# 6 0.0000 0.0000 0.0000 4.6939 0.0000 31.4589
#
#
#
# Elastic Compliance Matrix: (Units=1/GPa)
#
#
# Indices 1 2 3 4 5 6 
#
# 1 0.021532 -0.004427 -0.003465 0.000000 0.000229 0.000000
# 2 -0.004427 0.021968 -0.008690 0.000000 -0.001484 0.000000
# 3 -0.003465 -0.008690 0.018325 0.000000 0.001011 0.000000
# 4 0.000000 0.000000 0.000000 0.033278 0.000000 -0.004965
# 5 0.000229 -0.001484 0.001011 0.000000 0.033164 0.000000
# 6 0.000000 0.000000 0.000000 -0.004965 0.000000 0.032528
#
#
# Mechanical properties :
#
#
# Convention : Reuss Voigt Hill
#
# Bulk Modulus (GPa) = 34.89158 36.47510 35.68334
# Shear Modulus (GPa) = 24.56843 26.46603 25.51723
#
# Velocity S-wave (km/s) = 3.51902 3.65240 3.58633
# Velocity P-wave (km/s) = 5.83937 6.01429 5.92747
#
# Compressibility (1/GPa) = 0.02866021
#
# Stress axis : x y z
#
# Youngs Moduli (GPa) = 46.44342 45.52007 54.57063
#
# Poissons Ratio (x) = 0.20154 0.18907
# Poissons Ratio (y) = 0.20563 0.47423
# Poissons Ratio (z) = 0.16091 0.39558
#
# Static dielectric constant tensor:
#      x y z
#    x 3.638970 0.000000 -0.142150 
#    y 0.000000 3.568330 0.000000 
#    z -0.142150 0.000000 3.789900 
# 
# 
# High freq. dielectric constant tensor:
#      x y z
#    x 1.775170 0.000000 -0.001350 
#    y 0.000000 1.775760 0.000000 
#    z -0.001350 0.000000 1.772740 
# 
# From -- ./inp_files/339063.got.cif
#   From: 2010.06.25/outbox.cif.g09.slc.cpg/sg12_170_cif.got.tgz:339063.got - 2010.06.28 00:19:55.
