data_PCOD8098860
_publ_section_title
;
Structure prediction by ZEFSAII (Michael W. Deem and Ramdas Pophale) SiO2 
 PCOD8098860
Probable space group: C 2/M
;
_chemical_formula_sum "Si O2"
_cell_formula_units_Z 48
_cell_length_a 19.504017
_cell_length_b 9.023800
_cell_length_c 17.076529
_cell_angle_alpha 90.000000
_cell_angle_beta 119.209788
_cell_angle_gamma 90.000000
_cell_volume 2623.295008
_symmetry_space_group_name_H-M "C 2/M"
_symmetry_group_IT_number 12
_symmetry_cell_setting 'monoclinic'
loop_
_space_group_symop_operation_xyz
x,y,z
-x,y,-z
-x,-y,-z
x,-y,z
1/2+x,1/2+y,z
1/2-x,1/2+y,-z
1/2-x,1/2-y,-z
1/2+x,1/2-y,z
loop_
_atom_site_type_symbol
_atom_site_label
_atom_site_fract_x
_atom_site_fract_y
_atom_site_fract_z
Si Si1 0.029367 0.674428 0.747890
Si Si2 0.868183 0.663610 0.056715
Si Si3 0.296301 0.171372 0.411130
Si Si4 0.147593 0.329336 0.385399
Si Si5 0.768009 0.164590 0.891799
Si Si6 0.341668 0.675838 0.283030
O O1 0.044405 0.500000 0.741235
O O2 0.056017 0.717629 0.851305
O O3 0.079346 0.765079 0.712851
O O4 0.939145 0.718600 0.688537
O O5 0.882822 0.500000 0.030197
O O6 0.796042 0.659428 0.076206
O O7 0.849040 0.770522 0.973059
O O8 0.207138 0.227083 0.370622
O O9 0.344191 0.197205 0.517530
O O10 0.341475 0.266405 0.371506
O O11 0.294908 0.000000 0.385637
O O12 0.165066 0.500000 0.373953
O O13 0.736908 0.265997 0.803884
O O14 0.785190 0.000000 0.869133
O O15 0.341535 0.500000 0.280857
#
# Coordination Sequence:
#
# PCOD8098860 Si02
#       6
#     8   8   8   8   8   8
#     4   9  18  33  52  75 103 132 164 203 247 293
#     4   8  14  25  43  68  97 128 160 195 238 290
#     4  10  20  35  54  74  99 131 167 205 247 296
#     4   9  19  36  56  75  97 130 168 203 244 298
#     4   9  16  27  44  67  97 130 163 199 242 291
#     4  11  21  32  49  74 103 132 167 208 248 290
#
# _framework density 18.297599000000002
#
# number of rings (size 3 to 8) (size 9 to 14) (size 15 to 20)
#    0.000    2.667    0.000    3.500    0.000    6.000 
#    0.000    3.333    0.000    1.000    0.000    7.000 
#    0.000    0.000    0.000    0.000    0.000    0.000 
#
# Total GULP energy -297572.699020 kJ/mol
# GULP energy per Si atom -12398.862459 kJ/mol
# Density = 1.825595 g / cm^3
# Si number density = 18.297599 Si / 1000 Ang^3
#
#
#
# Elastic Constant Matrix: (Units=GPa)
#
#
# Indices 1 2 3 4 5 6 
#
# 1 32.4348 21.2653 24.6300 0.0000 21.4081 0.0000
# 2 21.2653 95.1268 22.8835 0.0000 12.9699 0.0000
# 3 24.6300 22.8835 73.8317 0.0000 36.6854 0.0000
# 4 0.0000 0.0000 0.0000 31.0608 0.0000 -1.4734
# 5 21.4081 12.9699 36.6854 0.0000 27.0495 0.0000
# 6 0.0000 0.0000 0.0000 -1.4734 0.0000 25.0123
#
#
#
# Elastic Compliance Matrix: (Units=1/GPa)
#
#
# Indices 1 2 3 4 5 6 
#
# 1 0.076609 -0.010450 0.016311 0.000000 -0.077742 0.000000
# 2 -0.010450 0.012822 -0.004730 0.000000 0.008538 0.000000
# 3 0.016311 -0.004730 0.045556 0.000000 -0.072425 0.000000
# 4 0.000000 0.000000 0.000000 0.032285 0.000000 0.001902
# 5 -0.077742 0.008538 -0.072425 0.000000 0.192628 0.000000
# 6 0.000000 0.000000 0.000000 0.001902 0.000000 0.040092
#
#
# Mechanical properties :
#
#
# Convention : Reuss Voigt Hill
#
# Bulk Modulus (GPa) = 7.28608 37.66119 22.47364
# Shear Modulus (GPa) = 11.27447 25.46548 18.36997
#
# Velocity S-wave (km/s) = 2.48497 3.73465 3.17196
# Velocity P-wave (km/s) = 3.49630 6.26291 5.07189
#
# Compressibility (1/GPa) = 0.13724793
#
# Stress axis : x y z
#
# Youngs Moduli (GPa) = 13.05336 77.99015 21.95122
#
# Poissons Ratio (x) = 0.81497 -0.35804
# Poissons Ratio (y) = 0.13640 0.10384
# Poissons Ratio (z) = -0.21291 0.36892
#
# Static dielectric constant tensor:
#      x y z
#    x 2.961190 0.000000 0.136630 
#    y 0.000000 3.490280 0.000000 
#    z 0.136630 0.000000 3.623930 
# 
# 
# High freq. dielectric constant tensor:
#      x y z
#    x 1.663890 0.000000 0.008160 
#    y 0.000000 1.713990 0.000000 
#    z 0.008160 0.000000 1.719580 
# 
# From -- ./inp_files/274059.got.cif
#   From: 2010.06.25/outbox.cif.g09.slc.cpg/sg12_138_cif.got.tgz:274059.got - 2010.06.28 00:19:55.
