data_PCOD8098464
_publ_section_title
;
Structure prediction by ZEFSAII (Michael W. Deem and Ramdas Pophale) SiO2 
 PCOD8098464
Probable space group: C 2/M
;
_chemical_formula_sum "Si O2"
_cell_formula_units_Z 56
_cell_length_a 28.298694
_cell_length_b 9.291409
_cell_length_c 11.872674
_cell_angle_alpha 90.000000
_cell_angle_beta 108.052148
_cell_angle_gamma 90.000000
_cell_volume 2968.070469
_symmetry_space_group_name_H-M "C 2/M"
_symmetry_group_IT_number 12
_symmetry_cell_setting 'monoclinic'
loop_
_space_group_symop_operation_xyz
x,y,z
-x,y,-z
-x,-y,-z
x,-y,z
1/2+x,1/2+y,z
1/2-x,1/2+y,-z
1/2-x,1/2-y,-z
1/2+x,1/2-y,z
loop_
_atom_site_type_symbol
_atom_site_label
_atom_site_fract_x
_atom_site_fract_y
_atom_site_fract_z
Si Si1 0.010670 0.168611 0.131361
Si Si2 0.941590 0.666898 0.464720
Si Si3 0.286945 0.330415 0.609964
Si Si4 0.926901 0.165406 0.234874
Si Si5 0.318609 0.336712 0.088279
Si Si6 0.755014 0.831328 0.831746
Si Si7 0.599679 0.668004 0.351975
O O1 0.066610 0.200926 0.215729
O O2 0.971892 0.231594 0.194410
O O3 0.999962 0.000000 0.114815
O O4 0.000000 0.237995 0.000000
O O5 0.926823 0.500000 0.454770
O O6 0.917314 0.742230 0.339139
O O7 0.920682 0.739075 0.560941
O O8 0.000000 0.691250 0.500000
O O9 0.279529 0.500000 0.589504
O O10 0.250000 0.250000 0.500000
O O11 0.273568 0.277507 0.724875
O O12 0.343846 0.286195 0.629555
O O13 0.877650 0.178606 0.123099
O O14 0.937589 0.000000 0.277616
O O15 0.302633 0.500000 0.100831
O O16 0.297013 0.243330 0.175304
O O17 0.296716 0.284281 0.952898
O O18 0.745745 0.000000 0.824043
O O19 0.595354 0.500000 0.380300
#
# Coordination Sequence:
#
# PCOD8098464 Si02
#       7
#     8   8   8   8   8   8   8
#     4   9  18  32  56  88 115 141 179 225 275 332
#     4  11  23  38  56  79 112 148 184 225 273 331
#     4  10  23  39  57  81 111 148 188 231 276 327
#     4  10  20  34  57  86 112 141 180 229 277 327
#     4   9  19  34  56  83 109 140 181 227 274 328
#     4   9  19  37  56  78 111 145 181 227 279 327
#     4  10  21  38  60  84 111 146 187 231 278 329
#
# _framework density 18.867474999999999
#
# number of rings (size 3 to 8) (size 9 to 14) (size 15 to 20)
#    0.000    2.286    1.429    0.429    4.000    2.286 
#    0.000    0.000    0.000    1.714    0.000    0.000 
#    0.000    0.000    0.000    0.000    0.000    0.000 
#
# Total GULP energy -347217.920991 kJ/mol
# GULP energy per Si atom -12400.640035 kJ/mol
# Density = 1.882453 g / cm^3
# Si number density = 18.867475 Si / 1000 Ang^3
#
#
#
# Elastic Constant Matrix: (Units=GPa)
#
#
# Indices 1 2 3 4 5 6 
#
# 1 127.5872 42.9836 69.1194 0.0000 -0.6413 0.0000
# 2 42.9836 51.4245 47.6715 0.0000 -5.6471 0.0000
# 3 69.1194 47.6715 137.0448 0.0000 -10.6378 0.0000
# 4 0.0000 0.0000 0.0000 20.2376 0.0000 1.7756
# 5 -0.6413 -5.6471 -10.6378 0.0000 35.4410 0.0000
# 6 0.0000 0.0000 0.0000 1.7756 0.0000 27.3063
#
#
#
# Elastic Compliance Matrix: (Units=1/GPa)
#
#
# Indices 1 2 3 4 5 6 
#
# 1 0.012276 -0.006788 -0.003990 0.000000 -0.002057 0.000000
# 2 -0.006788 0.032545 -0.007683 0.000000 0.002757 0.000000
# 3 -0.003990 -0.007683 0.012165 0.000000 0.002355 0.000000
# 4 0.000000 0.000000 0.000000 0.049696 0.000000 -0.003231
# 5 -0.002057 0.002757 0.002355 0.000000 0.029325 0.000000
# 6 0.000000 0.000000 0.000000 -0.003231 0.000000 0.036832
#
#
# Mechanical properties :
#
#
# Convention : Reuss Voigt Hill
#
# Bulk Modulus (GPa) = 49.84265 70.62284 60.23274
# Shear Modulus (GPa) = 23.10017 27.01579 25.05798
#
# Velocity S-wave (km/s) = 3.50285 3.78811 3.64827
# Velocity P-wave (km/s) = 6.54481 7.52631 7.05265
#
# Compressibility (1/GPa) = 0.02006314
#
# Stress axis : x y z
#
# Youngs Moduli (GPa) = 81.46154 30.72647 82.20567
#
# Poissons Ratio (x) = 0.20857 0.32798
# Poissons Ratio (y) = 0.55297 0.63162
# Poissons Ratio (z) = 0.32501 0.23608
#
# Static dielectric constant tensor:
#      x y z
#    x 3.609570 0.000000 -0.014480 
#    y 0.000000 3.275760 0.000000 
#    z -0.014480 0.000000 3.600150 
# 
# 
# High freq. dielectric constant tensor:
#      x y z
#    x 1.739140 0.000000 0.003120 
#    y 0.000000 1.707030 0.000000 
#    z 0.003120 0.000000 1.741510 
# 
# From -- ./inp_files/181094.got.cif
#   From: 2010.06.25/outbox.cif.g09.slc.cpg/sg12_91_cif.got.tgz:181094.got - 2010.06.28 00:19:55.
