data_PCOD8098133
_publ_section_title
;
Structure prediction by ZEFSAII (Michael W. Deem and Ramdas Pophale) SiO2 
 PCOD8098133
Probable space group: C 2/M
;
_chemical_formula_sum "Si O2"
_cell_formula_units_Z 64
_cell_length_a 30.025077
_cell_length_b 9.336888
_cell_length_c 14.767869
_cell_angle_alpha 90.000000
_cell_angle_beta 51.921176
_cell_angle_gamma 90.000000
_cell_volume 3258.883183
_symmetry_space_group_name_H-M "C 2/M"
_symmetry_group_IT_number 12
_symmetry_cell_setting 'monoclinic'
loop_
_space_group_symop_operation_xyz
x,y,z
-x,y,-z
-x,-y,-z
x,-y,z
1/2+x,1/2+y,z
1/2-x,1/2+y,-z
1/2-x,1/2-y,-z
1/2+x,1/2-y,z
loop_
_atom_site_type_symbol
_atom_site_label
_atom_site_fract_x
_atom_site_fract_y
_atom_site_fract_z
Si Si1 0.964864 0.836883 0.872745
Si Si2 0.706178 0.167029 0.113046
Si Si3 0.105048 0.843527 0.206684
Si Si4 0.867970 0.332594 0.493941
Si Si5 0.259461 0.831559 0.732110
Si Si6 0.921766 0.668983 0.236138
Si Si7 0.867807 0.168138 0.137569
Si Si8 0.941551 0.159362 0.540304
O O1 0.950464 0.812726 0.784582
O O2 0.015027 0.730455 0.835458
O O3 0.984780 0.000000 0.866736
O O4 0.907975 0.802179 0.000970
O O5 0.647073 0.211484 0.142033
O O6 0.712820 0.218529 0.208345
O O7 0.715115 0.000000 0.091328
O O8 0.750000 0.250000 0.000000
O O9 0.095866 0.853443 0.324298
O O10 0.129568 0.000000 0.143965
O O11 0.873850 0.500000 0.507362
O O12 0.803450 0.281501 0.597830
O O13 0.883228 0.295651 0.371756
O O14 0.913167 0.255522 0.500338
O O15 0.195777 0.770711 0.800547
O O16 0.253301 0.000000 0.738939
O O17 0.926751 0.500000 0.213589
O O18 0.891148 0.743001 0.191697
O O19 0.867136 0.000000 0.162700
O O20 0.000000 0.231422 0.500000
O O21 0.952527 0.000000 0.485535
#
# Coordination Sequence:
#
# PCOD8098133 Si02
#       8
#     8   8   8   8   8   8   8   8
#     4  10  21  39  62  86 116 154 196 239 288 355
#     4  11  21  35  57  83 116 154 192 233 282 338
#     4  10  20  35  56  85 117 147 188 233 279 337
#     4  10  21  39  59  82 116 155 194 236 286 351
#     4   9  19  38  61  83 112 152 195 237 285 347
#     4  11  24  39  58  86 118 150 190 247 303 346
#     4  10  21  39  63  85 108 149 200 243 290 351
#     4  10  20  34  55  84 117 151 188 235 283 330
#
# _framework density 19.638629000000002
#
# number of rings (size 3 to 8) (size 9 to 14) (size 15 to 20)
#    0.000    1.875    1.250    2.625    0.000    7.250 
#    0.000    3.125    0.000    0.000    0.000    0.000 
#    0.000    0.000    0.000    0.000    0.000    0.000 
#
# Total GULP energy -396645.576023 kJ/mol
# GULP energy per Si atom -12395.174251 kJ/mol
# Density = 1.959393 g / cm^3
# Si number density = 19.638629 Si / 1000 Ang^3
#
#
#
# Elastic Constant Matrix: (Units=GPa)
#
#
# Indices 1 2 3 4 5 6 
#
# 1 104.5679 47.0695 19.6435 0.0000 -6.6088 0.0000
# 2 47.0695 71.4389 36.1871 0.0000 0.7046 0.0001
# 3 19.6435 36.1871 75.7256 0.0000 -8.6946 0.0000
# 4 0.0000 0.0000 0.0000 27.5204 0.0000 0.7077
# 5 -6.6088 0.7046 -8.6946 0.0000 37.9636 0.0000
# 6 0.0000 0.0001 0.0000 0.7077 0.0000 34.9024
#
#
#
# Elastic Compliance Matrix: (Units=1/GPa)
#
#
# Indices 1 2 3 4 5 6 
#
# 1 0.013965 -0.009984 0.001488 0.000000 0.002957 0.000000
# 2 -0.009984 0.025827 -0.010277 0.000000 -0.004571 0.000000
# 3 0.001488 -0.010277 0.018263 0.000000 0.004632 0.000000
# 4 0.000000 0.000000 0.000000 0.036356 0.000000 -0.000737
# 5 0.002957 -0.004571 0.004632 0.000000 0.028002 0.000000
# 6 0.000000 0.000000 0.000000 -0.000737 0.000000 0.028666
#
#
# Mechanical properties :
#
#
# Convention : Reuss Voigt Hill
#
# Bulk Modulus (GPa) = 48.76021 50.83696 49.79859
# Shear Modulus (GPa) = 25.58077 29.99943 27.79010
#
# Velocity S-wave (km/s) = 3.61303 3.91266 3.76583
# Velocity P-wave (km/s) = 6.50292 6.80840 6.65741
#
# Compressibility (1/GPa) = 0.02050852
#
# Stress axis : x y z
#
# Youngs Moduli (GPa) = 71.60967 38.71918 54.75701
#
# Poissons Ratio (x) = 0.38657 -0.08148
# Poissons Ratio (y) = 0.71494 0.56274
# Poissons Ratio (z) = -0.10656 0.39792
#
# Static dielectric constant tensor:
#      x y z
#    x 3.481140 0.000000 -0.005090 
#    y 0.000000 3.482520 0.000000 
#    z -0.005090 0.000000 3.727530 
# 
# 
# High freq. dielectric constant tensor:
#      x y z
#    x 1.767300 0.000000 -0.002580 
#    y 0.000000 1.748410 0.000000 
#    z -0.002580 0.000000 1.776500 
# 
# From -- ./inp_files/249683.got.cif
#   From: 2010.06.25/outbox.cif.g09.slc.cpg/sg12_125_cif.got.tgz:249683.got - 2010.06.28 00:19:55.
