data_PCOD8098741
_publ_section_title
;
Structure prediction by ZEFSAII (Michael W. Deem and Ramdas Pophale) SiO2 
 PCOD8098741
Probable space group: C 2/M
;
_chemical_formula_sum "Si O2"
_cell_formula_units_Z 64
_cell_length_a 23.940230
_cell_length_b 9.000088
_cell_length_c 31.180109
_cell_angle_alpha 90.000000
_cell_angle_beta 29.892717
_cell_angle_gamma 90.000000
_cell_volume 3348.198270
_symmetry_space_group_name_H-M "C 2/M"
_symmetry_group_IT_number 12
_symmetry_cell_setting 'monoclinic'
loop_
_space_group_symop_operation_xyz
x,y,z
-x,y,-z
-x,-y,-z
x,-y,z
1/2+x,1/2+y,z
1/2-x,1/2+y,-z
1/2-x,1/2-y,-z
1/2+x,1/2-y,z
loop_
_atom_site_type_symbol
_atom_site_label
_atom_site_fract_x
_atom_site_fract_y
_atom_site_fract_z
Si Si1 0.646448 0.174156 0.592570
Si Si2 0.345781 0.826978 0.230291
Si Si3 0.758274 0.671553 0.380817
Si Si4 0.680931 0.174227 0.276589
Si Si5 0.405937 0.171852 0.917163
Si Si6 0.912438 0.176809 0.740415
Si Si7 0.324667 0.325394 0.890373
Si Si8 0.031746 0.673418 0.525158
O O1 0.750000 0.250000 0.500000
O O2 0.655333 0.200184 0.637898
O O3 0.532819 0.249417 0.651779
O O4 0.643887 0.000000 0.582555
O O5 0.310626 0.771756 0.301245
O O6 0.285573 0.729366 0.234619
O O7 0.477728 0.796857 0.136143
O O8 0.316141 0.000000 0.243640
O O9 0.727574 0.500000 0.397680
O O10 0.644482 0.755776 0.468103
O O11 0.676483 0.263751 0.235152
O O12 0.567279 0.212808 0.376906
O O13 0.694479 0.000000 0.258789
O O14 0.405255 0.257284 0.872627
O O15 0.394215 0.000000 0.913067
O O16 0.304222 0.224357 0.015522
O O17 0.863563 0.231945 0.818278
O O18 0.923409 0.000000 0.730083
O O19 0.337458 0.500000 0.884540
O O20 0.053463 0.500000 0.506385
O O21 0.000000 0.741528 0.500000
#
# Coordination Sequence:
#
# PCOD8098741 Si02
#       8
#     8   8   8   8   8   8   8   8
#     4  11  23  39  57  82 114 149 188 230 278 329
#     4  10  20  35  55  81 110 141 178 225 278 330
#     4  10  21  34  53  80 108 140 179 223 272 326
#     4  11  23  38  56  78 107 146 189 232 277 331
#     4   9  18  35  60  87 115 144 179 227 281 336
#     4  11  23  39  58  81 112 150 190 230 276 332
#     4   9  19  36  59  87 114 145 184 226 277 334
#     4  10  20  35  52  74 104 140 181 226 272 318
#
# _framework density 19.114757999999998
#
# number of rings (size 3 to 8) (size 9 to 14) (size 15 to 20)
#    0.000    1.875    1.250    2.625    0.000    6.750 
#    0.000    0.625    0.000    3.750    0.000    0.000 
#    0.000    0.000    0.000    0.000    0.000    0.000 
#
# Total GULP energy -396915.995356 kJ/mol
# GULP energy per Si atom -12403.624855 kJ/mol
# Density = 1.907125 g / cm^3
# Si number density = 19.114758 Si / 1000 Ang^3
#
#
#
# Elastic Constant Matrix: (Units=GPa)
#
#
# Indices 1 2 3 4 5 6 
#
# 1 109.2028 38.6371 45.7514 0.0250 4.0273 -0.1784
# 2 38.6371 53.2543 38.6232 0.0241 3.4236 -0.1124
# 3 45.7514 38.6232 89.4654 0.0032 1.4926 -0.0304
# 4 0.0250 0.0241 0.0032 22.9949 0.0078 -1.5179
# 5 4.0273 3.4236 1.4926 0.0078 31.8660 0.0360
# 6 -0.1784 -0.1124 -0.0304 -1.5179 0.0360 35.7689
#
#
#
# Elastic Compliance Matrix: (Units=1/GPa)
#
#
# Indices 1 2 3 4 5 6 
#
# 1 0.013167 -0.006740 -0.003811 -0.000004 -0.000761 0.000042
# 2 -0.006740 0.030970 -0.009890 -0.000019 -0.002012 0.000057
# 3 -0.003811 -0.009890 0.017384 0.000009 0.000730 -0.000036
# 4 -0.000004 -0.000019 0.000009 0.043610 -0.000011 0.001851
# 5 -0.000761 -0.002012 0.000730 -0.000011 0.031660 -0.000042
# 6 0.000042 0.000057 -0.000036 0.001851 -0.000042 0.028036
#
#
# Mechanical properties :
#
#
# Convention : Reuss Voigt Hill
#
# Bulk Modulus (GPa) = 48.45134 55.32732 51.88933
# Shear Modulus (GPa) = 23.51981 26.72001 25.11991
#
# Velocity S-wave (km/s) = 3.51159 3.74287 3.62907
# Velocity P-wave (km/s) = 6.46872 6.90554 6.69069
#
# Compressibility (1/GPa) = 0.02063926
#
# Stress axis : x y z
#
# Youngs Moduli (GPa) = 75.94976 32.28947 57.52512
#
# Poissons Ratio (x) = 0.21762 0.21922
# Poissons Ratio (y) = 0.51188 0.56892
# Poissons Ratio (z) = 0.28944 0.31934
#
# Static dielectric constant tensor:
#      x y z
#    x 3.570680 -0.000030 0.054500 
#    y -0.000030 3.429350 0.000010 
#    z 0.054500 0.000010 3.573290 
# 
# 
# High freq. dielectric constant tensor:
#      x y z
#    x 1.748310 -0.000010 -0.001010 
#    y -0.000010 1.740860 0.000000 
#    z -0.001010 0.000000 1.738710 
# 
# From -- ./inp_files/382288.got.cif
#   From: 2010.06.25/outbox.cif.g09.slc.cpg/sg12_192_cif.got.tgz:382288.got - 2010.06.28 00:19:55.
