data_PCOD8098372
_publ_section_title
;
Structure prediction by ZEFSAII (Michael W. Deem and Ramdas Pophale) SiO2 
 PCOD8098372
Probable space group: C 2/M
;
_chemical_formula_sum "Si O2"
_cell_formula_units_Z 56
_cell_length_a 15.847240
_cell_length_b 17.426749
_cell_length_c 19.993304
_cell_angle_alpha 90.000000
_cell_angle_beta 30.178084
_cell_angle_gamma 90.000000
_cell_volume 2775.583126
_symmetry_space_group_name_H-M "C 2/M"
_symmetry_group_IT_number 12
_symmetry_cell_setting 'monoclinic'
loop_
_space_group_symop_operation_xyz
x,y,z
-x,y,-z
-x,-y,-z
x,-y,z
1/2+x,1/2+y,z
1/2-x,1/2+y,-z
1/2-x,1/2-y,-z
1/2+x,1/2-y,z
loop_
_atom_site_type_symbol
_atom_site_label
_atom_site_fract_x
_atom_site_fract_y
_atom_site_fract_z
Si Si1 0.097120 0.410337 0.871177
Si Si2 0.470506 0.332330 0.842670
Si Si3 0.364802 0.589426 0.148619
Si Si4 0.653151 0.589207 0.597554
Si Si5 0.909953 0.654307 0.876493
Si Si6 0.039852 0.909404 0.400368
Si Si7 0.475303 0.088927 0.689629
O O1 0.110030 0.500000 0.875625
O O2 0.282849 0.374030 0.744511
O O3 0.008610 0.397644 0.861219
O O4 0.000000 0.370899 0.000000
O O5 0.598460 0.362314 0.810656
O O6 0.544908 0.357675 0.720526
O O7 0.455067 0.241725 0.860109
O O8 0.285673 0.367257 0.980474
O O9 0.375918 0.500000 0.159233
O O10 0.178880 0.612665 0.252094
O O11 0.500000 0.611619 0.000000
O O12 0.612830 0.500000 0.640653
O O13 0.601990 0.611008 0.556682
O O14 0.851699 0.606043 0.468389
O O15 0.969752 0.636806 0.761093
O O16 0.000000 0.872390 0.500000
O O17 0.057098 0.000000 0.397121
O O18 0.462514 0.000000 0.718400
#
# Coordination Sequence:
#
# PCOD8098372 Si02
#       7
#     8   8   8   8   8   8   8
#     4  10  20  34  56  86 115 146 192 246 291 340
#     4  11  24  39  57  86 122 161 198 245 305 358
#     4  10  20  38  64  91 117 154 206 256 302 352
#     4  10  21  38  63  91 120 154 195 252 305 349
#     4  11  23  39  58  86 119 162 202 240 297 365
#     4   9  17  32  54  82 114 146 181 224 284 349
#     4  10  21  39  66  92 115 153 204 254 300 359
#
# _framework density 20.175941000000002
#
# number of rings (size 3 to 8) (size 9 to 14) (size 15 to 20)
#    0.000    1.857    1.429    2.571    0.000    6.857 
#    2.571    2.143    3.143    0.000    0.000    0.000 
#    0.000    0.000    0.000    0.000    0.000    0.000 
#
# Total GULP energy -347258.599302 kJ/mol
# GULP energy per Si atom -12402.092832 kJ/mol
# Density = 2.013002 g / cm^3
# Si number density = 20.175941 Si / 1000 Ang^3
#
#
#
# Elastic Constant Matrix: (Units=GPa)
#
#
# Indices 1 2 3 4 5 6 
#
# 1 123.6145 21.7691 52.4507 0.0018 -5.9819 -0.0008
# 2 21.7691 24.6821 23.9751 0.0056 1.8074 -0.0009
# 3 52.4507 23.9751 137.4146 0.0037 -6.6646 -0.0028
# 4 0.0018 0.0056 0.0037 22.5889 0.0012 5.1656
# 5 -5.9819 1.8074 -6.6646 0.0012 39.3098 -0.0029
# 6 -0.0008 -0.0009 -0.0028 5.1656 -0.0029 9.5123
#
#
#
# Elastic Compliance Matrix: (Units=1/GPa)
#
#
# Indices 1 2 3 4 5 6 
#
# 1 0.010514 -0.006680 -0.002778 0.000001 0.001436 -0.000001
# 2 -0.006680 0.053571 -0.007023 -0.000013 -0.004670 0.000008
# 3 -0.002778 -0.007023 0.009637 0.000000 0.001534 0.000003
# 4 0.000001 -0.000013 0.000000 0.050547 -0.000003 -0.027449
# 5 0.001436 -0.004670 0.001534 -0.000003 0.026132 0.000010
# 6 -0.000001 0.000008 0.000003 -0.027449 0.000010 0.120034
#
#
# Mechanical properties :
#
#
# Convention : Reuss Voigt Hill
#
# Bulk Modulus (GPa) = 24.53405 53.56678 39.05041
# Shear Modulus (GPa) = 15.77359 26.78327 21.27843
#
# Velocity S-wave (km/s) = 2.79911 3.64742 3.25105
# Velocity P-wave (km/s) = 4.75743 6.65926 5.78700
#
# Compressibility (1/GPa) = 0.04075968
#
# Stress axis : x y z
#
# Youngs Moduli (GPa) = 95.10814 18.66674 103.76167
#
# Poissons Ratio (x) = 0.12469 0.28827
# Poissons Ratio (y) = 0.63533 0.72877
# Poissons Ratio (z) = 0.26423 0.13111
#
# Static dielectric constant tensor:
#      x y z
#    x 3.693480 0.000000 -0.128940 
#    y 0.000000 3.305600 0.000040 
#    z -0.128940 0.000040 3.927500 
# 
# 
# High freq. dielectric constant tensor:
#      x y z
#    x 1.797870 0.000000 -0.006190 
#    y 0.000000 1.753770 0.000000 
#    z -0.006190 0.000000 1.800930 
# 
# From -- ./inp_files/272354.got.cif
#   From: 2010.06.25/outbox.cif.g09.slc.cpg/sg12_137_cif.got.tgz:272354.got - 2010.06.28 00:19:55.
