data_PCOD8098488
_publ_section_title
;
Structure prediction by ZEFSAII (Michael W. Deem and Ramdas Pophale) SiO2 
 PCOD8098488
Probable space group: C 2/M
;
_chemical_formula_sum "Si O2"
_cell_formula_units_Z 64
_cell_length_a 18.772749
_cell_length_b 8.692457
_cell_length_c 20.991248
_cell_angle_alpha 90.000000
_cell_angle_beta 72.856065
_cell_angle_gamma 90.000000
_cell_volume 3273.180429
_symmetry_space_group_name_H-M "C 2/M"
_symmetry_group_IT_number 12
_symmetry_cell_setting 'monoclinic'
loop_
_space_group_symop_operation_xyz
x,y,z
-x,y,-z
-x,-y,-z
x,-y,z
1/2+x,1/2+y,z
1/2-x,1/2+y,-z
1/2-x,1/2-y,-z
1/2+x,1/2-y,z
loop_
_atom_site_type_symbol
_atom_site_label
_atom_site_fract_x
_atom_site_fract_y
_atom_site_fract_z
Si Si1 0.394036 0.820773 0.805722
Si Si2 0.564061 0.822537 0.771508
Si Si3 0.869543 0.181175 0.371366
Si Si4 0.197606 0.824563 0.270673
Si Si5 0.830150 0.821532 0.165714
Si Si6 0.761706 0.320085 0.928507
Si Si7 0.070833 0.318598 0.522685
Si Si8 0.207743 0.822406 0.414887
O O1 0.477736 0.785294 0.803516
O O2 0.377616 0.723603 0.746233
O O3 0.339727 0.764321 0.876988
O O4 0.380286 0.000000 0.794579
O O5 0.600772 0.722491 0.706315
O O6 0.599595 0.778526 0.830229
O O7 0.579032 0.000000 0.751271
O O8 0.929876 0.239328 0.407474
O O9 0.790448 0.260844 0.406022
O O10 0.859274 0.000000 0.379139
O O11 0.262447 0.709999 0.231754
O O12 0.183809 0.802521 0.348402
O O13 0.220061 0.000000 0.248796
O O14 0.806075 0.772084 0.100662
O O15 0.851013 0.000000 0.163313
O O16 0.763580 0.500000 0.936929
O O17 0.750000 0.250000 0.000000
O O18 0.065202 0.500000 0.533737
O O19 0.148696 0.275995 0.469584
O O20 0.000000 0.258815 0.500000
O O21 0.204347 0.000000 0.437359
#
# Coordination Sequence:
#
# PCOD8098488 Si02
#       8
#     8   8   8   8   8   8   8   8
#     4   9  21  38  57  83 121 157 192 240 292 344
#     4  11  22  38  60  88 120 154 195 243 294 349
#     4  12  25  41  63  87 117 156 195 243 299 355
#     4  10  20  34  57  87 115 149 194 240 285 344
#     4  10  20  36  58  86 120 154 193 238 286 341
#     4   9  19  37  60  87 117 156 199 238 284 341
#     4  11  26  45  63  85 116 155 198 245 300 357
#     4  11  23  40  62  88 118 151 197 246 292 354
#
# _framework density 19.552848000000001
#
# number of rings (size 3 to 8) (size 9 to 14) (size 15 to 20)
#    0.000    1.625    1.250    4.125    1.750    6.000 
#    0.000    0.625    0.000    3.750    0.000    0.000 
#    0.000    0.000    0.000    0.000    0.000    0.000 
#
# Total GULP energy -396868.855061 kJ/mol
# GULP energy per Si atom -12402.151721 kJ/mol
# Density = 1.950835 g / cm^3
# Si number density = 19.552848 Si / 1000 Ang^3
#
#
#
# Elastic Constant Matrix: (Units=GPa)
#
#
# Indices 1 2 3 4 5 6 
#
# 1 121.0041 28.8145 47.2610 0.0000 19.1012 0.0000
# 2 28.8145 52.6368 30.9362 0.0000 10.1048 0.0000
# 3 47.2610 30.9362 100.1145 0.0000 20.5523 0.0000
# 4 0.0000 0.0000 0.0000 34.0837 0.0000 3.0572
# 5 19.1012 10.1048 20.5523 0.0000 25.9129 0.0000
# 6 0.0000 0.0000 0.0000 3.0572 0.0000 30.2730
#
#
#
# Elastic Compliance Matrix: (Units=1/GPa)
#
#
# Indices 1 2 3 4 5 6 
#
# 1 0.011002 -0.003263 -0.003323 0.000000 -0.004202 0.000000
# 2 -0.003263 0.024537 -0.005460 0.000000 -0.002832 0.000000
# 3 -0.003323 -0.005460 0.014698 0.000000 -0.007078 0.000000
# 4 0.000000 0.000000 0.000000 0.029608 0.000000 -0.002990
# 5 -0.004202 -0.002832 -0.007078 0.000000 0.048407 0.000000
# 6 0.000000 0.000000 0.000000 -0.002990 0.000000 0.033335
#
#
# Mechanical properties :
#
#
# Convention : Reuss Voigt Hill
#
# Bulk Modulus (GPa) = 38.24905 54.19765 46.22335
# Shear Modulus (GPa) = 25.72086 29.17015 27.44551
#
# Velocity S-wave (km/s) = 3.63085 3.86665 3.75061
# Velocity P-wave (km/s) = 6.09769 6.90749 6.51518
#
# Compressibility (1/GPa) = 0.02614444
#
# Stress axis : x y z
#
# Youngs Moduli (GPa) = 90.88893 40.75410 68.03847
#
# Poissons Ratio (x) = 0.13299 0.22608
# Poissons Ratio (y) = 0.29660 0.37151
# Poissons Ratio (z) = 0.30201 0.22253
#
# Static dielectric constant tensor:
#      x y z
#    x 3.777700 0.000000 0.203700 
#    y 0.000000 3.668820 0.000000 
#    z 0.203700 0.000000 4.112360 
# 
# 
# High freq. dielectric constant tensor:
#      x y z
#    x 1.763630 0.000000 0.018670 
#    y 0.000000 1.767690 0.000000 
#    z 0.018670 0.000000 1.754540 
# 
# From -- ./inp_files/313996.got.cif
#   From: 2010.06.25/outbox.cif.g09.slc.cpg/sg12_157_cif.got.tgz:313996.got - 2010.06.28 00:19:55.
