data_PCOD8098592
_publ_section_title
;
Structure prediction by ZEFSAII (Michael W. Deem and Ramdas Pophale) SiO2 
 PCOD8098592
Probable space group: C 2/M
;
_chemical_formula_sum "Si O2"
_cell_formula_units_Z 64
_cell_length_a 14.357268
_cell_length_b 18.270420
_cell_length_c 17.641034
_cell_angle_alpha 90.000000
_cell_angle_beta 42.260726
_cell_angle_gamma 90.000000
_cell_volume 3112.003883
_symmetry_space_group_name_H-M "C 2/M"
_symmetry_group_IT_number 12
_symmetry_cell_setting 'monoclinic'
loop_
_space_group_symop_operation_xyz
x,y,z
-x,y,-z
-x,-y,-z
x,-y,z
1/2+x,1/2+y,z
1/2-x,1/2+y,-z
1/2-x,1/2-y,-z
1/2+x,1/2-y,z
loop_
_atom_site_type_symbol
_atom_site_label
_atom_site_fract_x
_atom_site_fract_y
_atom_site_fract_z
Si Si1 0.345396 0.136043 0.599985
Si Si2 0.775455 0.418389 0.802955
Si Si3 0.464808 0.792841 0.875866
Si Si4 0.761229 0.770281 0.107218
Si Si5 0.949852 0.418771 0.274023
Si Si6 0.713819 0.413113 0.524893
Si Si7 0.566640 0.579365 0.380119
Si Si8 0.227493 0.777764 0.289671
O O1 0.500000 0.102804 0.500000
O O2 0.265655 0.099857 0.719462
O O3 0.256405 0.122738 0.578476
O O4 0.361549 0.223814 0.603629
O O5 0.712035 0.500000 0.856066
O O6 0.698955 0.356481 0.901415
O O7 0.936505 0.417593 0.728125
O O8 0.362971 0.756551 0.876691
O O9 0.494033 0.876839 0.834454
O O10 0.614580 0.755967 0.786601
O O11 0.393943 0.777785 0.000484
O O12 0.695855 0.738380 0.221845
O O13 0.918284 0.500000 0.263707
O O14 0.812411 0.384063 0.396435
O O15 0.733409 0.500000 0.518913
O O16 0.554202 0.391594 0.603814
O O17 0.500000 0.563783 0.500000
O O18 0.624971 0.500000 0.315930
O O19 0.690163 0.636804 0.319957
#
# Coordination Sequence:
#
# PCOD8098592 Si02
#       8
#     8   8   8   8   8   8   8   8
#     4  11  21  33  52  91 127 153 189 234 290 350
#     4   9  17  32  55  84 118 150 186 233 286 354
#     4  10  20  38  59  80 108 153 186 244 297 339
#     4   9  21  38  58  84 113 141 194 245 300 345
#     4   9  17  31  55  86 113 147 193 233 283 348
#     4  10  20  34  58  86 122 163 193 234 287 345
#     4  10  22  41  58  80 118 162 203 239 282 340
#     4  11  23  37  58  83 113 155 195 241 293 346
#
# _framework density 20.565526999999999
#
# number of rings (size 3 to 8) (size 9 to 14) (size 15 to 20)
#    0.000    2.125    1.250    1.875    1.750    2.000 
#    0.000    2.500    0.000    9.000    0.000    0.000 
#    0.000    0.000    0.000    0.000    0.000    0.000 
#
# Total GULP energy -396479.139768 kJ/mol
# GULP energy per Si atom -12389.973118 kJ/mol
# Density = 2.051872 g / cm^3
# Si number density = 20.565527 Si / 1000 Ang^3
#
#
#
# Elastic Constant Matrix: (Units=GPa)
#
#
# Indices 1 2 3 4 5 6 
#
# 1 92.5197 25.5801 30.8736 -0.0002 1.4091 0.0001
# 2 25.5801 99.9488 34.9575 -0.0003 -1.2552 0.0002
# 3 30.8736 34.9575 72.9953 0.0000 -6.6200 -0.0001
# 4 -0.0002 -0.0003 0.0000 33.9789 0.0000 -3.6774
# 5 1.4091 -1.2552 -6.6200 0.0000 20.0305 0.0000
# 6 0.0001 0.0002 -0.0001 -3.6774 0.0000 30.4438
#
#
#
# Elastic Compliance Matrix: (Units=1/GPa)
#
#
# Indices 1 2 3 4 5 6 
#
# 1 0.012945 -0.001618 -0.004940 0.000000 -0.002645 0.000000
# 2 -0.001618 0.012248 -0.005259 0.000000 -0.000857 0.000000
# 3 -0.004940 -0.005259 0.018875 0.000000 0.006256 0.000000
# 4 0.000000 0.000000 0.000000 0.029820 0.000000 0.003602
# 5 -0.002645 -0.000857 0.006256 0.000000 0.052124 0.000000
# 6 0.000000 0.000000 0.000000 0.003602 0.000000 0.033283
#
#
# Mechanical properties :
#
#
# Convention : Reuss Voigt Hill
#
# Bulk Modulus (GPa) = 48.93976 49.80958 49.37467
# Shear Modulus (GPa) = 26.35214 28.49414 27.42314
#
# Velocity S-wave (km/s) = 3.58351 3.72631 3.65561
# Velocity P-wave (km/s) = 6.40084 6.54113 6.47136
#
# Compressibility (1/GPa) = 0.02043329
#
# Stress axis : x y z
#
# Youngs Moduli (GPa) = 77.25204 81.64723 52.98146
#
# Poissons Ratio (x) = 0.13214 0.26171
# Poissons Ratio (y) = 0.12503 0.27861
# Poissons Ratio (z) = 0.38160 0.42935
#
# Static dielectric constant tensor:
#      x y z
#    x 3.875950 0.000000 -0.030200 
#    y 0.000000 3.926440 0.000000 
#    z -0.030200 0.000000 3.560840 
# 
# 
# High freq. dielectric constant tensor:
#      x y z
#    x 1.818500 0.000000 0.002220 
#    y 0.000000 1.796490 0.000000 
#    z 0.002220 0.000000 1.771490 
# 
# From -- ./inp_files/271707.got.cif
#   From: 2010.06.25/outbox.cif.g09.slc.cpg/sg12_136_cif.got.tgz:271707.got - 2010.06.28 00:19:55.
