data_PCOD8098247
_publ_section_title
;
Structure prediction by ZEFSAII (Michael W. Deem and Ramdas Pophale) SiO2 
 PCOD8098247
Probable space group: C 2/M
;
_chemical_formula_sum "Si O2"
_cell_formula_units_Z 56
_cell_length_a 20.941232
_cell_length_b 9.363526
_cell_length_c 29.376020
_cell_angle_alpha 90.000000
_cell_angle_beta 149.686027
_cell_angle_gamma 90.000000
_cell_volume 2907.372996
_symmetry_space_group_name_H-M "C 2/M"
_symmetry_group_IT_number 12
_symmetry_cell_setting 'monoclinic'
loop_
_space_group_symop_operation_xyz
x,y,z
-x,y,-z
-x,-y,-z
x,-y,z
1/2+x,1/2+y,z
1/2-x,1/2+y,-z
1/2-x,1/2-y,-z
1/2+x,1/2-y,z
loop_
_atom_site_type_symbol
_atom_site_label
_atom_site_fract_x
_atom_site_fract_y
_atom_site_fract_z
Si Si1 0.410232 0.833610 0.404451
Si Si2 0.164272 0.660954 0.231235
Si Si3 0.987010 0.657159 0.774977
Si Si4 0.480841 0.832421 0.040978
Si Si5 0.730807 0.665197 0.034754
Si Si6 0.416350 0.163153 0.572839
Si Si7 0.365837 0.334697 0.625875
O O1 0.500000 0.772331 0.500000
O O2 0.274872 0.759604 0.318764
O O3 0.476102 0.803459 0.397130
O O4 0.386270 0.000000 0.398919
O O5 0.217365 0.500000 0.263109
O O6 0.043597 0.676331 0.190386
O O7 0.111096 0.703222 0.148538
O O8 0.940672 0.500000 0.730327
O O9 0.912076 0.778590 0.702452
O O10 0.135490 0.671391 0.857132
O O11 0.447165 0.000000 0.025749
O O12 0.500000 0.790958 0.000000
O O13 0.368587 0.738399 0.992644
O O14 0.691708 0.500000 0.000929
O O15 0.750000 0.750000 0.000000
O O16 0.443552 0.259433 0.633356
O O17 0.282034 0.201701 0.467962
O O18 0.418504 0.000000 0.590215
O O19 0.395337 0.500000 0.640648
#
# Coordination Sequence:
#
# PCOD8098247 Si02
#       7
#     8   8   8   8   8   8   8
#     4  10  21  37  57  82 114 151 192 237 286 343
#     4  10  21  38  58  84 118 153 192 239 294 350
#     4  10  21  37  57  83 117 149 184 237 295 344
#     4  10  22  42  64  88 124 163 199 248 305 359
#     4  11  22  39  63  88 118 153 195 244 295 355
#     4   9  19  36  54  76 114 152 183 233 291 336
#     4  10  20  34  56  83 108 144 194 237 280 342
#
# _framework density 19.261372999999999
#
# number of rings (size 3 to 8) (size 9 to 14) (size 15 to 20)
#    0.000    2.000    1.429    1.714    0.000    6.286 
#    0.000    2.857    0.000    0.000    0.000    0.000 
#    0.000    0.000    0.000    0.000    0.000    0.000 
#
# Total GULP energy -347213.930559 kJ/mol
# GULP energy per Si atom -12400.497520 kJ/mol
# Density = 1.921753 g / cm^3
# Si number density = 19.261373 Si / 1000 Ang^3
#
#
#
# Elastic Constant Matrix: (Units=GPa)
#
#
# Indices 1 2 3 4 5 6 
#
# 1 97.2144 56.5674 51.7455 0.0000 -3.3486 0.0000
# 2 56.5674 86.0132 44.9757 0.0000 -0.8146 0.0000
# 3 51.7455 44.9757 98.9702 0.0001 -5.7425 0.0000
# 4 0.0000 0.0000 0.0001 32.8856 0.0000 -1.8514
# 5 -3.3486 -0.8146 -5.7425 0.0000 33.9958 0.0000
# 6 0.0000 0.0000 0.0000 -1.8514 0.0000 30.8963
#
#
#
# Elastic Compliance Matrix: (Units=1/GPa)
#
#
# Indices 1 2 3 4 5 6 
#
# 1 0.018708 -0.009449 -0.005447 0.000000 0.000696 0.000000
# 2 -0.009449 0.020044 -0.004236 0.000000 -0.001166 0.000000
# 3 -0.005447 -0.004236 0.014987 0.000000 0.001894 0.000000
# 4 0.000000 0.000000 0.000000 0.030511 0.000000 0.001828
# 5 0.000696 -0.001166 0.001894 0.000000 0.029776 0.000000
# 6 0.000000 0.000000 0.000000 0.001828 0.000000 0.032476
#
#
# Mechanical properties :
#
#
# Convention : Reuss Voigt Hill
#
# Bulk Modulus (GPa) = 64.62003 65.41945 65.01974
# Shear Modulus (GPa) = 26.32624 28.14948 27.23786
#
# Velocity S-wave (km/s) = 3.70102 3.82704 3.76456
# Velocity P-wave (km/s) = 7.20314 7.31888 7.26124
#
# Compressibility (1/GPa) = 0.01547508
#
# Stress axis : x y z
#
# Youngs Moduli (GPa) = 53.45344 49.88974 66.72450
#
# Poissons Ratio (x) = 0.47139 0.36345
# Poissons Ratio (y) = 0.50506 0.28267
# Poissons Ratio (z) = 0.29116 0.21135
#
# Static dielectric constant tensor:
#      x y z
#    x 3.570720 0.000000 -0.038410 
#    y 0.000000 3.548460 0.000000 
#    z -0.038410 0.000000 3.416100 
# 
# 
# High freq. dielectric constant tensor:
#      x y z
#    x 1.751330 0.000000 -0.004200 
#    y 0.000000 1.750120 0.000000 
#    z -0.004200 0.000000 1.746300 
# 
# From -- ./inp_files/329482.got.cif
#   From: 2010.06.25/outbox.cif.g09.slc.cpg/sg12_165_cif.got.tgz:329482.got - 2010.06.28 00:19:55.
