data_PCOD8098234
_publ_section_title
;
Structure prediction by ZEFSAII (Michael W. Deem and Ramdas Pophale) SiO2 
 PCOD8098234
Probable space group: C 2/M
;
_chemical_formula_sum "Si O2"
_cell_formula_units_Z 56
_cell_length_a 25.354917
_cell_length_b 18.775934
_cell_length_c 5.408756
_cell_angle_alpha 90.000000
_cell_angle_beta 84.144399
_cell_angle_gamma 90.000000
_cell_volume 2561.469135
_symmetry_space_group_name_H-M "C 2/M"
_symmetry_group_IT_number 12
_symmetry_cell_setting 'monoclinic'
loop_
_space_group_symop_operation_xyz
x,y,z
-x,y,-z
-x,-y,-z
x,-y,z
1/2+x,1/2+y,z
1/2-x,1/2+y,-z
1/2-x,1/2-y,-z
1/2+x,1/2-y,z
loop_
_atom_site_type_symbol
_atom_site_label
_atom_site_fract_x
_atom_site_fract_y
_atom_site_fract_z
Si Si1 0.262463 0.421896 0.473704
Si Si2 0.025003 0.916945 0.736362
Si Si3 0.633744 0.422758 0.889151
Si Si4 0.940519 0.415789 0.530096
Si Si5 0.618977 0.915621 0.936183
Si Si6 0.795956 0.663837 0.847653
Si Si7 0.190905 0.818166 0.156024
O O1 0.250635 0.500000 0.601072
O O2 0.309380 0.432735 0.257806
O O3 0.207599 0.394679 0.371243
O O4 0.280276 0.361138 0.646870
O O5 0.088328 0.902038 0.712809
O O6 0.000000 0.881296 0.500000
O O7 0.011343 0.000000 0.735308
O O8 0.000000 0.883849 0.000000
O O9 0.618368 0.500000 0.018827
O O10 0.638333 0.360916 0.093586
O O11 0.943655 0.500000 0.512356
O O12 0.912653 0.392529 0.799346
O O13 0.000000 0.383881 0.500000
O O14 0.910091 0.387909 0.298343
O O15 0.675345 0.874446 0.932385
O O16 0.628056 0.000000 0.922591
O O17 0.825820 0.737695 0.757854
O O18 0.734754 0.686414 0.918931
#
# Coordination Sequence:
#
# PCOD8098234 Si02
#       7
#     8   8   8   8   8   8   8
#     4  10  20  34  56  82 111 144 184 236 283 338
#     4   9  18  31  52  81 112 142 181 238 292 335
#     4   9  19  34  53  82 109 141 190 234 283 338
#     4   9  18  34  57  86 117 148 187 236 290 343
#     4  10  20  34  57  88 116 148 190 241 288 334
#     4  10  22  37  52  81 113 147 193 230 282 343
#     4  10  21  37  56  75 110 155 189 226 284 348
#
# _framework density 21.862454
#
# number of rings (size 3 to 8) (size 9 to 14) (size 15 to 20)
#    0.000    2.429    0.000    1.714    4.000    3.429 
#    0.000    0.000    0.000    2.571    0.000    0.000 
#    0.000    0.000    0.000    0.000    0.000    0.000 
#
# Total GULP energy -346900.461966 kJ/mol
# GULP energy per Si atom -12389.302213 kJ/mol
# Density = 2.181269 g / cm^3
# Si number density = 21.862454 Si / 1000 Ang^3
#
#
#
# Elastic Constant Matrix: (Units=GPa)
#
#
# Indices 1 2 3 4 5 6 
#
# 1 70.3934 23.4836 35.4970 0.0000 32.3120 0.0000
# 2 23.4836 112.7039 37.7666 0.0000 26.1577 0.0000
# 3 35.4970 37.7666 139.4222 0.0000 35.5183 0.0000
# 4 0.0000 0.0000 0.0000 15.2301 0.0000 -26.5568
# 5 32.3120 26.1577 35.5183 0.0000 44.4137 0.0000
# 6 0.0000 0.0000 0.0000 -26.5568 0.0000 -503.8830
#
#
#
# Elastic Compliance Matrix: (Units=1/GPa)
#
#
# Indices 1 2 3 4 5 6 
#
# 1 0.021762 -0.000686 -0.001789 0.000000 -0.013998 0.000000
# 2 -0.000686 0.010577 -0.001545 0.000000 -0.004494 0.000000
# 3 -0.001789 -0.001545 0.009398 0.000000 -0.005304 0.000000
# 4 0.000000 0.000000 0.000000 0.060133 0.000000 -0.003169
# 5 -0.013998 -0.004494 -0.005304 0.000000 0.039588 0.000000
# 6 0.000000 0.000000 0.000000 -0.003169 0.000000 -0.001818
#
#
# Mechanical properties :
#
#
# Convention : Reuss Voigt Hill
#
# Bulk Modulus (GPa) = 29.67753 57.33488 43.50621
# Shear Modulus (GPa) = 31.46386 -73.79634 -21.16624
#
# Velocity S-wave (km/s) = 3.79776 -5.81619 -3.11489
# Velocity P-wave (km/s) = 5.73016 4.33843 2.64696
#
# Compressibility (1/GPa) = 0.03369552
#
# Stress axis : x y z
#
# Youngs Moduli (GPa) = 45.95145 94.54757 106.40905
#
# Poissons Ratio (x) = 0.06489 0.19034
# Poissons Ratio (y) = 0.03154 0.16445
# Poissons Ratio (z) = 0.08220 0.14611
#
# Static dielectric constant tensor:
#      x y z
#    x 4.052560 0.000000 0.116360 
#    y 0.000000 4.074180 0.000000 
#    z 0.116360 0.000000 4.030000 
# 
# 
# High freq. dielectric constant tensor:
#      x y z
#    x 1.846910 0.000000 0.019710 
#    y 0.000000 1.826380 0.000000 
#    z 0.019710 0.000000 1.856950 
# 
# From -- ./inp_files/25662.got.cif
#   From: 2010.06.25/outbox.cif.g09.slc.cpg/sg12_13_cif.got.tgz:25662.got - 2010.06.28 00:19:55.
