data_PCOD8098815
_publ_section_title
;
Structure prediction by ZEFSAII (Michael W. Deem and Ramdas Pophale) SiO2 
 PCOD8098815
Probable space group: C 2/M
;
_chemical_formula_sum "Si O2"
_cell_formula_units_Z 60
_cell_length_a 25.894089
_cell_length_b 26.553400
_cell_length_c 5.217005
_cell_angle_alpha 90.000000
_cell_angle_beta 61.454673
_cell_angle_gamma 90.000000
_cell_volume 3151.039239
_symmetry_space_group_name_H-M "C 2/M"
_symmetry_group_IT_number 12
_symmetry_cell_setting 'monoclinic'
loop_
_space_group_symop_operation_xyz
x,y,z
-x,y,-z
-x,-y,-z
x,-y,z
1/2+x,1/2+y,z
1/2-x,1/2+y,-z
1/2-x,1/2-y,-z
1/2+x,1/2-y,z
loop_
_atom_site_type_symbol
_atom_site_label
_atom_site_fract_x
_atom_site_fract_y
_atom_site_fract_z
Si Si1 0.342949 0.941978 0.815368
Si Si2 0.082799 0.943905 0.432766
Si Si3 0.268631 0.941615 0.494654
Si Si4 0.858325 0.091620 0.232579
Si Si5 0.569532 0.796926 0.840374
Si Si6 0.569839 0.854979 0.338603
Si Si7 0.433966 0.684709 0.050663
Si Si8 0.500000 0.635311 0.500000
O O1 0.310616 0.927076 0.630158
O O2 0.402335 0.909862 0.696326
O O3 0.362744 0.000000 0.767841
O O4 0.300873 0.929953 0.152692
O O5 0.130456 0.943884 0.548075
O O6 0.030987 0.903839 0.626761
O O7 0.056609 0.000000 0.474674
O O8 0.110635 0.929515 0.093521
O O9 0.211407 0.906398 0.648593
O O10 0.249655 0.000000 0.559614
O O11 0.883016 0.146510 0.258374
O O12 0.592009 0.819160 0.517942
O O13 0.591455 0.739840 0.831149
O O14 0.500000 0.796278 0.000000
O O15 0.592780 0.830530 0.020196
O O16 0.500000 0.861778 0.500000
O O17 0.500000 0.675105 0.000000
O O18 0.447522 0.672206 0.720427
#
# Coordination Sequence:
#
# PCOD8098815 Si02
#       8
#     8   8   8   8   8   8   8   4
#     4  10  21  37  61  84 112 143 174 216 264 327
#     4  11  21  33  48  72 106 145 181 234 289 324
#     4  10  20  36  56  80 106 147 191 223 264 317
#     4  11  22  35  55  77 106 146 196 238 269 321
#     4   9  20  32  57  79 113 147 176 222 262 329
#     4  10  20  37  57  90 113 139 172 209 272 330
#     4  10  20  35  53  78 109 144 193 233 285 317
#     4  10  21  32  48  74 108 140 185 232 276 344
#
# _framework density 19.041335
#
# number of rings (size 3 to 8) (size 9 to 14) (size 15 to 20)
#    0.000    1.867    1.333    3.000    4.667    1.333 
#    0.000    2.000    0.000    9.600    0.000    0.000 
#    0.000    0.000    0.000    0.000    0.000    0.000 
#
# Total GULP energy -371792.557780 kJ/mol
# GULP energy per Si atom -12393.085259 kJ/mol
# Density = 1.899800 g / cm^3
# Si number density = 19.041335 Si / 1000 Ang^3
#
#
#
# Elastic Constant Matrix: (Units=GPa)
#
#
# Indices 1 2 3 4 5 6 
#
# 1 78.0648 53.8372 30.0005 0.0000 9.1414 0.0000
# 2 53.8372 125.0857 36.3759 0.0000 -3.4196 0.0000
# 3 30.0005 36.3759 74.2780 0.0000 19.0496 0.0000
# 4 0.0000 0.0000 0.0000 15.6297 0.0000 -2.2014
# 5 9.1414 -3.4196 19.0496 0.0000 31.7021 0.0000
# 6 0.0000 0.0000 0.0000 -2.2014 0.0000 24.9846
#
#
#
# Elastic Compliance Matrix: (Units=1/GPa)
#
#
# Indices 1 2 3 4 5 6 
#
# 1 0.019923 -0.007841 -0.002975 0.000000 -0.004803 0.000000
# 2 -0.007841 0.012966 -0.004872 0.000000 0.006587 0.000000
# 3 -0.002975 -0.004872 0.020056 0.000000 -0.011719 0.000000
# 4 0.000000 0.000000 0.000000 0.064785 0.000000 0.005708
# 5 -0.004803 0.006587 -0.011719 0.000000 0.040681 0.000000
# 6 0.000000 0.000000 0.000000 0.005708 0.000000 0.040528
#
#
# Mechanical properties :
#
#
# Convention : Reuss Voigt Hill
#
# Bulk Modulus (GPa) = 46.36361 57.53953 51.95157
# Shear Modulus (GPa) = 21.05206 24.94428 22.99817
#
# Velocity S-wave (km/s) = 3.32866 3.62333 3.47912
# Velocity P-wave (km/s) = 6.25900 6.91292 6.59407
#
# Compressibility (1/GPa) = 0.02156864
#
# Stress axis : x y z
#
# Youngs Moduli (GPa) = 50.19264 77.12238 49.85954
#
# Poissons Ratio (x) = 0.60473 0.14834
# Poissons Ratio (y) = 0.39357 0.24294
# Poissons Ratio (z) = 0.14933 0.37578
#
# Static dielectric constant tensor:
#      x y z
#    x 3.401020 0.000000 0.317950 
#    y 0.000000 3.493650 0.000000 
#    z 0.317950 0.000000 3.633510 
# 
# 
# High freq. dielectric constant tensor:
#      x y z
#    x 1.725280 0.000000 0.028300 
#    y 0.000000 1.733900 0.000000 
#    z 0.028300 0.000000 1.737970 
# 
# From -- ./inp_files/29606.got.cif
#   From: 2010.06.25/outbox.cif.g09.slc.cpg/sg12_15_cif.got.tgz:29606.got - 2010.06.28 00:19:55.
