data_PCOD8098423
_publ_section_title
;
Structure prediction by ZEFSAII (Michael W. Deem and Ramdas Pophale) SiO2 
 PCOD8098423
Probable space group: C 2/M
;
_chemical_formula_sum "Si O2"
_cell_formula_units_Z 48
_cell_length_a 20.841119
_cell_length_b 17.966876
_cell_length_c 15.524549
_cell_angle_alpha 90.000000
_cell_angle_beta 25.061319
_cell_angle_gamma 90.000000
_cell_volume 2462.386438
_symmetry_space_group_name_H-M "C 2/M"
_symmetry_group_IT_number 12
_symmetry_cell_setting 'monoclinic'
loop_
_space_group_symop_operation_xyz
x,y,z
-x,y,-z
-x,-y,-z
x,-y,z
1/2+x,1/2+y,z
1/2-x,1/2+y,-z
1/2-x,1/2-y,-z
1/2+x,1/2-y,z
loop_
_atom_site_type_symbol
_atom_site_label
_atom_site_fract_x
_atom_site_fract_y
_atom_site_fract_z
Si Si1 0.361458 0.650262 0.715959
Si Si2 0.209301 0.698193 0.469862
Si Si3 0.182623 0.085210 0.049256
Si Si4 0.824882 0.679508 0.219180
Si Si5 0.837849 0.912442 0.433514
Si Si6 0.112729 0.289595 0.215345
O O1 0.500000 0.607710 0.500000
O O2 0.302691 0.600546 0.866303
O O3 0.225168 0.663291 0.816820
O O4 0.434149 0.730755 0.654739
O O5 0.250000 0.750000 0.500000
O O6 0.290980 0.734231 0.286866
O O7 0.272908 0.617178 0.420488
O O8 0.029258 0.692951 0.673641
O O9 0.015390 0.108430 0.221409
O O10 0.217096 0.000000 0.986923
O O11 0.312731 0.132948 0.841291
O O12 0.743883 0.624641 0.385314
O O13 0.000000 0.662700 0.000000
O O14 0.810636 0.000000 0.471250
O O15 0.250000 0.250000 0.000000
#
# Coordination Sequence:
#
# PCOD8098423 Si02
#       6
#     8   8   8   8   8   8
#     4  11  19  36  56  82 111 141 179 230 277 316
#     4  10  20  36  54  78 109 145 186 223 264 321
#     4  10  22  37  57  82 110 148 184 220 271 328
#     4  11  23  34  55  85 111 143 181 225 276 323
#     4  10  22  39  55  78 115 151 181 219 270 328
#     4  10  20  34  57  80 104 144 188 225 265 319
#
# _framework density 19.493285
#
# number of rings (size 3 to 8) (size 9 to 14) (size 15 to 20)
#    0.000    1.667    3.333    3.000   11.667    2.000 
#    0.000    0.000    0.000    2.000    0.000    0.000 
#    0.000    0.000    0.000    0.000    0.000    0.000 
#
# Total GULP energy -297421.013605 kJ/mol
# GULP energy per Si atom -12392.542234 kJ/mol
# Density = 1.944892 g / cm^3
# Si number density = 19.493285 Si / 1000 Ang^3
#
#
#
# Elastic Constant Matrix: (Units=GPa)
#
#
# Indices 1 2 3 4 5 6 
#
# 1 88.7939 20.2911 21.7661 0.0025 -39.8237 0.0003
# 2 20.2911 90.5101 25.8840 0.0000 -19.5388 0.0009
# 3 21.7661 25.8840 59.7531 -0.0015 -33.9754 0.0015
# 4 0.0025 0.0000 -0.0015 24.7450 -0.0019 -5.2030
# 5 -39.8237 -19.5388 -33.9754 -0.0019 38.1674 0.0009
# 6 0.0003 0.0009 0.0015 -5.2030 0.0009 23.1036
#
#
#
# Elastic Compliance Matrix: (Units=1/GPa)
#
#
# Indices 1 2 3 4 5 6 
#
# 1 0.024565 -0.001209 0.011739 0.000001 0.035462 -0.000002
# 2 -0.001209 0.012869 -0.004264 0.000000 0.001531 0.000000
# 3 0.011739 -0.004264 0.040558 0.000004 0.046169 -0.000004
# 4 0.000001 0.000000 0.000004 0.042421 0.000006 0.009553
# 5 0.035462 0.001531 0.046169 0.000006 0.105084 -0.000006
# 6 -0.000002 0.000000 -0.000004 0.009553 -0.000006 0.045435
#
#
# Mechanical properties :
#
#
# Convention : Reuss Voigt Hill
#
# Bulk Modulus (GPa) = 11.04661 41.65992 26.35327
# Shear Modulus (GPa) = 17.32654 28.61093 22.96874
#
# Velocity S-wave (km/s) = 2.98459 3.83526 3.43635
# Velocity P-wave (km/s) = 4.19001 6.40547 5.41231
#
# Compressibility (1/GPa) = 0.09052549
#
# Stress axis : x y z
#
# Youngs Moduli (GPa) = 40.70772 77.70351 24.65605
#
# Poissons Ratio (x) = 0.09394 -0.28944
# Poissons Ratio (y) = 0.04921 0.10513
# Poissons Ratio (z) = -0.47787 0.33131
#
# Static dielectric constant tensor:
#      x y z
#    x 3.889020 0.000000 -0.023250 
#    y 0.000000 4.090950 0.000010 
#    z -0.023250 0.000010 3.692590 
# 
# 
# High freq. dielectric constant tensor:
#      x y z
#    x 1.755170 0.000000 -0.024050 
#    y 0.000000 1.747590 0.000000 
#    z -0.024050 0.000000 1.754780 
# 
# From -- ./inp_files/74475.got.cif
#   From: 2010.06.25/outbox.cif.g09.slc.cpg/sg12_38_cif.got.tgz:74475.got - 2010.06.28 00:19:55.
