data_PCOD8098939
_publ_section_title
;
Structure prediction by ZEFSAII (Michael W. Deem and Ramdas Pophale) SiO2 
 PCOD8098939
Probable space group: C 2/M
;
_chemical_formula_sum "Si O2"
_cell_formula_units_Z 40
_cell_length_a 14.563383
_cell_length_b 8.495963
_cell_length_c 16.483533
_cell_angle_alpha 90.000000
_cell_angle_beta 89.401864
_cell_angle_gamma 90.000000
_cell_volume 2039.395797
_symmetry_space_group_name_H-M "C 2/M"
_symmetry_group_IT_number 12
_symmetry_cell_setting 'monoclinic'
loop_
_space_group_symop_operation_xyz
x,y,z
-x,y,-z
-x,-y,-z
x,-y,z
1/2+x,1/2+y,z
1/2-x,1/2+y,-z
1/2-x,1/2-y,-z
1/2+x,1/2-y,z
loop_
_atom_site_type_symbol
_atom_site_label
_atom_site_fract_x
_atom_site_fract_y
_atom_site_fract_z
Si Si1 0.497702 0.816457 0.382849
Si Si2 0.135340 0.817257 0.079913
Si Si3 0.491208 0.682860 0.207792
Si Si4 0.646869 0.685687 0.497079
Si Si5 0.674703 0.318109 0.903032
O O1 0.501421 0.785068 0.287748
O O2 0.593208 0.758498 0.420965
O O3 0.409485 0.727823 0.421064
O O4 0.486081 0.000000 0.400532
O O5 0.059831 0.742392 0.140226
O O6 0.234835 0.781662 0.116181
O O7 0.113627 0.000000 0.079775
O O8 0.127834 0.754647 0.987170
O O9 0.511934 0.500000 0.227078
O O10 0.389509 0.704535 0.173594
O O11 0.650830 0.500000 0.486650
O O12 0.750000 0.750000 0.500000
O O13 0.702100 0.500000 0.915644
#
# Coordination Sequence:
#
# PCOD8098939 Si02
#       5
#     8   8   8   8   8
#     4  11  23  39  58  86 118 147 185 228 273 330
#     4   9  18  33  53  76 104 141 185 230 276 326
#     4  10  20  35  54  77 109 147 184 225 276 329
#     4  11  22  41  66  88 112 145 182 223 276 332
#     4   9  18  33  53  76 104 141 185 230 276 326
#
# _framework density 19.613654
#
# number of rings (size 3 to 8) (size 9 to 14) (size 15 to 20)
#    0.000    2.000    0.000    5.400    0.000    5.600 
#    0.000    4.000    0.000    6.000    0.000    0.000 
#    0.000    0.000    0.000    0.000    0.000    0.000 
#
# Total GULP energy -247994.109636 kJ/mol
# GULP energy per Si atom -12399.705482 kJ/mol
# Density = 1.956901 g / cm^3
# Si number density = 19.613654 Si / 1000 Ang^3
#
#
#
# Elastic Constant Matrix: (Units=GPa)
#
#
# Indices 1 2 3 4 5 6 
#
# 1 94.7089 11.2258 35.5320 0.0000 6.6535 0.0000
# 2 11.2258 55.2640 17.6247 0.0000 6.0979 0.0000
# 3 35.5320 17.6247 96.8527 0.0000 12.4027 0.0000
# 4 0.0000 0.0000 0.0000 26.5219 0.0000 2.4506
# 5 6.6535 6.0979 12.4027 0.0000 20.7477 0.0000
# 6 0.0000 0.0000 0.0000 2.4506 0.0000 32.7978
#
#
#
# Elastic Compliance Matrix: (Units=1/GPa)
#
#
# Indices 1 2 3 4 5 6 
#
# 1 0.012334 -0.001043 -0.004189 0.000000 -0.001145 0.000000
# 2 -0.001043 0.019586 -0.002693 0.000000 -0.003812 0.000000
# 3 -0.004189 -0.002693 0.013080 0.000000 -0.005684 0.000000
# 4 0.000000 0.000000 0.000000 0.037967 0.000000 -0.002837
# 5 -0.001145 -0.003812 -0.005684 0.000000 0.053084 0.000000
# 6 0.000000 0.000000 0.000000 -0.002837 0.000000 0.030702
#
#
# Mechanical properties :
#
#
# Convention : Reuss Voigt Hill
#
# Bulk Modulus (GPa) = 34.30543 41.73230 38.01887
# Shear Modulus (GPa) = 25.99842 28.17634 27.08738
#
# Velocity S-wave (km/s) = 3.64473 3.79432 3.72028
# Velocity P-wave (km/s) = 5.93638 6.36547 6.15466
#
# Compressibility (1/GPa) = 0.02914990
#
# Stress axis : x y z
#
# Youngs Moduli (GPa) = 81.07546 51.05566 76.45507
#
# Poissons Ratio (x) = 0.05327 0.32023
# Poissons Ratio (y) = 0.08459 0.20592
# Poissons Ratio (z) = 0.33959 0.13751
#
# Static dielectric constant tensor:
#      x y z
#    x 3.785080 0.000000 -0.072760 
#    y 0.000000 3.494060 0.000000 
#    z -0.072760 0.000000 3.582600 
# 
# 
# High freq. dielectric constant tensor:
#      x y z
#    x 1.767680 0.000000 0.000080 
#    y 0.000000 1.756710 0.000000 
#    z 0.000080 0.000000 1.764850 
# 
# From -- ./inp_files/211379.got.cif
#   From: 2010.06.25/outbox.cif.g09.slc.cpg/sg12_106_cif.got.tgz:211379.got - 2010.06.28 00:19:55.
