data_PCOD8098893
_publ_section_title
;
Structure prediction by ZEFSAII (Michael W. Deem and Ramdas Pophale) SiO2 
 PCOD8098893
Probable space group: C 2/M
;
_chemical_formula_sum "Si O2"
_cell_formula_units_Z 64
_cell_length_a 20.152079
_cell_length_b 8.907777
_cell_length_c 22.185691
_cell_angle_alpha 90.000000
_cell_angle_beta 116.941654
_cell_angle_gamma 90.000000
_cell_volume 3550.324863
_symmetry_space_group_name_H-M "C 2/M"
_symmetry_group_IT_number 12
_symmetry_cell_setting 'monoclinic'
loop_
_space_group_symop_operation_xyz
x,y,z
-x,y,-z
-x,-y,-z
x,-y,z
1/2+x,1/2+y,z
1/2-x,1/2+y,-z
1/2-x,1/2-y,-z
1/2+x,1/2-y,z
loop_
_atom_site_type_symbol
_atom_site_label
_atom_site_fract_x
_atom_site_fract_y
_atom_site_fract_z
Si Si1 0.855940 0.676552 0.074836
Si Si2 0.532994 0.827558 0.418680
Si Si3 0.164539 0.323410 0.180553
Si Si4 0.883748 0.671917 0.423933
Si Si5 0.768218 0.323155 0.668024
Si Si6 0.017218 0.322703 0.182420
Si Si7 0.721314 0.822303 0.078315
Si Si8 0.089057 0.176908 0.323908
O O1 0.847117 0.500000 0.079400
O O2 0.802838 0.755671 0.101207
O O3 0.939388 0.730303 0.122474
O O4 0.834493 0.726419 0.998259
O O5 0.587257 0.799359 0.497051
O O6 0.448453 0.789431 0.402831
O O7 0.557510 0.716721 0.376284
O O8 0.538626 0.000000 0.399514
O O9 0.168528 0.500000 0.174701
O O10 0.217856 0.271230 0.257175
O O11 0.080178 0.273914 0.160346
O O12 0.190474 0.251433 0.127985
O O13 0.858340 0.500000 0.405685
O O14 0.814563 0.780034 0.384499
O O15 0.779684 0.500000 0.665801
O O16 0.828458 0.245005 0.649552
O O17 0.019778 0.500000 0.195669
O O18 0.031311 0.241326 0.251378
O O19 0.728597 0.000000 0.084675
O O20 0.094319 0.000000 0.318972
#
# Coordination Sequence:
#
# PCOD8098893 Si02
#       8
#     8   8   8   8   8   8   8   8
#     4   9  18  31  49  73  99 130 165 202 248 300
#     4   9  19  37  57  77 105 137 167 206 256 303
#     4   8  16  31  50  71  95 127 165 204 246 291
#     4   9  19  36  57  79 103 134 171 208 250 303
#     4  10  20  35  54  76 105 137 169 210 258 303
#     4   9  18  34  52  71  98 130 167 209 254 301
#     4   9  17  31  50  72 100 130 163 205 248 294
#     4  11  22  35  53  77 103 134 174 213 252 302
#
# _framework density 18.026520000000001
#
# number of rings (size 3 to 8) (size 9 to 14) (size 15 to 20)
#    0.000    2.750    0.000    3.000    0.000    3.500 
#    0.000    9.375    0.000    0.000    0.000    7.000 
#    0.000    0.000    0.000    0.000    0.000    0.000 
#
# Total GULP energy -396790.210204 kJ/mol
# GULP energy per Si atom -12399.694069 kJ/mol
# Density = 1.798549 g / cm^3
# Si number density = 18.026520 Si / 1000 Ang^3
#
#
#
# Elastic Constant Matrix: (Units=GPa)
#
#
# Indices 1 2 3 4 5 6 
#
# 1 113.4244 40.9947 68.8327 0.0000 -2.5995 0.0000
# 2 40.9947 58.0687 34.3860 0.0000 0.6071 0.0000
# 3 68.8327 34.3860 78.9288 0.0000 -2.6199 0.0000
# 4 0.0000 0.0000 0.0000 23.4908 0.0000 3.2269
# 5 -2.5995 0.6071 -2.6199 0.0000 41.7587 0.0000
# 6 0.0000 0.0000 0.0000 3.2269 0.0000 31.1276
#
#
#
# Elastic Compliance Matrix: (Units=1/GPa)
#
#
# Indices 1 2 3 4 5 6 
#
# 1 0.019774 -0.005066 -0.015026 0.000000 0.000362 0.000000
# 2 -0.005066 0.024546 -0.006311 0.000000 -0.001068 0.000000
# 3 -0.015026 -0.006311 0.028554 0.000000 0.000948 0.000000
# 4 0.000000 0.000000 0.000000 0.043185 0.000000 -0.004477
# 5 0.000362 -0.001068 0.000948 0.000000 0.024045 0.000000
# 6 0.000000 0.000000 0.000000 -0.004477 0.000000 0.032590
#
#
# Mechanical properties :
#
#
# Convention : Reuss Voigt Hill
#
# Bulk Modulus (GPa) = 49.82889 59.87210 54.85049
# Shear Modulus (GPa) = 21.53417 26.35599 23.94508
#
# Velocity S-wave (km/s) = 3.46002 3.82785 3.64857
# Velocity P-wave (km/s) = 6.60790 7.26787 6.94573
#
# Compressibility (1/GPa) = 0.02006868
#
# Stress axis : x y z
#
# Youngs Moduli (GPa) = 50.57060 40.74020 35.02097
#
# Poissons Ratio (x) = 0.20640 0.52622
# Poissons Ratio (y) = 0.25620 0.22101
# Poissons Ratio (z) = 0.75986 0.25711
#
# Static dielectric constant tensor:
#      x y z
#    x 3.436000 0.000000 -0.057400 
#    y 0.000000 3.119940 0.000000 
#    z -0.057400 0.000000 3.475750 
# 
# 
# High freq. dielectric constant tensor:
#      x y z
#    x 1.703660 0.000000 -0.000790 
#    y 0.000000 1.681060 0.000000 
#    z -0.000790 0.000000 1.699210 
# 
# From -- ./inp_files/320058.got.cif
#   From: 2010.06.25/outbox.cif.g09.slc.cpg/sg12_161_cif.got.tgz:320058.got - 2010.06.28 00:19:55.
