data_PCOD8098517
_publ_section_title
;
Structure prediction by ZEFSAII (Michael W. Deem and Ramdas Pophale) SiO2 
 PCOD8098517
Probable space group: C 2/M
;
_chemical_formula_sum "Si O2"
_cell_formula_units_Z 64
_cell_length_a 31.060206
_cell_length_b 8.652239
_cell_length_c 12.040353
_cell_angle_alpha 90.000000
_cell_angle_beta 90.573260
_cell_angle_gamma 90.000000
_cell_volume 3235.566431
_symmetry_space_group_name_H-M "C 2/M"
_symmetry_group_IT_number 12
_symmetry_cell_setting 'monoclinic'
loop_
_space_group_symop_operation_xyz
x,y,z
-x,y,-z
-x,-y,-z
x,-y,z
1/2+x,1/2+y,z
1/2-x,1/2+y,-z
1/2-x,1/2-y,-z
1/2+x,1/2-y,z
loop_
_atom_site_type_symbol
_atom_site_label
_atom_site_fract_x
_atom_site_fract_y
_atom_site_fract_z
Si Si1 0.822331 0.176600 0.268198
Si Si2 0.953763 0.822571 0.007209
Si Si3 0.497487 0.316165 0.373929
Si Si4 0.419989 0.322293 0.763964
Si Si5 0.670958 0.179466 0.266979
Si Si6 0.204592 0.824443 0.484179
Si Si7 0.083130 0.815633 0.769797
Si Si8 0.754183 0.182213 0.876683
O O1 0.819044 0.185070 0.399912
O O2 0.869283 0.251224 0.249890
O O3 0.785631 0.269960 0.202582
O O4 0.818958 0.000000 0.225964
O O5 0.928374 0.806292 0.893832
O O6 0.961880 0.000000 0.040838
O O7 0.927644 0.749644 0.108362
O O8 0.000000 0.738873 0.000000
O O9 0.500000 0.253068 0.500000
O O10 0.497097 0.500000 0.371590
O O11 0.539406 0.259341 0.306135
O O12 0.453308 0.253505 0.316995
O O13 0.409850 0.500000 0.730962
O O14 0.379097 0.215287 0.746780
O O15 0.679875 0.225368 0.393158
O O16 0.700967 0.267244 0.178953
O O17 0.680123 0.000000 0.249510
O O18 0.250000 0.750000 0.500000
O O19 0.208606 0.000000 0.441713
O O20 0.085133 0.000000 0.761469
O O21 0.754489 0.000000 0.888091
O O22 0.750000 0.250000 0.000000
#
# Coordination Sequence:
#
# PCOD8098517 Si02
#       8
#     8   8   8   8   8   8   8   8
#     4  10  22  38  61  92 125 159 202 251 305 369
#     4   9  15  28  51  82 116 148 191 246 297 354
#     4   9  17  29  50  82 121 157 197 250 302 356
#     4  10  20  34  57  88 117 154 203 252 307 362
#     4  12  26  43  62  88 123 163 209 255 309 370
#     4  11  22  39  64  91 120 157 203 257 312 366
#     4   9  17  30  50  82 119 155 193 242 297 353
#     4  12  26  45  67  90 124 162 203 251 307 369
#
# _framework density 19.780154
#
# number of rings (size 3 to 8) (size 9 to 14) (size 15 to 20)
#    0.000    1.750    2.500    2.625    3.500    0.500 
#    0.000    0.000    0.000    1.500    0.000    0.000 
#    0.000    0.000    0.000    0.000    0.000    0.000 
#
# Total GULP energy -396693.496551 kJ/mol
# GULP energy per Si atom -12396.671767 kJ/mol
# Density = 1.973513 g / cm^3
# Si number density = 19.780154 Si / 1000 Ang^3
#
#
#
# Elastic Constant Matrix: (Units=GPa)
#
#
# Indices 1 2 3 4 5 6 
#
# 1 140.8895 31.2272 34.5011 0.0000 -11.2455 0.0000
# 2 31.2272 79.3713 26.6887 0.0000 1.2562 0.0000
# 3 34.5011 26.6887 101.3855 0.0000 -10.4410 0.0000
# 4 0.0000 0.0000 0.0000 20.5788 0.0000 1.8075
# 5 -11.2455 1.2562 -10.4410 0.0000 30.2220 0.0000
# 6 0.0000 0.0000 0.0000 1.8075 0.0000 23.6976
#
#
#
# Elastic Compliance Matrix: (Units=1/GPa)
#
#
# Indices 1 2 3 4 5 6 
#
# 1 0.008360 -0.002702 -0.001868 0.000000 0.002578 0.000000
# 2 -0.002702 0.014802 -0.003260 0.000000 -0.002747 0.000000
# 3 -0.001868 -0.003260 0.011716 0.000000 0.003488 0.000000
# 4 0.000000 0.000000 0.000000 0.048921 0.000000 -0.003732
# 5 0.002578 -0.002747 0.003488 0.000000 0.035367 0.000000
# 6 0.000000 0.000000 0.000000 -0.003732 0.000000 0.042483
#
#
# Mechanical properties :
#
#
# Convention : Reuss Voigt Hill
#
# Bulk Modulus (GPa) = 52.03351 56.27558 54.15454
# Shear Modulus (GPa) = 27.21615 30.18163 28.69889
#
# Velocity S-wave (km/s) = 3.71338 3.91046 3.81319
# Velocity P-wave (km/s) = 6.68944 6.99294 6.84287
#
# Compressibility (1/GPa) = 0.01921839
#
# Stress axis : x y z
#
# Youngs Moduli (GPa) = 119.62049 67.56057 85.35029
#
# Poissons Ratio (x) = 0.18252 0.15945
# Poissons Ratio (y) = 0.32317 0.27823
# Poissons Ratio (z) = 0.22347 0.22024
#
# Static dielectric constant tensor:
#      x y z
#    x 3.769790 0.000000 -0.104750 
#    y 0.000000 3.272110 0.000000 
#    z -0.104750 0.000000 3.791850 
# 
# 
# High freq. dielectric constant tensor:
#      x y z
#    x 1.787270 0.000000 -0.003020 
#    y 0.000000 1.726220 0.000000 
#    z -0.003020 0.000000 1.788270 
# 
# From -- ./inp_files/187550.got.cif
#   From: 2010.06.25/outbox.cif.g09.slc.cpg/sg12_94_cif.got.tgz:187550.got - 2010.06.28 00:19:55.
