data_PCOD8098630
_publ_section_title
;
Structure prediction by ZEFSAII (Michael W. Deem and Ramdas Pophale) SiO2 
 PCOD8098630
Probable space group: C 2/M
;
_chemical_formula_sum "Si O2"
_cell_formula_units_Z 56
_cell_length_a 14.053449
_cell_length_b 22.419119
_cell_length_c 9.548692
_cell_angle_alpha 90.000000
_cell_angle_beta 67.744671
_cell_angle_gamma 90.000000
_cell_volume 2784.352724
_symmetry_space_group_name_H-M "C 2/M"
_symmetry_group_IT_number 12
_symmetry_cell_setting 'monoclinic'
loop_
_space_group_symop_operation_xyz
x,y,z
-x,y,-z
-x,-y,-z
x,-y,z
1/2+x,1/2+y,z
1/2-x,1/2+y,-z
1/2-x,1/2-y,-z
1/2+x,1/2-y,z
loop_
_atom_site_type_symbol
_atom_site_label
_atom_site_fract_x
_atom_site_fract_y
_atom_site_fract_z
Si Si1 0.892197 0.500000 0.638927
Si Si2 0.757024 0.390791 0.617519
Si Si3 0.475417 0.000000 0.176825
Si Si4 0.764819 0.328211 0.874910
Si Si5 0.325889 0.890875 0.271337
Si Si6 0.960781 0.931938 0.171826
Si Si7 0.181332 0.067804 0.110084
Si Si8 0.114754 0.717125 0.951313
O O1 0.823824 0.445677 0.629629
O O2 0.000000 0.500000 0.500000
O O3 0.919017 0.500000 0.790950
O O4 0.797483 0.338041 0.696037
O O5 0.774551 0.374319 0.447215
O O6 0.634417 0.396149 0.710650
O O7 0.414571 0.060416 0.247269
O O8 0.500000 0.000000 0.000000
O O9 0.688950 0.272833 0.910899
O O10 0.710876 0.387723 0.967260
O O11 0.866280 0.315822 0.910787
O O12 0.240622 0.919336 0.219448
O O13 0.367294 0.829463 0.184201
O O14 0.060551 0.925446 0.216503
O O15 0.924150 0.000000 0.176328
O O16 0.000000 0.907282 0.000000
O O17 0.204180 0.000000 0.046086
O O18 0.000000 0.741289 0.000000
#
# Coordination Sequence:
#
# PCOD8098630 Si02
#       8
#     4   8   4   8   8   8   8   8
#     4  12  26  42  60  98 147 170 211 269 332 391
#     4  12  24  39  65  95 138 170 213 267 325 394
#     4  12  26  40  67  94 128 181 216 263 332 386
#     4  10  24  41  68  96 124 171 219 270 326 384
#     4  11  24  42  62  97 132 169 217 264 330 392
#     4  10  20  34  58  94 129 169 209 253 319 383
#     4  10  21  38  64  96 132 162 214 258 316 396
#     4  10  24  46  67  91 126 170 228 277 319 386
#
# _framework density 20.112393999999998
#
# number of rings (size 3 to 8) (size 9 to 14) (size 15 to 20)
#    0.000    1.286    4.286    0.429    9.000    1.143 
#    0.000    1.429    0.000    0.000    0.000    0.000 
#    0.000    0.000    0.000    0.000    0.000    0.000 
#
# Total GULP energy -347075.060974 kJ/mol
# GULP energy per Si atom -12395.537892 kJ/mol
# Density = 2.006662 g / cm^3
# Si number density = 20.112394 Si / 1000 Ang^3
#
#
#
# Elastic Constant Matrix: (Units=GPa)
#
#
# Indices 1 2 3 4 5 6 
#
# 1 104.1728 21.3160 16.8557 0.0000 2.9251 0.0000
# 2 21.3160 89.3277 24.3105 0.0000 9.4556 0.0000
# 3 16.8557 24.3105 84.0748 0.0000 9.7183 0.0000
# 4 0.0000 0.0000 0.0000 18.2873 0.0000 -6.3756
# 5 2.9251 9.4556 9.7183 0.0000 29.7081 0.0000
# 6 0.0000 0.0000 0.0000 -6.3756 0.0000 11.3024
#
#
#
# Elastic Compliance Matrix: (Units=1/GPa)
#
#
# Indices 1 2 3 4 5 6 
#
# 1 0.010256 -0.002059 -0.001476 0.000000 0.000128 0.000000
# 2 -0.002059 0.012797 -0.002952 0.000000 -0.002905 0.000000
# 3 -0.001476 -0.002952 0.013426 0.000000 -0.003307 0.000000
# 4 0.000000 0.000000 0.000000 0.068069 0.000000 0.038397
# 5 0.000128 -0.002905 -0.003307 0.000000 0.035655 0.000000
# 6 0.000000 0.000000 0.000000 0.038397 0.000000 0.110136
#
#
# Mechanical properties :
#
#
# Convention : Reuss Voigt Hill
#
# Bulk Modulus (GPa) = 42.54312 44.72664 43.63488
# Shear Modulus (GPa) = 18.44018 26.19911 22.31964
#
# Velocity S-wave (km/s) = 3.03125 3.61312 3.33490
# Velocity P-wave (km/s) = 5.78359 6.30022 6.04743
#
# Compressibility (1/GPa) = 0.02350557
#
# Stress axis : x y z
#
# Youngs Moduli (GPa) = 97.50422 78.14382 74.48377
#
# Poissons Ratio (x) = 0.16093 0.10990
# Poissons Ratio (y) = 0.20080 0.21985
# Poissons Ratio (z) = 0.14387 0.23065
#
# Static dielectric constant tensor:
#      x y z
#    x 4.087410 0.000000 0.150850 
#    y 0.000000 3.024350 0.000000 
#    z 0.150850 0.000000 3.639300 
# 
# 
# High freq. dielectric constant tensor:
#      x y z
#    x 1.808960 0.000000 0.011210 
#    y 0.000000 1.778880 0.000000 
#    z 0.011210 0.000000 1.766980 
# 
# From -- ./inp_files/65821.got.cif
#   From: 2010.06.25/outbox.cif.g09.slc.cpg/sg12_33_cif.got.tgz:65821.got - 2010.06.28 00:19:55.
