data_PCOD8098775
_publ_section_title
;
Structure prediction by ZEFSAII (Michael W. Deem and Ramdas Pophale) SiO2 
 PCOD8098775
Probable space group: C 2/M
;
_chemical_formula_sum "Si O2"
_cell_formula_units_Z 64
_cell_length_a 22.656089
_cell_length_b 9.054997
_cell_length_c 16.937378
_cell_angle_alpha 90.000000
_cell_angle_beta 84.367717
_cell_angle_gamma 90.000000
_cell_volume 3457.941918
_symmetry_space_group_name_H-M "C 2/M"
_symmetry_group_IT_number 12
_symmetry_cell_setting 'monoclinic'
loop_
_space_group_symop_operation_xyz
x,y,z
-x,y,-z
-x,-y,-z
x,-y,z
1/2+x,1/2+y,z
1/2-x,1/2+y,-z
1/2-x,1/2-y,-z
1/2+x,1/2-y,z
loop_
_atom_site_type_symbol
_atom_site_label
_atom_site_fract_x
_atom_site_fract_y
_atom_site_fract_z
Si Si1 0.588426 0.826324 0.767579
Si Si2 0.209504 0.825595 0.779070
Si Si3 0.506282 0.826816 0.090145
Si Si4 0.260120 0.331911 0.918628
Si Si5 0.965495 0.675212 0.387101
Si Si6 0.388631 0.668027 0.832978
Si Si7 0.166384 0.673036 0.303716
Si Si8 0.084877 0.674360 0.447859
O O1 0.649764 0.739886 0.751818
O O2 0.553544 0.788556 0.853101
O O3 0.550864 0.766168 0.697631
O O4 0.601505 0.000000 0.760119
O O5 0.219597 0.753075 0.862015
O O6 0.264935 0.781334 0.715283
O O7 0.203731 0.000000 0.789513
O O8 0.560797 0.744923 0.122897
O O9 0.519795 0.000000 0.092268
O O10 0.500000 0.774109 0.000000
O O11 0.237609 0.500000 0.926080
O O12 0.329138 0.323054 0.891226
O O13 0.250000 0.250000 0.000000
O O14 0.966229 0.500000 0.383201
O O15 0.918080 0.730308 0.460778
O O16 0.029665 0.737605 0.404057
O O17 0.407244 0.500000 0.813723
O O18 0.377753 0.747967 0.751425
O O19 0.158156 0.500000 0.289339
O O20 0.145816 0.719158 0.395131
O O21 0.077805 0.500000 0.450461
#
# Coordination Sequence:
#
# PCOD8098775 Si02
#       8
#     8   8   8   8   8   8   8   8
#     4  10  20  35  53  74 104 140 175 215 263 314
#     4  10  21  35  51  74 102 139 178 214 258 307
#     4  10  22  37  53  75 100 133 174 213 257 310
#     4  10  21  36  55  78 102 131 169 214 260 306
#     4   8  14  25  47  79 106 130 166 214 264 306
#     4  10  21  35  52  77 105 131 164 208 259 308
#     4   9  17  32  54  76 101 135 174 214 254 301
#     4   8  13  25  49  79 105 128 166 218 259 302
#
# _framework density 18.508119000000001
#
# number of rings (size 3 to 8) (size 9 to 14) (size 15 to 20)
#    0.000    2.625    0.000    2.625    1.750    4.750 
#    0.000    0.625    0.000    0.750    0.000    2.625 
#    0.000    0.000    0.000    0.000    0.000    0.000 
#
# Total GULP energy -396632.949821 kJ/mol
# GULP energy per Si atom -12394.779682 kJ/mol
# Density = 1.846599 g / cm^3
# Si number density = 18.508119 Si / 1000 Ang^3
#
#
#
# Elastic Constant Matrix: (Units=GPa)
#
#
# Indices 1 2 3 4 5 6 
#
# 1 76.7651 26.8162 47.5629 0.0000 5.6437 0.0000
# 2 26.8162 47.2590 26.4989 0.0000 1.4609 0.0000
# 3 47.5629 26.4989 130.6715 0.0000 -17.7276 0.0000
# 4 0.0000 0.0000 0.0000 12.6467 0.0000 3.5633
# 5 5.6437 1.4609 -17.7276 0.0000 22.9477 0.0000
# 6 0.0000 0.0000 0.0000 3.5633 0.0000 30.9921
#
#
#
# Elastic Compliance Matrix: (Units=1/GPa)
#
#
# Indices 1 2 3 4 5 6 
#
# 1 0.021109 -0.007372 -0.007629 0.000000 -0.010615 0.000000
# 2 -0.007372 0.027180 -0.003147 0.000000 -0.002348 0.000000
# 3 -0.007629 -0.003147 0.012678 0.000000 0.011871 0.000000
# 4 0.000000 0.000000 0.000000 0.081719 0.000000 -0.009396
# 5 -0.010615 -0.002348 0.011871 0.000000 0.055508 0.000000
# 6 0.000000 0.000000 0.000000 -0.009396 0.000000 0.033347
#
#
# Mechanical properties :
#
#
# Convention : Reuss Voigt Hill
#
# Bulk Modulus (GPa) = 40.53222 50.71685 45.62454
# Shear Modulus (GPa) = 18.11190 23.57181 20.84186
#
# Velocity S-wave (km/s) = 3.13164 3.57262 3.35937
# Velocity P-wave (km/s) = 5.91806 6.66934 6.30490
#
# Compressibility (1/GPa) = 0.02467173
#
# Stress axis : x y z
#
# Youngs Moduli (GPa) = 47.37286 36.79110 78.87598
#
# Poissons Ratio (x) = 0.27124 0.60171
# Poissons Ratio (y) = 0.34925 0.24823
# Poissons Ratio (z) = 0.36139 0.11579
#
# Static dielectric constant tensor:
#      x y z
#    x 3.649640 0.000000 -0.061110 
#    y 0.000000 3.221850 0.000000 
#    z -0.061110 0.000000 3.761280 
# 
# 
# High freq. dielectric constant tensor:
#      x y z
#    x 1.713420 0.000000 -0.013480 
#    y 0.000000 1.692570 0.000000 
#    z -0.013480 0.000000 1.724510 
# 
# From -- ./inp_files/281236.got.cif
#   From: 2010.06.25/outbox.cif.g09.slc.cpg/sg12_141_cif.got.tgz:281236.got - 2010.06.28 00:19:55.
