data_PCOD8098553
_publ_section_title
;
Structure prediction by ZEFSAII (Michael W. Deem and Ramdas Pophale) SiO2 
 PCOD8098553
Probable space group: C 2/M
;
_chemical_formula_sum "Si O2"
_cell_formula_units_Z 64
_cell_length_a 26.714962
_cell_length_b 13.774326
_cell_length_c 9.442864
_cell_angle_alpha 90.000000
_cell_angle_beta 113.864828
_cell_angle_gamma 90.000000
_cell_volume 3177.704752
_symmetry_space_group_name_H-M "C 2/M"
_symmetry_group_IT_number 12
_symmetry_cell_setting 'monoclinic'
loop_
_space_group_symop_operation_xyz
x,y,z
-x,y,-z
-x,-y,-z
x,-y,z
1/2+x,1/2+y,z
1/2-x,1/2+y,-z
1/2-x,1/2-y,-z
1/2+x,1/2-y,z
loop_
_atom_site_type_symbol
_atom_site_label
_atom_site_fract_x
_atom_site_fract_y
_atom_site_fract_z
Si Si1 0.939590 0.115084 0.487126
Si Si2 0.116991 0.203366 0.832065
Si Si3 0.883357 0.800667 0.682774
Si Si4 0.556299 0.386451 0.000093
Si Si5 0.336201 0.889104 0.714060
Si Si6 0.228239 0.113287 0.418462
Si Si7 0.667191 0.890419 0.956229
Si Si8 0.723759 0.387480 0.089473
O O1 0.892244 0.159463 0.333473
O O2 0.930292 0.168840 0.625770
O O3 0.000000 0.140159 0.500000
O O4 0.931444 0.000000 0.495536
O O5 0.120087 0.320731 0.837106
O O6 0.064872 0.167517 0.861903
O O7 0.173308 0.169120 0.965608
O O8 0.894144 0.860295 0.839259
O O9 0.883830 0.684447 0.714692
O O10 0.822827 0.832955 0.565782
O O11 0.554007 0.500000 0.965534
O O12 0.500000 0.347272 0.000000
O O13 0.281320 0.858430 0.569353
O O14 0.353675 0.000000 0.698668
O O15 0.325809 0.875029 0.868310
O O16 0.235917 0.146786 0.264033
O O17 0.216986 0.000000 0.415724
O O18 0.724123 0.864341 0.947167
O O19 0.649019 0.000000 0.899881
O O20 0.708187 0.500000 0.067994
#
# Coordination Sequence:
#
# PCOD8098553 Si02
#       8
#     8   8   8   8   8   8   8   8
#     4  11  26  44  62  89 121 151 192 248 306 361
#     4  12  22  38  62  87 118 159 197 240 297 356
#     4  12  22  38  62  87 118 159 197 240 297 356
#     4  11  22  38  62  87 111 143 190 248 306 359
#     4  10  22  39  59  89 125 160 199 242 286 343
#     4  10  20  34  57  90 123 155 197 243 292 355
#     4  10  22  39  59  89 125 160 199 242 286 343
#     4  10  20  34  57  90 123 155 197 243 292 355
#
# _framework density 20.140322999999999
#
# number of rings (size 3 to 8) (size 9 to 14) (size 15 to 20)
#    0.000    1.250    2.500    3.750    3.500    2.000 
#    0.000    0.000    0.000    4.500    0.000    0.000 
#    0.000    0.000    0.000    0.000    0.000    0.000 
#
# Total GULP energy -396859.525369 kJ/mol
# GULP energy per Si atom -12401.860168 kJ/mol
# Density = 2.009448 g / cm^3
# Si number density = 20.140323 Si / 1000 Ang^3
#
#
#
# Elastic Constant Matrix: (Units=GPa)
#
#
# Indices 1 2 3 4 5 6 
#
# 1 83.1629 60.8444 18.3547 0.0000 -17.0023 0.0000
# 2 60.8444 87.0988 14.9609 0.0000 -4.2534 0.0000
# 3 18.3547 14.9609 62.9140 0.0000 -10.3438 0.0000
# 4 0.0000 0.0000 0.0000 27.3914 0.0000 -3.5984
# 5 -17.0023 -4.2534 -10.3438 0.0000 25.3605 0.0000
# 6 0.0000 0.0000 0.0000 -3.5984 0.0000 26.9694
#
#
#
# Elastic Compliance Matrix: (Units=1/GPa)
#
#
# Indices 1 2 3 4 5 6 
#
# 1 0.030564 -0.020309 -0.001370 0.000000 0.016526 0.000000
# 2 -0.020309 0.025484 -0.001791 0.000000 -0.010072 0.000000
# 3 -0.001370 -0.001791 0.017707 0.000000 0.006003 0.000000
# 4 0.000000 0.000000 0.000000 0.037159 0.000000 0.004958
# 5 0.016526 -0.010072 0.006003 0.000000 0.051270 0.000000
# 6 0.000000 0.000000 0.000000 0.004958 0.000000 0.037741
#
#
# Mechanical properties :
#
#
# Convention : Reuss Voigt Hill
#
# Bulk Modulus (GPa) = 37.29234 46.83286 42.06260
# Shear Modulus (GPa) = 19.54622 25.21196 22.37909
#
# Velocity S-wave (km/s) = 3.11867 3.54194 3.33702
# Velocity P-wave (km/s) = 5.61467 6.32699 5.98145
#
# Compressibility (1/GPa) = 0.02681516
#
# Stress axis : x y z
#
# Youngs Moduli (GPa) = 32.71816 39.24036 56.47337
#
# Poissons Ratio (x) = 0.79692 0.07739
# Poissons Ratio (y) = 0.66446 0.10115
# Poissons Ratio (z) = 0.04484 0.07028
#
# Static dielectric constant tensor:
#      x y z
#    x 3.575740 0.000000 -0.133490 
#    y 0.000000 3.902910 0.000000 
#    z -0.133490 0.000000 3.740470 
# 
# 
# High freq. dielectric constant tensor:
#      x y z
#    x 1.772410 0.000000 -0.012990 
#    y 0.000000 1.792560 0.000000 
#    z -0.012990 0.000000 1.787930 
# 
# From -- ./inp_files/104683.got.cif
#   From: 2010.06.25/outbox.cif.g09.slc.cpg/sg12_53_cif.got.tgz:104683.got - 2010.06.28 00:19:55.
