data_PCOD8098286
_publ_section_title
;
Structure prediction by ZEFSAII (Michael W. Deem and Ramdas Pophale) SiO2 
 PCOD8098286
Probable space group: C 2/M
;
_chemical_formula_sum "Si O2"
_cell_formula_units_Z 48
_cell_length_a 20.452646
_cell_length_b 8.951942
_cell_length_c 26.550612
_cell_angle_alpha 90.000000
_cell_angle_beta 29.958213
_cell_angle_gamma 90.000000
_cell_volume 2427.516719
_symmetry_space_group_name_H-M "C 2/M"
_symmetry_group_IT_number 12
_symmetry_cell_setting 'monoclinic'
loop_
_space_group_symop_operation_xyz
x,y,z
-x,y,-z
-x,-y,-z
x,-y,z
1/2+x,1/2+y,z
1/2-x,1/2+y,-z
1/2-x,1/2-y,-z
1/2+x,1/2-y,z
loop_
_atom_site_type_symbol
_atom_site_label
_atom_site_fract_x
_atom_site_fract_y
_atom_site_fract_z
Si Si1 0.762500 0.674772 0.721139
Si Si2 0.972798 0.677409 0.403092
Si Si3 0.007264 0.675205 0.267541
Si Si4 0.513518 0.174685 0.932593
Si Si5 0.274372 0.675484 0.036970
Si Si6 0.726502 0.674398 0.628984
O O1 0.737568 0.500000 0.748993
O O2 0.655159 0.772855 0.820619
O O3 0.762702 0.709248 0.662033
O O4 0.901512 0.730392 0.649435
O O5 0.969129 0.500000 0.405429
O O6 0.841896 0.740768 0.516772
O O7 0.980807 0.740355 0.340947
O O8 0.982720 0.500000 0.282402
O O9 0.155242 0.715060 0.153724
O O10 0.910159 0.748449 0.292384
O O11 0.495749 0.000000 0.933902
O O12 0.500000 0.214210 0.000000
O O13 0.406433 0.263460 0.972616
O O14 0.289308 0.500000 0.018747
O O15 0.250000 0.750000 0.000000
O O16 0.709418 0.500000 0.630872
#
# Coordination Sequence:
#
# PCOD8098286 Si02
#       6
#     8   8   8   8   8   8
#     4  10  20  36  59  83 108 143 186 229 275 329
#     4   9  18  35  57  81 109 142 183 226 269 324
#     4  10  21  36  55  79 109 145 182 223 271 327
#     4  11  24  40  58  83 115 149 188 236 286 335
#     4  11  23  39  60  85 114 150 191 234 282 336
#     4  10  20  34  56  84 111 141 179 225 274 326
#
# _framework density 19.773292999999999
#
# number of rings (size 3 to 8) (size 9 to 14) (size 15 to 20)
#    0.000    1.833    0.000    4.000    0.000    9.333 
#    0.000    1.667    0.000    2.000    0.000    0.000 
#    0.000    0.000    0.000    0.000    0.000    0.000 
#
# Total GULP energy -297713.711794 kJ/mol
# GULP energy per Si atom -12404.737991 kJ/mol
# Density = 1.972829 g / cm^3
# Si number density = 19.773293 Si / 1000 Ang^3
#
#
#
# Elastic Constant Matrix: (Units=GPa)
#
#
# Indices 1 2 3 4 5 6 
#
# 1 93.3395 22.1475 3.1209 0.0012 -0.5123 -0.0006
# 2 22.1475 34.9631 19.8394 0.0002 8.2463 0.0008
# 3 3.1209 19.8394 67.4959 0.0043 11.7534 -0.0014
# 4 0.0012 0.0002 0.0043 26.4685 -0.0007 -2.6643
# 5 -0.5123 8.2463 11.7534 -0.0007 39.9461 -0.0001
# 6 -0.0006 0.0008 -0.0014 -2.6643 -0.0001 29.7307
#
#
#
# Elastic Compliance Matrix: (Units=1/GPa)
#
#
# Indices 1 2 3 4 5 6 
#
# 1 0.012959 -0.009705 0.001977 -0.000001 0.001588 0.000001
# 2 -0.009705 0.042325 -0.011013 0.000002 -0.005621 -0.000002
# 3 0.001977 -0.011013 0.018509 -0.000003 -0.003147 0.000001
# 4 -0.000001 0.000002 -0.000003 0.038125 0.000001 0.003417
# 5 0.001588 -0.005621 -0.003147 0.000001 0.027141 0.000000
# 6 0.000001 -0.000002 0.000001 0.003417 0.000000 0.033941
#
#
# Mechanical properties :
#
#
# Convention : Reuss Voigt Hill
#
# Bulk Modulus (GPa) = 27.54038 31.77935 29.65986
# Shear Modulus (GPa) = 22.46324 29.27509 25.86917
#
# Velocity S-wave (km/s) = 3.37418 3.85195 3.62095
# Velocity P-wave (km/s) = 5.39800 5.99083 5.70213
#
# Compressibility (1/GPa) = 0.03631033
#
# Stress axis : x y z
#
# Youngs Moduli (GPa) = 77.16609 23.62697 54.02651
#
# Poissons Ratio (x) = 0.22931 -0.10681
# Poissons Ratio (y) = 0.74892 0.59499
# Poissons Ratio (z) = -0.15256 0.26020
#
# Static dielectric constant tensor:
#      x y z
#    x 4.467050 0.000010 0.283730 
#    y 0.000010 3.383510 0.000000 
#    z 0.283730 0.000000 3.895040 
# 
# 
# High freq. dielectric constant tensor:
#      x y z
#    x 1.788250 0.000000 0.001150 
#    y 0.000000 1.748300 0.000000 
#    z 0.001150 0.000000 1.789250 
# 
# From -- ./inp_files/365373.got.cif
#   From: 2010.06.25/outbox.cif.g09.slc.cpg/sg12_183_cif.got.tgz:365373.got - 2010.06.28 00:19:55.
