data_PCOD8098841
_publ_section_title
;
Structure prediction by ZEFSAII (Michael W. Deem and Ramdas Pophale) SiO2 
 PCOD8098841
Probable space group: C 2/M
;
_chemical_formula_sum "Si O2"
_cell_formula_units_Z 56
_cell_length_a 14.333385
_cell_length_b 26.583318
_cell_length_c 14.259326
_cell_angle_alpha 90.000000
_cell_angle_beta 28.424222
_cell_angle_gamma 90.000000
_cell_volume 2586.189188
_symmetry_space_group_name_H-M "C 2/M"
_symmetry_group_IT_number 12
_symmetry_cell_setting 'monoclinic'
loop_
_space_group_symop_operation_xyz
x,y,z
-x,y,-z
-x,-y,-z
x,-y,z
1/2+x,1/2+y,z
1/2-x,1/2+y,-z
1/2-x,1/2-y,-z
1/2+x,1/2-y,z
loop_
_atom_site_type_symbol
_atom_site_label
_atom_site_fract_x
_atom_site_fract_y
_atom_site_fract_z
Si Si1 0.227618 0.307485 0.302429
Si Si2 0.739069 0.139281 0.473094
Si Si3 0.830466 0.682602 0.852308
Si Si4 0.209988 0.300437 0.770542
Si Si5 0.552309 0.293261 0.257030
Si Si6 0.715997 0.911500 0.774308
Si Si7 0.062624 0.943701 0.589744
O O1 0.307062 0.348890 0.305258
O O2 0.299723 0.314498 0.129971
O O3 0.265336 0.250903 0.312115
O O4 0.000000 0.316953 0.500000
O O5 0.502269 0.140373 0.696337
O O6 0.830254 0.085520 0.420172
O O7 0.833699 0.184121 0.451582
O O8 0.942424 0.734863 0.774442
O O9 0.684522 0.673207 0.067840
O O10 0.379643 0.299781 0.697453
O O11 0.220039 0.356525 0.717944
O O12 0.000000 0.294173 0.000000
O O13 0.787980 0.949137 0.630198
O O14 0.864038 0.914927 0.732422
O O15 0.500000 0.926026 0.000000
O O16 0.012281 0.000000 0.669123
#
# Coordination Sequence:
#
# PCOD8098841 Si02
#       7
#     8   8   8   8   8   8   8
#     4   9  21  36  52  82 118 160 190 228 275 344
#     4  11  22  36  58  79 114 152 194 240 291 333
#     4   9  21  35  54  82 118 149 197 228 277 347
#     4  10  21  33  53  85 124 152 182 221 278 350
#     4  10  20  35  53  85 116 156 187 230 274 345
#     4  10  22  40  63  86 120 153 184 235 303 359
#     4  11  25  41  60  87 112 148 204 255 295 343
#
# _framework density 21.653482
#
# number of rings (size 3 to 8) (size 9 to 14) (size 15 to 20)
#    0.000    2.000    1.429    1.286   12.000    2.286 
#    0.000    0.000    0.000    3.857    0.000    1.000 
#    0.000    0.000    0.000    0.000    0.000    0.000 
#
# Total GULP energy -346923.740439 kJ/mol
# GULP energy per Si atom -12390.133587 kJ/mol
# Density = 2.160420 g / cm^3
# Si number density = 21.653482 Si / 1000 Ang^3
#
#
#
# Elastic Constant Matrix: (Units=GPa)
#
#
# Indices 1 2 3 4 5 6 
#
# 1 63.8638 45.8838 12.6979 -0.0529 -4.7176 0.0593
# 2 45.8838 100.0238 15.6416 -0.0715 -3.5689 0.1069
# 3 12.6979 15.6416 59.2221 -0.0045 -2.3849 0.1088
# 4 -0.0529 -0.0715 -0.0045 17.3002 0.0164 3.4392
# 5 -4.7176 -3.5689 -2.3849 0.0164 30.7374 -0.0445
# 6 0.0593 0.1069 0.1088 3.4392 -0.0445 25.8192
#
#
#
# Elastic Compliance Matrix: (Units=1/GPa)
#
#
# Indices 1 2 3 4 5 6 
#
# 1 0.023808 -0.010490 -0.002243 0.000027 0.002262 -0.000002
# 2 -0.010490 0.015081 -0.001734 0.000037 0.000006 -0.000036
# 3 -0.002243 -0.001734 0.017858 0.000002 0.000840 -0.000062
# 4 0.000027 0.000037 0.000002 0.059375 -0.000034 -0.007909
# 5 0.002262 0.000006 0.000840 -0.000034 0.032947 0.000053
# 6 -0.000002 -0.000036 -0.000062 -0.007909 0.000053 0.039785
#
#
# Mechanical properties :
#
#
# Convention : Reuss Voigt Hill
#
# Bulk Modulus (GPa) = 35.95294 41.28402 38.61848
# Shear Modulus (GPa) = 22.02069 24.69712 23.35890
#
# Velocity S-wave (km/s) = 3.19244 3.38088 3.28801
# Velocity P-wave (km/s) = 5.49806 5.86069 5.68227
#
# Compressibility (1/GPa) = 0.02781414
#
# Stress axis : x y z
#
# Youngs Moduli (GPa) = 42.00265 66.30837 55.99621
#
# Poissons Ratio (x) = 0.69557 0.12560
# Poissons Ratio (y) = 0.44060 0.09708
# Poissons Ratio (z) = 0.09421 0.11496
#
# Static dielectric constant tensor:
#      x y z
#    x 4.639480 -0.000270 0.162660 
#    y -0.000270 3.578250 0.000260 
#    z 0.162660 0.000260 3.951510 
# 
# 
# High freq. dielectric constant tensor:
#      x y z
#    x 1.848300 -0.000010 -0.012160 
#    y -0.000010 1.796910 0.000020 
#    z -0.012160 0.000020 1.858670 
# 
# From -- ./inp_files/219097.got.cif
#   From: 2010.06.25/outbox.cif.g09.slc.cpg/sg12_110_cif.got.tgz:219097.got - 2010.06.28 00:19:55.
