data_PCOD8098537
_publ_section_title
;
Structure prediction by ZEFSAII (Michael W. Deem and Ramdas Pophale) SiO2 
 PCOD8098537
Probable space group: C 2/M
;
_chemical_formula_sum "Si O2"
_cell_formula_units_Z 64
_cell_length_a 15.714415
_cell_length_b 22.815829
_cell_length_c 17.801874
_cell_angle_alpha 90.000000
_cell_angle_beta 30.307025
_cell_angle_gamma 90.000000
_cell_volume 3220.892685
_symmetry_space_group_name_H-M "C 2/M"
_symmetry_group_IT_number 12
_symmetry_cell_setting 'monoclinic'
loop_
_space_group_symop_operation_xyz
x,y,z
-x,y,-z
-x,-y,-z
x,-y,z
1/2+x,1/2+y,z
1/2-x,1/2+y,-z
1/2-x,1/2-y,-z
1/2+x,1/2-y,z
loop_
_atom_site_type_symbol
_atom_site_label
_atom_site_fract_x
_atom_site_fract_y
_atom_site_fract_z
Si Si1 0.854737 0.789283 0.169402
Si Si2 0.068759 0.433965 0.864109
Si Si3 0.390371 0.067169 0.518141
Si Si4 0.199032 0.829559 0.351682
Si Si5 0.382515 0.136551 0.755871
Si Si6 0.205126 0.314314 0.552836
Si Si7 0.239561 0.430355 0.011008
Si Si8 0.077998 0.869071 0.743079
O O1 0.758420 0.729890 0.265118
O O2 0.731247 0.835563 0.222808
O O3 0.934904 0.818021 0.183690
O O4 0.000000 0.771963 0.000000
O O5 0.133778 0.500000 0.795365
O O6 0.219973 0.387416 0.747094
O O7 0.921681 0.416211 0.917466
O O8 0.000000 0.433061 0.000000
O O9 0.500000 0.096754 0.500000
O O10 0.464600 0.094730 0.386404
O O11 0.194746 0.078698 0.686556
O O12 0.428060 0.000000 0.483006
O O13 0.249371 0.832506 0.398964
O O14 0.000000 0.833809 0.500000
O O15 0.499494 0.185757 0.705056
O O16 0.273139 0.098205 0.896701
O O17 0.250000 0.250000 0.500000
O O18 0.319942 0.351099 0.408314
O O19 0.271865 0.500000 0.992219
O O20 0.399920 0.396417 0.853681
#
# Coordination Sequence:
#
# PCOD8098537 Si02
#       8
#     8   8   8   8   8   8   8   8
#     4  12  24  42  62  97 136 178 213 268 324 394
#     4  10  24  49  73  97 132 169 213 279 344 394
#     4  10  20  34  57  88 126 173 217 259 309 373
#     4  12  26  44  70  99 127 170 225 271 336 398
#     4  11  22  40  63  91 130 174 217 267 326 385
#     4  11  23  42  63  93 130 171 218 277 326 388
#     4  11  23  43  68  96 132 174 223 273 327 391
#     4  11  23  39  62  92 135 170 225 266 323 383
#
# _framework density 19.870266999999998
#
# number of rings (size 3 to 8) (size 9 to 14) (size 15 to 20)
#    0.000    1.000    5.000    1.875    3.500    0.250 
#    2.250    3.125    0.000    0.000    0.000    0.000 
#    0.000    0.000    0.000    0.000    0.000    0.000 
#
# Total GULP energy -396527.474889 kJ/mol
# GULP energy per Si atom -12391.483590 kJ/mol
# Density = 1.982504 g / cm^3
# Si number density = 19.870267 Si / 1000 Ang^3
#
#
#
# Elastic Constant Matrix: (Units=GPa)
#
#
# Indices 1 2 3 4 5 6 
#
# 1 74.5710 29.2548 23.3308 -0.0021 3.0354 -0.0086
# 2 29.2548 109.7211 50.6275 -0.0088 -6.6083 0.0103
# 3 23.3308 50.6275 116.4820 -0.0735 -5.3183 0.0344
# 4 -0.0021 -0.0088 -0.0735 38.3118 0.0257 -9.5140
# 5 3.0354 -6.6083 -5.3183 0.0257 35.8221 -0.0062
# 6 -0.0086 0.0103 0.0344 -9.5140 -0.0062 32.9428
#
#
#
# Elastic Compliance Matrix: (Units=1/GPa)
#
#
# Indices 1 2 3 4 5 6 
#
# 1 0.015381 -0.003459 -0.001677 0.000000 -0.002190 0.000006
# 2 -0.003459 0.012246 -0.004544 -0.000008 0.001878 -0.000002
# 3 -0.001677 -0.004544 0.010938 0.000018 0.000928 -0.000005
# 4 0.000000 -0.000008 0.000018 0.028118 -0.000018 0.008121
# 5 -0.002190 0.001878 0.000928 -0.000018 0.028585 -0.000002
# 6 0.000006 -0.000002 -0.000005 0.008121 -0.000002 0.032701
#
#
# Mechanical properties :
#
#
# Convention : Reuss Voigt Hill
#
# Bulk Modulus (GPa) = 52.07075 56.35561 54.21318
# Shear Modulus (GPa) = 32.52402 34.58606 33.55504
#
# Velocity S-wave (km/s) = 4.05015 4.17657 4.11385
# Velocity P-wave (km/s) = 6.93786 7.18899 7.06454
#
# Compressibility (1/GPa) = 0.01920464
#
# Stress axis : x y z
#
# Youngs Moduli (GPa) = 65.01543 81.65865 91.42111
#
# Poissons Ratio (x) = 0.28246 0.15334
# Poissons Ratio (y) = 0.22489 0.41543
# Poissons Ratio (z) = 0.10905 0.37106
#
# Static dielectric constant tensor:
#      x y z
#    x 3.960260 -0.000690 -0.104380 
#    y -0.000690 3.390160 0.000090 
#    z -0.104380 0.000090 3.706440 
# 
# 
# High freq. dielectric constant tensor:
#      x y z
#    x 1.779900 -0.000010 0.001180 
#    y -0.000010 1.780320 0.000020 
#    z 0.001180 0.000020 1.783320 
# 
# From -- ./inp_files/272813.got.cif
#   From: 2010.06.25/outbox.cif.g09.slc.cpg/sg12_137_cif.got.tgz:272813.got - 2010.06.28 00:19:55.
