data_PCOD8098298
_publ_section_title
;
Structure prediction by ZEFSAII (Michael W. Deem and Ramdas Pophale) SiO2 
 PCOD8098298
Probable space group: C 2/M
;
_chemical_formula_sum "Si O2"
_cell_formula_units_Z 64
_cell_length_a 25.585793
_cell_length_b 8.971471
_cell_length_c 32.016310
_cell_angle_alpha 90.000000
_cell_angle_beta 152.943075
_cell_angle_gamma 90.000000
_cell_volume 3342.923031
_symmetry_space_group_name_H-M "C 2/M"
_symmetry_group_IT_number 12
_symmetry_cell_setting 'monoclinic'
loop_
_space_group_symop_operation_xyz
x,y,z
-x,y,-z
-x,-y,-z
x,-y,z
1/2+x,1/2+y,z
1/2-x,1/2+y,-z
1/2-x,1/2-y,-z
1/2+x,1/2-y,z
loop_
_atom_site_type_symbol
_atom_site_label
_atom_site_fract_x
_atom_site_fract_y
_atom_site_fract_z
Si Si1 0.060425 0.170766 0.001028
Si Si2 0.320423 0.676677 0.679435
Si Si3 0.653775 0.670899 0.207141
Si Si4 0.422535 0.823811 0.528503
Si Si5 0.647039 0.675791 0.699183
Si Si6 0.700560 0.322333 0.831241
Si Si7 0.994370 0.162005 0.251635
Si Si8 0.141174 0.163347 0.437124
O O1 0.171449 0.266761 0.069721
O O2 0.098001 0.000000 0.034832
O O3 0.000000 0.231761 0.000000
O O4 0.975153 0.187872 0.901336
O O5 0.320239 0.500000 0.671793
O O6 0.346701 0.722932 0.745251
O O7 0.192905 0.736914 0.576566
O O8 0.422727 0.747203 0.722917
O O9 0.696563 0.500000 0.233381
O O10 0.735209 0.778326 0.239010
O O11 0.542801 0.752336 0.598404
O O12 0.422008 0.769964 0.575574
O O13 0.431392 0.000000 0.530654
O O14 0.629952 0.500000 0.684432
O O15 0.654383 0.729358 0.752815
O O16 0.698563 0.500000 0.831728
O O17 0.622308 0.257239 0.814429
O O18 0.062425 0.134571 0.342127
O O19 0.962506 0.000000 0.209499
O O20 0.250000 0.250000 0.500000
O O21 0.171067 0.000000 0.477905
#
# Coordination Sequence:
#
# PCOD8098298 Si02
#       8
#     8   8   8   8   8   8   8   8
#     4  10  20  35  57  85 111 135 175 235 286 324
#     4   9  19  36  58  79 106 151 196 224 261 329
#     4  10  21  39  60  80 106 145 189 230 275 334
#     4  11  21  34  55  83 112 148 191 232 274 324
#     4  11  22  36  55  83 116 146 179 229 285 335
#     4  10  20  34  56  84 112 143 176 221 281 341
#     4   9  17  33  54  79 110 144 185 224 262 322
#     4  11  19  31  51  79 112 145 188 232 275 322
#
# _framework density 19.144921
#
# number of rings (size 3 to 8) (size 9 to 14) (size 15 to 20)
#    0.000    1.875    3.750    1.125    0.000    1.750 
#    0.000    4.375    0.000    0.000    0.000    0.000 
#    0.000    0.000    0.000    0.000    0.000    0.000 
#
# Total GULP energy -396498.176685 kJ/mol
# GULP energy per Si atom -12390.568021 kJ/mol
# Density = 1.910135 g / cm^3
# Si number density = 19.144921 Si / 1000 Ang^3
#
#
#
# Elastic Constant Matrix: (Units=GPa)
#
#
# Indices 1 2 3 4 5 6 
#
# 1 94.6480 23.5949 58.2708 -0.0011 8.1321 -0.0014
# 2 23.5949 41.9269 31.1108 -0.0055 6.6637 -0.0057
# 3 58.2708 31.1108 109.1830 -0.0009 14.9869 -0.0009
# 4 -0.0011 -0.0055 -0.0009 23.5391 0.0003 3.2566
# 5 8.1321 6.6637 14.9869 0.0003 36.9404 0.0005
# 6 -0.0014 -0.0057 -0.0009 3.2566 0.0005 17.9626
#
#
#
# Elastic Compliance Matrix: (Units=1/GPa)
#
#
# Indices 1 2 3 4 5 6 
#
# 1 0.016112 -0.003419 -0.007648 0.000000 0.000173 0.000000
# 2 -0.003419 0.031123 -0.006752 0.000006 -0.002122 0.000008
# 3 -0.007648 -0.006752 0.015637 -0.000001 -0.003442 -0.000002
# 4 0.000000 0.000006 -0.000001 0.043576 -0.000001 -0.007900
# 5 0.000173 -0.002122 -0.003442 -0.000001 0.028812 -0.000001
# 6 0.000000 0.000008 -0.000002 -0.007900 -0.000001 0.057104
#
#
# Mechanical properties :
#
#
# Convention : Reuss Voigt Hill
#
# Bulk Modulus (GPa) = 36.72070 52.41232 44.56651
# Shear Modulus (GPa) = 21.08998 24.54051 22.81524
#
# Velocity S-wave (km/s) = 3.32263 3.58415 3.45586
# Velocity P-wave (km/s) = 5.82596 6.67564 6.26522
#
# Compressibility (1/GPa) = 0.02723260
#
# Stress axis : x y z
#
# Youngs Moduli (GPa) = 62.06662 32.13081 63.95009
#
# Poissons Ratio (x) = 0.10987 0.48910
# Poissons Ratio (y) = 0.21223 0.43179
# Poissons Ratio (z) = 0.47470 0.21695
#
# Static dielectric constant tensor:
#      x y z
#    x 3.610990 0.000000 0.141530 
#    y 0.000000 3.227760 0.000000 
#    z 0.141530 0.000000 3.447100 
# 
# 
# High freq. dielectric constant tensor:
#      x y z
#    x 1.744290 0.000000 0.019550 
#    y 0.000000 1.714950 0.000000 
#    z 0.019550 0.000000 1.740970 
# 
# From -- ./inp_files/244172.got.cif
#   From: 2010.06.25/outbox.cif.g09.slc.cpg/sg12_123_cif.got.tgz:244172.got - 2010.06.28 00:19:55.
