data_PCOD8098577
_publ_section_title
;
Structure prediction by ZEFSAII (Michael W. Deem and Ramdas Pophale) SiO2 
 PCOD8098577
Probable space group: C 2/M
;
_chemical_formula_sum "Si O2"
_cell_formula_units_Z 64
_cell_length_a 31.313586
_cell_length_b 12.583592
_cell_length_c 19.346553
_cell_angle_alpha 90.000000
_cell_angle_beta 27.190149
_cell_angle_gamma 90.000000
_cell_volume 3483.412948
_symmetry_space_group_name_H-M "C 2/M"
_symmetry_group_IT_number 12
_symmetry_cell_setting 'monoclinic'
loop_
_space_group_symop_operation_xyz
x,y,z
-x,y,-z
-x,-y,-z
x,-y,z
1/2+x,1/2+y,z
1/2-x,1/2+y,-z
1/2-x,1/2-y,-z
1/2+x,1/2-y,z
loop_
_atom_site_type_symbol
_atom_site_label
_atom_site_fract_x
_atom_site_fract_y
_atom_site_fract_z
Si Si1 0.628734 0.882877 0.928882
Si Si2 0.703092 0.876234 0.355229
Si Si3 0.407934 0.376915 0.833901
Si Si4 0.261039 0.729797 0.136312
Si Si5 0.720254 0.797050 0.670056
Si Si6 0.920430 0.377533 0.233789
Si Si7 0.904974 0.122260 0.675738
Si Si8 0.916965 0.256824 0.377826
O O1 0.659500 0.801096 0.943029
O O2 0.692991 0.881320 0.768300
O O3 0.634583 0.000000 0.953668
O O4 0.523594 0.859271 0.054458
O O5 0.720573 0.854822 0.249220
O O6 0.782953 0.820564 0.288850
O O7 0.603425 0.823374 0.521740
O O8 0.704181 0.000000 0.368460
O O9 0.415773 0.500000 0.843075
O O10 0.417390 0.360201 0.738990
O O11 0.491403 0.314165 0.750478
O O12 0.308592 0.332233 0.004027
O O13 0.177859 0.803624 0.230410
O O14 0.651480 0.803053 0.704079
O O15 0.827214 0.820040 0.492279
O O16 0.888318 0.500000 0.274198
O O17 0.924112 0.344253 0.307952
O O18 0.000000 0.154949 0.500000
O O19 0.879450 0.000000 0.695514
#
# Coordination Sequence:
#
# PCOD8098577 Si02
#       8
#     8   8   8   8   8   8   8   8
#     4  10  20  34  58  84 113 150 191 242 289 336
#     4   9  20  37  58  80 110 155 193 233 284 336
#     4  11  23  39  60  86 118 152 188 233 285 339
#     4  11  20  39  60  83 118 152 191 226 278 348
#     4   9  21  34  55  83 113 152 194 239 292 337
#     4  11  20  35  57  83 116 148 194 249 291 335
#     4  10  22  39  63  93 119 146 184 234 287 335
#     4  10  21  37  55  83 114 154 192 236 289 342
#
# _framework density 18.372786000000001
#
# number of rings (size 3 to 8) (size 9 to 14) (size 15 to 20)
#    0.750    1.125    1.250    3.375    0.000    2.000 
#    0.000    0.625    0.000   10.500    0.000    0.000 
#    0.000    0.000    0.000    0.000    0.000    0.000 
#
# Total GULP energy -396629.524850 kJ/mol
# GULP energy per Si atom -12394.672652 kJ/mol
# Density = 1.833097 g / cm^3
# Si number density = 18.372786 Si / 1000 Ang^3
#
#
#
# Elastic Constant Matrix: (Units=GPa)
#
#
# Indices 1 2 3 4 5 6 
#
# 1 75.6917 45.9359 36.7020 0.0000 -3.9884 0.0000
# 2 45.9359 98.3311 54.3769 0.0000 -7.4043 0.0000
# 3 36.7020 54.3769 110.6805 0.0000 1.3465 0.0000
# 4 0.0000 0.0000 0.0000 26.6465 0.0000 0.4330
# 5 -3.9884 -7.4043 1.3465 0.0000 32.3407 0.0000
# 6 0.0000 0.0000 0.0000 0.4330 0.0000 21.2785
#
#
#
# Elastic Compliance Matrix: (Units=1/GPa)
#
#
# Indices 1 2 3 4 5 6 
#
# 1 0.019013 -0.007320 -0.002718 0.000000 0.000782 0.000000
# 2 -0.007320 0.017185 -0.006056 0.000000 0.003284 0.000000
# 3 -0.002718 -0.006056 0.012939 0.000000 -0.002260 0.000000
# 4 0.000000 0.000000 0.000000 0.037541 0.000000 -0.000764
# 5 0.000782 0.003284 -0.002260 0.000000 0.031863 0.000000
# 6 0.000000 0.000000 0.000000 -0.000764 0.000000 0.047011
#
#
# Mechanical properties :
#
#
# Convention : Reuss Voigt Hill
#
# Bulk Modulus (GPa) = 58.99761 62.08144 60.53953
# Shear Modulus (GPa) = 24.58329 25.89905 25.24117
#
# Velocity S-wave (km/s) = 3.66187 3.75859 3.71055
# Velocity P-wave (km/s) = 7.07532 7.25943 7.16797
#
# Compressibility (1/GPa) = 0.01694984
#
# Stress axis : x y z
#
# Youngs Moduli (GPa) = 52.59547 58.18889 77.28615
#
# Poissons Ratio (x) = 0.42595 0.21006
# Poissons Ratio (y) = 0.38501 0.46802
# Poissons Ratio (z) = 0.14295 0.35237
#
# Static dielectric constant tensor:
#      x y z
#    x 3.226180 0.000000 0.095550 
#    y 0.000000 3.241220 0.000000 
#    z 0.095550 0.000000 3.553030 
# 
# 
# High freq. dielectric constant tensor:
#      x y z
#    x 1.699150 0.000000 0.010090 
#    y 0.000000 1.704150 0.000000 
#    z 0.010090 0.000000 1.725750 
# 
# From -- ./inp_files/296468.got.cif
#   From: 2010.06.25/outbox.cif.g09.slc.cpg/sg12_149_cif.got.tgz:296468.got - 2010.06.28 00:19:55.
