data_PCOD8098251
_publ_section_title
;
Structure prediction by ZEFSAII (Michael W. Deem and Ramdas Pophale) SiO2 
 PCOD8098251
Probable space group: C 2/M
;
_chemical_formula_sum "Si O2"
_cell_formula_units_Z 48
_cell_length_a 26.786305
_cell_length_b 15.899297
_cell_length_c 11.458920
_cell_angle_alpha 90.000000
_cell_angle_beta 28.164248
_cell_angle_gamma 90.000000
_cell_volume 2303.441071
_symmetry_space_group_name_H-M "C 2/M"
_symmetry_group_IT_number 12
_symmetry_cell_setting 'monoclinic'
loop_
_space_group_symop_operation_xyz
x,y,z
-x,y,-z
-x,-y,-z
x,-y,z
1/2+x,1/2+y,z
1/2-x,1/2+y,-z
1/2-x,1/2-y,-z
1/2+x,1/2-y,z
loop_
_atom_site_type_symbol
_atom_site_label
_atom_site_fract_x
_atom_site_fract_y
_atom_site_fract_z
Si Si1 0.302282 0.403837 0.592501
Si Si2 0.167930 0.714505 0.003261
Si Si3 0.510548 0.295436 0.763132
Si Si4 0.381212 0.908673 0.703888
Si Si5 0.330669 0.840220 0.573432
Si Si6 0.658576 0.595767 0.759383
O O1 0.289163 0.500000 0.653958
O O2 0.194939 0.355543 0.848647
O O3 0.404901 0.366835 0.450428
O O4 0.319763 0.389301 0.419921
O O5 0.253772 0.787191 0.816283
O O6 0.052897 0.756676 0.216454
O O7 0.176858 0.668352 0.109993
O O8 0.580961 0.218687 0.671432
O O9 0.429973 0.336668 0.021535
O O10 0.500000 0.907129 0.500000
O O11 0.382415 0.902434 0.560686
O O12 0.330018 0.000000 0.841083
O O13 0.267507 0.889908 0.604247
O O14 0.618796 0.500000 0.864138
#
# Coordination Sequence:
#
# PCOD8098251 Si02
#       6
#     8   8   8   8   8   8
#     4  10  21  37  57  83 116 151 187 228 277 334
#     4  10  21  37  58  84 112 147 187 234 282 330
#     4  10  20  34  56  83 111 145 188 227 273 330
#     4  11  21  36  60  81 108 148 188 230 282 340
#     4  10  21  37  58  84 112 147 187 234 282 330
#     4  10  21  37  57  83 116 151 187 228 277 334
#
# _framework density 20.838388999999999
#
# number of rings (size 3 to 8) (size 9 to 14) (size 15 to 20)
#    0.000    1.833    1.667    2.500    0.000    8.667 
#    0.000    0.000    0.000    2.000    0.000   14.000 
#    0.000    0.000    0.000    0.000    0.000    0.000 
#
# Total GULP energy -297398.909663 kJ/mol
# GULP energy per Si atom -12391.621236 kJ/mol
# Density = 2.079096 g / cm^3
# Si number density = 20.838389 Si / 1000 Ang^3
#
#
#
# Elastic Constant Matrix: (Units=GPa)
#
#
# Indices 1 2 3 4 5 6 
#
# 1 93.7528 46.4580 34.5338 0.0000 -14.7135 0.0000
# 2 46.4580 101.9336 23.1405 0.0000 1.6384 0.0000
# 3 34.5338 23.1405 53.6497 0.0000 -9.6953 0.0000
# 4 0.0000 0.0000 0.0000 33.1931 0.0000 7.1948
# 5 -14.7135 1.6384 -9.6953 0.0000 25.1472 0.0000
# 6 0.0000 0.0000 0.0000 7.1948 0.0000 19.0477
#
#
#
# Elastic Compliance Matrix: (Units=1/GPa)
#
#
# Indices 1 2 3 4 5 6 
#
# 1 0.017880 -0.006652 -0.007171 0.000000 0.008130 0.000000
# 2 -0.006652 0.013524 -0.002595 0.000000 -0.005774 0.000000
# 3 -0.007171 -0.002595 0.025418 0.000000 0.005773 0.000000
# 4 0.000000 0.000000 0.000000 0.032813 0.000000 -0.012394
# 5 0.008130 -0.005774 0.005773 0.000000 0.047125 0.000000
# 6 0.000000 0.000000 0.000000 -0.012394 0.000000 0.057182
#
#
# Mechanical properties :
#
#
# Convention : Reuss Voigt Hill
#
# Bulk Modulus (GPa) = 41.69001 50.84454 46.26727
# Shear Modulus (GPa) = 21.29732 25.15785 23.22758
#
# Velocity S-wave (km/s) = 3.20038 3.47837 3.34226
# Velocity P-wave (km/s) = 5.80572 6.37060 6.09470
#
# Compressibility (1/GPa) = 0.02398656
#
# Stress axis : x y z
#
# Youngs Moduli (GPa) = 55.92878 73.94332 39.34278
#
# Poissons Ratio (x) = 0.49186 0.28212
# Poissons Ratio (y) = 0.37203 0.10209
# Poissons Ratio (z) = 0.40105 0.19187
#
# Static dielectric constant tensor:
#      x y z
#    x 3.666660 0.000000 -0.193180 
#    y 0.000000 4.174180 0.000000 
#    z -0.193180 0.000000 3.711920 
# 
# 
# High freq. dielectric constant tensor:
#      x y z
#    x 1.802810 0.000000 -0.013980 
#    y 0.000000 1.830650 0.000000 
#    z -0.013980 0.000000 1.802440 
# 
# From -- ./inp_files/131139.got.cif
#   From: 2010.06.25/outbox.cif.g09.slc.cpg/sg12_66_cif.got.tgz:131139.got - 2010.06.28 00:19:55.
