data_PCOD8098236
_publ_section_title
;
Structure prediction by ZEFSAII (Michael W. Deem and Ramdas Pophale) SiO2 
 PCOD8098236
Probable space group: C 2/M
;
_chemical_formula_sum "Si O2"
_cell_formula_units_Z 56
_cell_length_a 20.387388
_cell_length_b 14.686426
_cell_length_c 18.586551
_cell_angle_alpha 90.000000
_cell_angle_beta 149.244162
_cell_angle_gamma 90.000000
_cell_volume 2845.907685
_symmetry_space_group_name_H-M "C 2/M"
_symmetry_group_IT_number 12
_symmetry_cell_setting 'monoclinic'
loop_
_space_group_symop_operation_xyz
x,y,z
-x,y,-z
-x,-y,-z
x,-y,z
1/2+x,1/2+y,z
1/2-x,1/2+y,-z
1/2-x,1/2-y,-z
1/2+x,1/2-y,z
loop_
_atom_site_type_symbol
_atom_site_label
_atom_site_fract_x
_atom_site_fract_y
_atom_site_fract_z
Si Si1 0.563626 0.277920 0.825120
Si Si2 0.649354 0.606499 0.431785
Si Si3 0.246744 0.743213 0.876906
Si Si4 0.884272 0.105890 0.439550
Si Si5 0.438326 0.102546 0.665688
Si Si6 0.932075 0.395833 0.362178
Si Si7 0.647009 0.897314 0.117791
O O1 0.440812 0.342964 0.710375
O O2 0.635273 0.292258 0.816869
O O3 0.525580 0.170858 0.794601
O O4 0.654957 0.307727 0.976645
O O5 0.621179 0.500000 0.401560
O O6 0.620084 0.646822 0.484015
O O7 0.792227 0.629199 0.541839
O O8 0.190426 0.669325 0.767732
O O9 0.325743 0.823878 0.916426
O O10 0.743527 0.123333 0.274446
O O11 0.000000 0.150090 0.500000
O O12 0.914197 0.000000 0.474642
O O13 0.466443 0.112623 0.607236
O O14 0.467880 0.000000 0.720524
O O15 0.882900 0.500000 0.322968
O O16 0.000000 0.364289 0.500000
O O17 0.671506 0.000000 0.112275
O O18 0.500000 0.885047 0.000000
#
# Coordination Sequence:
#
# PCOD8098236 Si02
#       7
#     8   8   8   8   8   8   8
#     4  10  21  36  54  81 116 147 187 232 281 341
#     4  10  20  34  56  82 112 148 185 233 288 338
#     4  10  22  37  55  84 113 149 192 231 283 342
#     4   9  18  33  54  81 110 144 191 233 274 338
#     4   9  19  35  56  81 107 144 189 234 283 337
#     4   9  19  39  63  83 107 143 193 243 286 338
#     4  10  22  38  56  83 121 158 191 232 288 354
#
# _framework density 19.677377
#
# number of rings (size 3 to 8) (size 9 to 14) (size 15 to 20)
#    0.000    2.429    0.000    1.286    2.000    5.714 
#    2.571    2.857    0.000    0.429    0.000    0.000 
#    0.000    0.000    0.000    0.000    0.000    0.000 
#
# Total GULP energy -347124.539642 kJ/mol
# GULP energy per Si atom -12397.304987 kJ/mol
# Density = 1.963259 g / cm^3
# Si number density = 19.677377 Si / 1000 Ang^3
#
#
#
# Elastic Constant Matrix: (Units=GPa)
#
#
# Indices 1 2 3 4 5 6 
#
# 1 77.1954 38.1009 40.3070 0.0009 11.6077 0.0008
# 2 38.1009 65.2339 43.0816 0.0007 2.2224 0.0007
# 3 40.3070 43.0816 126.5082 0.0020 3.4882 0.0019
# 4 0.0009 0.0007 0.0020 -10.1561 0.0013 -41.3941
# 5 11.6077 2.2224 3.4882 0.0013 31.6851 0.0010
# 6 0.0008 0.0007 0.0019 -41.3941 0.0010 -40.2161
#
#
#
# Elastic Compliance Matrix: (Units=1/GPa)
#
#
# Indices 1 2 3 4 5 6 
#
# 1 0.020228 -0.009620 -0.002992 0.000000 -0.006406 0.000000
# 2 -0.009620 0.024366 -0.005299 0.000000 0.002399 0.000000
# 3 -0.002992 -0.005299 0.010654 0.000000 0.000295 0.000000
# 4 0.000000 0.000000 0.000000 0.030816 0.000000 -0.031719
# 5 -0.006406 0.002399 0.000295 0.000000 0.033707 0.000001
# 6 0.000000 0.000000 0.000000 -0.031719 0.000001 0.007782
#
#
# Mechanical properties :
#
#
# Convention : Reuss Voigt Hill
#
# Bulk Modulus (GPa) = 51.47708 56.87962 54.17835
# Shear Modulus (GPa) = 29.43765 6.09245 17.76505
#
# Velocity S-wave (km/s) = 3.87203 1.76150 3.00795
# Velocity P-wave (km/s) = 6.79761 5.75378 6.29736
#
# Compressibility (1/GPa) = 0.01942612
#
# Stress axis : x y z
#
# Youngs Moduli (GPa) = 49.43664 41.04101 93.85914
#
# Poissons Ratio (x) = 0.39482 0.28084
# Poissons Ratio (y) = 0.47559 0.49733
# Poissons Ratio (z) = 0.14792 0.21746
#
# Static dielectric constant tensor:
#      x y z
#    x 3.625300 0.000000 0.090140 
#    y 0.000000 3.514980 0.000000 
#    z 0.090140 0.000000 3.571430 
# 
# 
# High freq. dielectric constant tensor:
#      x y z
#    x 1.757910 0.000000 0.006140 
#    y 0.000000 1.760310 0.000000 
#    z 0.006140 0.000000 1.769080 
# 
# From -- ./inp_files/284590.got.cif
#   From: 2010.06.25/outbox.cif.g09.slc.cpg/sg12_143_cif.got.tgz:284590.got - 2010.06.28 00:19:55.
