data_PCOD8098031
_publ_section_title
;
Structure prediction by ZEFSAII (Michael W. Deem and Ramdas Pophale) SiO2 
 PCOD8098031
Probable space group: C 2/M
;
_chemical_formula_sum "Si O2"
_cell_formula_units_Z 64
_cell_length_a 18.236516
_cell_length_b 14.157779
_cell_length_c 14.810463
_cell_angle_alpha 90.000000
_cell_angle_beta 122.733039
_cell_angle_gamma 90.000000
_cell_volume 3216.654716
_symmetry_space_group_name_H-M "C 2/M"
_symmetry_group_IT_number 12
_symmetry_cell_setting 'monoclinic'
loop_
_space_group_symop_operation_xyz
x,y,z
-x,y,-z
-x,-y,-z
x,-y,z
1/2+x,1/2+y,z
1/2-x,1/2+y,-z
1/2-x,1/2-y,-z
1/2+x,1/2-y,z
loop_
_atom_site_type_symbol
_atom_site_label
_atom_site_fract_x
_atom_site_fract_y
_atom_site_fract_z
Si Si1 0.786905 0.103231 0.680687
Si Si2 0.809728 0.390615 0.909262
Si Si3 0.993755 0.612900 0.394195
Si Si4 0.857992 0.706370 0.760537
Si Si5 0.825565 0.389683 0.564027
Si Si6 0.458265 0.765594 0.068739
Si Si7 0.323566 0.389464 0.025653
Si Si8 0.315942 0.895280 0.209286
O O1 0.856476 0.179780 0.758217
O O2 0.746360 0.134699 0.558254
O O3 0.711753 0.098860 0.704971
O O4 0.831864 0.000000 0.702237
O O5 0.827688 0.500000 0.899742
O O6 0.808045 0.332248 0.815279
O O7 0.719579 0.377791 0.904168
O O8 0.889188 0.350707 0.021542
O O9 0.984447 0.500000 0.391775
O O10 0.911277 0.654254 0.280783
O O11 0.000000 0.653340 0.500000
O O12 0.080430 0.647895 0.403361
O O13 0.803123 0.662573 0.641995
O O14 0.961612 0.687849 0.822071
O O15 0.828736 0.500000 0.585227
O O16 0.412171 0.672102 0.079916
O O17 0.500000 0.737750 0.000000
O O18 0.345884 0.500000 0.021268
O O19 0.255618 0.346580 0.904566
O O20 0.326017 0.000000 0.174167
#
# Coordination Sequence:
#
# PCOD8098031 Si02
#       8
#     8   8   8   8   8   8   8   8
#     4  10  20  36  56  79 109 144 181 227 278 330
#     4  10  22  40  58  79 113 153 192 232 274 330
#     4   9  15  27  47  76 110 136 168 217 277 337
#     4  11  23  37  55  83 111 151 190 227 276 333
#     4  10  20  34  55  82 113 143 177 225 280 339
#     4  10  22  37  54  81 115 149 190 239 279 327
#     4  10  21  37  59  84 113 153 192 230 277 328
#     4   9  16  28  51  79 105 137 173 215 274 328
#
# _framework density 19.896446999999998
#
# number of rings (size 3 to 8) (size 9 to 14) (size 15 to 20)
#    0.000    2.125    1.250    2.625    1.750    3.500 
#    0.000    0.000    0.000    0.000    0.000    0.000 
#    0.000    6.500    0.000    0.000    0.000    0.000 
#
# Total GULP energy -396561.851084 kJ/mol
# GULP energy per Si atom -12392.557846 kJ/mol
# Density = 1.985116 g / cm^3
# Si number density = 19.896447 Si / 1000 Ang^3
#
#
#
# Elastic Constant Matrix: (Units=GPa)
#
#
# Indices 1 2 3 4 5 6 
#
# 1 69.7198 28.0870 14.0268 0.0000 -6.2638 0.0000
# 2 28.0870 71.9070 32.3432 0.0000 -6.9726 0.0000
# 3 14.0268 32.3432 69.2911 0.0000 -16.3211 0.0000
# 4 0.0000 0.0000 0.0000 25.9104 0.0000 0.9522
# 5 -6.2638 -6.9726 -16.3211 0.0000 19.0583 0.0000
# 6 0.0000 0.0000 0.0000 0.9522 0.0000 23.1889
#
#
#
# Elastic Compliance Matrix: (Units=1/GPa)
#
#
# Indices 1 2 3 4 5 6 
#
# 1 0.017230 -0.006574 0.000436 0.000000 0.003631 0.000000
# 2 -0.006574 0.020119 -0.008563 0.000000 -0.002133 0.000000
# 3 0.000436 -0.008563 0.022093 0.000000 0.015930 0.000000
# 4 0.000000 0.000000 0.000000 0.038653 0.000000 -0.001587
# 5 0.003631 -0.002133 0.015930 0.000000 0.066526 0.000000
# 6 0.000000 0.000000 0.000000 -0.001587 0.000000 0.043189
#
#
# Mechanical properties :
#
#
# Convention : Reuss Voigt Hill
#
# Bulk Modulus (GPa) = 33.28845 39.98133 36.63489
# Shear Modulus (GPa) = 20.22443 22.72890 21.47667
#
# Velocity S-wave (km/s) = 3.19169 3.38355 3.28902
# Velocity P-wave (km/s) = 5.50906 5.95003 5.73379
#
# Compressibility (1/GPa) = 0.03004045
#
# Stress axis : x y z
#
# Youngs Moduli (GPa) = 58.03816 49.70342 45.26366
#
# Poissons Ratio (x) = 0.32675 -0.01973
# Poissons Ratio (y) = 0.38155 0.38758
# Poissons Ratio (z) = -0.02530 0.42560
#
# Static dielectric constant tensor:
#      x y z
#    x 3.490160 0.000000 -0.034210 
#    y 0.000000 3.421030 0.000000 
#    z -0.034210 0.000000 3.661240 
# 
# 
# High freq. dielectric constant tensor:
#      x y z
#    x 1.764270 0.000000 -0.009680 
#    y 0.000000 1.755280 0.000000 
#    z -0.009680 0.000000 1.775590 
# 
# From -- ./inp_files/225345.got.cif
#   From: 2010.06.25/outbox.cif.g09.slc.cpg/sg12_113_cif.got.tgz:225345.got - 2010.06.28 00:19:55.
