data_PCOD8098555
_publ_section_title
;
Structure prediction by ZEFSAII (Michael W. Deem and Ramdas Pophale) SiO2 
 PCOD8098555
Probable space group: C 2/M
;
_chemical_formula_sum "Si O2"
_cell_formula_units_Z 64
_cell_length_a 15.250375
_cell_length_b 8.667125
_cell_length_c 30.625094
_cell_angle_alpha 90.000000
_cell_angle_beta 129.187406
_cell_angle_gamma 90.000000
_cell_volume 3137.483467
_symmetry_space_group_name_H-M "C 2/M"
_symmetry_group_IT_number 12
_symmetry_cell_setting 'monoclinic'
loop_
_space_group_symop_operation_xyz
x,y,z
-x,y,-z
-x,-y,-z
x,-y,z
1/2+x,1/2+y,z
1/2-x,1/2+y,-z
1/2-x,1/2-y,-z
1/2+x,1/2-y,z
loop_
_atom_site_type_symbol
_atom_site_label
_atom_site_fract_x
_atom_site_fract_y
_atom_site_fract_z
Si Si1 0.554034 0.824055 0.061766
Si Si2 0.665611 0.820541 0.235384
Si Si3 0.924812 0.817503 0.554617
Si Si4 0.680661 0.680588 0.634632
Si Si5 0.251255 0.320642 0.826412
Si Si6 0.076061 0.819909 0.829148
Si Si7 0.261161 0.181766 0.436285
Si Si8 0.846157 0.676443 0.059470
O O1 0.659889 0.717566 0.107155
O O2 0.465429 0.814091 0.072924
O O3 0.595689 0.000000 0.067891
O O4 0.500000 0.760037 0.000000
O O5 0.754440 0.778327 0.300791
O O6 0.722664 0.780617 0.207610
O O7 0.554882 0.719532 0.207649
O O8 0.631719 0.000000 0.224911
O O9 0.851020 0.761278 0.573077
O O10 0.873175 0.750444 0.493878
O O11 0.052751 0.756107 0.599667
O O12 0.922486 0.000000 0.550312
O O13 0.680100 0.500000 0.624887
O O14 0.746123 0.762066 0.615638
O O15 0.255762 0.500000 0.815845
O O16 0.126962 0.273749 0.804168
O O17 0.145473 0.774435 0.894042
O O18 0.090940 0.000000 0.825229
O O19 0.270151 0.000000 0.440349
O O20 0.815249 0.500000 0.060911
O O21 0.750000 0.750000 0.000000
#
# Coordination Sequence:
#
# PCOD8098555 Si02
#       8
#     8   8   8   8   8   8   8   8
#     4  10  21  38  61  90 125 161 198 246 305 369
#     4  11  24  44  65  90 124 163 212 265 317 375
#     4   9  19  37  58  84 122 165 204 245 306 370
#     4  10  22  39  61  86 118 162 206 251 306 370
#     4  12  25  42  66  93 122 160 206 255 314 375
#     4  12  25  43  66  90 122 163 207 255 313 373
#     4  10  20  34  57  90 125 160 204 256 303 356
#     4  11  22  37  61  92 129 162 201 251 304 370
#
# _framework density 20.398513999999999
#
# number of rings (size 3 to 8) (size 9 to 14) (size 15 to 20)
#    0.000    1.375    1.250    4.500    0.000    6.250 
#    0.000    1.250    0.000    0.000    0.000    0.000 
#    0.000    0.000    0.000    0.000    0.000    0.000 
#
# Total GULP energy -396996.589632 kJ/mol
# GULP energy per Si atom -12406.143426 kJ/mol
# Density = 2.035209 g / cm^3
# Si number density = 20.398514 Si / 1000 Ang^3
#
#
#
# Elastic Constant Matrix: (Units=GPa)
#
#
# Indices 1 2 3 4 5 6 
#
# 1 98.0587 12.6366 36.1197 0.0000 -7.0755 0.0000
# 2 12.6366 61.1189 22.4709 0.0000 0.9368 0.0000
# 3 36.1197 22.4709 99.4951 0.0000 -6.2880 0.0000
# 4 0.0000 0.0000 0.0000 28.9849 0.0000 -4.2285
# 5 -7.0755 0.9368 -6.2880 0.0000 26.3516 0.0000
# 6 0.0000 0.0000 0.0000 -4.2285 0.0000 32.6205
#
#
#
# Elastic Compliance Matrix: (Units=1/GPa)
#
#
# Indices 1 2 3 4 5 6 
#
# 1 0.011958 -0.001053 -0.003958 0.000000 0.002304 0.000000
# 2 -0.001053 0.018004 -0.003800 0.000000 -0.001829 0.000000
# 3 -0.003958 -0.003800 0.012475 0.000000 0.002049 0.000000
# 4 0.000000 0.000000 0.000000 0.035166 0.000000 0.004558
# 5 0.002304 -0.001829 0.002049 0.000000 0.039121 0.000000
# 6 0.000000 0.000000 0.000000 0.004558 0.000000 0.031246
#
#
# Mechanical properties :
#
#
# Convention : Reuss Voigt Hill
#
# Bulk Modulus (GPa) = 40.29475 44.56967 42.43221
# Shear Modulus (GPa) = 28.75839 30.08779 29.42309
#
# Velocity S-wave (km/s) = 3.75884 3.84474 3.80203
# Velocity P-wave (km/s) = 6.21572 6.45029 6.33409
#
# Compressibility (1/GPa) = 0.02481713
#
# Stress axis : x y z
#
# Youngs Moduli (GPa) = 83.62864 55.54257 80.15910
#
# Poissons Ratio (x) = 0.05846 0.31724
# Poissons Ratio (y) = 0.08802 0.30459
# Poissons Ratio (z) = 0.33097 0.21105
#
# Static dielectric constant tensor:
#      x y z
#    x 4.031160 0.000000 -0.022420 
#    y 0.000000 3.670540 0.000000 
#    z -0.022420 0.000000 3.699740 
# 
# 
# High freq. dielectric constant tensor:
#      x y z
#    x 1.812030 0.000000 -0.002320 
#    y 0.000000 1.796070 0.000000 
#    z -0.002320 0.000000 1.792520 
# 
# From -- ./inp_files/375643.got.cif
#   From: 2010.06.25/outbox.cif.g09.slc.cpg/sg12_188_cif.got.tgz:375643.got - 2010.06.28 00:19:55.
