data_PCOD8098657
_publ_section_title
;
Structure prediction by ZEFSAII (Michael W. Deem and Ramdas Pophale) SiO2 
 PCOD8098657
Probable space group: C 2/M
;
_chemical_formula_sum "Si O2"
_cell_formula_units_Z 64
_cell_length_a 12.784476
_cell_length_b 32.409392
_cell_length_c 9.026173
_cell_angle_alpha 90.000000
_cell_angle_beta 122.751041
_cell_angle_gamma 90.000000
_cell_volume 3145.346788
_symmetry_space_group_name_H-M "C 2/M"
_symmetry_group_IT_number 12
_symmetry_cell_setting 'monoclinic'
loop_
_space_group_symop_operation_xyz
x,y,z
-x,y,-z
-x,-y,-z
x,-y,z
1/2+x,1/2+y,z
1/2-x,1/2+y,-z
1/2-x,1/2-y,-z
1/2+x,1/2-y,z
loop_
_atom_site_type_symbol
_atom_site_label
_atom_site_fract_x
_atom_site_fract_y
_atom_site_fract_z
Si Si1 0.706874 0.598393 0.515692
Si Si2 0.710069 0.704782 0.293397
Si Si3 0.984069 0.171385 0.644986
Si Si4 0.819859 0.896640 0.174485
Si Si5 0.135885 0.712437 0.120022
Si Si6 0.978749 0.048722 0.814561
Si Si7 0.100667 0.661033 0.370387
Si Si8 0.818727 0.340311 0.118121
O O1 0.611605 0.635232 0.460494
O O2 0.726214 0.585343 0.702364
O O3 0.650656 0.564462 0.359617
O O4 0.835709 0.616373 0.547926
O O5 0.575868 0.699855 0.273051
O O6 0.725525 0.751653 0.249547
O O7 0.830026 0.697626 0.488558
O O8 0.717833 0.671193 0.166714
O O9 0.000000 0.195894 0.500000
O O10 0.112371 0.148559 0.784262
O O11 0.904661 0.933738 0.184044
O O12 0.706393 0.885569 0.975437
O O13 0.123615 0.672184 0.215484
O O14 0.187275 0.697047 0.003396
O O15 0.000000 0.732871 0.000000
O O16 0.977664 0.000000 0.800225
O O17 0.000000 0.063153 0.000000
O O18 0.955453 0.658014 0.298815
#
# Coordination Sequence:
#
# PCOD8098657 Si02
#       8
#     8   8   8   8   8   8   8   8
#     4   9  18  37  61  81 118 163 198 234 293 353
#     4  11  22  36  58  80 113 158 207 262 320 360
#     4   8  18  34  53  84 110 147 201 249 294 360
#     4  10  20  34  60  89 116 161 196 240 295 360
#     4  10  22  39  55  78 114 156 201 268 320 355
#     4  10  22  38  62 100 132 151 184 243 307 359
#     4  10  21  41  55  80 116 162 212 250 298 364
#     4  11  23  36  58  85 120 156 210 256 299 362
#
# _framework density 20.347517
#
# number of rings (size 3 to 8) (size 9 to 14) (size 15 to 20)
#    0.000    2.125    1.250    2.250    7.000    1.000 
#    0.000    0.000    2.750    0.750    0.000    3.500 
#    0.000    0.000    0.000    0.000    0.000    0.000 
#
# Total GULP energy -396522.397831 kJ/mol
# GULP energy per Si atom -12391.324932 kJ/mol
# Density = 2.030121 g / cm^3
# Si number density = 20.347517 Si / 1000 Ang^3
#
#
#
# Elastic Constant Matrix: (Units=GPa)
#
#
# Indices 1 2 3 4 5 6 
#
# 1 79.0521 24.5042 29.9682 0.0000 -4.7877 0.0000
# 2 24.5042 67.9115 35.3073 0.0000 2.8772 0.0000
# 3 29.9682 35.3073 97.4806 0.0000 -3.3838 0.0000
# 4 0.0000 0.0000 0.0000 33.9776 0.0000 0.4067
# 5 -4.7877 2.8772 -3.3838 0.0000 33.4746 0.0000
# 6 0.0000 0.0000 0.0000 0.4067 0.0000 11.6723
#
#
#
# Elastic Compliance Matrix: (Units=1/GPa)
#
#
# Indices 1 2 3 4 5 6 
#
# 1 0.015204 -0.003928 -0.003175 0.000000 0.002191 0.000000
# 2 -0.003928 0.019324 -0.005889 0.000000 -0.002818 0.000000
# 3 -0.003175 -0.005889 0.013417 0.000000 0.001408 0.000000
# 4 0.000000 0.000000 0.000000 0.029443 0.000000 -0.001026
# 5 0.002191 -0.002818 0.001408 0.000000 0.030571 0.000000
# 6 0.000000 0.000000 0.000000 -0.001026 0.000000 0.085709
#
#
# Mechanical properties :
#
#
# Convention : Reuss Voigt Hill
#
# Bulk Modulus (GPa) = 45.53931 47.11151 46.32541
# Shear Modulus (GPa) = 22.02915 26.13588 24.08251
#
# Velocity S-wave (km/s) = 3.29393 3.58785 3.44402
# Velocity P-wave (km/s) = 6.07420 6.35352 6.21543
#
# Compressibility (1/GPa) = 0.02195905
#
# Stress axis : x y z
#
# Youngs Moduli (GPa) = 65.77256 51.75031 74.53462
#
# Poissons Ratio (x) = 0.20327 0.23667
# Poissons Ratio (y) = 0.25835 0.43895
# Poissons Ratio (z) = 0.20885 0.30477
#
# Static dielectric constant tensor:
#      x y z
#    x 4.342190 0.000000 0.278020 
#    y 0.000000 3.206660 0.000000 
#    z 0.278020 0.000000 4.279430 
# 
# 
# High freq. dielectric constant tensor:
#      x y z
#    x 1.788240 0.000000 -0.009210 
#    y 0.000000 1.741250 0.000000 
#    z -0.009210 0.000000 1.816060 
# 
# From -- ./inp_files/68272.got.cif
#   From: 2010.06.25/outbox.cif.g09.slc.cpg/sg12_35_cif.got.tgz:68272.got - 2010.06.28 00:19:55.
