data_PCOD8098781
_publ_section_title
;
Structure prediction by ZEFSAII (Michael W. Deem and Ramdas Pophale) SiO2 
 PCOD8098781
Probable space group: C 2/M
;
_chemical_formula_sum "Si O2"
_cell_formula_units_Z 56
_cell_length_a 24.395121
_cell_length_b 8.912366
_cell_length_c 14.219909
_cell_angle_alpha 90.000000
_cell_angle_beta 96.732352
_cell_angle_gamma 90.000000
_cell_volume 3070.349442
_symmetry_space_group_name_H-M "C 2/M"
_symmetry_group_IT_number 12
_symmetry_cell_setting 'monoclinic'
loop_
_space_group_symop_operation_xyz
x,y,z
-x,y,-z
-x,-y,-z
x,-y,z
1/2+x,1/2+y,z
1/2-x,1/2+y,-z
1/2-x,1/2-y,-z
1/2+x,1/2-y,z
loop_
_atom_site_type_symbol
_atom_site_label
_atom_site_fract_x
_atom_site_fract_y
_atom_site_fract_z
Si Si1 0.944173 0.324184 0.532940
Si Si2 0.859772 0.323040 0.056184
Si Si3 0.063154 0.321185 0.258141
Si Si4 0.382930 0.174093 0.340380
Si Si5 0.666140 0.176886 0.157286
Si Si6 0.450713 0.677723 0.193768
Si Si7 0.221035 0.327226 0.794228
O O1 0.953092 0.500000 0.546613
O O2 0.932129 0.258714 0.633885
O O3 0.893111 0.289011 0.452346
O O4 0.000000 0.253519 0.500000
O O5 0.871877 0.500000 0.060602
O O6 0.809437 0.281695 0.115299
O O7 0.914859 0.238457 0.099626
O O8 0.843970 0.262483 0.950112
O O9 0.056821 0.500000 0.252329
O O10 0.117772 0.265593 0.215476
O O11 0.011513 0.246280 0.195870
O O12 0.424735 0.272008 0.287471
O O13 0.319618 0.209717 0.301455
O O14 0.396317 0.000000 0.320210
O O15 0.724089 0.232674 0.209283
O O16 0.668203 0.000000 0.155897
O O17 0.453606 0.500000 0.189785
O O18 0.237994 0.500000 0.799344
#
# Coordination Sequence:
#
# PCOD8098781 Si02
#       7
#     8   8   8   8   8   8   8
#     4   9  15  28  56  81  97 130 175 211 242 296
#     4   9  19  36  55  75  99 135 176 211 252 303
#     4  10  20  35  53  75 104 138 173 209 252 304
#     4   9  17  33  55  79 103 133 173 211 249 301
#     4  10  21  35  53  75 102 136 175 216 252 295
#     4  11  21  32  50  79 107 133 165 213 263 304
#     4   9  18  32  53  75 101 134 170 213 255 301
#
# _framework density 18.238968
#
# number of rings (size 3 to 8) (size 9 to 14) (size 15 to 20)
#    0.000    2.429    1.429    2.571    0.000    4.000 
#    0.000    5.000    0.000    0.000    0.000    0.000 
#    0.000    0.000    0.000    0.000    0.000    0.000 
#
# Total GULP energy -347187.335246 kJ/mol
# GULP energy per Si atom -12399.547687 kJ/mol
# Density = 1.819745 g / cm^3
# Si number density = 18.238968 Si / 1000 Ang^3
#
#
#
# Elastic Constant Matrix: (Units=GPa)
#
#
# Indices 1 2 3 4 5 6 
#
# 1 155.3696 37.3149 69.4953 0.0000 8.4552 0.0000
# 2 37.3149 38.6571 18.0694 0.0000 2.1034 0.0000
# 3 69.4953 18.0694 84.6148 0.0000 11.4179 0.0000
# 4 0.0000 0.0000 0.0000 10.9896 0.0000 3.6230
# 5 8.4552 2.1034 11.4179 0.0000 25.4026 0.0000
# 6 0.0000 0.0000 0.0000 3.6230 0.0000 30.0607
#
#
#
# Elastic Compliance Matrix: (Units=1/GPa)
#
#
# Indices 1 2 3 4 5 6 
#
# 1 0.011939 -0.007708 -0.008208 0.000000 0.000353 0.000000
# 2 -0.007708 0.033717 -0.000893 0.000000 0.000175 0.000000
# 3 -0.008208 -0.000893 0.019558 0.000000 -0.005985 0.000000
# 4 0.000000 0.000000 0.000000 0.094760 0.000000 -0.011421
# 5 0.000353 0.000175 -0.005985 0.000000 0.041924 0.000000
# 6 0.000000 0.000000 0.000000 -0.011421 0.000000 0.034642
#
#
# Mechanical properties :
#
#
# Convention : Reuss Voigt Hill
#
# Bulk Modulus (GPa) = 31.64936 58.71120 45.18028
# Shear Modulus (GPa) = 17.81325 23.54138 20.67732
#
# Velocity S-wave (km/s) = 3.12854 3.59656 3.37068
# Velocity P-wave (km/s) = 5.51731 7.03611 6.32248
#
# Compressibility (1/GPa) = 0.03159621
#
# Stress axis : x y z
#
# Youngs Moduli (GPa) = 83.75642 29.65904 51.13064
#
# Poissons Ratio (x) = 0.22860 0.41967
# Poissons Ratio (y) = 0.64556 0.04568
# Poissons Ratio (z) = 0.68745 0.02650
#
# Static dielectric constant tensor:
#      x y z
#    x 3.336660 0.000000 0.116270 
#    y 0.000000 3.048210 0.000000 
#    z 0.116270 0.000000 3.570280 
# 
# 
# High freq. dielectric constant tensor:
#      x y z
#    x 1.703170 0.000000 0.017180 
#    y 0.000000 1.678750 0.000000 
#    z 0.017180 0.000000 1.706830 
# 
# From -- ./inp_files/231029.got.cif
#   From: 2010.06.25/outbox.cif.g09.slc.cpg/sg12_116_cif.got.tgz:231029.got - 2010.06.28 00:19:55.
