data_PCOD8098642
_publ_section_title
;
Structure prediction by ZEFSAII (Michael W. Deem and Ramdas Pophale) SiO2 
 PCOD8098642
Probable space group: C 2/M
;
_chemical_formula_sum "Si O2"
_cell_formula_units_Z 64
_cell_length_a 14.165211
_cell_length_b 18.277456
_cell_length_c 21.880501
_cell_angle_alpha 90.000000
_cell_angle_beta 34.193713
_cell_angle_gamma 90.000000
_cell_volume 3183.659915
_symmetry_space_group_name_H-M "C 2/M"
_symmetry_group_IT_number 12
_symmetry_cell_setting 'monoclinic'
loop_
_space_group_symop_operation_xyz
x,y,z
-x,y,-z
-x,-y,-z
x,-y,z
1/2+x,1/2+y,z
1/2-x,1/2+y,-z
1/2-x,1/2-y,-z
1/2+x,1/2-y,z
loop_
_atom_site_type_symbol
_atom_site_label
_atom_site_fract_x
_atom_site_fract_y
_atom_site_fract_z
Si Si1 0.516930 0.418694 0.298095
Si Si2 0.341817 0.626246 0.274251
Si Si3 0.193863 0.168554 0.909796
Si Si4 0.826244 0.912350 0.960491
Si Si5 0.823913 0.745361 0.562440
Si Si6 0.189731 0.337696 0.918255
Si Si7 0.780349 0.643153 0.472639
Si Si8 0.877534 0.419620 0.711673
O O1 0.579355 0.500000 0.280654
O O2 0.402893 0.423191 0.298102
O O3 0.680113 0.367522 0.202330
O O4 0.403412 0.388338 0.413760
O O5 0.492221 0.626963 0.144313
O O6 0.300234 0.707188 0.322120
O O7 0.178226 0.592784 0.329064
O O8 0.232928 0.252606 0.905494
O O9 0.300801 0.144723 0.793856
O O10 0.250415 0.116323 0.935129
O O11 0.000000 0.155883 0.000000
O O12 0.706633 0.885112 0.970429
O O13 0.841493 0.000000 0.951896
O O14 0.851153 0.696247 0.487600
O O15 0.735037 0.818811 0.585605
O O16 0.000000 0.763223 0.500000
O O17 0.000000 0.348958 0.000000
O O18 0.920471 0.580419 0.392333
O O19 0.815612 0.500000 0.766143
#
# Coordination Sequence:
#
# PCOD8098642 Si02
#       8
#     8   8   8   8   8   8   8   8
#     4  10  21  39  63  90 124 160 204 259 312 360
#     4  10  20  34  59  90 119 158 202 250 308 362
#     4  11  24  39  58  88 128 163 200 247 310 373
#     4  11  22  40  62  87 124 163 203 254 313 364
#     4  10  20  38  58  88 118 162 200 250 306 358
#     4  10  23  41  63  93 118 160 213 260 298 357
#     4  10  23  37  60  91 125 158 202 250 309 360
#     4  12  23  37  61  90 125 163 204 249 306 375
#
# _framework density 20.102650000000001
#
# number of rings (size 3 to 8) (size 9 to 14) (size 15 to 20)
#    0.000    1.500    2.500    3.375    7.000    1.500 
#    0.000    1.875    0.000    3.000    0.000    0.000 
#    0.000    0.000    0.000    0.000    0.000    0.000 
#
# Total GULP energy -396772.084575 kJ/mol
# GULP energy per Si atom -12399.127643 kJ/mol
# Density = 2.005690 g / cm^3
# Si number density = 20.102650 Si / 1000 Ang^3
#
#
#
# Elastic Constant Matrix: (Units=GPa)
#
#
# Indices 1 2 3 4 5 6 
#
# 1 84.2467 57.6799 41.3630 0.0025 -10.6873 -0.0018
# 2 57.6799 122.6868 55.9625 -0.0087 -2.4645 0.0020
# 3 41.3630 55.9625 101.9374 -0.0212 -8.3650 0.0010
# 4 0.0025 -0.0087 -0.0212 30.3192 0.0050 3.6321
# 5 -10.6873 -2.4645 -8.3650 0.0050 28.7244 0.0003
# 6 -0.0018 0.0020 0.0010 3.6321 0.0003 20.0509
#
#
#
# Elastic Compliance Matrix: (Units=1/GPa)
#
#
# Indices 1 2 3 4 5 6 
#
# 1 0.019298 -0.007468 -0.003272 -0.000007 0.005586 0.000004
# 2 -0.007468 0.013783 -0.004782 0.000002 -0.002988 -0.000002
# 3 -0.003272 -0.004782 0.013963 0.000009 0.002438 -0.000002
# 4 -0.000007 0.000002 0.000009 0.033714 -0.000006 -0.006107
# 5 0.005586 -0.002988 0.002438 -0.000006 0.037346 0.000001
# 6 0.000004 -0.000002 -0.000002 -0.006107 0.000001 0.050979
#
#
# Mechanical properties :
#
#
# Convention : Reuss Voigt Hill
#
# Bulk Modulus (GPa) = 62.49953 68.76462 65.63208
# Shear Modulus (GPa) = 24.33560 26.07661 25.20611
#
# Velocity S-wave (km/s) = 3.48309 3.60554 3.54484
# Velocity P-wave (km/s) = 6.87994 7.18430 7.03377
#
# Compressibility (1/GPa) = 0.01600012
#
# Stress axis : x y z
#
# Youngs Moduli (GPa) = 51.81836 72.55384 71.61832
#
# Poissons Ratio (x) = 0.54183 0.23436
# Poissons Ratio (y) = 0.38698 0.34245
# Poissons Ratio (z) = 0.16957 0.34692
#
# Static dielectric constant tensor:
#      x y z
#    x 3.621850 0.000000 0.025660 
#    y 0.000000 3.580730 0.000020 
#    z 0.025660 0.000020 3.604250 
# 
# 
# High freq. dielectric constant tensor:
#      x y z
#    x 1.774780 0.000000 -0.002530 
#    y 0.000000 1.779620 0.000000 
#    z -0.002530 0.000000 1.779760 
# 
# From -- ./inp_files/340819.got.cif
#   From: 2010.06.25/outbox.cif.g09.slc.cpg/sg12_171_cif.got.tgz:340819.got - 2010.06.28 00:19:55.
