data_PCOD8098162
_publ_section_title
;
Structure prediction by ZEFSAII (Michael W. Deem and Ramdas Pophale) SiO2 
 PCOD8098162
Probable space group: C 2/M
;
_chemical_formula_sum "Si O2"
_cell_formula_units_Z 64
_cell_length_a 12.738336
_cell_length_b 22.462175
_cell_length_c 11.995619
_cell_angle_alpha 90.000000
_cell_angle_beta 60.432553
_cell_angle_gamma 90.000000
_cell_volume 2985.343458
_symmetry_space_group_name_H-M "C 2/M"
_symmetry_group_IT_number 12
_symmetry_cell_setting 'monoclinic'
loop_
_space_group_symop_operation_xyz
x,y,z
-x,y,-z
-x,-y,-z
x,-y,z
1/2+x,1/2+y,z
1/2-x,1/2+y,-z
1/2-x,1/2-y,-z
1/2+x,1/2-y,z
loop_
_atom_site_type_symbol
_atom_site_label
_atom_site_fract_x
_atom_site_fract_y
_atom_site_fract_z
Si Si1 0.353760 0.342230 0.337723
Si Si2 0.586465 0.071210 0.215447
Si Si3 0.899801 0.213044 0.766069
Si Si4 0.649609 0.932483 0.799418
Si Si5 0.494559 0.431161 0.129029
Si Si6 0.741526 0.620283 0.050422
Si Si7 0.631794 0.624310 0.421744
Si Si8 0.605150 0.173719 0.361057
O O1 0.465305 0.297642 0.258509
O O2 0.384699 0.403193 0.256501
O O3 0.327950 0.350419 0.481156
O O4 0.231953 0.315407 0.353603
O O5 0.466125 0.087151 0.210671
O O6 0.579958 0.105188 0.337325
O O7 0.604559 0.000000 0.221878
O O8 0.701485 0.102832 0.097408
O O9 0.801997 0.189176 0.909588
O O10 0.875551 0.177710 0.663555
O O11 0.890698 0.283413 0.749794
O O12 0.658986 0.895051 0.907962
O O13 0.770290 0.924738 0.663563
O O14 0.634996 0.000000 0.844721
O O15 0.464841 0.500000 0.139561
O O16 0.619883 0.419085 0.128749
O O17 0.500000 0.404804 0.000000
O O18 0.500000 0.593428 0.500000
O O19 0.500000 0.194042 0.500000
#
# Coordination Sequence:
#
# PCOD8098162 Si02
#       8
#     8   8   8   8   8   8   8   8
#     4  10  21  37  57  84 116 150 196 246 293 354
#     4  11  24  40  59  87 123 161 202 244 290 356
#     4   9  22  40  61  89 115 145 195 252 299 351
#     4  10  20  34  55  85 120 157 197 242 295 356
#     4  10  20  35  57  84 114 152 198 249 302 350
#     4  10  20  38  62  87 115 150 197 250 302 354
#     4   9  18  35  57  83 116 151 197 253 299 345
#     4  12  25  40  62  87 119 165 201 238 297 352
#
# _framework density 21.438068000000001
#
# number of rings (size 3 to 8) (size 9 to 14) (size 15 to 20)
#    0.000    1.875    0.000    4.875    0.000    8.000 
#    0.000    0.000    0.000    1.500    0.000    0.000 
#    0.000    0.000    0.000    0.000    0.000    0.000 
#
# Total GULP energy -396728.735106 kJ/mol
# GULP energy per Si atom -12397.772972 kJ/mol
# Density = 2.138927 g / cm^3
# Si number density = 21.438068 Si / 1000 Ang^3
#
#
#
# Elastic Constant Matrix: (Units=GPa)
#
#
# Indices 1 2 3 4 5 6 
#
# 1 119.9501 37.2470 12.8676 0.0000 -3.0896 0.0000
# 2 37.2470 94.1335 26.7157 0.0000 -2.2015 0.0000
# 3 12.8676 26.7157 48.3060 0.0000 -9.8797 0.0000
# 4 0.0000 0.0000 0.0000 26.4457 0.0000 4.8795
# 5 -3.0896 -2.2015 -9.8797 0.0000 32.9858 0.0000
# 6 0.0000 0.0000 0.0000 4.8795 0.0000 17.0111
#
#
#
# Elastic Compliance Matrix: (Units=1/GPa)
#
#
# Indices 1 2 3 4 5 6 
#
# 1 0.009525 -0.003638 -0.000418 0.000000 0.000524 0.000000
# 2 -0.003638 0.014045 -0.007112 0.000000 -0.001534 0.000000
# 3 -0.000418 -0.007112 0.026249 0.000000 0.007348 0.000000
# 4 0.000000 0.000000 0.000000 0.039926 0.000000 -0.011453
# 5 0.000524 -0.001534 0.007348 0.000000 0.032464 0.000000
# 6 0.000000 0.000000 0.000000 -0.011453 0.000000 0.062070
#
#
# Mechanical properties :
#
#
# Convention : Reuss Voigt Hill
#
# Bulk Modulus (GPa) = 36.38669 46.22779 41.30724
# Shear Modulus (GPa) = 23.17204 27.65913 25.41558
#
# Velocity S-wave (km/s) = 3.29124 3.59582 3.44690
# Velocity P-wave (km/s) = 5.60828 6.23298 5.92887
#
# Compressibility (1/GPa) = 0.02748258
#
# Stress axis : x y z
#
# Youngs Moduli (GPa) = 104.98927 71.19807 38.09654
#
# Poissons Ratio (x) = 0.25901 0.01593
# Poissons Ratio (y) = 0.38194 0.27096
# Poissons Ratio (z) = 0.04389 0.50639
#
# Static dielectric constant tensor:
#      x y z
#    x 3.963450 0.000000 -0.065650 
#    y 0.000000 3.575650 0.000000 
#    z -0.065650 0.000000 3.951840 
# 
# 
# High freq. dielectric constant tensor:
#      x y z
#    x 1.854150 0.000000 -0.002490 
#    y 0.000000 1.816940 0.000000 
#    z -0.002490 0.000000 1.839570 
# 
# From -- ./inp_files/135928.got.cif
#   From: 2010.06.25/outbox.cif.g09.slc.cpg/sg12_68_cif.got.tgz:135928.got - 2010.06.28 00:19:55.
