data_PCOD8098348
_publ_section_title
;
Structure prediction by ZEFSAII (Michael W. Deem and Ramdas Pophale) SiO2 
 PCOD8098348
Probable space group: C 2/M
;
_chemical_formula_sum "Si O2"
_cell_formula_units_Z 48
_cell_length_a 24.436014
_cell_length_b 9.065681
_cell_length_c 10.921808
_cell_angle_alpha 90.000000
_cell_angle_beta 70.375388
_cell_angle_gamma 90.000000
_cell_volume 2278.957631
_symmetry_space_group_name_H-M "C 2/M"
_symmetry_group_IT_number 12
_symmetry_cell_setting 'monoclinic'
loop_
_space_group_symop_operation_xyz
x,y,z
-x,y,-z
-x,-y,-z
x,-y,z
1/2+x,1/2+y,z
1/2-x,1/2+y,-z
1/2-x,1/2-y,-z
1/2+x,1/2-y,z
loop_
_atom_site_type_symbol
_atom_site_label
_atom_site_fract_x
_atom_site_fract_y
_atom_site_fract_z
Si Si1 0.078441 0.829073 0.252950
Si Si2 0.380123 0.668519 0.160032
Si Si3 0.978835 0.329766 0.213560
Si Si4 0.690090 0.332069 0.538711
Si Si5 0.092173 0.670439 0.485922
Si Si6 0.810298 0.170093 0.979449
O O1 0.063114 0.742996 0.388818
O O2 0.146099 0.808092 0.167472
O O3 0.039022 0.761001 0.173395
O O4 0.062305 0.000000 0.281062
O O5 0.398956 0.500000 0.118718
O O6 0.438123 0.765302 0.136613
O O7 0.340256 0.679049 0.308348
O O8 0.342503 0.733411 0.076028
O O9 0.991204 0.500000 0.174781
O O10 0.949332 0.308115 0.367589
O O11 0.699714 0.500000 0.490493
O O12 0.750000 0.250000 0.500000
O O13 0.652740 0.252469 0.462699
O O14 0.104312 0.500000 0.449408
O O15 0.795250 0.000000 0.012402
O O16 0.750000 0.250000 0.000000
#
# Coordination Sequence:
#
# PCOD8098348 Si02
#       6
#     8   8   8   8   8   8
#     4  11  23  38  59  88 120 157 196 239 292 349
#     4   9  20  40  61  82 114 154 193 238 292 347
#     4  10  21  38  61  90 119 151 193 242 294 347
#     4  10  20  34  56  85 115 151 194 239 293 350
#     4  10  21  37  57  85 120 154 193 241 292 347
#     4  10  24  43  61  85 116 155 199 241 289 344
#
# _framework density 21.062259999999998
#
# number of rings (size 3 to 8) (size 9 to 14) (size 15 to 20)
#    0.000    2.000    0.000    2.500    2.333    7.333 
#    0.000    3.333    0.000    0.000    0.000    0.000 
#    0.000    0.000    0.000    0.000    0.000    0.000 
#
# Total GULP energy -297681.856259 kJ/mol
# GULP energy per Si atom -12403.410677 kJ/mol
# Density = 2.101432 g / cm^3
# Si number density = 21.062260 Si / 1000 Ang^3
#
#
#
# Elastic Constant Matrix: (Units=GPa)
#
#
# Indices 1 2 3 4 5 6 
#
# 1 143.6296 65.6531 18.7008 0.0000 13.4978 0.0000
# 2 65.6531 138.5410 23.6991 0.0000 3.9702 0.0000
# 3 18.7008 23.6991 35.5283 0.0000 22.1411 0.0000
# 4 0.0000 0.0000 0.0000 24.2065 0.0000 1.7631
# 5 13.4978 3.9702 22.1411 0.0000 35.2578 0.0000
# 6 0.0000 0.0000 0.0000 1.7631 0.0000 47.4824
#
#
#
# Elastic Compliance Matrix: (Units=1/GPa)
#
#
# Indices 1 2 3 4 5 6 
#
# 1 0.009202 -0.004245 -0.000188 0.000000 -0.002927 0.000000
# 2 -0.004245 0.010483 -0.008273 0.000000 0.005640 0.000000
# 3 -0.000188 -0.008273 0.054447 0.000000 -0.033188 0.000000
# 4 0.000000 0.000000 0.000000 0.041423 0.000000 -0.001538
# 5 -0.002927 0.005640 -0.033188 0.000000 0.049689 0.000000
# 6 0.000000 0.000000 0.000000 -0.001538 0.000000 0.021118
#
#
# Mechanical properties :
#
#
# Convention : Reuss Voigt Hill
#
# Bulk Modulus (GPa) = 20.52574 59.31165 39.91870
# Shear Modulus (GPa) = 21.92836 35.36573 28.64704
#
# Velocity S-wave (km/s) = 3.23014 4.10213 3.69197
# Velocity P-wave (km/s) = 4.86602 7.11744 6.09656
#
# Compressibility (1/GPa) = 0.04871931
#
# Stress axis : x y z
#
# Youngs Moduli (GPa) = 108.67001 95.39032 18.36647
#
# Poissons Ratio (x) = 0.40490 0.00346
# Poissons Ratio (y) = 0.46127 0.15195
# Poissons Ratio (z) = 0.02048 0.78921
#
# Static dielectric constant tensor:
#      x y z
#    x 4.529250 0.000000 1.389270 
#    y 0.000000 3.872570 0.000000 
#    z 1.389270 0.000000 5.885050 
# 
# 
# High freq. dielectric constant tensor:
#      x y z
#    x 1.836360 0.000000 0.006880 
#    y 0.000000 1.827630 0.000000 
#    z 0.006880 0.000000 1.819970 
# 
# From -- ./inp_files/172145.got.cif
#   From: 2010.06.25/outbox.cif.g09.slc.cpg/sg12_87_cif.got.tgz:172145.got - 2010.06.28 00:19:55.
