data_PCOD8098546
_publ_section_title
;
Structure prediction by ZEFSAII (Michael W. Deem and Ramdas Pophale) SiO2 
 PCOD8098546
Probable space group: C 2/M
;
_chemical_formula_sum "Si O2"
_cell_formula_units_Z 64
_cell_length_a 9.109680
_cell_length_b 14.644742
_cell_length_c 30.298294
_cell_angle_alpha 90.000000
_cell_angle_beta 46.603289
_cell_angle_gamma 90.000000
_cell_volume 2937.019635
_symmetry_space_group_name_H-M "C 2/M"
_symmetry_group_IT_number 12
_symmetry_cell_setting 'monoclinic'
loop_
_space_group_symop_operation_xyz
x,y,z
-x,y,-z
-x,-y,-z
x,-y,z
1/2+x,1/2+y,z
1/2-x,1/2+y,-z
1/2-x,1/2-y,-z
1/2+x,1/2-y,z
loop_
_atom_site_type_symbol
_atom_site_label
_atom_site_fract_x
_atom_site_fract_y
_atom_site_fract_z
Si Si1 0.150332 0.153588 0.510812
Si Si2 0.043595 0.894928 0.628214
Si Si3 0.298769 0.602011 0.023031
Si Si4 0.447832 0.779490 0.865934
Si Si5 0.273131 0.103164 0.059886
Si Si6 0.104478 0.269061 0.217328
Si Si7 0.834191 0.719393 0.701142
Si Si8 0.566982 0.901200 0.398605
O O1 0.250000 0.250000 0.500000
O O2 0.027063 0.119920 0.579014
O O3 0.341836 0.087636 0.464300
O O4 0.000000 0.154546 0.500000
O O5 0.271164 0.869778 0.597758
O O6 0.888110 0.827558 0.685726
O O7 0.986118 0.000000 0.651067
O O8 0.262399 0.500000 0.048788
O O9 0.116907 0.664273 0.077676
O O10 0.500000 0.647628 0.000000
O O11 0.339947 0.601164 0.962995
O O12 0.347587 0.677211 0.885806
O O13 0.688096 0.785685 0.819123
O O14 0.382920 0.825147 0.831844
O O15 0.271969 0.000000 0.081636
O O16 0.500000 0.133086 0.000000
O O17 0.085212 0.322192 0.268364
O O18 0.907674 0.204060 0.252527
O O19 0.947433 0.668232 0.638841
O O20 0.635364 0.000000 0.366562
#
# Coordination Sequence:
#
# PCOD8098546 Si02
#       8
#     8   8   8   8   8   8   8   8
#     4  12  25  40  65 104 136 170 199 253 322 389
#     4  11  24  43  69  96 128 167 210 258 321 389
#     4  10  20  34  57  89 122 155 194 242 306 378
#     4  11  20  39  58  85 118 163 196 257 306 364
#     4  10  20  34  57  89 120 153 194 240 301 377
#     4  10  24  39  62  84 118 158 220 258 310 359
#     4  11  22  45  62  88 120 166 210 275 310 364
#     4  11  24  43  69  96 128 167 210 258 321 388
#
# _framework density 21.790797999999999
#
# number of rings (size 3 to 8) (size 9 to 14) (size 15 to 20)
#    0.000    1.250    2.500    3.750    1.750    2.000 
#    0.000    7.500    0.000    0.000    0.000    0.000 
#    0.000    0.000    0.000    0.000    0.000    0.000 
#
# Total GULP energy -396438.879680 kJ/mol
# GULP energy per Si atom -12388.714990 kJ/mol
# Density = 2.174120 g / cm^3
# Si number density = 21.790798 Si / 1000 Ang^3
#
#
#
# Elastic Constant Matrix: (Units=GPa)
#
#
# Indices 1 2 3 4 5 6 
#
# 1 141.6460 14.7591 31.4702 0.0001 4.2540 0.0005
# 2 14.7591 92.9494 27.5854 0.0001 -1.4388 0.0000
# 3 31.4702 27.5854 89.5591 0.0003 2.7692 0.0004
# 4 0.0001 0.0001 0.0003 3.3264 -0.0003 -0.6781
# 5 4.2540 -1.4388 2.7692 -0.0003 45.1756 -0.0004
# 6 0.0005 0.0000 0.0004 -0.6781 -0.0004 18.7998
#
#
#
# Elastic Compliance Matrix: (Units=1/GPa)
#
#
# Indices 1 2 3 4 5 6 
#
# 1 0.007691 -0.000477 -0.002537 0.000000 -0.000584 0.000000
# 2 -0.000477 0.011887 -0.003513 0.000000 0.000639 0.000000
# 3 -0.002537 -0.003513 0.013161 -0.000001 -0.000680 0.000000
# 4 0.000000 0.000000 -0.000001 0.302853 0.000002 0.010924
# 5 -0.000584 0.000639 -0.000680 0.000002 0.022253 0.000001
# 6 0.000000 0.000000 0.000000 0.010924 0.000001 0.053586
#
#
# Mechanical properties :
#
#
# Convention : Reuss Voigt Hill
#
# Bulk Modulus (GPa) = 50.80699 52.42041 51.61370
# Shear Modulus (GPa) = 11.59965 30.14968 20.87467
#
# Velocity S-wave (km/s) = 2.30971 3.72371 3.09845
# Velocity P-wave (km/s) = 5.52082 6.52660 6.04466
#
# Compressibility (1/GPa) = 0.01968233
#
# Stress axis : x y z
#
# Youngs Moduli (GPa) = 130.02422 84.12618 75.98408
#
# Poissons Ratio (x) = 0.04014 0.19281
# Poissons Ratio (y) = 0.06204 0.26696
# Poissons Ratio (z) = 0.32993 0.29557
#
# Static dielectric constant tensor:
#      x y z
#    x 4.284280 0.000000 0.234420 
#    y 0.000000 3.828930 0.000020 
#    z 0.234420 0.000020 4.254480 
# 
# 
# High freq. dielectric constant tensor:
#      x y z
#    x 1.879390 0.000000 0.004430 
#    y 0.000000 1.822750 0.000000 
#    z 0.004430 0.000000 1.855770 
# 
# From -- ./inp_files/372537.got.cif
#   From: 2010.06.25/outbox.cif.g09.slc.cpg/sg12_187_cif.got.tgz:372537.got - 2010.06.28 00:19:55.
