data_PCOD8098066
_publ_section_title
;
Structure prediction by ZEFSAII (Michael W. Deem and Ramdas Pophale) SiO2 
 PCOD8098066
Probable space group: C 2/M
;
_chemical_formula_sum "Si O2"
_cell_formula_units_Z 64
_cell_length_a 23.212047
_cell_length_b 11.156550
_cell_length_c 28.182487
_cell_angle_alpha 90.000000
_cell_angle_beta 26.882729
_cell_angle_gamma 90.000000
_cell_volume 3300.049468
_symmetry_space_group_name_H-M "C 2/M"
_symmetry_group_IT_number 12
_symmetry_cell_setting 'monoclinic'
loop_
_space_group_symop_operation_xyz
x,y,z
-x,y,-z
-x,-y,-z
x,-y,z
1/2+x,1/2+y,z
1/2-x,1/2+y,-z
1/2-x,1/2-y,-z
1/2+x,1/2-y,z
loop_
_atom_site_type_symbol
_atom_site_label
_atom_site_fract_x
_atom_site_fract_y
_atom_site_fract_z
Si Si1 0.760953 0.272255 0.415073
Si Si2 0.661365 0.219365 0.174165
Si Si3 0.493754 0.363323 0.789372
Si Si4 0.597178 0.872039 0.606630
Si Si5 0.035448 0.859091 0.524967
Si Si6 0.076270 0.136676 0.051315
Si Si7 0.686161 0.636708 0.247191
Si Si8 0.954786 0.364227 0.086764
O O1 0.858170 0.174725 0.322872
O O2 0.655263 0.224957 0.529227
O O3 0.842819 0.367887 0.384494
O O4 0.682346 0.330072 0.429564
O O5 0.598208 0.295574 0.178911
O O6 0.554504 0.137980 0.277110
O O7 0.720033 0.301487 0.172493
O O8 0.773775 0.138878 0.070231
O O9 0.487609 0.500000 0.778592
O O10 0.442978 0.341178 0.879178
O O11 0.629116 0.000000 0.560622
O O12 0.000000 0.801868 0.500000
O O13 0.938284 0.806448 0.635855
O O14 0.015068 0.000000 0.537513
O O15 0.008009 0.249829 0.076376
O O16 0.027462 0.000000 0.073319
O O17 0.659185 0.500000 0.253689
O O18 0.802223 0.649022 0.198971
O O19 0.991333 0.500000 0.079732
O O20 0.000000 0.354899 0.000000
#
# Coordination Sequence:
#
# PCOD8098066 Si02
#       8
#     8   8   8   8   8   8   8   8
#     4  10  20  36  57  82 112 149 190 234 294 359
#     4  11  20  38  60  87 114 153 198 248 294 356
#     4  10  23  39  59  85 120 163 201 243 297 363
#     4  10  20  34  55  83 112 141 182 240 294 349
#     4  10  21  36  57  85 117 151 191 244 299 355
#     4  11  24  41  60  88 126 163 202 251 308 363
#     4  10  20  36  59  86 115 148 197 252 299 352
#     4  10  21  39  62  88 114 151 204 254 297 353
#
# _framework density 19.393647999999999
#
# number of rings (size 3 to 8) (size 9 to 14) (size 15 to 20)
#    0.000    1.750    2.500    1.875    1.750    0.750 
#    0.000    3.125    0.000    1.500    0.000    0.000 
#    0.000    0.000    0.000    0.000    0.000    0.000 
#
# Total GULP energy -396564.431018 kJ/mol
# GULP energy per Si atom -12392.638469 kJ/mol
# Density = 1.934951 g / cm^3
# Si number density = 19.393648 Si / 1000 Ang^3
#
#
#
# Elastic Constant Matrix: (Units=GPa)
#
#
# Indices 1 2 3 4 5 6 
#
# 1 83.8084 33.5781 31.4216 -0.0058 -0.0783 -0.0101
# 2 33.5781 97.9602 25.9758 -0.0044 1.1344 -0.0077
# 3 31.4216 25.9758 92.1307 0.0056 -1.1284 0.0148
# 4 -0.0058 -0.0044 0.0056 -51.9001 0.0013 -146.7755
# 5 -0.0783 1.1344 -1.1284 0.0013 30.9899 0.0019
# 6 -0.0101 -0.0077 0.0148 -146.7755 0.0019 -264.1524
#
#
#
# Elastic Compliance Matrix: (Units=1/GPa)
#
#
# Indices 1 2 3 4 5 6 
#
# 1 0.015072 -0.004111 -0.003981 0.000000 0.000044 -0.000001
# 2 -0.004111 0.012163 -0.002034 0.000000 -0.000530 0.000000
# 3 -0.003981 -0.002034 0.012792 0.000001 0.000530 0.000000
# 4 0.000000 0.000000 0.000001 0.033721 0.000000 -0.018737
# 5 0.000044 -0.000530 0.000530 0.000000 0.032307 0.000000
# 6 -0.000001 0.000000 0.000000 -0.018737 0.000000 0.006625
#
#
# Mechanical properties :
#
#
# Convention : Reuss Voigt Hill
#
# Bulk Modulus (GPa) = 50.56803 50.65002 50.60903
# Shear Modulus (GPa) = 35.83664 -44.81760 -4.49048
#
# Velocity S-wave (km/s) = 4.30333 -4.81244 -1.52331
# Velocity P-wave (km/s) = 7.12900 2.16932 4.80191
#
# Compressibility (1/GPa) = 0.01977534
#
# Stress axis : x y z
#
# Youngs Moduli (GPa) = 66.35016 82.21802 78.17630
#
# Poissons Ratio (x) = 0.33801 0.31119
# Poissons Ratio (y) = 0.27277 0.15898
# Poissons Ratio (z) = 0.26411 0.16720
#
# Static dielectric constant tensor:
#      x y z
#    x 3.490780 0.000000 -0.038010 
#    y 0.000000 3.474670 0.000000 
#    z -0.038010 0.000000 3.728090 
# 
# 
# High freq. dielectric constant tensor:
#      x y z
#    x 1.745700 0.000000 -0.002810 
#    y 0.000000 1.743120 0.000000 
#    z -0.002810 0.000000 1.770780 
# 
# From -- ./inp_files/174657.got.cif
#   From: 2010.06.25/outbox.cif.g09.slc.cpg/sg12_88_cif.got.tgz:174657.got - 2010.06.28 00:19:55.
