data_PCOD8098534
_publ_section_title
;
Structure prediction by ZEFSAII (Michael W. Deem and Ramdas Pophale) SiO2 
 PCOD8098534
Probable space group: C 2/M
;
_chemical_formula_sum "Si O2"
_cell_formula_units_Z 64
_cell_length_a 26.102159
_cell_length_b 13.503068
_cell_length_c 9.166998
_cell_angle_alpha 90.000000
_cell_angle_beta 92.918661
_cell_angle_gamma 90.000000
_cell_volume 3226.801878
_symmetry_space_group_name_H-M "C 2/M"
_symmetry_group_IT_number 12
_symmetry_cell_setting 'monoclinic'
loop_
_space_group_symop_operation_xyz
x,y,z
-x,y,-z
-x,-y,-z
x,-y,z
1/2+x,1/2+y,z
1/2-x,1/2+y,-z
1/2-x,1/2-y,-z
1/2+x,1/2-y,z
loop_
_atom_site_type_symbol
_atom_site_label
_atom_site_fract_x
_atom_site_fract_y
_atom_site_fract_z
Si Si1 0.576813 0.230338 0.750657
Si Si2 0.604416 0.810968 0.076356
Si Si3 0.858216 0.115489 0.392682
Si Si4 0.767833 0.226535 0.223063
Si Si5 0.662127 0.724701 0.336116
Si Si6 0.295403 0.889068 0.015713
Si Si7 0.024007 0.388197 0.280660
Si Si8 0.114880 0.610422 0.510296
O O1 0.591351 0.334566 0.674483
O O2 0.517973 0.198487 0.718319
O O3 0.611497 0.146368 0.677059
O O4 0.587489 0.239979 0.923553
O O5 0.626294 0.725032 0.186566
O O6 0.649808 0.889793 0.057015
O O7 0.557700 0.870525 0.140673
O O8 0.805993 0.165762 0.330007
O O9 0.857035 0.132766 0.567597
O O10 0.859871 0.000000 0.356793
O O11 0.721970 0.279084 0.305225
O O12 0.748301 0.149572 0.099485
O O13 0.799130 0.316270 0.154396
O O14 0.655338 0.826057 0.425664
O O15 0.281275 0.000000 0.063170
O O16 0.000313 0.500000 0.266933
O O17 0.058341 0.380233 0.430746
O O18 0.136244 0.500000 0.510664
#
# Coordination Sequence:
#
# PCOD8098534 Si02
#       8
#     8   8   8   8   8   8   8   8
#     4  11  21  35  55  85 114 154 187 235 280 341
#     4  10  20  37  56  84 123 147 182 234 293 346
#     4  11  23  41  60  81 110 154 202 243 288 334
#     4  10  20  38  57  85 118 152 191 238 285 335
#     4   9  21  38  59  81 115 149 190 238 287 336
#     4  10  20  34  57  88 122 153 185 228 287 349
#     4  10  20  34  57  88 122 155 186 226 288 357
#     4   9  19  35  56  85 120 152 184 228 288 353
#
# _framework density 19.833877999999999
#
# number of rings (size 3 to 8) (size 9 to 14) (size 15 to 20)
#    0.000    2.000    1.250    2.250    0.000    7.500 
#    0.000    0.625    0.000   15.000    0.000    0.000 
#    0.000    0.000    0.000    0.000    0.000    0.000 
#
# Total GULP energy -396730.377126 kJ/mol
# GULP energy per Si atom -12397.824285 kJ/mol
# Density = 1.978874 g / cm^3
# Si number density = 19.833878 Si / 1000 Ang^3
#
#
#
# Elastic Constant Matrix: (Units=GPa)
#
#
# Indices 1 2 3 4 5 6 
#
# 1 81.1960 35.3538 23.0259 0.0000 -9.3880 0.0000
# 2 35.3538 115.9086 40.0244 0.0000 -4.1797 0.0000
# 3 23.0259 40.0244 115.0087 0.0000 -3.9055 0.0000
# 4 0.0000 0.0000 0.0000 17.3272 0.0000 -0.9359
# 5 -9.3880 -4.1797 -3.9055 0.0000 23.5246 0.0000
# 6 0.0000 0.0000 0.0000 -0.9359 0.0000 20.9269
#
#
#
# Elastic Compliance Matrix: (Units=1/GPa)
#
#
# Indices 1 2 3 4 5 6 
#
# 1 0.015012 -0.003885 -0.001482 0.000000 0.005055 0.000000
# 2 -0.003885 0.010844 -0.003000 0.000000 -0.000122 0.000000
# 3 -0.001482 -0.003000 0.010054 0.000000 0.000545 0.000000
# 4 0.000000 0.000000 0.000000 0.057852 0.000000 0.002587
# 5 0.005055 -0.000122 0.000545 0.000000 0.044595 0.000000
# 6 0.000000 0.000000 0.000000 0.002587 0.000000 0.047901
#
#
# Mechanical properties :
#
#
# Convention : Reuss Voigt Hill
#
# Bulk Modulus (GPa) = 52.14754 56.54686 54.34720
# Shear Modulus (GPa) = 23.87948 26.60302 25.24125
#
# Velocity S-wave (km/s) = 3.47360 3.66634 3.57127
# Velocity P-wave (km/s) = 6.51437 6.81871 6.66828
#
# Compressibility (1/GPa) = 0.01917636
#
# Stress axis : x y z
#
# Youngs Moduli (GPa) = 66.61295 92.21645 99.45999
#
# Poissons Ratio (x) = 0.35825 0.14739
# Poissons Ratio (y) = 0.25879 0.29840
# Poissons Ratio (z) = 0.09872 0.27667
#
# Static dielectric constant tensor:
#      x y z
#    x 3.580850 0.000000 -0.084600 
#    y 0.000000 3.367940 0.000000 
#    z -0.084600 0.000000 3.849150 
# 
# 
# High freq. dielectric constant tensor:
#      x y z
#    x 1.771140 0.000000 -0.006760 
#    y 0.000000 1.738810 0.000000 
#    z -0.006760 0.000000 1.790360 
# 
# From -- ./inp_files/96888.got.cif
#   From: 2010.06.25/outbox.cif.g09.slc.cpg/sg12_49_cif.got.tgz:96888.got - 2010.06.28 00:19:55.
