data_PCOD8098018
_publ_section_title
;
Structure prediction by ZEFSAII (Michael W. Deem and Ramdas Pophale) SiO2 
 PCOD8098018
Probable space group: C 2/M
;
_chemical_formula_sum "Si O2"
_cell_formula_units_Z 64
_cell_length_a 24.329239
_cell_length_b 8.989562
_cell_length_c 32.574234
_cell_angle_alpha 90.000000
_cell_angle_beta 29.561851
_cell_angle_gamma 90.000000
_cell_volume 3514.857245
_symmetry_space_group_name_H-M "C 2/M"
_symmetry_group_IT_number 12
_symmetry_cell_setting 'monoclinic'
loop_
_space_group_symop_operation_xyz
x,y,z
-x,y,-z
-x,-y,-z
x,-y,z
1/2+x,1/2+y,z
1/2-x,1/2+y,-z
1/2-x,1/2-y,-z
1/2+x,1/2-y,z
loop_
_atom_site_type_symbol
_atom_site_label
_atom_site_fract_x
_atom_site_fract_y
_atom_site_fract_z
Si Si1 0.088045 0.332671 0.479111
Si Si2 0.900809 0.670213 0.826465
Si Si3 0.976150 0.828634 0.186350
Si Si4 0.334500 0.825667 0.778345
Si Si5 0.248230 0.675137 0.683386
Si Si6 0.919970 0.824760 0.642677
Si Si7 0.116667 0.671443 0.945188
Si Si8 0.651369 0.669601 0.003493
O O1 0.119649 0.500000 0.472074
O O2 0.198084 0.248315 0.392087
O O3 0.000000 0.334444 0.500000
O O4 0.035230 0.245404 0.551697
O O5 0.936078 0.500000 0.809907
O O6 0.895418 0.710000 0.781794
O O7 0.994770 0.770935 0.786923
O O8 0.781904 0.702610 0.925135
O O9 0.875734 0.737871 0.230960
O O10 0.085967 0.802230 0.087870
O O11 0.941054 0.000000 0.211507
O O12 0.399785 0.740399 0.700600
O O13 0.207933 0.769265 0.862326
O O14 0.333378 0.000000 0.769424
O O15 0.245305 0.500000 0.678562
O O16 0.317348 0.717211 0.679359
O O17 0.935908 0.000000 0.635040
O O18 0.153115 0.500000 0.919032
O O19 0.102566 0.719441 0.001377
O O20 0.000000 0.701137 0.000000
O O21 0.636601 0.500000 0.997361
#
# Coordination Sequence:
#
# PCOD8098018 Si02
#       8
#     8   8   8   8   8   8   8   8
#     4   9  17  32  54  79 108 140 174 212 258 311
#     4   9  19  37  55  73 101 138 180 222 268 313
#     4  11  22  34  53  80 106 136 178 224 266 313
#     4  10  21  36  55  77 103 138 179 219 261 312
#     4  10  21  35  52  78 112 144 173 212 264 314
#     4  10  20  34  55  82 111 141 176 213 257 315
#     4  10  21  34  49  72 104 139 176 217 264 314
#     4   9  20  36  52  74 101 136 180 220 265 316
#
# _framework density 18.208421999999999
#
# number of rings (size 3 to 8) (size 9 to 14) (size 15 to 20)
#    0.000    2.250    0.000    3.375    1.750    7.500 
#    0.000    0.000    0.000    0.750    0.000    0.000 
#    0.000    0.000    0.000    0.000    0.000    0.000 
#
# Total GULP energy -396876.856087 kJ/mol
# GULP energy per Si atom -12402.401753 kJ/mol
# Density = 1.816698 g / cm^3
# Si number density = 18.208422 Si / 1000 Ang^3
#
#
#
# Elastic Constant Matrix: (Units=GPa)
#
#
# Indices 1 2 3 4 5 6 
#
# 1 49.7025 26.3327 28.1417 0.0226 9.0039 -0.1035
# 2 26.3327 80.6712 35.2516 0.0309 8.0770 -0.0565
# 3 28.1417 35.2516 81.0792 -0.0185 18.4351 0.0020
# 4 0.0226 0.0309 -0.0185 34.7351 -0.0004 -0.7630
# 5 9.0039 8.0770 18.4351 -0.0004 21.7742 0.0370
# 6 -0.1035 -0.0565 0.0020 -0.7630 0.0370 27.3790
#
#
#
# Elastic Compliance Matrix: (Units=1/GPa)
#
#
# Indices 1 2 3 4 5 6 
#
# 1 0.027389 -0.005905 -0.006021 -0.000014 -0.004038 0.000097
# 2 -0.005905 0.016577 -0.005343 -0.000013 0.000817 0.000011
# 3 -0.006021 -0.005343 0.019480 0.000018 -0.012021 -0.000018
# 4 -0.000014 -0.000013 0.000018 0.028807 -0.000006 0.000803
# 5 -0.004038 0.000817 -0.012021 -0.000006 0.057470 -0.000091
# 6 0.000097 0.000011 -0.000018 0.000803 -0.000091 0.036547
#
#
# Mechanical properties :
#
#
# Convention : Reuss Voigt Hill
#
# Bulk Modulus (GPa) = 34.59384 43.43385 39.01385
# Shear Modulus (GPa) = 21.69727 24.89279 23.29503
#
# Velocity S-wave (km/s) = 3.45571 3.70145 3.58069
# Velocity P-wave (km/s) = 5.91292 6.49408 6.21030
#
# Compressibility (1/GPa) = 0.02890688
#
# Stress axis : x y z
#
# Youngs Moduli (GPa) = 36.51106 60.32581 51.33532
#
# Poissons Ratio (x) = 0.35622 0.30909
# Poissons Ratio (y) = 0.21559 0.27430
# Poissons Ratio (z) = 0.21983 0.32234
#
# Static dielectric constant tensor:
#      x y z
#    x 3.130720 -0.000130 0.096810 
#    y -0.000130 3.487070 -0.000020 
#    z 0.096810 -0.000020 3.352810 
# 
# 
# High freq. dielectric constant tensor:
#      x y z
#    x 1.684090 -0.000010 0.007010 
#    y -0.000010 1.720210 0.000000 
#    z 0.007010 0.000000 1.699440 
# 
# From -- ./inp_files/382332.got.cif
#   From: 2010.06.25/outbox.cif.g09.slc.cpg/sg12_192_cif.got.tgz:382332.got - 2010.06.28 00:19:55.
