data_PCOD8098917
_publ_section_title
;
Structure prediction by ZEFSAII (Michael W. Deem and Ramdas Pophale) SiO2 
 PCOD8098917
Probable space group: C 2/M
;
_chemical_formula_sum "Si O2"
_cell_formula_units_Z 64
_cell_length_a 20.647953
_cell_length_b 8.922787
_cell_length_c 19.356189
_cell_angle_alpha 90.000000
_cell_angle_beta 98.146127
_cell_angle_gamma 90.000000
_cell_volume 3530.149121
_symmetry_space_group_name_H-M "C 2/M"
_symmetry_group_IT_number 12
_symmetry_cell_setting 'monoclinic'
loop_
_space_group_symop_operation_xyz
x,y,z
-x,y,-z
-x,-y,-z
x,-y,z
1/2+x,1/2+y,z
1/2-x,1/2+y,-z
1/2-x,1/2-y,-z
1/2+x,1/2-y,z
loop_
_atom_site_type_symbol
_atom_site_label
_atom_site_fract_x
_atom_site_fract_y
_atom_site_fract_z
Si Si1 0.328223 0.825119 0.576871
Si Si2 0.815805 0.321929 0.035761
Si Si3 0.539154 0.825379 0.332867
Si Si4 0.567212 0.174605 0.038909
Si Si5 0.614173 0.324933 0.833836
Si Si6 0.696727 0.174708 0.584893
Si Si7 0.096806 0.824149 0.673799
Si Si8 0.980734 0.672266 0.825018
O O1 0.397095 0.766472 0.617254
O O2 0.328383 0.790350 0.495778
O O3 0.269798 0.737808 0.606091
O O4 0.318341 0.000000 0.590969
O O5 0.809838 0.500000 0.034343
O O6 0.831142 0.265817 0.115583
O O7 0.750000 0.250000 0.000000
O O8 0.870890 0.257142 0.991577
O O9 0.475475 0.740306 0.351144
O O10 0.551626 0.792027 0.253680
O O11 0.527647 0.000000 0.345457
O O12 0.572121 0.203762 0.122375
O O13 0.566791 0.000000 0.021279
O O14 0.500000 0.246751 0.000000
O O15 0.623943 0.500000 0.848415
O O16 0.621232 0.283316 0.754296
O O17 0.542720 0.276637 0.848958
O O18 0.647832 0.254712 0.629060
O O19 0.697439 0.000000 0.601473
O O20 0.093277 0.000000 0.661409
O O21 0.005034 0.500000 0.831896
#
# Coordination Sequence:
#
# PCOD8098917 Si02
#       8
#     8   8   8   8   8   8   8   8
#     4   9  19  36  55  79 110 142 177 221 269 318
#     4  11  22  37  55  76 109 142 177 221 265 317
#     4   9  18  33  55  80 107 138 176 219 265 319
#     4   9  16  30  54  79 100 132 175 214 252 305
#     4  10  20  35  54  77 105 139 175 217 269 315
#     4  10  20  35  56  78 106 144 183 220 264 322
#     4  10  21  36  55  79 108 139 178 224 268 320
#     4   9  16  31  55  79 101 134 176 214 260 315
#
# _framework density 18.129546000000001
#
# number of rings (size 3 to 8) (size 9 to 14) (size 15 to 20)
#    0.000    2.375    1.250    1.500    0.000    3.000 
#    2.250    4.375    0.000    0.000    0.000    0.000 
#    0.000    0.000    0.000    0.000    0.000    0.000 
#
# Total GULP energy -396800.041885 kJ/mol
# GULP energy per Si atom -12400.001309 kJ/mol
# Density = 1.808828 g / cm^3
# Si number density = 18.129546 Si / 1000 Ang^3
#
#
#
# Elastic Constant Matrix: (Units=GPa)
#
#
# Indices 1 2 3 4 5 6 
#
# 1 161.1525 60.4511 86.3927 0.0000 3.4004 0.0000
# 2 60.4511 67.6996 45.6666 0.0000 2.9343 0.0000
# 3 86.3927 45.6666 99.6724 0.0000 0.4151 0.0000
# 4 0.0000 0.0000 0.0000 25.1579 0.0000 0.4647
# 5 3.4004 2.9343 0.4151 0.0000 33.6281 0.0000
# 6 0.0000 0.0000 0.0000 0.4647 0.0000 32.3106
#
#
#
# Elastic Compliance Matrix: (Units=1/GPa)
#
#
# Indices 1 2 3 4 5 6 
#
# 1 0.013010 -0.005763 -0.008634 0.000000 -0.000706 0.000000
# 2 -0.005763 0.024034 -0.006010 0.000000 -0.001440 0.000000
# 3 -0.008634 -0.006010 0.020265 0.000000 0.001147 0.000000
# 4 0.000000 0.000000 0.000000 0.039759 0.000000 -0.000572
# 5 -0.000706 -0.001440 0.001147 0.000000 0.029920 0.000000
# 6 0.000000 0.000000 0.000000 -0.000572 0.000000 0.030958
#
#
# Mechanical properties :
#
#
# Convention : Reuss Voigt Hill
#
# Bulk Modulus (GPa) = 60.62275 79.28282 69.95278
# Shear Modulus (GPa) = 24.47870 27.28692 25.88281
#
# Velocity S-wave (km/s) = 3.67851 3.88378 3.78254
# Velocity P-wave (km/s) = 7.18005 7.99612 7.59905
#
# Compressibility (1/GPa) = 0.01649546
#
# Stress axis : x y z
#
# Youngs Moduli (GPa) = 76.86116 41.60807 49.34567
#
# Poissons Ratio (x) = 0.23979 0.42603
# Poissons Ratio (y) = 0.44295 0.29658
# Poissons Ratio (z) = 0.66359 0.25008
#
# Static dielectric constant tensor:
#      x y z
#    x 3.340340 0.000000 0.010910 
#    y 0.000000 3.283440 0.000000 
#    z 0.010910 0.000000 3.556120 
# 
# 
# High freq. dielectric constant tensor:
#      x y z
#    x 1.693510 0.000000 -0.002120 
#    y 0.000000 1.694090 0.000000 
#    z -0.002120 0.000000 1.708700 
# 
# From -- ./inp_files/314161.got.cif
#   From: 2010.06.25/outbox.cif.g09.slc.cpg/sg12_158_cif.got.tgz:314161.got - 2010.06.28 00:19:55.
