data_PCOD8098278
_publ_section_title
;
Structure prediction by ZEFSAII (Michael W. Deem and Ramdas Pophale) SiO2 
 PCOD8098278
Probable space group: C 2/M
;
_chemical_formula_sum "Si O2"
_cell_formula_units_Z 48
_cell_length_a 14.954632
_cell_length_b 8.417158
_cell_length_c 28.730834
_cell_angle_alpha 90.000000
_cell_angle_beta 40.889256
_cell_angle_gamma 90.000000
_cell_volume 2367.362828
_symmetry_space_group_name_H-M "C 2/M"
_symmetry_group_IT_number 12
_symmetry_cell_setting 'monoclinic'
loop_
_space_group_symop_operation_xyz
x,y,z
-x,y,-z
-x,-y,-z
x,-y,z
1/2+x,1/2+y,z
1/2-x,1/2+y,-z
1/2-x,1/2-y,-z
1/2+x,1/2-y,z
loop_
_atom_site_type_symbol
_atom_site_label
_atom_site_fract_x
_atom_site_fract_y
_atom_site_fract_z
Si Si1 0.285340 0.686649 0.089941
Si Si2 0.011715 0.314485 0.063556
Si Si3 0.489101 0.313580 0.834539
Si Si4 0.965923 0.185792 0.415484
Si Si5 0.238069 0.311621 0.433187
Si Si6 0.250413 0.313586 0.323954
O O1 0.261217 0.500000 0.104404
O O2 0.365875 0.751301 0.103147
O O3 0.141499 0.777519 0.146011
O O4 0.368359 0.721338 0.010084
O O5 0.026889 0.500000 0.046546
O O6 0.025841 0.284442 0.112359
O O7 0.500000 0.500000 0.841254
O O8 0.621960 0.247158 0.755449
O O9 0.896919 0.235664 0.491216
O O10 0.871499 0.241572 0.409668
O O11 0.111427 0.269859 0.352239
O O12 0.990735 0.000000 0.405007
O O13 0.219238 0.500000 0.441722
O O14 0.252444 0.242724 0.375467
O O15 0.265897 0.500000 0.321891
#
# Coordination Sequence:
#
# PCOD8098278 Si02
#       6
#     8   8   8   8   8   8
#     4  11  22  39  62  88 115 147 189 237 284 333
#     4  11  22  39  62  87 114 149 190 234 284 337
#     4  11  23  39  57  83 117 153 192 234 284 339
#     4  10  20  34  56  84 110 139 182 233 277 323
#     4   9  19  37  57  78 107 145 184 223 274 332
#     4  10  22  38  56  78 110 150 185 222 274 334
#
# _framework density 20.275727
#
# number of rings (size 3 to 8) (size 9 to 14) (size 15 to 20)
#    0.000    1.667    0.000    6.000    0.000    6.000 
#    0.000    1.667    0.000    0.000    0.000    0.000 
#    0.000    0.000    0.000    0.000    0.000    0.000 
#
# Total GULP energy -297726.509290 kJ/mol
# GULP energy per Si atom -12405.271220 kJ/mol
# Density = 2.022958 g / cm^3
# Si number density = 20.275727 Si / 1000 Ang^3
#
#
#
# Elastic Constant Matrix: (Units=GPa)
#
#
# Indices 1 2 3 4 5 6 
#
# 1 82.7807 6.7150 30.7276 -0.0005 -23.9750 -0.0015
# 2 6.7150 35.7258 1.9276 -0.0004 5.4446 -0.0014
# 3 30.7276 1.9276 62.2493 -0.0002 -27.5573 -0.0004
# 4 -0.0005 -0.0004 -0.0002 25.2832 0.0000 -4.3187
# 5 -23.9750 5.4446 -27.5573 0.0000 32.9778 -0.0001
# 6 -0.0015 -0.0014 -0.0004 -4.3187 -0.0001 34.6986
#
#
#
# Elastic Compliance Matrix: (Units=1/GPa)
#
#
# Indices 1 2 3 4 5 6 
#
# 1 0.016643 -0.004391 -0.003812 0.000000 0.009639 0.000001
# 2 -0.004391 0.030782 -0.003886 0.000001 -0.011522 0.000001
# 3 -0.003812 -0.003886 0.027177 0.000000 0.020580 0.000000
# 4 0.000000 0.000001 0.000000 0.040411 0.000000 0.005030
# 5 0.009639 -0.011522 0.020580 0.000000 0.056431 0.000000
# 6 0.000001 0.000001 0.000000 0.005030 0.000000 0.029446
#
#
# Mechanical properties :
#
#
# Convention : Reuss Voigt Hill
#
# Bulk Modulus (GPa) = 19.83242 28.83289 24.33265
# Shear Modulus (GPa) = 20.67160 28.01763 24.34462
#
# Velocity S-wave (km/s) = 3.19646 3.72133 3.46884
# Velocity P-wave (km/s) = 4.84002 5.71976 5.29818
#
# Compressibility (1/GPa) = 0.05042249
#
# Stress axis : x y z
#
# Youngs Moduli (GPa) = 60.08510 32.48644 36.79525
#
# Poissons Ratio (x) = 0.14266 0.14027
# Poissons Ratio (y) = 0.26386 0.14300
# Poissons Ratio (z) = 0.22906 0.12625
#
# Static dielectric constant tensor:
#      x y z
#    x 3.830130 0.000000 -0.044370 
#    y 0.000000 3.552760 0.000000 
#    z -0.044370 0.000000 3.735840 
# 
# 
# High freq. dielectric constant tensor:
#      x y z
#    x 1.803950 0.000000 -0.006810 
#    y 0.000000 1.791030 0.000000 
#    z -0.006810 0.000000 1.783930 
# 
# From -- ./inp_files/360222.got.cif
#   From: 2010.06.25/outbox.cif.g09.slc.cpg/sg12_181_cif.got.tgz:360222.got - 2010.06.28 00:19:55.
