data_PCOD8098299
_publ_section_title
;
Structure prediction by ZEFSAII (Michael W. Deem and Ramdas Pophale) SiO2 
 PCOD8098299
Probable space group: C 2/M
;
_chemical_formula_sum "Si O2"
_cell_formula_units_Z 56
_cell_length_a 28.189903
_cell_length_b 8.858223
_cell_length_c 17.259800
_cell_angle_alpha 90.000000
_cell_angle_beta 43.949920
_cell_angle_gamma 90.000000
_cell_volume 2991.257439
_symmetry_space_group_name_H-M "C 2/M"
_symmetry_group_IT_number 12
_symmetry_cell_setting 'monoclinic'
loop_
_space_group_symop_operation_xyz
x,y,z
-x,y,-z
-x,-y,-z
x,-y,z
1/2+x,1/2+y,z
1/2-x,1/2+y,-z
1/2-x,1/2-y,-z
1/2+x,1/2-y,z
loop_
_atom_site_type_symbol
_atom_site_label
_atom_site_fract_x
_atom_site_fract_y
_atom_site_fract_z
Si Si1 0.686514 0.322210 0.433397
Si Si2 0.681295 0.177535 0.113047
Si Si3 0.934004 0.675020 0.871848
Si Si4 0.671520 0.675726 0.706115
Si Si5 0.410043 0.823333 0.334436
Si Si6 0.210328 0.176504 0.230595
Si Si7 0.149189 0.174514 0.907995
O O1 0.685790 0.500000 0.448515
O O2 0.755919 0.257514 0.388190
O O3 0.622488 0.245538 0.549972
O O4 0.680673 0.281086 0.349604
O O5 0.617035 0.225076 0.136388
O O6 0.666079 0.238437 0.217526
O O7 0.691231 0.000000 0.103814
O O8 0.750000 0.250000 0.000000
O O9 0.925496 0.500000 0.902934
O O10 0.009916 0.712007 0.754407
O O11 0.918522 0.771340 0.967555
O O12 0.682907 0.500000 0.675479
O O13 0.619057 0.744230 0.707349
O O14 0.639195 0.703872 0.828628
O O15 0.394308 0.000000 0.348536
O O16 0.288697 0.227748 0.131433
O O17 0.207302 0.000000 0.217908
O O18 0.164600 0.000000 0.906544
#
# Coordination Sequence:
#
# PCOD8098299 Si02
#       7
#     8   8   8   8   8   8   8
#     4  10  21  38  60  84 111 146 187 233 278 325
#     4  11  21  35  58  86 113 145 185 228 278 331
#     4  10  23  39  55  79 115 151 185 226 277 336
#     4  10  21  37  58  85 113 144 186 233 278 329
#     4  11  23  39  57  79 110 152 191 228 277 330
#     4  10  20  35  57  85 114 143 181 230 281 329
#     4  10  20  34  56  84 112 145 184 228 278 329
#
# _framework density 18.721223999999999
#
# number of rings (size 3 to 8) (size 9 to 14) (size 15 to 20)
#    0.000    1.714    1.429    3.000    0.000    5.714 
#    0.000    3.571    0.000    4.286    0.000    0.000 
#    0.000    0.000    0.000    0.000    0.000    0.000 
#
# Total GULP energy -347335.041801 kJ/mol
# GULP energy per Si atom -12404.822921 kJ/mol
# Density = 1.867861 g / cm^3
# Si number density = 18.721224 Si / 1000 Ang^3
#
#
#
# Elastic Constant Matrix: (Units=GPa)
#
#
# Indices 1 2 3 4 5 6 
#
# 1 116.9463 63.2550 83.3443 0.0018 2.6319 -0.0024
# 2 63.2550 108.4665 71.4220 -0.0008 -1.2820 0.0011
# 3 83.3443 71.4220 134.4760 -0.0056 -2.1914 0.0051
# 4 0.0018 -0.0008 -0.0056 34.2046 0.0004 4.0217
# 5 2.6319 -1.2820 -2.1914 0.0004 25.6282 -0.0007
# 6 -0.0024 0.0011 0.0051 4.0217 -0.0007 31.9471
#
#
#
# Elastic Compliance Matrix: (Units=1/GPa)
#
#
# Indices 1 2 3 4 5 6 
#
# 1 0.016793 -0.004526 -0.008047 -0.000003 -0.002639 0.000003
# 2 -0.004526 0.015397 -0.005360 0.000000 0.000777 0.000000
# 3 -0.008047 -0.005360 0.015301 0.000003 0.001867 -0.000003
# 4 -0.000003 0.000000 0.000003 0.029675 0.000000 -0.003736
# 5 -0.002639 0.000777 0.001867 0.000000 0.039489 0.000000
# 6 0.000003 0.000000 -0.000003 -0.003736 0.000000 0.031772
#
#
# Mechanical properties :
#
#
# Convention : Reuss Voigt Hill
#
# Bulk Modulus (GPa) = 86.01938 88.43683 87.22811
# Shear Modulus (GPa) = 26.57173 27.81380 27.19277
#
# Velocity S-wave (km/s) = 3.77150 3.85864 3.81532
# Velocity P-wave (km/s) = 8.06305 8.19716 8.13038
#
# Compressibility (1/GPa) = 0.01162529
#
# Stress axis : x y z
#
# Youngs Moduli (GPa) = 59.54719 64.94573 65.35461
#
# Poissons Ratio (x) = 0.29393 0.52594
# Poissons Ratio (y) = 0.26949 0.35032
# Poissons Ratio (z) = 0.47920 0.34812
#
# Static dielectric constant tensor:
#      x y z
#    x 3.513380 0.000000 0.215050 
#    y 0.000000 3.547440 0.000000 
#    z 0.215050 0.000000 3.464810 
# 
# 
# High freq. dielectric constant tensor:
#      x y z
#    x 1.723100 0.000000 0.018160 
#    y 0.000000 1.742000 0.000000 
#    z 0.018160 0.000000 1.723300 
# 
# From -- ./inp_files/288144.got.cif
#   From: 2010.06.25/outbox.cif.g09.slc.cpg/sg12_145_cif.got.tgz:288144.got - 2010.06.28 00:19:55.
