data_PCOD8098152
_publ_section_title
;
Structure prediction by ZEFSAII (Michael W. Deem and Ramdas Pophale) SiO2 
 PCOD8098152
Probable space group: C 2/M
;
_chemical_formula_sum "Si O2"
_cell_formula_units_Z 48
_cell_length_a 22.264664
_cell_length_b 9.042582
_cell_length_c 12.261760
_cell_angle_alpha 90.000000
_cell_angle_beta 72.445869
_cell_angle_gamma 90.000000
_cell_volume 2353.701218
_symmetry_space_group_name_H-M "C 2/M"
_symmetry_group_IT_number 12
_symmetry_cell_setting 'monoclinic'
loop_
_space_group_symop_operation_xyz
x,y,z
-x,y,-z
-x,-y,-z
x,-y,z
1/2+x,1/2+y,z
1/2-x,1/2+y,-z
1/2-x,1/2-y,-z
1/2+x,1/2-y,z
loop_
_atom_site_type_symbol
_atom_site_label
_atom_site_fract_x
_atom_site_fract_y
_atom_site_fract_z
Si Si1 0.622802 0.673289 0.679615
Si Si2 0.743240 0.825308 0.682645
Si Si3 0.227047 0.326516 0.120275
Si Si4 0.114731 0.830337 0.442751
Si Si5 0.416330 0.829062 0.747867
Si Si6 0.982599 0.324611 0.132093
O O1 0.631327 0.500000 0.697834
O O2 0.691034 0.749949 0.635029
O O3 0.590076 0.700174 0.579094
O O4 0.582094 0.746456 0.797804
O O5 0.734180 0.753127 0.806027
O O6 0.812003 0.783062 0.600248
O O7 0.732028 0.000000 0.694272
O O8 0.242212 0.500000 0.111555
O O9 0.153195 0.294308 0.171830
O O10 0.250000 0.250000 0.000000
O O11 0.072943 0.743893 0.376766
O O12 0.108018 0.000000 0.413900
O O13 0.463704 0.767869 0.813942
O O14 0.428713 0.000000 0.723441
O O15 0.973109 0.500000 0.142621
O O16 0.000000 0.274804 0.000000
#
# Coordination Sequence:
#
# PCOD8098152 Si02
#       6
#     8   8   8   8   8   8
#     4  11  23  38  58  88 120 152 193 240 293 348
#     4  10  20  36  58  85 117 155 193 234 289 349
#     4  10  20  34  55  85 116 151 193 240 291 345
#     4   9  20  38  60  87 119 152 188 237 295 349
#     4   9  20  38  59  83 113 150 195 242 285 339
#     4  10  23  42  61  82 113 156 199 241 287 342
#
# _framework density 20.393412999999999
#
# number of rings (size 3 to 8) (size 9 to 14) (size 15 to 20)
#    0.000    2.167    0.000    2.000    2.333    4.333 
#    0.000    3.333    0.000    0.000    0.000    0.000 
#    0.000    0.000    0.000    0.000    0.000    0.000 
#
# Total GULP energy -297623.638827 kJ/mol
# GULP energy per Si atom -12400.984951 kJ/mol
# Density = 2.034700 g / cm^3
# Si number density = 20.393413 Si / 1000 Ang^3
#
#
#
# Elastic Constant Matrix: (Units=GPa)
#
#
# Indices 1 2 3 4 5 6 
#
# 1 78.5909 28.8315 23.4535 0.0000 20.8317 0.0000
# 2 28.8315 65.9931 39.5093 0.0000 4.6170 0.0000
# 3 23.4535 39.5093 118.4461 0.0000 12.8530 0.0000
# 4 0.0000 0.0000 0.0000 35.7802 0.0000 5.4990
# 5 20.8317 4.6170 12.8530 0.0000 27.9088 0.0000
# 6 0.0000 0.0000 0.0000 5.4990 0.0000 28.2263
#
#
#
# Elastic Compliance Matrix: (Units=1/GPa)
#
#
# Indices 1 2 3 4 5 6 
#
# 1 0.018812 -0.007403 0.000142 0.000000 -0.012883 0.000000
# 2 -0.007403 0.021849 -0.006347 0.000000 0.004834 0.000000
# 3 0.000142 -0.006347 0.010978 0.000000 -0.004112 0.000000
# 4 0.000000 0.000000 0.000000 0.028811 0.000000 -0.005613
# 5 -0.012883 0.004834 -0.004112 0.000000 0.046541 0.000000
# 6 0.000000 0.000000 0.000000 -0.005613 0.000000 0.036521
#
#
# Mechanical properties :
#
#
# Convention : Reuss Voigt Hill
#
# Bulk Modulus (GPa) = 40.94279 49.62431 45.28355
# Shear Modulus (GPa) = 25.14241 29.79878 27.47060
#
# Velocity S-wave (km/s) = 3.51503 3.82671 3.67418
# Velocity P-wave (km/s) = 6.04930 6.62656 6.34450
#
# Compressibility (1/GPa) = 0.02442433
#
# Stress axis : x y z
#
# Youngs Moduli (GPa) = 53.15737 45.76939 91.09367
#
# Poissons Ratio (x) = 0.33881 -0.01295
# Poissons Ratio (y) = 0.39350 0.57814
# Poissons Ratio (z) = -0.00756 0.29048
#
# Static dielectric constant tensor:
#      x y z
#    x 3.930830 0.000000 0.283120 
#    y 0.000000 3.618620 0.000000 
#    z 0.283120 0.000000 3.796040 
# 
# 
# High freq. dielectric constant tensor:
#      x y z
#    x 1.793450 0.000000 0.010410 
#    y 0.000000 1.794410 0.000000 
#    z 0.010410 0.000000 1.804220 
# 
# From -- ./inp_files/172300.got.cif
#   From: 2010.06.25/outbox.cif.g09.slc.cpg/sg12_87_cif.got.tgz:172300.got - 2010.06.28 00:19:55.
