data_PCOD8098721
_publ_section_title
;
Structure prediction by ZEFSAII (Michael W. Deem and Ramdas Pophale) SiO2 
 PCOD8098721
Probable space group: C 2/M
;
_chemical_formula_sum "Si O2"
_cell_formula_units_Z 64
_cell_length_a 16.774143
_cell_length_b 18.051917
_cell_length_c 11.688313
_cell_angle_alpha 90.000000
_cell_angle_beta 72.822414
_cell_angle_gamma 90.000000
_cell_volume 3381.411285
_symmetry_space_group_name_H-M "C 2/M"
_symmetry_group_IT_number 12
_symmetry_cell_setting 'monoclinic'
loop_
_space_group_symop_operation_xyz
x,y,z
-x,y,-z
-x,-y,-z
x,-y,z
1/2+x,1/2+y,z
1/2-x,1/2+y,-z
1/2-x,1/2-y,-z
1/2+x,1/2-y,z
loop_
_atom_site_type_symbol
_atom_site_label
_atom_site_fract_x
_atom_site_fract_y
_atom_site_fract_z
Si Si1 0.036392 0.870880 0.193379
Si Si2 0.970468 0.288439 0.887908
Si Si3 0.265766 0.336323 0.517572
Si Si4 0.205818 0.323062 0.969446
Si Si5 0.359663 0.182762 0.251703
Si Si6 0.851022 0.145652 0.264858
Si Si7 0.332827 0.416393 0.033558
Si Si8 0.590716 0.585159 0.411969
O O1 0.044887 0.782047 0.186606
O O2 0.088475 0.902588 0.277049
O O3 0.939578 0.896948 0.242878
O O4 0.076450 0.904047 0.060628
O O5 0.884837 0.333645 0.933941
O O6 0.043942 0.342901 0.808198
O O7 0.000000 0.258221 0.000000
O O8 0.250000 0.250000 0.500000
O O9 0.184267 0.362666 0.625388
O O10 0.281810 0.379102 0.389740
O O11 0.346764 0.354658 0.560077
O O12 0.261238 0.394187 0.974545
O O13 0.250000 0.250000 0.000000
O O14 0.197558 0.323278 0.836321
O O15 0.368182 0.268650 0.279992
O O16 0.817640 0.133386 0.152040
O O17 0.321318 0.500000 0.076962
O O18 0.500000 0.602622 0.500000
O O19 0.618035 0.500000 0.426073
#
# Coordination Sequence:
#
# PCOD8098721 Si02
#       8
#     8   8   8   8   8   8   8   8
#     4  11  19  34  54  80 113 147 184 223 271 343
#     4   9  18  32  57  84 111 140 181 235 291 329
#     4  10  21  37  58  79 110 147 198 237 270 329
#     4  11  18  34  57  80 109 146 178 227 291 334
#     4   9  18  34  56  81 104 139 190 234 273 325
#     4  10  20  35  51  77 113 147 181 225 279 328
#     4  12  24  33  51  84 114 146 185 228 279 343
#     4  11  23  37  53  78 117 158 186 224 290 350
#
# _framework density 18.927009000000002
#
# number of rings (size 3 to 8) (size 9 to 14) (size 15 to 20)
#    0.000    1.625    3.750    3.000    0.000    2.000 
#    0.000    0.000    0.000    4.125    0.000    0.875 
#    0.000    0.000    0.000    0.000    0.000    0.000 
#
# Total GULP energy -396540.204564 kJ/mol
# GULP energy per Si atom -12391.881393 kJ/mol
# Density = 1.888393 g / cm^3
# Si number density = 18.927009 Si / 1000 Ang^3
#
#
#
# Elastic Constant Matrix: (Units=GPa)
#
#
# Indices 1 2 3 4 5 6 
#
# 1 106.4950 30.6475 53.4746 0.0000 -20.3288 0.0000
# 2 30.6475 44.9490 17.9641 0.0000 -4.1494 0.0000
# 3 53.4746 17.9641 143.3920 0.0000 -26.6484 0.0000
# 4 0.0000 0.0000 0.0000 13.7015 0.0000 1.6811
# 5 -20.3288 -4.1494 -26.6484 0.0000 38.2445 0.0000
# 6 0.0000 0.0000 0.0000 1.6811 0.0000 18.4973
#
#
#
# Elastic Compliance Matrix: (Units=1/GPa)
#
#
# Indices 1 2 3 4 5 6 
#
# 1 0.014254 -0.007914 -0.003533 0.000000 0.004256 0.000000
# 2 -0.007914 0.027825 -0.000868 0.000000 -0.001792 0.000000
# 3 -0.003533 -0.000868 0.009229 0.000000 0.004458 0.000000
# 4 0.000000 0.000000 0.000000 0.073808 0.000000 -0.006708
# 5 0.004256 -0.001792 0.004458 0.000000 0.031322 0.000000
# 6 0.000000 0.000000 0.000000 -0.006708 0.000000 0.054672
#
#
# Mechanical properties :
#
#
# Convention : Reuss Voigt Hill
#
# Bulk Modulus (GPa) = 37.48419 55.44539 46.46479
# Shear Modulus (GPa) = 20.43888 26.93862 23.68875
#
# Velocity S-wave (km/s) = 3.28972 3.77674 3.54161
# Velocity P-wave (km/s) = 5.85468 6.95531 6.42859
#
# Compressibility (1/GPa) = 0.02667791
#
# Stress axis : x y z
#
# Youngs Moduli (GPa) = 70.15422 35.93925 108.35635
#
# Poissons Ratio (x) = 0.28442 0.38286
# Poissons Ratio (y) = 0.55520 0.09401
# Poissons Ratio (z) = 0.24788 0.03118
#
# Static dielectric constant tensor:
#      x y z
#    x 3.803240 0.000000 -0.307350 
#    y 0.000000 3.072430 0.000000 
#    z -0.307350 0.000000 3.984340 
# 
# 
# High freq. dielectric constant tensor:
#      x y z
#    x 1.732180 0.000000 -0.013740 
#    y 0.000000 1.681900 0.000000 
#    z -0.013740 0.000000 1.753160 
# 
# From -- ./inp_files/157807.got.cif
#   From: 2010.06.25/outbox.cif.g09.slc.cpg/sg12_79_cif.got.tgz:157807.got - 2010.06.28 00:19:55.
