data_PCOD8098399
_publ_section_title
;
Structure prediction by ZEFSAII (Michael W. Deem and Ramdas Pophale) SiO2 
 PCOD8098399
Probable space group: C 2/M
;
_chemical_formula_sum "Si O2"
_cell_formula_units_Z 64
_cell_length_a 23.692606
_cell_length_b 12.871345
_cell_length_c 11.998755
_cell_angle_alpha 90.000000
_cell_angle_beta 111.315834
_cell_angle_gamma 90.000000
_cell_volume 3408.773482
_symmetry_space_group_name_H-M "C 2/M"
_symmetry_group_IT_number 12
_symmetry_cell_setting 'monoclinic'
loop_
_space_group_symop_operation_xyz
x,y,z
-x,y,-z
-x,-y,-z
x,-y,z
1/2+x,1/2+y,z
1/2-x,1/2+y,-z
1/2-x,1/2-y,-z
1/2+x,1/2-y,z
loop_
_atom_site_type_symbol
_atom_site_label
_atom_site_fract_x
_atom_site_fract_y
_atom_site_fract_z
Si Si1 0.150369 0.879700 0.577981
Si Si2 0.233873 0.619786 0.793494
Si Si3 0.557719 0.380803 0.110889
Si Si4 0.500559 0.119180 0.632253
Si Si5 0.603118 0.753457 0.339029
Si Si6 0.616830 0.246937 0.757584
Si Si7 0.347463 0.383081 0.010509
Si Si8 0.230684 0.276472 0.363413
O O1 0.128108 0.825561 0.449454
O O2 0.114950 0.830280 0.656733
O O3 0.223341 0.865581 0.648325
O O4 0.134008 0.000000 0.560342
O O5 0.228665 0.500000 0.757345
O O6 0.167533 0.660809 0.773116
O O7 0.276797 0.636746 0.932090
O O8 0.262338 0.674588 0.706700
O O9 0.548673 0.500000 0.142066
O O10 0.562341 0.310978 0.223885
O O11 0.617296 0.367303 0.079485
O O12 0.500000 0.341732 0.000000
O O13 0.500000 0.132335 0.500000
O O14 0.436124 0.156037 0.633563
O O15 0.553020 0.189373 0.722549
O O16 0.510707 0.000000 0.674466
O O17 0.659779 0.808881 0.315661
O O18 0.629099 0.303395 0.882108
O O19 0.357207 0.500000 0.063133
O O20 0.250000 0.250000 0.500000
#
# Coordination Sequence:
#
# PCOD8098399 Si02
#       8
#     8   8   8   8   8   8   8   8
#     4  10  21  36  57  87 120 150 184 240 301 351
#     4  10  20  36  60  89 117 153 200 242 287 344
#     4  10  20  34  56  87 118 156 199 238 286 344
#     4  11  24  42  61  84 115 153 199 240 280 344
#     4  11  20  39  61  85 116 153 192 241 292 344
#     4  11  21  39  58  85 120 157 194 240 288 342
#     4  10  20  35  59  88 118 154 195 239 288 345
#     4   9  20  34  55  87 116 150 189 236 295 341
#
# _framework density 18.775082000000001
#
# number of rings (size 3 to 8) (size 9 to 14) (size 15 to 20)
#    0.000    1.750    2.500    2.250    0.000    2.500 
#    0.000    2.500    0.000    4.875    0.000    0.000 
#    0.000    0.000    0.000    0.000    0.000    0.000 
#
# Total GULP energy -396820.590530 kJ/mol
# GULP energy per Si atom -12400.643454 kJ/mol
# Density = 1.873235 g / cm^3
# Si number density = 18.775082 Si / 1000 Ang^3
#
#
#
# Elastic Constant Matrix: (Units=GPa)
#
#
# Indices 1 2 3 4 5 6 
#
# 1 103.0880 48.3610 18.9687 0.0000 9.6662 0.0000
# 2 48.3610 104.0814 48.5900 0.0000 -2.4908 0.0000
# 3 18.9687 48.5900 89.2001 0.0000 3.3700 0.0000
# 4 0.0000 0.0000 0.0000 26.1670 0.0000 11.5233
# 5 9.6662 -2.4908 3.3700 0.0000 24.2952 0.0000
# 6 0.0000 0.0000 0.0000 11.5233 0.0000 12.6158
#
#
#
# Elastic Compliance Matrix: (Units=1/GPa)
#
#
# Indices 1 2 3 4 5 6 
#
# 1 0.013280 -0.006849 0.001139 0.000000 -0.006144 0.000000
# 2 -0.006849 0.016547 -0.007765 0.000000 0.005499 0.000000
# 3 0.001139 -0.007765 0.015326 0.000000 -0.003375 0.000000
# 4 0.000000 0.000000 0.000000 0.063932 0.000000 -0.058395
# 5 -0.006144 0.005499 -0.003375 0.000000 0.044637 0.000000
# 6 0.000000 0.000000 0.000000 -0.058395 0.000000 0.132604
#
#
# Mechanical properties :
#
#
# Convention : Reuss Voigt Hill
#
# Bulk Modulus (GPa) = 54.93694 58.68985 56.81339
# Shear Modulus (GPa) = 15.65714 24.64560 20.15137
#
# Velocity S-wave (km/s) = 2.89092 3.62702 3.27969
# Velocity P-wave (km/s) = 6.36139 6.99054 6.68337
#
# Compressibility (1/GPa) = 0.01820269
#
# Stress axis : x y z
#
# Youngs Moduli (GPa) = 75.30040 60.43402 65.24963
#
# Poissons Ratio (x) = 0.41394 -0.07433
# Poissons Ratio (y) = 0.51576 0.50665
# Poissons Ratio (z) = -0.08578 0.46926
#
# Static dielectric constant tensor:
#      x y z
#    x 3.747990 0.000000 0.113930 
#    y 0.000000 3.368370 0.000000 
#    z 0.113930 0.000000 3.379180 
# 
# 
# High freq. dielectric constant tensor:
#      x y z
#    x 1.740520 0.000000 0.006020 
#    y 0.000000 1.715630 0.000000 
#    z 0.006020 0.000000 1.730100 
# 
# From -- ./inp_files/175294.got.cif
#   From: 2010.06.25/outbox.cif.g09.slc.cpg/sg12_88_cif.got.tgz:175294.got - 2010.06.28 00:19:55.
