data_PCOD8098104
_publ_section_title
;
Structure prediction by ZEFSAII (Michael W. Deem and Ramdas Pophale) SiO2 
 PCOD8098104
Probable space group: C 2/M
;
_chemical_formula_sum "Si O2"
_cell_formula_units_Z 52
_cell_length_a 9.686475
_cell_length_b 27.455681
_cell_length_c 14.139448
_cell_angle_alpha 90.000000
_cell_angle_beta 132.548743
_cell_angle_gamma 90.000000
_cell_volume 2770.272427
_symmetry_space_group_name_H-M "C 2/M"
_symmetry_group_IT_number 12
_symmetry_cell_setting 'monoclinic'
loop_
_space_group_symop_operation_xyz
x,y,z
-x,y,-z
-x,-y,-z
x,-y,z
1/2+x,1/2+y,z
1/2-x,1/2+y,-z
1/2-x,1/2-y,-z
1/2+x,1/2-y,z
loop_
_atom_site_type_symbol
_atom_site_label
_atom_site_fract_x
_atom_site_fract_y
_atom_site_fract_z
Si Si1 0.805835 0.945157 0.802207
Si Si2 0.292823 0.784428 0.107235
Si Si3 0.133972 0.703150 0.151298
Si Si4 0.830451 0.945646 0.601529
Si Si5 0.000000 0.866775 0.000000
Si Si6 0.093408 0.554910 0.314000
Si Si7 0.377734 0.376763 0.350649
O O1 0.745148 0.938782 0.665780
O O2 0.628759 0.936295 0.788812
O O3 0.886562 0.000000 0.856120
O O4 0.956513 0.903222 0.893214
O O5 0.232674 0.755348 0.174289
O O6 0.514038 0.795156 0.194380
O O7 0.176395 0.834279 0.050514
O O8 0.250000 0.750000 0.000000
O O9 0.307551 0.667956 0.254186
O O10 0.000000 0.687046 0.000000
O O11 0.661321 0.935979 0.452036
O O12 0.998537 0.908694 0.661894
O O13 0.912226 0.000000 0.625170
O O14 0.141188 0.500000 0.303066
O O15 0.193679 0.592506 0.291517
O O16 0.500000 0.361256 0.500000
#
# Coordination Sequence:
#
# PCOD8098104 Si02
#       7
#     8   8   8   8   4   8   8
#     4  10  21  33  52  83 115 144 180 221 273 326
#     4  10  20  37  56  79  96 137 192 227 265 328
#     4  10  21  37  58  78 106 134 187 231 271 331
#     4   9  18  32  54  79 108 146 187 220 260 327
#     4  12  21  34  58  78 112 146 179 230 280 322
#     4   9  17  34  54  76 110 149 183 219 263 327
#     4  10  20  34  55  84 111 141 182 229 280 319
#
# _framework density 18.770717999999999
#
# number of rings (size 3 to 8) (size 9 to 14) (size 15 to 20)
#    0.000    2.154    2.308    2.077    4.308    3.692 
#    0.000    0.769    0.000    2.769    0.000    0.000 
#    0.000    0.000    0.000    0.000    0.000    0.000 
#
# Total GULP energy -322184.401860 kJ/mol
# GULP energy per Si atom -12391.707764 kJ/mol
# Density = 1.872799 g / cm^3
# Si number density = 18.770718 Si / 1000 Ang^3
#
#
#
# Elastic Constant Matrix: (Units=GPa)
#
#
# Indices 1 2 3 4 5 6 
#
# 1 90.1381 39.1147 12.0273 0.0000 11.5928 0.0000
# 2 39.1147 119.3985 40.1461 0.0000 9.7310 0.0000
# 3 12.0273 40.1461 51.3481 0.0000 4.4452 0.0000
# 4 0.0000 0.0000 0.0000 27.5836 0.0000 5.1014
# 5 11.5928 9.7310 4.4452 0.0000 18.6704 0.0000
# 6 0.0000 0.0000 0.0000 5.1014 0.0000 24.6449
#
#
#
# Elastic Compliance Matrix: (Units=1/GPa)
#
#
# Indices 1 2 3 4 5 6 
#
# 1 0.013643 -0.004147 0.000605 0.000000 -0.006454 0.000000
# 2 -0.004147 0.012906 -0.008944 0.000000 -0.002022 0.000000
# 3 0.000605 -0.008944 0.026501 0.000000 -0.002024 0.000000
# 4 0.000000 0.000000 0.000000 0.037697 0.000000 -0.007803
# 5 -0.006454 -0.002022 -0.002024 0.000000 0.059104 0.000000
# 6 0.000000 0.000000 0.000000 -0.007803 0.000000 0.042191
#
#
# Mechanical properties :
#
#
# Convention : Reuss Voigt Hill
#
# Bulk Modulus (GPa) = 35.61409 49.27346 42.44378
# Shear Modulus (GPa) = 22.08750 25.48624 23.78687
#
# Velocity S-wave (km/s) = 3.43403 3.68879 3.56368
# Velocity P-wave (km/s) = 5.89388 6.66708 6.29237
#
# Compressibility (1/GPa) = 0.02807877
#
# Stress axis : x y z
#
# Youngs Moduli (GPa) = 73.29833 77.48369 37.73430
#
# Poissons Ratio (x) = 0.32132 -0.02284
# Poissons Ratio (y) = 0.30396 0.33750
# Poissons Ratio (z) = -0.04437 0.69301
#
# Static dielectric constant tensor:
#      x y z
#    x 4.002960 0.000000 0.157450 
#    y 0.000000 3.567260 0.000000 
#    z 0.157450 0.000000 3.186030 
# 
# 
# High freq. dielectric constant tensor:
#      x y z
#    x 1.735780 0.000000 0.008880 
#    y 0.000000 1.729370 0.000000 
#    z 0.008880 0.000000 1.698690 
# 
# From -- ./inp_files/200700.got.cif
#   From: 2010.06.25/outbox.cif.g09.slc.cpg/sg12_101_cif.got.tgz:200700.got - 2010.06.28 00:19:55.
