data_PCOD8098475
_publ_section_title
;
Structure prediction by ZEFSAII (Michael W. Deem and Ramdas Pophale) SiO2 
 PCOD8098475
Probable space group: C 2/M
;
_chemical_formula_sum "Si O2"
_cell_formula_units_Z 56
_cell_length_a 20.407082
_cell_length_b 8.878788
_cell_length_c 17.650574
_cell_angle_alpha 90.000000
_cell_angle_beta 116.559298
_cell_angle_gamma 90.000000
_cell_volume 2860.620352
_symmetry_space_group_name_H-M "C 2/M"
_symmetry_group_IT_number 12
_symmetry_cell_setting 'monoclinic'
loop_
_space_group_symop_operation_xyz
x,y,z
-x,y,-z
-x,-y,-z
x,-y,z
1/2+x,1/2+y,z
1/2-x,1/2+y,-z
1/2-x,1/2-y,-z
1/2+x,1/2-y,z
loop_
_atom_site_type_symbol
_atom_site_label
_atom_site_fract_x
_atom_site_fract_y
_atom_site_fract_z
Si Si1 0.311651 0.673073 0.312942
Si Si2 0.657947 0.322070 0.251579
Si Si3 0.580158 0.679106 0.059519
Si Si4 0.073762 0.826449 0.497162
Si Si5 0.085593 0.176669 0.772425
Si Si6 0.828127 0.177341 0.033895
Si Si7 0.931059 0.677676 0.663353
O O1 0.286990 0.500000 0.290357
O O2 0.241536 0.779298 0.278700
O O3 0.357100 0.695293 0.412976
O O4 0.361307 0.724698 0.268237
O O5 0.651943 0.500000 0.258679
O O6 0.607911 0.265550 0.155642
O O7 0.630721 0.242829 0.313349
O O8 0.577455 0.500000 0.055514
O O9 0.500000 0.746069 0.000000
O O10 0.634914 0.739535 0.023435
O O11 0.089122 0.727686 0.431576
O O12 0.000000 0.768937 0.500000
O O13 0.063020 0.000000 0.467340
O O14 0.122171 0.225335 0.869771
O O15 0.010395 0.265096 0.728041
O O16 0.067682 0.000000 0.759651
O O17 0.817988 0.000000 0.026576
O O18 0.750000 0.250000 0.000000
O O19 0.928775 0.500000 0.667232
#
# Coordination Sequence:
#
# PCOD8098475 Si02
#       7
#     8   8   8   8   8   8   8
#     4  10  21  38  62  89 120 154 193 241 291 351
#     4  11  23  39  60  85 120 161 199 241 297 356
#     4   9  18  35  58  83 111 151 200 243 282 338
#     4  10  20  40  66  89 117 155 195 236 291 358
#     4  10  20  38  62  87 117 159 200 239 296 360
#     4  10  20  34  57  86 118 152 192 242 294 350
#     4  12  25  39  60  89 120 151 196 252 295 345
#
# _framework density 19.576172
#
# number of rings (size 3 to 8) (size 9 to 14) (size 15 to 20)
#    0.000    1.714    1.429    3.429    0.000    4.857 
#    0.000    0.714    0.000    3.000    0.000    0.000 
#    0.000    0.000    0.000    0.000    0.000    0.000 
#
# Total GULP energy -347332.994329 kJ/mol
# GULP energy per Si atom -12404.749797 kJ/mol
# Density = 1.953162 g / cm^3
# Si number density = 19.576172 Si / 1000 Ang^3
#
#
#
# Elastic Constant Matrix: (Units=GPa)
#
#
# Indices 1 2 3 4 5 6 
#
# 1 89.7911 21.6687 17.6725 0.0000 -0.4211 0.0000
# 2 21.6687 58.7391 24.8217 0.0000 0.4343 0.0000
# 3 17.6725 24.8217 84.4658 0.0000 -3.4322 0.0000
# 4 0.0000 0.0000 0.0000 13.5144 0.0000 9.4054
# 5 -0.4211 0.4343 -3.4322 0.0000 35.7086 0.0000
# 6 0.0000 0.0000 0.0000 9.4054 0.0000 33.4845
#
#
#
# Elastic Compliance Matrix: (Units=1/GPa)
#
#
# Indices 1 2 3 4 5 6 
#
# 1 0.012374 -0.003964 -0.001422 0.000000 0.000058 0.000000
# 2 -0.003964 0.020731 -0.005295 0.000000 -0.000808 0.000000
# 3 -0.001422 -0.005295 0.013748 0.000000 0.001369 0.000000
# 4 0.000000 0.000000 0.000000 0.091974 0.000000 -0.025834
# 5 0.000058 -0.000808 0.001369 0.000000 0.028147 0.000000
# 6 0.000000 0.000000 0.000000 -0.025834 0.000000 0.037121
#
#
# Mechanical properties :
#
#
# Convention : Reuss Voigt Hill
#
# Bulk Modulus (GPa) = 39.23117 40.14686 39.68901
# Shear Modulus (GPa) = 21.37176 27.79706 24.58441
#
# Velocity S-wave (km/s) = 3.30771 3.77230 3.54762
# Velocity P-wave (km/s) = 5.88827 6.28699 6.09089
#
# Compressibility (1/GPa) = 0.02548994
#
# Stress axis : x y z
#
# Youngs Moduli (GPa) = 80.81650 48.23806 72.73618
#
# Poissons Ratio (x) = 0.19123 0.10340
# Poissons Ratio (y) = 0.32038 0.38517
# Poissons Ratio (z) = 0.11489 0.25544
#
# Static dielectric constant tensor:
#      x y z
#    x 3.668850 0.000000 -0.128470 
#    y 0.000000 3.302250 0.000000 
#    z -0.128470 0.000000 3.803310 
# 
# 
# High freq. dielectric constant tensor:
#      x y z
#    x 1.775100 0.000000 -0.003940 
#    y 0.000000 1.738930 0.000000 
#    z -0.003940 0.000000 1.779890 
# 
# From -- ./inp_files/281620.got.cif
#   From: 2010.06.25/outbox.cif.g09.slc.cpg/sg12_141_cif.got.tgz:281620.got - 2010.06.28 00:19:55.
