data_PCOD8098617
_publ_section_title
;
Structure prediction by ZEFSAII (Michael W. Deem and Ramdas Pophale) SiO2 
 PCOD8098617
Probable space group: C 2/M
;
_chemical_formula_sum "Si O2"
_cell_formula_units_Z 48
_cell_length_a 15.043304
_cell_length_b 15.336406
_cell_length_c 11.499367
_cell_angle_alpha 90.000000
_cell_angle_beta 107.550110
_cell_angle_gamma 90.000000
_cell_volume 2529.532848
_symmetry_space_group_name_H-M "C 2/M"
_symmetry_group_IT_number 12
_symmetry_cell_setting 'monoclinic'
loop_
_space_group_symop_operation_xyz
x,y,z
-x,y,-z
-x,-y,-z
x,-y,z
1/2+x,1/2+y,z
1/2-x,1/2+y,-z
1/2-x,1/2-y,-z
1/2+x,1/2-y,z
loop_
_atom_site_type_symbol
_atom_site_label
_atom_site_fract_x
_atom_site_fract_y
_atom_site_fract_z
Si Si1 0.172110 0.097801 0.497362
Si Si2 0.224774 0.326999 0.249665
Si Si3 0.926024 0.257788 0.638503
Si Si4 0.602330 0.100038 0.005278
Si Si5 0.860976 0.401399 0.443651
Si Si6 0.625986 0.803010 0.781672
O O1 0.213121 0.113594 0.641568
O O2 0.091656 0.167668 0.437695
O O3 0.253342 0.110359 0.435067
O O4 0.130401 0.000000 0.475009
O O5 0.151719 0.269452 0.293592
O O6 0.290403 0.263917 0.202249
O O7 0.170730 0.390530 0.141476
O O8 0.924283 0.337786 0.546666
O O9 0.027423 0.252559 0.736056
O O10 0.640204 0.155953 0.913343
O O11 0.598096 0.000000 0.964751
O O12 0.500000 0.133636 0.000000
O O13 0.895182 0.500000 0.480350
O O14 0.870621 0.379305 0.312327
#
# Coordination Sequence:
#
# PCOD8098617 Si02
#       6
#     8   8   8   8   8   8
#     4  10  20  38  62  88 123 162 195 244 297 349
#     4  11  21  41  60  86 121 158 198 245 292 354
#     4  11  21  38  59  89 127 155 193 245 298 356
#     4  11  24  41  60  88 119 154 199 248 302 355
#     4  10  20  34  58  90 120 153 194 243 303 355
#     4  12  22  37  63  86 119 158 199 241 297 353
#
# _framework density 18.975836999999999
#
# number of rings (size 3 to 8) (size 9 to 14) (size 15 to 20)
#    0.000    1.167    5.000    3.000    0.000    2.667 
#    0.000    2.500    0.000    0.000    0.000    2.333 
#    0.000    0.000    0.000    0.000    0.000    0.000 
#
# Total GULP energy -297701.140998 kJ/mol
# GULP energy per Si atom -12404.214208 kJ/mol
# Density = 1.893265 g / cm^3
# Si number density = 18.975837 Si / 1000 Ang^3
#
#
#
# Elastic Constant Matrix: (Units=GPa)
#
#
# Indices 1 2 3 4 5 6 
#
# 1 60.6676 37.5677 24.0089 0.0000 -5.4432 0.0000
# 2 37.5677 106.0872 38.0022 0.0000 0.2326 0.0000
# 3 24.0089 38.0022 99.8821 0.0000 -3.0419 0.0000
# 4 0.0000 0.0000 0.0000 28.0585 0.0000 -7.5013
# 5 -5.4432 0.2326 -3.0419 0.0000 29.3153 0.0000
# 6 0.0000 0.0000 0.0000 -7.5013 0.0000 15.4213
#
#
#
# Elastic Compliance Matrix: (Units=1/GPa)
#
#
# Indices 1 2 3 4 5 6 
#
# 1 0.022140 -0.006929 -0.002567 0.000000 0.003899 0.000000
# 2 -0.006929 0.013090 -0.003368 0.000000 -0.001740 0.000000
# 3 -0.002567 -0.003368 0.011934 0.000000 0.000788 0.000000
# 4 0.000000 0.000000 0.000000 0.040967 0.000000 0.019928
# 5 0.003899 -0.001740 0.000788 0.000000 0.034932 0.000000
# 6 0.000000 0.000000 0.000000 0.019928 0.000000 0.074539
#
#
# Mechanical properties :
#
#
# Convention : Reuss Voigt Hill
#
# Bulk Modulus (GPa) = 46.64917 51.75494 49.20205
# Shear Modulus (GPa) = 21.69435 25.69624 23.69529
#
# Velocity S-wave (km/s) = 3.38488 3.68388 3.53754
# Velocity P-wave (km/s) = 6.31771 6.74003 6.53228
#
# Compressibility (1/GPa) = 0.02143661
#
# Stress axis : x y z
#
# Youngs Moduli (GPa) = 45.16760 76.39272 83.79337
#
# Poissons Ratio (x) = 0.52935 0.21507
# Poissons Ratio (y) = 0.31298 0.28220
# Poissons Ratio (z) = 0.11593 0.25728
#
# Static dielectric constant tensor:
#      x y z
#    x 3.489280 0.000000 -0.090110 
#    y 0.000000 3.447390 0.000000 
#    z -0.090110 0.000000 3.379000 
# 
# 
# High freq. dielectric constant tensor:
#      x y z
#    x 1.742460 0.000000 -0.008460 
#    y 0.000000 1.732800 0.000000 
#    z -0.008460 0.000000 1.731180 
# 
# From -- ./inp_files/142735.got.cif
#   From: 2010.06.25/outbox.cif.g09.slc.cpg/sg12_72_cif.got.tgz:142735.got - 2010.06.28 00:19:55.
