data_PCOD8098135
_publ_section_title
;
Structure prediction by ZEFSAII (Michael W. Deem and Ramdas Pophale) SiO2 
 PCOD8098135
Probable space group: C 2/M
;
_chemical_formula_sum "Si O2"
_cell_formula_units_Z 56
_cell_length_a 29.786543
_cell_length_b 8.782942
_cell_length_c 12.506216
_cell_angle_alpha 90.000000
_cell_angle_beta 58.217680
_cell_angle_gamma 90.000000
_cell_volume 2781.206272
_symmetry_space_group_name_H-M "C 2/M"
_symmetry_group_IT_number 12
_symmetry_cell_setting 'monoclinic'
loop_
_space_group_symop_operation_xyz
x,y,z
-x,y,-z
-x,-y,-z
x,-y,z
1/2+x,1/2+y,z
1/2-x,1/2+y,-z
1/2-x,1/2-y,-z
1/2+x,1/2-y,z
loop_
_atom_site_type_symbol
_atom_site_label
_atom_site_fract_x
_atom_site_fract_y
_atom_site_fract_z
Si Si1 0.104687 0.175022 0.862229
Si Si2 0.909966 0.673598 0.889320
Si Si3 0.907067 0.679445 0.337929
Si Si4 0.206519 0.674170 0.982630
Si Si5 0.278336 0.672348 0.250095
Si Si6 0.204764 0.822816 0.483281
Si Si7 0.000287 0.680519 0.621341
O O1 0.074418 0.253730 0.800613
O O2 0.167181 0.191136 0.750263
O O3 0.087975 0.000000 0.889183
O O4 0.089490 0.246543 0.995344
O O5 0.925616 0.500000 0.894686
O O6 0.951552 0.746132 0.753248
O O7 0.853478 0.680256 0.898302
O O8 0.904824 0.500000 0.327907
O O9 0.850553 0.740039 0.444076
O O10 0.946843 0.729689 0.382204
O O11 0.222109 0.500000 0.935364
O O12 0.202764 0.788381 0.890054
O O13 0.250000 0.750000 0.000000
O O14 0.256950 0.500000 0.285024
O O15 0.230995 0.789860 0.335079
O O16 0.250000 0.750000 0.500000
O O17 0.197909 0.000000 0.516200
O O18 0.995201 0.500000 0.619988
O O19 0.000000 0.748005 0.500000
#
# Coordination Sequence:
#
# PCOD8098135 Si02
#       7
#     8   8   8   8   8   8   8
#     4  10  20  35  57  85 119 152 190 242 299 362
#     4   9  19  37  61  85 114 154 199 248 299 354
#     4  11  22  36  60  89 119 157 201 249 301 357
#     4  10  20  34  55  84 117 154 197 247 297 355
#     4  10  20  35  55  80 114 156 194 239 293 348
#     4  12  23  36  56  85 122 158 194 236 291 357
#     4   9  20  40  63  87 115 153 204 253 295 351
#
# _framework density 20.135147
#
# number of rings (size 3 to 8) (size 9 to 14) (size 15 to 20)
#    0.000    1.857    1.429    3.000    0.000    3.429 
#    0.000    7.143    0.000    3.857    0.000    0.000 
#    0.000    0.000    0.000    0.000    0.000    0.000 
#
# Total GULP energy -346941.357832 kJ/mol
# GULP energy per Si atom -12390.762780 kJ/mol
# Density = 2.008932 g / cm^3
# Si number density = 20.135147 Si / 1000 Ang^3
#
#
#
# Elastic Constant Matrix: (Units=GPa)
#
#
# Indices 1 2 3 4 5 6 
#
# 1 136.7892 47.2305 71.2446 0.0000 7.4219 0.0000
# 2 47.2305 84.6364 39.9372 0.0000 7.9642 0.0000
# 3 71.2446 39.9372 130.0413 0.0000 -3.1702 0.0000
# 4 0.0000 0.0000 0.0000 26.9429 0.0000 1.6811
# 5 7.4219 7.9642 -3.1702 0.0000 29.1200 0.0000
# 6 0.0000 0.0000 0.0000 1.6811 0.0000 24.9462
#
#
#
# Elastic Compliance Matrix: (Units=1/GPa)
#
#
# Indices 1 2 3 4 5 6 
#
# 1 0.011419 -0.003695 -0.005181 0.000000 -0.002464 0.000000
# 2 -0.003695 0.015560 -0.002842 0.000000 -0.003623 0.000000
# 3 -0.005181 -0.002842 0.011483 0.000000 0.003348 0.000000
# 4 0.000000 0.000000 0.000000 0.037272 0.000000 -0.002512
# 5 -0.002464 -0.003623 0.003348 0.000000 0.036324 0.000000
# 6 0.000000 0.000000 0.000000 -0.002512 0.000000 0.040255
#
#
# Mechanical properties :
#
#
# Convention : Reuss Voigt Hill
#
# Bulk Modulus (GPa) = 66.56176 74.25459 70.40818
# Shear Modulus (GPa) = 27.66134 29.07214 28.36674
#
# Velocity S-wave (km/s) = 3.71048 3.80393 3.75749
# Velocity P-wave (km/s) = 7.17538 7.50009 7.33953
#
# Compressibility (1/GPa) = 0.01502364
#
# Stress axis : x y z
#
# Youngs Moduli (GPa) = 87.57671 64.26918 87.08686
#
# Poissons Ratio (x) = 0.23751 0.45119
# Poissons Ratio (y) = 0.32364 0.24752
# Poissons Ratio (z) = 0.45373 0.18267
#
# Static dielectric constant tensor:
#      x y z
#    x 3.572770 0.000000 -0.016410 
#    y 0.000000 3.947050 0.000000 
#    z -0.016410 0.000000 3.862780 
# 
# 
# High freq. dielectric constant tensor:
#      x y z
#    x 1.779820 0.000000 -0.002630 
#    y 0.000000 1.776320 0.000000 
#    z -0.002630 0.000000 1.792480 
# 
# From -- ./inp_files/187162.got.cif
#   From: 2010.06.25/outbox.cif.g09.slc.cpg/sg12_94_cif.got.tgz:187162.got - 2010.06.28 00:19:55.
