data_PCOD8098217
_publ_section_title
;
Structure prediction by ZEFSAII (Michael W. Deem and Ramdas Pophale) SiO2 
 PCOD8098217
Probable space group: C 2/M
;
_chemical_formula_sum "Si O2"
_cell_formula_units_Z 64
_cell_length_a 19.469256
_cell_length_b 12.707174
_cell_length_c 13.876959
_cell_angle_alpha 90.000000
_cell_angle_beta 101.916901
_cell_angle_gamma 90.000000
_cell_volume 3359.158059
_symmetry_space_group_name_H-M "C 2/M"
_symmetry_group_IT_number 12
_symmetry_cell_setting 'monoclinic'
loop_
_space_group_symop_operation_xyz
x,y,z
-x,y,-z
-x,-y,-z
x,-y,z
1/2+x,1/2+y,z
1/2-x,1/2+y,-z
1/2-x,1/2-y,-z
1/2+x,1/2-y,z
loop_
_atom_site_type_symbol
_atom_site_label
_atom_site_fract_x
_atom_site_fract_y
_atom_site_fract_z
Si Si1 0.214614 0.119778 0.068285
Si Si2 0.356829 0.189145 0.032745
Si Si3 0.511318 0.274668 0.612729
Si Si4 0.654845 0.380155 0.628168
Si Si5 0.101020 0.618556 0.151544
Si Si6 0.134866 0.121111 0.399531
Si Si7 0.461224 0.124509 0.214774
Si Si8 0.278675 0.264099 0.734946
O O1 0.152302 0.189822 0.004137
O O2 0.234777 0.154214 0.182486
O O3 0.188346 0.000000 0.061342
O O4 0.281691 0.132421 0.018777
O O5 0.401309 0.127621 0.964841
O O6 0.395403 0.181868 0.145964
O O7 0.500000 0.238548 0.500000
O O8 0.575053 0.357636 0.637963
O O9 0.441573 0.327033 0.636669
O O10 0.530520 0.168566 0.675364
O O11 0.673182 0.500000 0.663888
O O12 0.661930 0.366750 0.515827
O O13 0.706918 0.297552 0.692883
O O14 0.112232 0.500000 0.188210
O O15 0.164221 0.681329 0.215492
O O16 0.027817 0.659523 0.171481
O O17 0.193664 0.175327 0.350684
O O18 0.127909 0.000000 0.367172
O O19 0.448794 0.000000 0.215941
#
# Coordination Sequence:
#
# PCOD8098217 Si02
#       8
#     8   8   8   8   8   8   8   8
#     4  10  21  37  56  81 115 149 182 228 286 345
#     4  10  21  36  57  81 112 148 188 233 278 340
#     4  10  21  39  59  84 118 154 195 240 288 344
#     4  10  21  36  58  85 114 151 199 247 285 337
#     4  10  20  34  56  81 111 147 185 234 284 337
#     4  10  20  37  58  81 114 157 197 238 291 343
#     4  11  21  36  58  84 113 147 190 237 288 342
#     4  11  20  35  57  85 116 147 190 238 291 343
#
# _framework density 19.052392999999999
#
# number of rings (size 3 to 8) (size 9 to 14) (size 15 to 20)
#    0.000    1.750    1.250    3.750    0.000    2.750 
#    0.000    6.250    0.000    2.250    0.000    0.000 
#    0.000    0.000    0.000    0.000    0.000    0.000 
#
# Total GULP energy -396874.423698 kJ/mol
# GULP energy per Si atom -12402.325741 kJ/mol
# Density = 1.900903 g / cm^3
# Si number density = 19.052393 Si / 1000 Ang^3
#
#
#
# Elastic Constant Matrix: (Units=GPa)
#
#
# Indices 1 2 3 4 5 6 
#
# 1 72.0906 38.7353 28.9403 0.0000 -1.1648 0.0000
# 2 38.7353 109.2742 58.0633 0.0000 3.9578 0.0000
# 3 28.9403 58.0633 84.6334 0.0000 5.1164 0.0000
# 4 0.0000 0.0000 0.0000 27.4930 0.0000 -0.6984
# 5 -1.1648 3.9578 5.1164 0.0000 34.0888 0.0000
# 6 0.0000 0.0000 0.0000 -0.6984 0.0000 24.9816
#
#
#
# Elastic Compliance Matrix: (Units=1/GPa)
#
#
# Indices 1 2 3 4 5 6 
#
# 1 0.017609 -0.004798 -0.002825 0.000000 0.001583 0.000000
# 2 -0.004798 0.015710 -0.009099 0.000000 -0.000622 0.000000
# 3 -0.002825 -0.009099 0.019140 0.000000 -0.001913 0.000000
# 4 0.000000 0.000000 0.000000 0.036399 0.000000 0.001018
# 5 0.001583 -0.000622 -0.001913 0.000000 0.029749 0.000000
# 6 0.000000 0.000000 0.000000 0.001018 0.000000 0.040058
#
#
# Mechanical properties :
#
#
# Convention : Reuss Voigt Hill
#
# Bulk Modulus (GPa) = 52.59478 57.49735 55.04607
# Shear Modulus (GPa) = 25.19552 26.66330 25.92941
#
# Velocity S-wave (km/s) = 3.64047 3.74501 3.69311
# Velocity P-wave (km/s) = 6.73320 6.99601 6.86586
#
# Compressibility (1/GPa) = 0.01901329
#
# Stress axis : x y z
#
# Youngs Moduli (GPa) = 56.78792 63.65508 52.24627
#
# Poissons Ratio (x) = 0.30543 0.14762
# Poissons Ratio (y) = 0.27248 0.47541
# Poissons Ratio (z) = 0.16045 0.57922
#
# Static dielectric constant tensor:
#      x y z
#    x 3.536150 0.000000 -0.126710 
#    y 0.000000 3.428290 0.000000 
#    z -0.126710 0.000000 3.538910 
# 
# 
# High freq. dielectric constant tensor:
#      x y z
#    x 1.746440 0.000000 -0.006600 
#    y 0.000000 1.738680 0.000000 
#    z -0.006600 0.000000 1.741540 
# 
# From -- ./inp_files/232493.got.cif
#   From: 2010.06.25/outbox.cif.g09.slc.cpg/sg12_117_cif.got.tgz:232493.got - 2010.06.28 00:19:55.
