data_PCOD8098565
_publ_section_title
;
Structure prediction by ZEFSAII (Michael W. Deem and Ramdas Pophale) SiO2 
 PCOD8098565
Probable space group: C 2/M
;
_chemical_formula_sum "Si O2"
_cell_formula_units_Z 56
_cell_length_a 32.693484
_cell_length_b 13.565668
_cell_length_c 12.939712
_cell_angle_alpha 90.000000
_cell_angle_beta 26.674727
_cell_angle_gamma 90.000000
_cell_volume 2576.325218
_symmetry_space_group_name_H-M "C 2/M"
_symmetry_group_IT_number 12
_symmetry_cell_setting 'monoclinic'
loop_
_space_group_symop_operation_xyz
x,y,z
-x,y,-z
-x,-y,-z
x,-y,z
1/2+x,1/2+y,z
1/2-x,1/2+y,-z
1/2-x,1/2-y,-z
1/2+x,1/2-y,z
loop_
_atom_site_type_symbol
_atom_site_label
_atom_site_fract_x
_atom_site_fract_y
_atom_site_fract_z
Si Si1 0.429551 0.605726 0.747190
Si Si2 0.092292 0.891391 0.854748
Si Si3 0.260987 0.112365 0.923213
Si Si4 0.236237 0.384835 0.662305
Si Si5 0.795103 0.195305 0.737252
Si Si6 0.037017 0.387134 0.028092
Si Si7 0.006420 0.783990 0.748397
O O1 0.500000 0.587833 0.500000
O O2 0.423041 0.500000 0.823766
O O3 0.459304 0.700928 0.744716
O O4 0.336312 0.632473 0.904932
O O5 0.177010 0.846474 0.599321
O O6 0.121400 0.000000 0.826010
O O7 0.000000 0.895190 0.000000
O O8 0.071084 0.825476 0.000538
O O9 0.318009 0.194108 0.730173
O O10 0.296729 0.000000 0.825416
O O11 0.253590 0.132166 0.062718
O O12 0.248270 0.500000 0.666183
O O13 0.232477 0.318718 0.776260
O O14 0.145523 0.370741 0.797868
O O15 0.896460 0.158461 0.473974
O O16 0.009087 0.500000 0.104207
O O17 0.000000 0.348286 0.000000
O O18 0.982627 0.329675 0.241633
#
# Coordination Sequence:
#
# PCOD8098565 Si02
#       7
#     8   8   8   8   8   8   8
#     4  10  20  36  60  89 122 161 197 244 314 372
#     4  10  20  34  57  93 127 152 191 250 316 373
#     4  10  22  40  58  86 126 164 206 253 303 365
#     4  10  21  40  65  92 122 160 206 255 308 368
#     4  11  22  36  63  93 121 162 206 253 311 366
#     4  10  24  45  63  82 119 170 216 255 300 358
#     4  12  22  37  62  90 124 160 205 252 304 368
#
# _framework density 21.736387000000001
#
# number of rings (size 3 to 8) (size 9 to 14) (size 15 to 20)
#    0.000    1.571    2.857    2.143    0.000    2.286 
#    2.571    0.000    0.000    0.429    0.000    0.000 
#    0.000    0.000    0.000    0.000    0.000    0.000 
#
# Total GULP energy -346882.780830 kJ/mol
# GULP energy per Si atom -12388.670744 kJ/mol
# Density = 2.168691 g / cm^3
# Si number density = 21.736387 Si / 1000 Ang^3
#
#
#
# Elastic Constant Matrix: (Units=GPa)
#
#
# Indices 1 2 3 4 5 6 
#
# 1 133.4276 35.5165 41.6336 0.0000 3.5029 0.0000
# 2 35.5165 87.7279 12.1865 0.0000 15.9884 0.0000
# 3 41.6336 12.1865 81.4603 0.0000 5.4431 0.0000
# 4 0.0000 0.0000 0.0000 25.5772 0.0000 4.4277
# 5 3.5029 15.9884 5.4431 0.0000 26.9431 0.0000
# 6 0.0000 0.0000 0.0000 4.4277 0.0000 33.7231
#
#
#
# Elastic Compliance Matrix: (Units=1/GPa)
#
#
# Indices 1 2 3 4 5 6 
#
# 1 0.009868 -0.003689 -0.004615 0.000000 0.001838 0.000000
# 2 -0.003689 0.014326 0.000282 0.000000 -0.008078 0.000000
# 3 -0.004615 0.000282 0.014763 0.000000 -0.002550 0.000000
# 4 0.000000 0.000000 0.000000 0.040007 0.000000 -0.005253
# 5 0.001838 -0.008078 -0.002550 0.000000 0.042185 0.000000
# 6 0.000000 0.000000 0.000000 -0.005253 0.000000 0.030343
#
#
# Mechanical properties :
#
#
# Convention : Reuss Voigt Hill
#
# Bulk Modulus (GPa) = 43.64286 53.47655 48.55971
# Shear Modulus (GPa) = 28.54337 31.46729 30.00533
#
# Velocity S-wave (km/s) = 3.62769 3.80896 3.71943
# Velocity P-wave (km/s) = 6.13748 6.63325 6.39017
#
# Compressibility (1/GPa) = 0.02291326
#
# Stress axis : x y z
#
# Youngs Moduli (GPa) = 101.33417 69.80546 67.73899
#
# Poissons Ratio (x) = 0.25753 0.31259
# Poissons Ratio (y) = 0.37384 -0.01912
# Poissons Ratio (z) = 0.46761 -0.01970
#
# Static dielectric constant tensor:
#      x y z
#    x 4.002090 0.000000 0.324000 
#    y 0.000000 4.216320 0.000000 
#    z 0.324000 0.000000 4.223780 
# 
# 
# High freq. dielectric constant tensor:
#      x y z
#    x 1.850460 0.000000 0.001070 
#    y 0.000000 1.853620 0.000000 
#    z 0.001070 0.000000 1.846290 
# 
# From -- ./inp_files/189605.got.cif
#   From: 2010.06.25/outbox.cif.g09.slc.cpg/sg12_95_cif.got.tgz:189605.got - 2010.06.28 00:19:55.
