data_PCOD8098777
_publ_section_title
;
Structure prediction by ZEFSAII (Michael W. Deem and Ramdas Pophale) SiO2 
 PCOD8098777
Probable space group: C 2/M
;
_chemical_formula_sum "Si O2"
_cell_formula_units_Z 64
_cell_length_a 28.518674
_cell_length_b 9.650215
_cell_length_c 14.375709
_cell_angle_alpha 90.000000
_cell_angle_beta 62.431231
_cell_angle_gamma 90.000000
_cell_volume 3507.137285
_symmetry_space_group_name_H-M "C 2/M"
_symmetry_group_IT_number 12
_symmetry_cell_setting 'monoclinic'
loop_
_space_group_symop_operation_xyz
x,y,z
-x,y,-z
-x,-y,-z
x,-y,z
1/2+x,1/2+y,z
1/2-x,1/2+y,-z
1/2-x,1/2-y,-z
1/2+x,1/2-y,z
loop_
_atom_site_type_symbol
_atom_site_label
_atom_site_fract_x
_atom_site_fract_y
_atom_site_fract_z
Si Si1 0.590312 0.661259 0.748769
Si Si2 0.169635 0.839028 0.840344
Si Si3 0.714217 0.839452 0.324204
Si Si4 0.642054 0.340929 0.509572
Si Si5 0.995477 0.661395 0.896550
Si Si6 0.941141 0.840493 0.572879
Si Si7 0.131105 0.658435 0.245109
Si Si8 0.876362 0.340471 0.959599
O O1 0.574649 0.500000 0.757213
O O2 0.623727 0.695356 0.809694
O O3 0.625575 0.704216 0.628030
O O4 0.536984 0.750434 0.798583
O O5 0.225384 0.794482 0.745061
O O6 0.170495 0.000000 0.866943
O O7 0.160232 0.752158 0.941657
O O8 0.691059 0.752181 0.431328
O O9 0.683085 0.805813 0.257362
O O10 0.709346 0.000000 0.355732
O O11 0.660706 0.500000 0.489660
O O12 0.591755 0.315500 0.490357
O O13 0.008322 0.500000 0.870071
O O14 0.937693 0.701345 0.912439
O O15 0.000000 0.703581 0.000000
O O16 0.917733 0.753018 0.679222
O O17 0.000000 0.786972 0.500000
O O18 0.940864 0.000000 0.604258
O O19 0.113542 0.500000 0.275901
O O20 0.143831 0.687718 0.126038
O O21 0.868938 0.500000 0.995802
#
# Coordination Sequence:
#
# PCOD8098777 Si02
#       8
#     8   8   8   8   8   8   8   8
#     4  10  21  35  53  78 106 136 172 211 254 306
#     4  10  21  36  54  77 104 135 173 215 257 303
#     4   9  19  37  56  75 103 136 171 214 259 302
#     4   9  19  35  52  75 105 135 170 212 256 302
#     4  10  20  35  53  74 105 138 170 212 256 302
#     4   9  18  32  50  73 102 134 169 210 253 300
#     4   9  19  35  53  74 102 135 170 210 254 302
#     4  10  21  36  53  77 106 136 172 212 255 305
#
# _framework density 18.248501000000001
#
# number of rings (size 3 to 8) (size 9 to 14) (size 15 to 20)
#    0.000    2.500    1.250    0.000    1.750    3.500 
#    0.000    0.000    0.000    0.000    0.000    0.000 
#    0.000    0.000    0.000    0.000    0.000    0.000 
#
# Total GULP energy -396926.934142 kJ/mol
# GULP energy per Si atom -12403.966692 kJ/mol
# Density = 1.820697 g / cm^3
# Si number density = 18.248501 Si / 1000 Ang^3
#
#
#
# Elastic Constant Matrix: (Units=GPa)
#
#
# Indices 1 2 3 4 5 6 
#
# 1 35.8208 24.0119 21.0248 0.0000 -16.4260 0.0000
# 2 24.0119 65.2335 60.4339 0.0000 -14.1970 0.0000
# 3 21.0248 60.4339 113.5644 0.0000 -11.2250 0.0000
# 4 0.0000 0.0000 0.0000 39.6941 0.0000 -6.2081
# 5 -16.4260 -14.1970 -11.2250 0.0000 33.0209 0.0000
# 6 0.0000 0.0000 0.0000 -6.2081 0.0000 22.3635
#
#
#
# Elastic Compliance Matrix: (Units=1/GPa)
#
#
# Indices 1 2 3 4 5 6 
#
# 1 0.043885 -0.012938 0.000381 0.000000 0.016397 0.000000
# 2 -0.012938 0.036120 -0.016481 0.000000 0.003491 0.000000
# 3 0.000381 -0.016481 0.017409 0.000000 -0.000978 0.000000
# 4 0.000000 0.000000 0.000000 0.026336 0.000000 0.007311
# 5 0.016397 0.003491 -0.000978 0.000000 0.039609 0.000000
# 6 0.000000 0.000000 0.000000 0.007311 0.000000 0.046745
#
#
# Mechanical properties :
#
#
# Convention : Reuss Voigt Hill
#
# Bulk Modulus (GPa) = 25.42094 47.28444 36.35269
# Shear Modulus (GPa) = 17.77501 26.29224 22.03363
#
# Velocity S-wave (km/s) = 3.12437 3.79989 3.47857
# Velocity P-wave (km/s) = 5.19387 6.72457 6.00817
#
# Compressibility (1/GPa) = 0.03933765
#
# Stress axis : x y z
#
# Youngs Moduli (GPa) = 22.78680 27.68516 57.44185
#
# Poissons Ratio (x) = 0.35820 -0.02190
# Poissons Ratio (y) = 0.29482 0.94672
# Poissons Ratio (z) = -0.00869 0.45629
#
# Static dielectric constant tensor:
#      x y z
#    x 3.371710 0.000000 0.034610 
#    y 0.000000 3.334980 0.000000 
#    z 0.034610 0.000000 3.315930 
# 
# 
# High freq. dielectric constant tensor:
#      x y z
#    x 1.707420 0.000000 0.001400 
#    y 0.000000 1.703180 0.000000 
#    z 0.001400 0.000000 1.706770 
# 
# From -- ./inp_files/248973.got.cif
#   From: 2010.06.25/outbox.cif.g09.slc.cpg/sg12_125_cif.got.tgz:248973.got - 2010.06.28 00:19:55.
