data_PCOD8098157
_publ_section_title
;
Structure prediction by ZEFSAII (Michael W. Deem and Ramdas Pophale) SiO2 
 PCOD8098157
Probable space group: C 2/M
;
_chemical_formula_sum "Si O2"
_cell_formula_units_Z 64
_cell_length_a 15.350001
_cell_length_b 8.858171
_cell_length_c 24.166045
_cell_angle_alpha 90.000000
_cell_angle_beta 81.432502
_cell_angle_gamma 90.000000
_cell_volume 3249.260523
_symmetry_space_group_name_H-M "C 2/M"
_symmetry_group_IT_number 12
_symmetry_cell_setting 'monoclinic'
loop_
_space_group_symop_operation_xyz
x,y,z
-x,y,-z
-x,-y,-z
x,-y,z
1/2+x,1/2+y,z
1/2-x,1/2+y,-z
1/2-x,1/2-y,-z
1/2+x,1/2-y,z
loop_
_atom_site_type_symbol
_atom_site_label
_atom_site_fract_x
_atom_site_fract_y
_atom_site_fract_z
Si Si1 0.292560 0.177785 0.942236
Si Si2 0.566805 0.172478 0.837496
Si Si3 0.523518 0.821873 0.365848
Si Si4 0.474312 0.675263 0.940153
Si Si5 0.640025 0.322868 0.563241
Si Si6 0.074425 0.322171 0.239265
Si Si7 0.340189 0.177034 0.553681
Si Si8 0.238582 0.827160 0.167426
O O1 0.394693 0.218860 0.929046
O O2 0.247288 0.241596 0.891738
O O3 0.278348 0.000000 0.946055
O O4 0.250000 0.250000 0.000000
O O5 0.553405 0.280553 0.891831
O O6 0.505437 0.227159 0.793014
O O7 0.668487 0.186167 0.809081
O O8 0.544710 0.000000 0.856202
O O9 0.429947 0.748604 0.388546
O O10 0.551468 0.765229 0.302681
O O11 0.600547 0.770150 0.400406
O O12 0.510698 0.000000 0.368590
O O13 0.449027 0.500000 0.936487
O O14 0.500000 0.714589 0.000000
O O15 0.626011 0.500000 0.563768
O O16 0.622993 0.261340 0.503453
O O17 0.738329 0.279141 0.574682
O O18 0.089860 0.500000 0.236193
O O19 0.164463 0.244967 0.212504
O O20 0.349548 0.000000 0.541507
O O21 0.213328 0.000000 0.157470
#
# Coordination Sequence:
#
# PCOD8098157 Si02
#       8
#     8   8   8   8   8   8   8   8
#     4  12  24  39  60  87 120 154 191 238 293 351
#     4  10  22  40  61  85 116 153 191 238 296 351
#     4  10  21  37  58  82 114 156 201 240 290 354
#     4  11  23  38  59  89 120 150 191 237 287 351
#     4  10  20  34  55  85 118 151 194 246 298 346
#     4  10  22  41  61  84 115 157 200 243 294 353
#     4   9  19  36  56  81 117 158 195 238 294 354
#     4  11  23  40  62  88 117 152 195 242 296 350
#
# _framework density 19.69679
#
# number of rings (size 3 to 8) (size 9 to 14) (size 15 to 20)
#    0.000    1.625    1.250    3.375    0.000    8.000 
#    0.000    0.000    0.000    0.000    0.000    0.000 
#    0.000    0.000    0.000    0.000    0.000    0.000 
#
# Total GULP energy -396928.124730 kJ/mol
# GULP energy per Si atom -12404.003898 kJ/mol
# Density = 1.965196 g / cm^3
# Si number density = 19.696790 Si / 1000 Ang^3
#
#
#
# Elastic Constant Matrix: (Units=GPa)
#
#
# Indices 1 2 3 4 5 6 
#
# 1 123.8317 34.7206 65.8872 0.0000 -11.1836 0.0000
# 2 34.7206 64.5331 45.8704 0.0000 -8.7552 0.0000
# 3 65.8872 45.8704 142.1146 0.0000 -15.2163 0.0000
# 4 0.0000 0.0000 0.0000 25.5592 0.0000 -8.8117
# 5 -11.1836 -8.7552 -15.2163 0.0000 30.9149 0.0000
# 6 0.0000 0.0000 0.0000 -8.8117 0.0000 33.4365
#
#
#
# Elastic Compliance Matrix: (Units=1/GPa)
#
#
# Indices 1 2 3 4 5 6 
#
# 1 0.011196 -0.002937 -0.004115 0.000000 0.001193 0.000000
# 2 -0.002937 0.021086 -0.005192 0.000000 0.002354 0.000000
# 3 -0.004115 -0.005192 0.010877 0.000000 0.002394 0.000000
# 4 0.000000 0.000000 0.000000 0.043035 0.000000 0.011341
# 5 0.001193 0.002354 0.002394 0.000000 0.034623 0.000000
# 6 0.000000 0.000000 0.000000 0.011341 0.000000 0.032896
#
#
# Mechanical properties :
#
#
# Convention : Reuss Voigt Hill
#
# Bulk Modulus (GPa) = 53.56118 69.27064 61.41591
# Shear Modulus (GPa) = 27.11118 30.24888 28.68003
#
# Velocity S-wave (km/s) = 3.71405 3.92309 3.82000
# Velocity P-wave (km/s) = 6.75604 7.46764 7.12073
#
# Compressibility (1/GPa) = 0.01867024
#
# Stress axis : x y z
#
# Youngs Moduli (GPa) = 89.31574 47.42452 91.93967
#
# Poissons Ratio (x) = 0.13929 0.37834
# Poissons Ratio (y) = 0.26232 0.47738
# Poissons Ratio (z) = 0.36754 0.24624
#
# Static dielectric constant tensor:
#      x y z
#    x 3.781040 0.000000 0.037580 
#    y 0.000000 3.553520 0.000000 
#    z 0.037580 0.000000 3.628040 
# 
# 
# High freq. dielectric constant tensor:
#      x y z
#    x 1.782000 0.000000 -0.000060 
#    y 0.000000 1.767260 0.000000 
#    z -0.000060 0.000000 1.761970 
# 
# From -- ./inp_files/338722.got.cif
#   From: 2010.06.25/outbox.cif.g09.slc.cpg/sg12_170_cif.got.tgz:338722.got - 2010.06.28 00:19:55.
