data_PCOD8098706
_publ_section_title
;
Structure prediction by ZEFSAII (Michael W. Deem and Ramdas Pophale) SiO2 
 PCOD8098706
Probable space group: C 2/M
;
_chemical_formula_sum "Si O2"
_cell_formula_units_Z 64
_cell_length_a 22.748622
_cell_length_b 9.513210
_cell_length_c 20.877612
_cell_angle_alpha 90.000000
_cell_angle_beta 59.176284
_cell_angle_gamma 90.000000
_cell_volume 3879.972763
_symmetry_space_group_name_H-M "C 2/M"
_symmetry_group_IT_number 12
_symmetry_cell_setting 'monoclinic'
loop_
_space_group_symop_operation_xyz
x,y,z
-x,y,-z
-x,-y,-z
x,-y,z
1/2+x,1/2+y,z
1/2-x,1/2+y,-z
1/2-x,1/2-y,-z
1/2+x,1/2-y,z
loop_
_atom_site_type_symbol
_atom_site_label
_atom_site_fract_x
_atom_site_fract_y
_atom_site_fract_z
Si Si1 0.478258 0.841425 0.910391
Si Si2 0.820293 0.161340 0.208970
Si Si3 0.053728 0.164105 0.773707
Si Si4 0.390091 0.158087 0.073663
Si Si5 0.190194 0.338909 0.362857
Si Si6 0.448093 0.662823 0.371788
Si Si7 0.802022 0.165842 0.514853
Si Si8 0.964538 0.661973 0.584667
O O1 0.489381 0.741626 0.843011
O O2 0.544427 0.833877 0.917732
O O3 0.466615 0.000000 0.892351
O O4 0.412779 0.791989 0.989551
O O5 0.874658 0.206806 0.233160
O O6 0.830795 0.245233 0.136712
O O7 0.744659 0.192597 0.276885
O O8 0.830770 0.000000 0.185396
O O9 0.058931 0.212377 0.697479
O O10 0.039456 0.000000 0.787752
O O11 0.361654 0.000000 0.086189
O O12 0.198158 0.500000 0.383871
O O13 0.203572 0.228382 0.411310
O O14 0.116280 0.314936 0.373605
O O15 0.467707 0.500000 0.365301
O O16 0.377568 0.694645 0.446811
O O17 0.508593 0.750152 0.370390
O O18 0.750000 0.250000 0.500000
O O19 0.784357 0.000000 0.525092
O O20 0.984403 0.500000 0.584391
O O21 0.000000 0.718124 0.500000
#
# Coordination Sequence:
#
# PCOD8098706 Si02
#       8
#     8   8   8   8   8   8   8   8
#     4   8  14  25  41  63  92 126 155 185 225 270
#     4   9  17  29  46  67  96 128 155 188 232 279
#     4   9  17  29  44  66  95 125 155 189 229 279
#     4   8  14  25  41  63  94 125 155 187 222 271
#     4  10  20  35  51  69  96 125 158 201 242 281
#     4  10  21  35  50  69  95 125 159 199 243 284
#     4  11  22  34  50  71  96 127 159 192 235 287
#     4  10  20  35  54  72  90 119 161 206 245 283
#
# _framework density 16.494961
#
# number of rings (size 3 to 8) (size 9 to 14) (size 15 to 20)
#    0.000    2.625    1.250    1.875    0.000    4.750 
#    0.000    5.000    0.000    0.000    0.000    0.875 
#    0.000    0.000    0.000    0.000    0.000    0.000 
#
# Total GULP energy -396746.438523 kJ/mol
# GULP energy per Si atom -12398.326204 kJ/mol
# Density = 1.645742 g / cm^3
# Si number density = 16.494961 Si / 1000 Ang^3
#
#
#
# Elastic Constant Matrix: (Units=GPa)
#
#
# Indices 1 2 3 4 5 6 
#
# 1 59.4921 34.7345 32.1982 0.0000 -11.7631 -0.0001
# 2 34.7345 65.6746 47.3001 0.0002 -10.1449 0.0002
# 3 32.1982 47.3001 113.2638 0.0000 -23.2773 0.0000
# 4 0.0000 0.0002 0.0000 33.6728 0.0000 3.1728
# 5 -11.7631 -10.1449 -23.2773 0.0000 11.0625 0.0001
# 6 -0.0001 0.0002 0.0000 3.1728 0.0001 22.6287
#
#
#
# Elastic Compliance Matrix: (Units=1/GPa)
#
#
# Indices 1 2 3 4 5 6 
#
# 1 0.027348 -0.012479 0.001870 0.000000 0.021571 0.000000
# 2 -0.012479 0.027484 -0.009651 0.000000 -0.008371 0.000000
# 3 0.001870 -0.009651 0.019235 0.000000 0.033613 0.000000
# 4 0.000000 0.000000 0.000000 0.030095 0.000000 -0.004220
# 5 0.021571 -0.008371 0.033613 0.000000 0.176384 -0.000001
# 6 0.000000 0.000000 0.000000 -0.004220 -0.000001 0.044783
#
#
# Mechanical properties :
#
#
# Convention : Reuss Voigt Hill
#
# Bulk Modulus (GPa) = 29.80731 51.87734 40.84232
# Shear Modulus (GPa) = 13.26153 21.75266 17.50709
#
# Velocity S-wave (km/s) = 2.83852 3.63539 3.26139
# Velocity P-wave (km/s) = 5.37147 7.01000 6.24471
#
# Compressibility (1/GPa) = 0.03354881
#
# Stress axis : x y z
#
# Youngs Moduli (GPa) = 36.56630 36.38516 51.98723
#
# Poissons Ratio (x) = 0.45403 -0.09722
# Poissons Ratio (y) = 0.45629 0.50171
# Poissons Ratio (z) = -0.06838 0.35114
#
# Static dielectric constant tensor:
#      x y z
#    x 2.792360 0.000000 -0.071020 
#    y 0.000000 3.142050 0.000000 
#    z -0.071020 0.000000 3.400400 
# 
# 
# High freq. dielectric constant tensor:
#      x y z
#    x 1.594580 0.000000 -0.006330 
#    y 0.000000 1.636610 0.000000 
#    z -0.006330 0.000000 1.643130 
# 
# From -- ./inp_files/319970.got.cif
#   From: 2010.06.25/outbox.cif.g09.slc.cpg/sg12_160_cif.got.tgz:319970.got - 2010.06.28 00:19:55.
