data_PCOD8098248
_publ_section_title
;
Structure prediction by ZEFSAII (Michael W. Deem and Ramdas Pophale) SiO2 
 PCOD8098248
Probable space group: C 2/M
;
_chemical_formula_sum "Si O2"
_cell_formula_units_Z 44
_cell_length_a 20.635430
_cell_length_b 13.559557
_cell_length_c 10.402558
_cell_angle_alpha 90.000000
_cell_angle_beta 48.361114
_cell_angle_gamma 90.000000
_cell_volume 2175.312478
_symmetry_space_group_name_H-M "C 2/M"
_symmetry_group_IT_number 12
_symmetry_cell_setting 'monoclinic'
loop_
_space_group_symop_operation_xyz
x,y,z
-x,y,-z
-x,-y,-z
x,-y,z
1/2+x,1/2+y,z
1/2-x,1/2+y,-z
1/2-x,1/2-y,-z
1/2+x,1/2-y,z
loop_
_atom_site_type_symbol
_atom_site_label
_atom_site_fract_x
_atom_site_fract_y
_atom_site_fract_z
Si Si1 0.915638 0.112171 0.320978
Si Si2 0.000000 0.236616 0.000000
Si Si3 0.364332 0.200666 0.985493
Si Si4 0.399664 0.609340 0.802209
Si Si5 0.599017 0.112579 0.333637
Si Si6 0.821234 0.800712 0.667036
O O1 0.838395 0.168329 0.497254
O O2 0.999039 0.117902 0.302538
O O3 0.888732 0.000000 0.326277
O O4 0.932572 0.166664 0.164260
O O5 0.945167 0.305778 0.976833
O O6 0.348029 0.312719 0.958148
O O7 0.386273 0.129912 0.837489
O O8 0.276934 0.168338 0.171250
O O9 0.364545 0.500000 0.880030
O O10 0.385107 0.635051 0.672640
O O11 0.500000 0.136223 0.500000
O O12 0.660415 0.184359 0.336485
O O13 0.623031 0.000000 0.335803
#
# Coordination Sequence:
#
# PCOD8098248 Si02
#       6
#     8   4   8   8   8   8
#     4  10  20  34  56  83 109 138 170 211 267 326
#     4  10  21  40  55  68 104 148 187 218 253 310
#     4  10  22  35  54  79 106 142 179 220 263 307
#     4   9  17  32  55  82 110 135 163 209 273 332
#     4  10  20  36  57  80 109 144 178 213 258 313
#     4  11  20  32  54  85 111 133 169 222 274 315
#
# _framework density 20.226980000000001
#
# number of rings (size 3 to 8) (size 9 to 14) (size 15 to 20)
#    0.000    2.000    0.000    6.818    0.000    6.545 
#    0.000    0.455    0.000    3.273    0.000    0.000 
#    0.000    0.000    0.000    0.000    0.000    0.000 
#
# Total GULP energy -272826.153652 kJ/mol
# GULP energy per Si atom -12401.188802 kJ/mol
# Density = 2.018094 g / cm^3
# Si number density = 20.226980 Si / 1000 Ang^3
#
#
#
# Elastic Constant Matrix: (Units=GPa)
#
#
# Indices 1 2 3 4 5 6 
#
# 1 26.8574 4.3039 6.8635 0.0000 7.0223 0.0000
# 2 4.3039 68.4341 15.8599 0.0000 -5.1969 0.0000
# 3 6.8635 15.8599 149.1336 0.0000 4.0604 0.0000
# 4 0.0000 0.0000 0.0000 19.0258 0.0000 1.8738
# 5 7.0223 -5.1969 4.0604 0.0000 23.8140 0.0000
# 6 0.0000 0.0000 0.0000 1.8738 0.0000 15.0804
#
#
#
# Elastic Compliance Matrix: (Units=1/GPa)
#
#
# Indices 1 2 3 4 5 6 
#
# 1 0.041395 -0.003289 -0.001209 0.000000 -0.012718 0.000000
# 2 -0.003289 0.015549 -0.001629 0.000000 0.004641 0.000000
# 3 -0.001209 -0.001629 0.006967 0.000000 -0.001187 0.000000
# 4 0.000000 0.000000 0.000000 0.053211 0.000000 -0.006612
# 5 -0.012718 0.004641 -0.001187 0.000000 0.046958 0.000000
# 6 0.000000 0.000000 0.000000 -0.006612 0.000000 0.067133
#
#
# Mechanical properties :
#
#
# Convention : Reuss Voigt Hill
#
# Bulk Modulus (GPa) = 19.35821 33.16441 26.26131
# Shear Modulus (GPa) = 19.18023 26.07724 22.62874
#
# Velocity S-wave (km/s) = 3.08271 3.59448 3.34839
# Velocity P-wave (km/s) = 4.71827 5.80162 5.28776
#
# Compressibility (1/GPa) = 0.05165766
#
# Stress axis : x y z
#
# Youngs Moduli (GPa) = 24.15744 64.31155 143.54311
#
# Poissons Ratio (x) = 0.21152 0.17355
# Poissons Ratio (y) = 0.07945 0.23378
# Poissons Ratio (z) = 0.02921 0.10474
#
# Static dielectric constant tensor:
#      x y z
#    x 3.368630 0.000000 0.069750 
#    y 0.000000 3.724280 0.000000 
#    z 0.069750 0.000000 3.643870 
# 
# 
# High freq. dielectric constant tensor:
#      x y z
#    x 1.758440 0.000000 0.002740 
#    y 0.000000 1.782330 0.000000 
#    z 0.002740 0.000000 1.799010 
# 
# From -- ./inp_files/104801.got.cif
#   From: 2010.06.25/outbox.cif.g09.slc.cpg/sg12_53_cif.got.tgz:104801.got - 2010.06.28 00:19:55.
