data_PCOD8098269
_publ_section_title
;
Structure prediction by ZEFSAII (Michael W. Deem and Ramdas Pophale) SiO2 
 PCOD8098269
Probable space group: C 2/M
;
_chemical_formula_sum "Si O2"
_cell_formula_units_Z 60
_cell_length_a 14.654417
_cell_length_b 17.411736
_cell_length_c 12.969267
_cell_angle_alpha 90.000000
_cell_angle_beta 75.094549
_cell_angle_gamma 90.000000
_cell_volume 3197.873100
_symmetry_space_group_name_H-M "C 2/M"
_symmetry_group_IT_number 12
_symmetry_cell_setting 'monoclinic'
loop_
_space_group_symop_operation_xyz
x,y,z
-x,y,-z
-x,-y,-z
x,-y,z
1/2+x,1/2+y,z
1/2-x,1/2+y,-z
1/2-x,1/2-y,-z
1/2+x,1/2-y,z
loop_
_atom_site_type_symbol
_atom_site_label
_atom_site_fract_x
_atom_site_fract_y
_atom_site_fract_z
Si Si1 0.952160 0.412049 0.365717
Si Si2 0.675074 0.415399 0.204834
Si Si3 0.399321 0.357179 0.572988
Si Si4 0.611596 0.084302 0.841039
Si Si5 0.767341 0.338031 0.516990
Si Si6 0.367136 0.191272 0.677002
Si Si7 0.157002 0.236615 0.095805
Si Si8 0.000000 0.701734 0.000000
O O1 0.955475 0.500000 0.405920
O O2 0.949166 0.411070 0.243754
O O3 0.863130 0.367709 0.437154
O O4 0.047707 0.367931 0.365310
O O5 0.664129 0.500000 0.157860
O O6 0.610567 0.410532 0.324233
O O7 0.779967 0.399880 0.216957
O O8 0.650415 0.352685 0.126435
O O9 0.500000 0.377268 0.500000
O O10 0.322739 0.380839 0.506828
O O11 0.394272 0.269222 0.610775
O O12 0.599328 0.000000 0.896002
O O13 0.580089 0.149163 0.927962
O O14 0.750000 0.250000 0.500000
O O15 0.778529 0.346270 0.638986
O O16 0.339364 0.207947 0.804089
O O17 0.250000 0.250000 0.000000
O O18 0.058023 0.248288 0.065204
#
# Coordination Sequence:
#
# PCOD8098269 Si02
#       8
#     8   8   8   8   8   8   8   4
#     4  11  21  36  59  90 123 154 190 238 305 368
#     4  10  21  40  61  84 119 155 195 250 298 345
#     4  10  20  36  57  86 113 155 208 237 278 343
#     4  10  20  35  60  91 120 150 192 249 311 356
#     4  10  20  34  56  83 118 160 192 234 286 354
#     4  10  21  37  55  83 122 154 190 243 298 355
#     4  11  23  40  60  90 116 153 203 247 299 359
#     4  12  21  38  65  88 116 156 206 250 297 364
#
# _framework density 18.76247
#
# number of rings (size 3 to 8) (size 9 to 14) (size 15 to 20)
#    0.000    1.600    4.000    2.200    0.000    1.333 
#    4.800    1.000    0.000    0.000    0.000    0.000 
#    0.000    0.000    0.000    0.000    0.000    0.000 
#
# Total GULP energy -371808.044556 kJ/mol
# GULP energy per Si atom -12393.601485 kJ/mol
# Density = 1.871977 g / cm^3
# Si number density = 18.762470 Si / 1000 Ang^3
#
#
#
# Elastic Constant Matrix: (Units=GPa)
#
#
# Indices 1 2 3 4 5 6 
#
# 1 117.2960 47.8333 66.2467 0.0000 6.5832 0.0000
# 2 47.8333 106.4350 41.8206 0.0000 1.8832 0.0000
# 3 66.2467 41.8206 107.2725 0.0000 -0.0311 0.0000
# 4 0.0000 0.0000 0.0000 31.8559 0.0000 -2.0954
# 5 6.5832 1.8832 -0.0311 0.0000 39.0927 0.0000
# 6 0.0000 0.0000 0.0000 -2.0954 0.0000 24.4436
#
#
#
# Elastic Compliance Matrix: (Units=1/GPa)
#
#
# Indices 1 2 3 4 5 6 
#
# 1 0.014276 -0.003439 -0.007476 0.000000 -0.002244 0.000000
# 2 -0.003439 0.011934 -0.002529 0.000000 0.000002 0.000000
# 3 -0.007476 -0.002529 0.014926 0.000000 0.001393 0.000000
# 4 0.000000 0.000000 0.000000 0.031569 0.000000 0.002706
# 5 -0.002244 0.000002 0.001393 0.000000 0.025959 0.000000
# 6 0.000000 0.000000 0.000000 0.002706 0.000000 0.041143
#
#
# Mechanical properties :
#
#
# Convention : Reuss Voigt Hill
#
# Bulk Modulus (GPa) = 70.18598 71.42272 70.80435
# Shear Modulus (GPa) = 29.16386 30.75198 29.95792
#
# Velocity S-wave (km/s) = 3.94683 4.05287 4.00020
# Velocity P-wave (km/s) = 7.63275 7.74922 7.69120
#
# Compressibility (1/GPa) = 0.01424786
#
# Stress axis : x y z
#
# Youngs Moduli (GPa) = 70.04648 83.79092 66.99885
#
# Poissons Ratio (x) = 0.28812 0.50092
# Poissons Ratio (y) = 0.24086 0.16945
# Poissons Ratio (z) = 0.52370 0.21192
#
# Static dielectric constant tensor:
#      x y z
#    x 3.643720 0.000000 0.256790 
#    y 0.000000 3.508570 0.000000 
#    z 0.256790 0.000000 3.512680 
# 
# 
# High freq. dielectric constant tensor:
#      x y z
#    x 1.731610 0.000000 0.008870 
#    y 0.000000 1.723500 0.000000 
#    z 0.008870 0.000000 1.724630 
# 
# From -- ./inp_files/146116.got.cif
#   From: 2010.06.25/outbox.cif.g09.slc.cpg/sg12_74_cif.got.tgz:146116.got - 2010.06.28 00:19:55.
