data_PCOD8098749
_publ_section_title
;
Structure prediction by ZEFSAII (Michael W. Deem and Ramdas Pophale) SiO2 
 PCOD8098749
Probable space group: C 2/M
;
_chemical_formula_sum "Si O2"
_cell_formula_units_Z 64
_cell_length_a 9.437791
_cell_length_b 27.042262
_cell_length_c 14.078834
_cell_angle_alpha 90.000000
_cell_angle_beta 80.879954
_cell_angle_gamma 90.000000
_cell_volume 3547.765373
_symmetry_space_group_name_H-M "C 2/M"
_symmetry_group_IT_number 12
_symmetry_cell_setting 'monoclinic'
loop_
_space_group_symop_operation_xyz
x,y,z
-x,y,-z
-x,-y,-z
x,-y,z
1/2+x,1/2+y,z
1/2-x,1/2+y,-z
1/2-x,1/2-y,-z
1/2+x,1/2-y,z
loop_
_atom_site_type_symbol
_atom_site_label
_atom_site_fract_x
_atom_site_fract_y
_atom_site_fract_z
Si Si1 0.668283 0.053219 0.472891
Si Si2 0.341459 0.709448 0.289098
Si Si3 0.104846 0.056355 0.403212
Si Si4 0.890307 0.138981 0.750096
Si Si5 0.367378 0.320629 0.947109
Si Si6 0.654437 0.210925 0.120072
Si Si7 0.895310 0.651079 0.597499
Si Si8 0.410843 0.182409 0.266783
O O1 0.500000 0.049805 0.500000
O O2 0.735491 0.062033 0.570350
O O3 0.697719 0.100150 0.402067
O O4 0.726994 0.000000 0.426065
O O5 0.468871 0.670564 0.283653
O O6 0.271329 0.709205 0.191788
O O7 0.218804 0.695034 0.378002
O O8 0.405364 0.762371 0.310909
O O9 0.089197 0.087120 0.307107
O O10 0.000000 0.074401 0.500000
O O11 0.069317 0.000000 0.378748
O O12 0.863485 0.135936 0.867324
O O13 0.750277 0.164905 0.723829
O O14 0.387708 0.267777 0.894114
O O15 0.500000 0.332862 0.000000
O O16 0.219742 0.317592 0.022459
O O17 0.502909 0.184336 0.159262
O O18 0.000000 0.663016 0.500000
O O19 0.000147 0.645713 0.675871
#
# Coordination Sequence:
#
# PCOD8098749 Si02
#       8
#     8   8   8   8   8   8   8   8
#     4   9  17  34  57  78  98 129 176 230 280 324
#     4  11  20  36  50  74 112 151 188 227 266 328
#     4  10  22  40  61  84 109 141 188 241 287 332
#     4  12  21  33  57  86 111 145 187 236 281 328
#     4  11  20  32  57  83 111 148 192 231 274 318
#     4  10  20  35  52  76 111 150 190 227 265 321
#     4  10  21  35  51  73 104 146 185 229 276 336
#     4  11  21  35  50  76 116 149 186 224 270 327
#
# _framework density 18.039525000000001
#
# number of rings (size 3 to 8) (size 9 to 14) (size 15 to 20)
#    0.000    1.500    3.750    3.000    1.750    0.500 
#    0.000    2.500    0.000    0.375    0.000    2.625 
#    0.000    0.000    0.000    0.000    0.000    0.000 
#
# Total GULP energy -396496.646254 kJ/mol
# GULP energy per Si atom -12390.520195 kJ/mol
# Density = 1.799847 g / cm^3
# Si number density = 18.039525 Si / 1000 Ang^3
#
#
#
# Elastic Constant Matrix: (Units=GPa)
#
#
# Indices 1 2 3 4 5 6 
#
# 1 83.7970 25.5813 28.5568 0.0000 -0.4940 0.0000
# 2 25.5813 83.8555 58.2942 0.0000 8.2691 0.0000
# 3 28.5568 58.2942 109.3142 0.0000 -9.4298 0.0000
# 4 0.0000 0.0000 0.0000 25.9269 0.0000 6.7026
# 5 -0.4940 8.2691 -9.4298 0.0000 31.4912 0.0000
# 6 0.0000 0.0000 0.0000 6.7026 0.0000 19.4181
#
#
#
# Elastic Compliance Matrix: (Units=1/GPa)
#
#
# Indices 1 2 3 4 5 6 
#
# 1 0.013461 -0.002720 -0.002039 0.000000 0.000315 0.000000
# 2 -0.002720 0.021824 -0.011729 0.000000 -0.009285 0.000000
# 3 -0.002039 -0.011729 0.016627 0.000000 0.008027 0.000000
# 4 0.000000 0.000000 0.000000 0.042349 0.000000 -0.014618
# 5 0.000315 -0.009285 0.008027 0.000000 0.036602 0.000000
# 6 0.000000 0.000000 0.000000 -0.014618 0.000000 0.056544
#
#
# Mechanical properties :
#
#
# Convention : Reuss Voigt Hill
#
# Bulk Modulus (GPa) = 52.80558 55.75902 54.28230
# Shear Modulus (GPa) = 22.05618 26.33620 24.19619
#
# Velocity S-wave (km/s) = 3.50045 3.82503 3.66633
# Velocity P-wave (km/s) = 6.75820 7.10523 6.93388
#
# Compressibility (1/GPa) = 0.01893739
#
# Stress axis : x y z
#
# Youngs Moduli (GPa) = 74.29085 45.82070 60.14148
#
# Poissons Ratio (x) = 0.12464 0.12260
# Poissons Ratio (y) = 0.20209 0.70538
# Poissons Ratio (z) = 0.15145 0.53741
#
# Static dielectric constant tensor:
#      x y z
#    x 3.586380 0.000000 -0.014900 
#    y 0.000000 3.648570 0.000000 
#    z -0.014900 0.000000 3.482110 
# 
# 
# High freq. dielectric constant tensor:
#      x y z
#    x 1.728850 0.000000 -0.002820 
#    y 0.000000 1.665820 0.000000 
#    z -0.002820 0.000000 1.682010 
# 
# From -- ./inp_files/199828.got.cif
#   From: 2010.06.25/outbox.cif.g09.slc.cpg/sg12_100_cif.got.tgz:199828.got - 2010.06.28 00:19:55.
