data_PCOD8098266
_publ_section_title
;
Structure prediction by ZEFSAII (Michael W. Deem and Ramdas Pophale) SiO2 
 PCOD8098266
Probable space group: C 2/M
;
_chemical_formula_sum "Si O2"
_cell_formula_units_Z 64
_cell_length_a 15.372457
_cell_length_b 8.761339
_cell_length_c 30.892927
_cell_angle_alpha 90.000000
_cell_angle_beta 128.938480
_cell_angle_gamma 90.000000
_cell_volume 3236.328690
_symmetry_space_group_name_H-M "C 2/M"
_symmetry_group_IT_number 12
_symmetry_cell_setting 'monoclinic'
loop_
_space_group_symop_operation_xyz
x,y,z
-x,y,-z
-x,-y,-z
x,-y,z
1/2+x,1/2+y,z
1/2-x,1/2+y,-z
1/2-x,1/2-y,-z
1/2+x,1/2-y,z
loop_
_atom_site_type_symbol
_atom_site_label
_atom_site_fract_x
_atom_site_fract_y
_atom_site_fract_z
Si Si1 0.792825 0.681040 0.635471
Si Si2 0.649954 0.179948 0.441937
Si Si3 0.371665 0.820009 0.829204
Si Si4 0.450310 0.818724 0.760567
Si Si5 0.448182 0.179702 0.438323
Si Si6 0.202542 0.680569 0.834406
Si Si7 0.073998 0.176718 0.939496
Si Si8 0.285473 0.822783 0.946028
O O1 0.790119 0.500000 0.635761
O O2 0.841224 0.739246 0.604612
O O3 0.874385 0.746927 0.698048
O O4 0.668948 0.739288 0.606135
O O5 0.750000 0.250000 0.500000
O O6 0.531491 0.229480 0.425632
O O7 0.663367 0.000000 0.448750
O O8 0.401742 0.760029 0.790830
O O9 0.258174 0.732739 0.806812
O O10 0.468873 0.777428 0.893090
O O11 0.351804 0.000000 0.823912
O O12 0.576116 0.756713 0.794759
O O13 0.451517 0.000000 0.759679
O O14 0.500000 0.235094 0.500000
O O15 0.427572 0.000000 0.432591
O O16 0.206358 0.500000 0.841457
O O17 0.274489 0.758168 0.894624
O O18 0.169785 0.207253 0.934383
O O19 0.039500 0.000000 0.931049
O O20 0.114899 0.232238 0.999236
O O21 0.316828 0.000000 0.954596
#
# Coordination Sequence:
#
# PCOD8098266 Si02
#       8
#     8   8   8   8   8   8   8   8
#     4  10  21  38  60  86 112 151 198 238 281 340
#     4  10  20  34  56  83 116 151 188 229 279 338
#     4  11  22  39  61  85 115 154 195 242 297 348
#     4   9  21  41  61  81 115 153 192 241 293 343
#     4  10  20  35  55  84 121 153 183 230 288 339
#     4  11  22  39  62  87 115 154 197 242 294 350
#     4  10  20  35  58  88 119 152 194 241 292 353
#     4  10  20  35  58  88 120 153 192 240 295 353
#
# _framework density 19.775494999999999
#
# number of rings (size 3 to 8) (size 9 to 14) (size 15 to 20)
#    0.000    1.875    2.500    1.500    0.000    3.250 
#    0.000    6.250    0.000    0.000    0.000    0.000 
#    0.000    0.000    0.000    0.000    0.000    0.000 
#
# Total GULP energy -396909.513995 kJ/mol
# GULP energy per Si atom -12403.422312 kJ/mol
# Density = 1.973049 g / cm^3
# Si number density = 19.775495 Si / 1000 Ang^3
#
#
#
# Elastic Constant Matrix: (Units=GPa)
#
#
# Indices 1 2 3 4 5 6 
#
# 1 150.7711 21.5339 71.9894 0.0000 -10.0862 0.0000
# 2 21.5339 32.5312 13.6367 0.0000 -1.4110 0.0000
# 3 71.9894 13.6367 142.5605 0.0000 -6.5365 0.0000
# 4 0.0000 0.0000 0.0000 22.4242 0.0000 2.7968
# 5 -10.0862 -1.4110 -6.5365 0.0000 14.2938 0.0000
# 6 0.0000 0.0000 0.0000 2.7968 0.0000 31.7352
#
#
#
# Elastic Compliance Matrix: (Units=1/GPa)
#
#
# Indices 1 2 3 4 5 6 
#
# 1 0.009560 -0.004374 -0.004208 0.000000 0.004390 0.000000
# 2 -0.004374 0.034070 -0.001060 0.000000 -0.000208 0.000000
# 3 -0.004208 -0.001060 0.009295 0.000000 0.001177 0.000000
# 4 0.000000 0.000000 0.000000 0.045090 0.000000 -0.003974
# 5 0.004390 -0.000208 0.001177 0.000000 0.073576 0.000000
# 6 0.000000 0.000000 0.000000 -0.003974 0.000000 0.031861
#
#
# Mechanical properties :
#
#
# Convention : Reuss Voigt Hill
#
# Bulk Modulus (GPa) = 29.72495 60.02030 44.87262
# Shear Modulus (GPa) = 21.37212 28.27082 24.82147
#
# Velocity S-wave (km/s) = 3.29102 3.78509 3.54667
# Velocity P-wave (km/s) = 5.43185 7.03699 6.28587
#
# Compressibility (1/GPa) = 0.03364178
#
# Stress axis : x y z
#
# Youngs Moduli (GPa) = 104.60088 29.35112 107.58705
#
# Poissons Ratio (x) = 0.12838 0.45272
# Poissons Ratio (y) = 0.45752 0.11402
# Poissons Ratio (z) = 0.44016 0.03111
#
# Static dielectric constant tensor:
#      x y z
#    x 3.853620 0.000000 -0.120510 
#    y 0.000000 3.404010 0.000000 
#    z -0.120510 0.000000 3.661580 
# 
# 
# High freq. dielectric constant tensor:
#      x y z
#    x 1.784440 0.000000 -0.002150 
#    y 0.000000 1.756820 0.000000 
#    z -0.002150 0.000000 1.767730 
# 
# From -- ./inp_files/375665.got.cif
#   From: 2010.06.25/outbox.cif.g09.slc.cpg/sg12_188_cif.got.tgz:375665.got - 2010.06.28 00:19:55.
