data_PCOD8098710
_publ_section_title
;
Structure prediction by ZEFSAII (Michael W. Deem and Ramdas Pophale) SiO2 
 PCOD8098710
Probable space group: C 2/M
;
_chemical_formula_sum "Si O2"
_cell_formula_units_Z 64
_cell_length_a 24.757696
_cell_length_b 9.102671
_cell_length_c 23.492105
_cell_angle_alpha 90.000000
_cell_angle_beta 46.240865
_cell_angle_gamma 90.000000
_cell_volume 3823.761370
_symmetry_space_group_name_H-M "C 2/M"
_symmetry_group_IT_number 12
_symmetry_cell_setting 'monoclinic'
loop_
_space_group_symop_operation_xyz
x,y,z
-x,y,-z
-x,-y,-z
x,-y,z
1/2+x,1/2+y,z
1/2-x,1/2+y,-z
1/2-x,1/2-y,-z
1/2+x,1/2-y,z
loop_
_atom_site_type_symbol
_atom_site_label
_atom_site_fract_x
_atom_site_fract_y
_atom_site_fract_z
Si Si1 0.797072 0.170693 0.839078
Si Si2 0.165592 0.668579 0.416156
Si Si3 0.130402 0.826558 0.330580
Si Si4 0.018972 0.328669 0.592096
Si Si5 0.211255 0.828926 0.580843
Si Si6 0.556527 0.827352 0.693034
Si Si7 0.423394 0.332293 0.838789
Si Si8 0.798523 0.169672 0.011419
O O1 0.820239 0.222822 0.759418
O O2 0.864766 0.209488 0.832129
O O3 0.721695 0.258182 0.912805
O O4 0.777366 0.000000 0.855629
O O5 0.157520 0.500000 0.402951
O O6 0.172562 0.769245 0.355582
O O7 0.094430 0.717031 0.505132
O O8 0.239549 0.693707 0.398913
O O9 0.047898 0.759667 0.387747
O O10 0.121923 0.000000 0.338981
O O11 0.001643 0.500000 0.598093
O O12 0.028145 0.284286 0.651047
O O13 0.250000 0.750000 0.500000
O O14 0.131947 0.757748 0.652308
O O15 0.202509 0.000000 0.572037
O O16 0.494071 0.775509 0.783573
O O17 0.571202 0.000000 0.688099
O O18 0.450265 0.500000 0.810876
O O19 0.385254 0.311915 0.929060
O O20 0.775771 0.000000 0.029219
O O21 0.750000 0.250000 0.000000
#
# Coordination Sequence:
#
# PCOD8098710 Si02
#       8
#     8   8   8   8   8   8   8   8
#     4   9  18  31  46  69 103 135 167 204 247 298
#     4  10  22  39  53  70  98 134 172 211 256 302
#     4  11  22  34  50  76 104 134 173 212 250 297
#     4  10  20  35  51  71 102 136 171 209 250 303
#     4  11  22  38  57  75  99 131 170 216 261 303
#     4  11  21  33  52  78 102 133 174 210 253 304
#     4   9  17  31  47  70 103 134 165 207 250 297
#     4   9  17  28  45  69  99 133 168 202 245 299
#
# _framework density 16.737447
#
# number of rings (size 3 to 8) (size 9 to 14) (size 15 to 20)
#    0.000    2.000    2.500    2.625    0.000    7.000 
#    0.000    0.000    0.000    0.000    0.000    0.875 
#    0.000    7.000    0.000    0.000    0.000    0.000 
#
# Total GULP energy -396817.437974 kJ/mol
# GULP energy per Si atom -12400.544937 kJ/mol
# Density = 1.669935 g / cm^3
# Si number density = 16.737447 Si / 1000 Ang^3
#
#
#
# Elastic Constant Matrix: (Units=GPa)
#
#
# Indices 1 2 3 4 5 6 
#
# 1 65.1380 39.3010 37.4201 0.0003 -6.1742 0.0002
# 2 39.3010 80.9900 53.8643 0.0010 -6.2766 0.0009
# 3 37.4201 53.8643 113.8074 0.0005 -12.9347 -0.0003
# 4 0.0003 0.0010 0.0005 34.1034 -0.0001 -1.8475
# 5 -6.1742 -6.2766 -12.9347 -0.0001 14.7267 -0.0001
# 6 0.0002 0.0009 -0.0003 -1.8475 -0.0001 25.9367
#
#
#
# Elastic Compliance Matrix: (Units=1/GPa)
#
#
# Indices 1 2 3 4 5 6 
#
# 1 0.022638 -0.008798 -0.002918 0.000000 0.003178 0.000000
# 2 -0.008798 0.021439 -0.007371 0.000000 -0.001025 -0.000001
# 3 -0.002918 -0.007371 0.014151 0.000000 0.008064 0.000000
# 4 0.000000 0.000000 0.000000 0.029436 0.000000 0.002097
# 5 0.003178 -0.001025 0.008064 0.000000 0.075883 0.000000
# 6 0.000000 -0.000001 0.000000 0.002097 0.000000 0.038705
#
#
# Mechanical properties :
#
#
# Convention : Reuss Voigt Hill
#
# Bulk Modulus (GPa) = 49.86384 57.90069 53.88227
# Shear Modulus (GPa) = 20.23384 23.57670 21.90527
#
# Velocity S-wave (km/s) = 3.48069 3.75723 3.62160
# Velocity P-wave (km/s) = 6.78307 7.31375 7.05341
#
# Compressibility (1/GPa) = 0.02005461
#
# Stress axis : x y z
#
# Youngs Moduli (GPa) = 44.17342 46.64355 70.66499
#
# Poissons Ratio (x) = 0.41038 0.20621
# Poissons Ratio (y) = 0.38865 0.52085
# Poissons Ratio (z) = 0.12890 0.34379
#
# Static dielectric constant tensor:
#      x y z
#    x 2.909120 0.000000 -0.038760 
#    y 0.000000 3.254570 0.000000 
#    z -0.038760 0.000000 3.626440 
# 
# 
# High freq. dielectric constant tensor:
#      x y z
#    x 1.605210 0.000000 -0.005800 
#    y 0.000000 1.654880 0.000000 
#    z -0.005800 0.000000 1.653410 
# 
# From -- ./inp_files/324144.got.cif
#   From: 2010.06.25/outbox.cif.g09.slc.cpg/sg12_163_cif.got.tgz:324144.got - 2010.06.28 00:19:55.
