data_PCOD8098734
_publ_section_title
;
Structure prediction by ZEFSAII (Michael W. Deem and Ramdas Pophale) SiO2 
 PCOD8098734
Probable space group: C 2/M
;
_chemical_formula_sum "Si O2"
_cell_formula_units_Z 64
_cell_length_a 23.313603
_cell_length_b 9.279367
_cell_length_c 21.119561
_cell_angle_alpha 90.000000
_cell_angle_beta 127.669162
_cell_angle_gamma 90.000000
_cell_volume 3616.532656
_symmetry_space_group_name_H-M "C 2/M"
_symmetry_group_IT_number 12
_symmetry_cell_setting 'monoclinic'
loop_
_space_group_symop_operation_xyz
x,y,z
-x,y,-z
-x,-y,-z
x,-y,z
1/2+x,1/2+y,z
1/2-x,1/2+y,-z
1/2-x,1/2-y,-z
1/2+x,1/2-y,z
loop_
_atom_site_type_symbol
_atom_site_label
_atom_site_fract_x
_atom_site_fract_y
_atom_site_fract_z
Si Si1 0.233754 0.330170 0.634498
Si Si2 0.798616 0.170151 0.263387
Si Si3 0.643038 0.332431 0.935990
Si Si4 0.740385 0.168187 0.088320
Si Si5 0.096578 0.665270 0.460291
Si Si6 0.500681 0.333559 0.228461
Si Si7 0.638897 0.830381 0.347264
Si Si8 0.960330 0.166307 0.343847
O O1 0.250346 0.500000 0.648358
O O2 0.239809 0.260758 0.707711
O O3 0.154063 0.298345 0.553406
O O4 0.290367 0.253058 0.627092
O O5 0.756689 0.212265 0.171167
O O6 0.882113 0.219216 0.314537
O O7 0.792739 0.000000 0.273107
O O8 0.653276 0.500000 0.956263
O O9 0.691463 0.284394 0.908641
O O10 0.559447 0.295899 0.864798
O O11 0.667846 0.248100 0.015574
O O12 0.726075 0.000000 0.072872
O O13 0.073882 0.500000 0.445308
O O14 0.130802 0.706594 0.415739
O O15 0.023279 0.752534 0.424740
O O16 0.525212 0.500000 0.240234
O O17 0.569317 0.230895 0.262537
O O18 0.465446 0.301911 0.272788
O O19 0.646610 0.000000 0.339181
O O20 0.970915 0.000000 0.365878
#
# Coordination Sequence:
#
# PCOD8098734 Si02
#       8
#     8   8   8   8   8   8   8   8
#     4  11  23  37  52  72  99 135 173 210 256 304
#     4  10  20  35  52  72 104 141 174 207 244 297
#     4   9  16  28  49  77 106 134 166 202 245 296
#     4   9  17  30  48  73 106 138 167 203 244 291
#     4   9  20  36  53  75 102 128 163 214 262 301
#     4   9  16  30  52  77 105 134 164 205 253 298
#     4  10  20  35  55  77  99 127 168 215 257 300
#     4   9  17  31  52  75 101 135 171 204 247 299
#
# _framework density 17.696508999999999
#
# number of rings (size 3 to 8) (size 9 to 14) (size 15 to 20)
#    0.000    2.500    1.250    1.125    0.000    3.500 
#    0.000    2.500    0.000    0.750    0.000    5.250 
#    0.000    0.000    0.000    0.000    0.000    0.000 
#
# Total GULP energy -396838.818246 kJ/mol
# GULP energy per Si atom -12401.213070 kJ/mol
# Density = 1.765623 g / cm^3
# Si number density = 17.696509 Si / 1000 Ang^3
#
#
#
# Elastic Constant Matrix: (Units=GPa)
#
#
# Indices 1 2 3 4 5 6 
#
# 1 26.5328 18.5050 13.2571 0.0000 -4.3762 0.0000
# 2 18.5050 57.9526 38.9345 0.0000 -1.1820 0.0000
# 3 13.2571 38.9345 98.2959 0.0000 -3.7768 0.0000
# 4 0.0000 0.0000 0.0000 33.6565 0.0000 4.7809
# 5 -4.3762 -1.1820 -3.7768 0.0000 17.3050 0.0000
# 6 0.0000 0.0000 0.0000 4.7809 0.0000 28.4122
#
#
#
# Elastic Compliance Matrix: (Units=1/GPa)
#
#
# Indices 1 2 3 4 5 6 
#
# 1 0.050766 -0.015907 -0.000095 0.000000 0.011731 0.000000
# 2 -0.015907 0.028500 -0.009301 0.000000 -0.004106 0.000000
# 3 -0.000095 -0.009301 0.013962 0.000000 0.002388 0.000000
# 4 0.000000 0.000000 0.000000 0.030440 0.000000 -0.005122
# 5 0.011731 -0.004106 0.002388 0.000000 0.060994 0.000000
# 6 0.000000 0.000000 0.000000 -0.005122 0.000000 0.036058
#
#
# Mechanical properties :
#
#
# Convention : Reuss Voigt Hill
#
# Bulk Modulus (GPa) = 23.46261 36.01940 29.74100
# Shear Modulus (GPa) = 17.51118 23.34706 20.42912
#
# Velocity S-wave (km/s) = 3.14909 3.63616 3.40135
# Velocity P-wave (km/s) = 5.14873 6.16661 5.68051
#
# Compressibility (1/GPa) = 0.04262101
#
# Stress axis : x y z
#
# Youngs Moduli (GPa) = 19.69841 35.08815 71.62264
#
# Poissons Ratio (x) = 0.55814 0.00684
# Poissons Ratio (y) = 0.31334 0.66616
# Poissons Ratio (z) = 0.00188 0.32636
#
# Static dielectric constant tensor:
#      x y z
#    x 3.078670 0.000000 0.137500 
#    y 0.000000 3.238660 0.000000 
#    z 0.137500 0.000000 3.382620 
# 
# 
# High freq. dielectric constant tensor:
#      x y z
#    x 1.659960 0.000000 0.011040 
#    y 0.000000 1.683350 0.000000 
#    z 0.011040 0.000000 1.686300 
# 
# From -- ./inp_files/295755.got.cif
#   From: 2010.06.25/outbox.cif.g09.slc.cpg/sg12_148_cif.got.tgz:295755.got - 2010.06.28 00:19:55.
