data_PCOD8098218
_publ_section_title
;
Structure prediction by ZEFSAII (Michael W. Deem and Ramdas Pophale) SiO2 
 PCOD8098218
Probable space group: C 2/M
;
_chemical_formula_sum "Si O2"
_cell_formula_units_Z 56
_cell_length_a 12.310954
_cell_length_b 16.076175
_cell_length_c 14.379891
_cell_angle_alpha 90.000000
_cell_angle_beta 91.417869
_cell_angle_gamma 90.000000
_cell_volume 2845.096725
_symmetry_space_group_name_H-M "C 2/M"
_symmetry_group_IT_number 12
_symmetry_cell_setting 'monoclinic'
loop_
_space_group_symop_operation_xyz
x,y,z
-x,y,-z
-x,-y,-z
x,-y,z
1/2+x,1/2+y,z
1/2-x,1/2+y,-z
1/2-x,1/2-y,-z
1/2+x,1/2-y,z
loop_
_atom_site_type_symbol
_atom_site_label
_atom_site_fract_x
_atom_site_fract_y
_atom_site_fract_z
Si Si1 0.798843 0.098234 0.366215
Si Si2 0.058962 0.902358 0.092482
Si Si3 0.536218 0.093799 0.895954
Si Si4 0.131960 0.674078 0.231028
Si Si5 0.493333 0.674426 0.717605
Si Si6 0.611909 0.591670 0.445930
Si Si7 0.240707 0.293985 0.900993
O O1 0.686145 0.123729 0.316792
O O2 0.891631 0.157193 0.326148
O O3 0.794146 0.117364 0.477566
O O4 0.825035 0.000000 0.350424
O O5 0.182485 0.873892 0.095658
O O6 0.999507 0.871767 0.183702
O O7 0.054090 0.000000 0.088499
O O8 0.000000 0.864080 0.000000
O O9 0.425444 0.107174 0.836117
O O10 0.622809 0.167261 0.875939
O O11 0.580436 0.000000 0.876471
O O12 0.500000 0.102764 0.000000
O O13 0.221828 0.729288 0.178098
O O14 0.032640 0.729047 0.268355
O O15 0.394212 0.646107 0.647438
O O16 0.500000 0.594665 0.500000
O O17 0.635678 0.500000 0.408690
O O18 0.250000 0.250000 0.000000
#
# Coordination Sequence:
#
# PCOD8098218 Si02
#       7
#     8   8   8   8   8   8   8
#     4  10  20  36  58  84 110 142 185 231 275 324
#     4  10  22  35  53  81 109 140 180 222 268 323
#     4  11  23  39  56  75 105 149 190 222 270 329
#     4  11  23  35  56  82 111 143 181 232 278 319
#     4  10  20  34  56  81 113 145 179 226 280 330
#     4   8  15  31  55  81 110 143 179 224 277 331
#     4  11  23  37  55  74 110 143 182 225 267 321
#
# _framework density 19.682986
#
# number of rings (size 3 to 8) (size 9 to 14) (size 15 to 20)
#    0.000    1.857    1.429    3.857    6.000    0.571 
#    0.000    0.000    0.000    0.000    0.000    0.000 
#    0.000   28.571    0.000    0.000    0.000    0.000 
#
# Total GULP energy -347019.885858 kJ/mol
# GULP energy per Si atom -12393.567352 kJ/mol
# Density = 1.963819 g / cm^3
# Si number density = 19.682986 Si / 1000 Ang^3
#
#
#
# Elastic Constant Matrix: (Units=GPa)
#
#
# Indices 1 2 3 4 5 6 
#
# 1 59.1939 19.2241 17.9444 0.0000 20.7308 0.0000
# 2 19.2241 63.9523 22.8370 0.0000 7.7009 0.0000
# 3 17.9444 22.8370 112.3469 0.0000 35.3431 0.0000
# 4 0.0000 0.0000 0.0000 20.4129 0.0000 12.2915
# 5 20.7308 7.7009 35.3431 0.0000 38.4495 0.0000
# 6 0.0000 0.0000 0.0000 12.2915 0.0000 22.6852
#
#
#
# Elastic Compliance Matrix: (Units=1/GPa)
#
#
# Indices 1 2 3 4 5 6 
#
# 1 0.022697 -0.005853 0.001471 0.000000 -0.012417 0.000000
# 2 -0.005853 0.018373 -0.003707 0.000000 0.002883 0.000000
# 3 0.001471 -0.003707 0.013274 0.000000 -0.012252 0.000000
# 4 0.000000 0.000000 0.000000 0.072712 0.000000 -0.039398
# 5 -0.012417 0.002883 -0.012252 0.000000 0.043388 0.000000
# 6 0.000000 0.000000 0.000000 -0.039398 0.000000 0.065429
#
#
# Mechanical properties :
#
#
# Convention : Reuss Voigt Hill
#
# Bulk Modulus (GPa) = 26.20118 39.50048 32.85083
# Shear Modulus (GPa) = 18.88418 28.00869 23.44643
#
# Velocity S-wave (km/s) = 3.10081 3.77635 3.45513
# Velocity P-wave (km/s) = 5.11473 6.25510 5.71344
#
# Compressibility (1/GPa) = 0.03816621
#
# Stress axis : x y z
#
# Youngs Moduli (GPa) = 44.05797 54.42915 75.33556
#
# Poissons Ratio (x) = 0.31856 -0.11080
# Poissons Ratio (y) = 0.25786 0.27926
# Poissons Ratio (z) = -0.06480 0.20176
#
# Static dielectric constant tensor:
#      x y z
#    x 3.482260 0.000000 0.300390 
#    y 0.000000 3.583080 0.000000 
#    z 0.300390 0.000000 4.013280 
# 
# 
# High freq. dielectric constant tensor:
#      x y z
#    x 1.744170 0.000000 0.027660 
#    y 0.000000 1.766690 0.000000 
#    z 0.027660 0.000000 1.775610 
# 
# From -- ./inp_files/205026.got.cif
#   From: 2010.06.25/outbox.cif.g09.slc.cpg/sg12_103_cif.got.tgz:205026.got - 2010.06.28 00:19:55.
