data_PCOD8098944
_publ_section_title
;
Structure prediction by ZEFSAII (Michael W. Deem and Ramdas Pophale) SiO2 
 PCOD8098944
Probable space group: C 2/M
;
_chemical_formula_sum "Si O2"
_cell_formula_units_Z 56
_cell_length_a 22.111937
_cell_length_b 8.813885
_cell_length_c 17.944488
_cell_angle_alpha 90.000000
_cell_angle_beta 59.991945
_cell_angle_gamma 90.000000
_cell_volume 3028.451443
_symmetry_space_group_name_H-M "C 2/M"
_symmetry_group_IT_number 12
_symmetry_cell_setting 'monoclinic'
loop_
_space_group_symop_operation_xyz
x,y,z
-x,y,-z
-x,-y,-z
x,-y,z
1/2+x,1/2+y,z
1/2-x,1/2+y,-z
1/2-x,1/2-y,-z
1/2+x,1/2-y,z
loop_
_atom_site_type_symbol
_atom_site_label
_atom_site_fract_x
_atom_site_fract_y
_atom_site_fract_z
Si Si1 0.570400 0.178344 0.541054
Si Si2 0.184905 0.319385 0.583333
Si Si3 0.667176 0.678280 0.755412
Si Si4 0.286885 0.668367 0.763560
Si Si5 0.081345 0.319606 0.938466
Si Si6 0.206951 0.667023 0.962407
Si Si7 0.416103 0.821291 0.632401
O O1 0.618800 0.236539 0.576851
O O2 0.603102 0.222533 0.441025
O O3 0.493119 0.244055 0.601301
O O4 0.561416 0.000000 0.546804
O O5 0.193095 0.500000 0.581133
O O6 0.250000 0.250000 0.500000
O O7 0.169146 0.255257 0.674011
O O8 0.655235 0.500000 0.754463
O O9 0.742150 0.710813 0.744900
O O10 0.606040 0.747009 0.845189
O O11 0.281822 0.500000 0.730488
O O12 0.261969 0.660202 0.862712
O O13 0.365563 0.728556 0.717539
O O14 0.090183 0.500000 0.925617
O O15 0.132864 0.263397 0.975146
O O16 0.000000 0.273445 0.000000
O O17 0.189413 0.500000 0.004064
O O18 0.250000 0.750000 0.000000
O O19 0.408964 0.000000 0.652375
#
# Coordination Sequence:
#
# PCOD8098944 Si02
#       7
#     8   8   8   8   8   8   8
#     4   8  17  32  51  74 104 138 175 218 262 313
#     4  11  21  35  54  79 112 148 185 227 275 324
#     4  11  22  36  55  81 110 144 187 230 271 326
#     4  10  20  35  54  78 106 138 175 219 271 322
#     4   9  19  39  63  84 110 146 187 233 287 342
#     4   9  19  35  55  80 109 139 175 221 274 330
#     4   9  16  32  55  77 100 134 178 219 261 315
#
# _framework density 18.491299000000001
#
# number of rings (size 3 to 8) (size 9 to 14) (size 15 to 20)
#    0.000    2.429    0.000    4.714    0.000    4.286 
#    2.571    3.571    0.000    0.000    0.000    0.000 
#    0.000    0.000    0.000    0.000    0.000    0.000 
#
# Total GULP energy -346948.119697 kJ/mol
# GULP energy per Si atom -12391.004275 kJ/mol
# Density = 1.844921 g / cm^3
# Si number density = 18.491299 Si / 1000 Ang^3
#
#
#
# Elastic Constant Matrix: (Units=GPa)
#
#
# Indices 1 2 3 4 5 6 
#
# 1 126.5040 41.0927 73.6907 0.0000 1.8197 0.0000
# 2 41.0927 72.4598 43.0602 -0.0001 0.8595 -0.0005
# 3 73.6907 43.0602 96.2564 0.0000 -8.7087 0.0000
# 4 0.0000 -0.0001 0.0000 32.4100 0.0000 -1.0660
# 5 1.8197 0.8595 -8.7087 0.0000 37.2791 -0.0001
# 6 0.0000 -0.0005 0.0000 -1.0660 -0.0001 25.9286
#
#
#
# Elastic Compliance Matrix: (Units=1/GPa)
#
#
# Indices 1 2 3 4 5 6 
#
# 1 0.014886 -0.001988 -0.010797 0.000000 -0.003203 0.000000
# 2 -0.001988 0.019285 -0.007291 0.000000 -0.002051 0.000000
# 3 -0.010797 -0.007291 0.022454 0.000000 0.005940 0.000000
# 4 0.000000 0.000000 0.000000 0.030896 0.000000 0.001270
# 5 -0.003203 -0.002051 0.005940 0.000000 0.028416 0.000000
# 6 0.000000 0.000000 0.000000 0.001270 0.000000 0.038620
#
#
# Mechanical properties :
#
#
# Convention : Reuss Voigt Hill
#
# Bulk Modulus (GPa) = 60.70280 67.87860 64.29070
# Shear Modulus (GPa) = 24.97516 28.28199 26.62858
#
# Velocity S-wave (km/s) = 3.67910 3.91509 3.79893
# Velocity P-wave (km/s) = 7.13770 7.56475 7.35432
#
# Compressibility (1/GPa) = 0.01647370
#
# Stress axis : x y z
#
# Youngs Moduli (GPa) = 67.17743 51.85338 44.53644
#
# Poissons Ratio (x) = 0.10308 0.48085
# Poissons Ratio (y) = 0.13354 0.32471
# Poissons Ratio (z) = 0.72529 0.37806
#
# Static dielectric constant tensor:
#      x y z
#    x 3.927770 0.000000 0.030550 
#    y 0.000000 3.371500 0.000000 
#    z 0.030550 0.000000 3.398080 
# 
# 
# High freq. dielectric constant tensor:
#      x y z
#    x 1.721620 0.000000 -0.006990 
#    y 0.000000 1.704510 0.000000 
#    z -0.006990 0.000000 1.715800 
# 
# From -- ./inp_files/280983.got.cif
#   From: 2010.06.25/outbox.cif.g09.slc.cpg/sg12_141_cif.got.tgz:280983.got - 2010.06.28 00:19:55.
