data_PCOD8098206
_publ_section_title
;
Structure prediction by ZEFSAII (Michael W. Deem and Ramdas Pophale) SiO2 
 PCOD8098206
Probable space group: C 2/M
;
_chemical_formula_sum "Si O2"
_cell_formula_units_Z 48
_cell_length_a 23.476701
_cell_length_b 16.711314
_cell_length_c 12.395758
_cell_angle_alpha 90.000000
_cell_angle_beta 31.027406
_cell_angle_gamma 90.000000
_cell_volume 2506.718888
_symmetry_space_group_name_H-M "C 2/M"
_symmetry_group_IT_number 12
_symmetry_cell_setting 'monoclinic'
loop_
_space_group_symop_operation_xyz
x,y,z
-x,y,-z
-x,-y,-z
x,-y,z
1/2+x,1/2+y,z
1/2-x,1/2+y,-z
1/2-x,1/2-y,-z
1/2+x,1/2-y,z
loop_
_atom_site_type_symbol
_atom_site_label
_atom_site_fract_x
_atom_site_fract_y
_atom_site_fract_z
Si Si1 0.704767 0.673319 0.009292
Si Si2 0.789031 0.089897 0.793598
Si Si3 0.111006 0.594155 0.698627
Si Si4 0.128377 0.337233 0.890747
Si Si5 0.777297 0.692492 0.659546
Si Si6 0.467778 0.706391 0.437328
O O1 0.761627 0.654549 0.803487
O O2 0.750000 0.750000 0.000000
O O3 0.724453 0.597469 0.055225
O O4 0.575847 0.687303 0.192653
O O5 0.690820 0.138689 0.897753
O O6 0.907382 0.123916 0.567045
O O7 0.780400 0.000000 0.769242
O O8 0.083341 0.500000 0.726283
O O9 0.163951 0.607647 0.731059
O O10 0.199652 0.623035 0.465367
O O11 0.001590 0.650486 0.873934
O O12 0.169959 0.245855 0.799218
O O13 0.889311 0.743506 0.486348
O O14 0.500000 0.749351 0.500000
#
# Coordination Sequence:
#
# PCOD8098206 Si02
#       6
#     8   8   8   8   8   8
#     4  11  19  34  52  80 112 145 176 224 277 331
#     4  10  20  34  56  80 105 143 189 230 273 331
#     4  11  23  37  58  86 117 145 187 245 290 325
#     4  10  20  40  59  80 109 153 196 230 272 342
#     4  11  21  34  59  82 113 146 190 228 279 338
#     4   9  18  32  52  77 105 143 185 223 262 329
#
# _framework density 19.148536
#
# number of rings (size 3 to 8) (size 9 to 14) (size 15 to 20)
#    0.000    1.667    5.000    3.500    0.000    3.667 
#    0.000    0.000    0.000    2.500    0.000   14.000 
#    0.000    0.000    0.000    0.000    0.000    0.000 
#
# Total GULP energy -297429.284796 kJ/mol
# GULP energy per Si atom -12392.886867 kJ/mol
# Density = 1.910495 g / cm^3
# Si number density = 19.148536 Si / 1000 Ang^3
#
#
#
# Elastic Constant Matrix: (Units=GPa)
#
#
# Indices 1 2 3 4 5 6 
#
# 1 68.2536 14.9268 41.4783 0.0000 2.4711 0.0000
# 2 14.9268 68.4339 34.3535 0.0000 2.6188 0.0000
# 3 41.4783 34.3535 113.1378 0.0000 18.4163 0.0000
# 4 0.0000 0.0000 0.0000 21.9967 0.0000 4.4637
# 5 2.4711 2.6188 18.4163 0.0000 35.2626 0.0000
# 6 0.0000 0.0000 0.0000 4.4637 0.0000 21.0458
#
#
#
# Elastic Compliance Matrix: (Units=1/GPa)
#
#
# Indices 1 2 3 4 5 6 
#
# 1 0.019079 -0.000640 -0.007203 0.000000 0.002472 0.000000
# 2 -0.000640 0.017344 -0.005278 0.000000 0.001513 0.000000
# 3 -0.007203 -0.005278 0.014138 0.000000 -0.006487 0.000000
# 4 0.000000 0.000000 0.000000 0.047506 0.000000 -0.010076
# 5 0.002472 0.001513 -0.006487 0.000000 0.031461 0.000000
# 6 0.000000 0.000000 0.000000 -0.010076 0.000000 0.049652
#
#
# Mechanical properties :
#
#
# Convention : Reuss Voigt Hill
#
# Bulk Modulus (GPa) = 41.12036 47.92693 44.52364
# Shear Modulus (GPa) = 23.41610 26.26547 24.84079
#
# Velocity S-wave (km/s) = 3.50074 3.70762 3.60567
# Velocity P-wave (km/s) = 6.15315 6.58878 6.37469
#
# Compressibility (1/GPa) = 0.02431886
#
# Stress axis : x y z
#
# Youngs Moduli (GPa) = 52.41400 57.65720 70.73175
#
# Poissons Ratio (x) = 0.03692 0.50945
# Poissons Ratio (y) = 0.03357 0.37331
# Poissons Ratio (z) = 0.37752 0.30431
#
# Static dielectric constant tensor:
#      x y z
#    x 3.898750 0.000000 0.102860 
#    y 0.000000 3.297640 0.000000 
#    z 0.102860 0.000000 3.683410 
# 
# 
# High freq. dielectric constant tensor:
#      x y z
#    x 1.750710 0.000000 0.000960 
#    y 0.000000 1.710040 0.000000 
#    z 0.000960 0.000000 1.744910 
# 
# From -- ./inp_files/177303.got.cif
#   From: 2010.06.25/outbox.cif.g09.slc.cpg/sg12_89_cif.got.tgz:177303.got - 2010.06.28 00:19:55.
