data_PCOD8098359
_publ_section_title
;
Structure prediction by ZEFSAII (Michael W. Deem and Ramdas Pophale) SiO2 
 PCOD8098359
Probable space group: C 2/M
;
_chemical_formula_sum "Si O2"
_cell_formula_units_Z 64
_cell_length_a 15.058183
_cell_length_b 18.669847
_cell_length_c 11.711657
_cell_angle_alpha 90.000000
_cell_angle_beta 92.032020
_cell_angle_gamma 90.000000
_cell_volume 3290.474199
_symmetry_space_group_name_H-M "C 2/M"
_symmetry_group_IT_number 12
_symmetry_cell_setting 'monoclinic'
loop_
_space_group_symop_operation_xyz
x,y,z
-x,y,-z
-x,-y,-z
x,-y,z
1/2+x,1/2+y,z
1/2-x,1/2+y,-z
1/2-x,1/2-y,-z
1/2+x,1/2-y,z
loop_
_atom_site_type_symbol
_atom_site_label
_atom_site_fract_x
_atom_site_fract_y
_atom_site_fract_z
Si Si1 0.587649 0.417816 0.571747
Si Si2 0.267869 0.724109 0.875408
Si Si3 0.883097 0.783640 0.290518
Si Si4 0.998302 0.419209 0.866583
Si Si5 0.700011 0.079801 0.805026
Si Si6 0.064205 0.277382 0.233609
Si Si7 0.268148 0.080228 0.454954
Si Si8 0.402004 0.805836 0.517042
O O1 0.500000 0.392689 0.500000
O O2 0.578812 0.500000 0.613770
O O3 0.603989 0.368417 0.684222
O O4 0.667021 0.408254 0.485921
O O5 0.206091 0.767314 0.783453
O O6 0.250767 0.638946 0.880799
O O7 0.370652 0.736482 0.849236
O O8 0.250000 0.750000 0.000000
O O9 0.874971 0.747118 0.414320
O O10 0.965028 0.754687 0.218375
O O11 0.960238 0.500000 0.847821
O O12 0.095427 0.413415 0.817424
O O13 0.936681 0.362097 0.798145
O O14 0.000000 0.399442 0.000000
O O15 0.722199 0.099068 0.676605
O O16 0.733248 0.000000 0.840227
O O17 0.098755 0.263584 0.363544
O O18 0.332249 0.130735 0.530000
O O19 0.300098 0.000000 0.481463
O O20 0.500000 0.838617 0.500000
#
# Coordination Sequence:
#
# PCOD8098359 Si02
#       8
#     8   8   8   8   8   8   8   8
#     4  10  22  38  59  87 119 160 204 244 301 369
#     4  12  25  40  61  90 119 161 208 254 310 363
#     4  11  23  40  59  86 124 153 202 257 304 362
#     4  10  20  38  62  86 120 161 200 251 304 358
#     4  10  20  38  61  87 119 158 202 248 303 361
#     4  11  23  36  62  91 119 162 200 249 307 365
#     4  10  20  34  56  85 123 158 188 238 295 360
#     4  10  20  35  57  89 119 153 191 237 309 366
#
# _framework density 19.450084
#
# number of rings (size 3 to 8) (size 9 to 14) (size 15 to 20)
#    0.000    1.500    2.500    3.375    3.500    1.750 
#    0.000    1.250    0.000    0.000    0.000    1.750 
#    0.000    0.000    0.000    0.000    0.000    0.000 
#
# Total GULP energy -396854.803610 kJ/mol
# GULP energy per Si atom -12401.712613 kJ/mol
# Density = 1.940582 g / cm^3
# Si number density = 19.450084 Si / 1000 Ang^3
#
#
#
# Elastic Constant Matrix: (Units=GPa)
#
#
# Indices 1 2 3 4 5 6 
#
# 1 63.4218 23.3483 24.8110 0.0000 -10.7840 0.0000
# 2 23.3483 113.2782 29.5301 0.0000 6.1307 0.0000
# 3 24.8110 29.5301 84.9833 0.0000 -8.2676 0.0000
# 4 0.0000 0.0000 0.0000 15.3163 0.0000 80.1596
# 5 -10.7840 6.1307 -8.2676 0.0000 23.4471 0.0000
# 6 0.0000 0.0000 0.0000 80.1596 0.0000 -543.3292
#
#
#
# Elastic Compliance Matrix: (Units=1/GPa)
#
#
# Indices 1 2 3 4 5 6 
#
# 1 0.020078 -0.003646 -0.003732 0.000000 0.008872 0.000000
# 2 -0.003646 0.010719 -0.003206 0.000000 -0.005610 0.000000
# 3 -0.003732 -0.003206 0.014378 0.000000 0.004192 0.000000
# 4 0.000000 0.000000 0.000000 0.036842 0.000000 0.005436
# 5 0.008872 -0.005610 0.004192 0.000000 0.049674 0.000000
# 6 0.000000 0.000000 0.000000 0.005436 0.000000 -0.001039
#
#
# Mechanical properties :
#
#
# Convention : Reuss Voigt Hill
#
# Bulk Modulus (GPa) = 41.65278 46.34024 43.99651
# Shear Modulus (GPa) = 31.28463 -88.64690 -28.68113
#
# Velocity S-wave (km/s) = 4.01491 -6.75837 -3.84422
# Velocity P-wave (km/s) = 6.55396 6.08472 1.72200
#
# Compressibility (1/GPa) = 0.02400800
#
# Stress axis : x y z
#
# Youngs Moduli (GPa) = 49.80561 93.29588 69.54901
#
# Poissons Ratio (x) = 0.34013 0.25955
# Poissons Ratio (y) = 0.18157 0.22297
# Poissons Ratio (z) = 0.18587 0.29910
#
# Static dielectric constant tensor:
#      x y z
#    x 2.075290 0.000000 0.353810 
#    y 0.000000 3.816980 0.000000 
#    z 0.353810 0.000000 3.250820 
# 
# 
# High freq. dielectric constant tensor:
#      x y z
#    x 1.757230 0.000000 -0.020070 
#    y 0.000000 1.765070 0.000000 
#    z -0.020070 0.000000 1.742100 
# 
# From -- ./inp_files/146169.got.cif
#   From: 2010.06.25/outbox.cif.g09.slc.cpg/sg12_74_cif.got.tgz:146169.got - 2010.06.28 00:19:55.
