data_PCOD8098925
_publ_section_title
;
Structure prediction by ZEFSAII (Michael W. Deem and Ramdas Pophale) SiO2 
 PCOD8098925
Probable space group: C 2/M
;
_chemical_formula_sum "Si O2"
_cell_formula_units_Z 64
_cell_length_a 22.207022
_cell_length_b 8.799335
_cell_length_c 24.031730
_cell_angle_alpha 90.000000
_cell_angle_beta 46.568098
_cell_angle_gamma 90.000000
_cell_volume 3410.174998
_symmetry_space_group_name_H-M "C 2/M"
_symmetry_group_IT_number 12
_symmetry_cell_setting 'monoclinic'
loop_
_space_group_symop_operation_xyz
x,y,z
-x,y,-z
-x,-y,-z
x,-y,z
1/2+x,1/2+y,z
1/2-x,1/2+y,-z
1/2-x,1/2-y,-z
1/2+x,1/2-y,z
loop_
_atom_site_type_symbol
_atom_site_label
_atom_site_fract_x
_atom_site_fract_y
_atom_site_fract_z
Si Si1 0.840224 0.820017 0.453823
Si Si2 0.094284 0.823008 0.280229
Si Si3 0.001610 0.822655 0.154111
Si Si4 0.317906 0.322760 0.994732
Si Si5 0.724454 0.830641 0.866631
Si Si6 0.464006 0.177885 0.290730
Si Si7 0.442543 0.170951 0.087184
Si Si8 0.523093 0.321369 0.546313
O O1 0.750000 0.750000 0.500000
O O2 0.890243 0.764422 0.478690
O O3 0.894505 0.773489 0.366596
O O4 0.830432 0.000000 0.462082
O O5 0.191310 0.782737 0.218359
O O6 0.054025 0.722565 0.257141
O O7 0.054395 0.778661 0.364892
O O8 0.077085 0.000000 0.278329
O O9 0.961069 0.723412 0.228346
O O10 0.948874 0.790858 0.132641
O O11 0.999146 0.000000 0.171112
O O12 0.093739 0.761922 0.082371
O O13 0.314671 0.500000 0.989214
O O14 0.300529 0.284509 0.069493
O O15 0.250000 0.250000 0.000000
O O16 0.653850 0.828270 0.865619
O O17 0.734273 0.000000 0.886152
O O18 0.446547 0.000000 0.308951
O O19 0.470931 0.000000 0.086321
O O20 0.500000 0.227962 0.000000
O O21 0.500000 0.249324 0.500000
O O22 0.532067 0.500000 0.533118
#
# Coordination Sequence:
#
# PCOD8098925 Si02
#       8
#     8   8   8   8   8   8   8   8
#     4  10  20  37  61  89 122 155 191 234 284 342
#     4   9  18  34  56  81 111 145 181 228 283 334
#     4  11  23  38  55  77 108 144 183 229 282 337
#     4  11  23  35  52  77 104 138 179 226 279 333
#     4  10  20  35  54  77 107 143 183 228 278 332
#     4  11  22  37  59  84 111 146 188 233 282 334
#     4  10  20  36  56  77 106 145 187 230 277 334
#     4   8  15  31  56  84 113 148 189 230 274 331
#
# _framework density 18.767365000000002
#
# number of rings (size 3 to 8) (size 9 to 14) (size 15 to 20)
#    0.000    2.000    1.250    3.750    0.000    5.750 
#    2.250    0.000    0.000    9.375    0.000    0.000 
#    0.000    0.000    0.000    0.000    0.000    0.000 
#
# Total GULP energy -396701.535183 kJ/mol
# GULP energy per Si atom -12396.922974 kJ/mol
# Density = 1.872465 g / cm^3
# Si number density = 18.767365 Si / 1000 Ang^3
#
#
#
# Elastic Constant Matrix: (Units=GPa)
#
#
# Indices 1 2 3 4 5 6 
#
# 1 121.4379 29.7989 64.1414 0.0000 -3.5523 -0.0005
# 2 29.7989 48.9139 23.9810 0.0005 0.2257 -0.0012
# 3 64.1414 23.9810 101.5859 0.0000 -2.1900 -0.0001
# 4 0.0000 0.0005 0.0000 27.5650 0.0001 -0.1281
# 5 -3.5523 0.2257 -2.1900 0.0001 38.9889 0.0002
# 6 -0.0005 -0.0012 -0.0001 -0.1281 0.0002 28.7056
#
#
#
# Elastic Compliance Matrix: (Units=1/GPa)
#
#
# Indices 1 2 3 4 5 6 
#
# 1 0.013189 -0.004483 -0.007251 0.000000 0.000820 0.000000
# 2 -0.004483 0.024652 -0.003004 0.000000 -0.000720 0.000001
# 3 -0.007251 -0.003004 0.015136 0.000000 0.000207 0.000000
# 4 0.000000 0.000000 0.000000 0.036279 0.000000 0.000162
# 5 0.000820 -0.000720 0.000207 0.000000 0.025739 0.000000
# 6 0.000000 0.000001 0.000000 0.000162 0.000000 0.034837
#
#
# Mechanical properties :
#
#
# Convention : Reuss Voigt Hill
#
# Bulk Modulus (GPa) = 42.55558 56.42002 49.48780
# Shear Modulus (GPa) = 26.71768 29.31964 28.01866
#
# Velocity S-wave (km/s) = 3.77719 3.95684 3.86806
# Velocity P-wave (km/s) = 6.46122 7.14168 6.80995
#
# Compressibility (1/GPa) = 0.02349868
#
# Stress axis : x y z
#
# Youngs Moduli (GPa) = 75.82148 40.56531 66.06754
#
# Poissons Ratio (x) = 0.18187 0.47908
# Poissons Ratio (y) = 0.33994 0.19847
# Poissons Ratio (z) = 0.54981 0.12186
#
# Static dielectric constant tensor:
#      x y z
#    x 3.499230 0.000000 -0.094570 
#    y 0.000000 3.445000 0.000000 
#    z -0.094570 0.000000 3.439420 
# 
# 
# High freq. dielectric constant tensor:
#      x y z
#    x 1.732600 0.000000 -0.003650 
#    y 0.000000 1.715190 0.000000 
#    z -0.003650 0.000000 1.726800 
# 
# From -- ./inp_files/345936.got.cif
#   From: 2010.06.25/outbox.cif.g09.slc.cpg/sg12_173_cif.got.tgz:345936.got - 2010.06.28 00:19:55.
