data_PCOD8098977
_publ_section_title
;
Structure prediction by ZEFSAII (Michael W. Deem and Ramdas Pophale) SiO2 
 PCOD8098977
Probable space group: C 2/M
;
_chemical_formula_sum "Si O2"
_cell_formula_units_Z 64
_cell_length_a 14.610786
_cell_length_b 8.857389
_cell_length_c 25.551121
_cell_angle_alpha 90.000000
_cell_angle_beta 90.222387
_cell_angle_gamma 90.000000
_cell_volume 3306.632923
_symmetry_space_group_name_H-M "C 2/M"
_symmetry_group_IT_number 12
_symmetry_cell_setting 'monoclinic'
loop_
_space_group_symop_operation_xyz
x,y,z
-x,y,-z
-x,-y,-z
x,-y,z
1/2+x,1/2+y,z
1/2-x,1/2+y,-z
1/2-x,1/2-y,-z
1/2+x,1/2-y,z
loop_
_atom_site_type_symbol
_atom_site_label
_atom_site_fract_x
_atom_site_fract_y
_atom_site_fract_z
Si Si1 0.253533 0.677996 0.421876
Si Si2 0.806422 0.821745 0.108147
Si Si3 0.395740 0.178113 0.494483
Si Si4 0.067967 0.175689 0.240246
Si Si5 0.635199 0.320467 0.777131
Si Si6 0.217595 0.678941 0.305108
Si Si7 0.622377 0.675504 0.124134
Si Si8 0.531024 0.176119 0.941652
O O1 0.267436 0.500000 0.423320
O O2 0.346811 0.751167 0.443714
O O3 0.163825 0.725685 0.454925
O O4 0.238646 0.738721 0.363228
O O5 0.836058 0.762666 0.165558
O O6 0.701514 0.776117 0.098408
O O7 0.865200 0.733360 0.064840
O O8 0.818544 0.000000 0.101100
O O9 0.500000 0.239787 0.500000
O O10 0.397416 0.000000 0.486813
O O11 0.119070 0.260999 0.287044
O O12 0.119497 0.206977 0.185949
O O13 0.965291 0.241273 0.236965
O O14 0.065907 0.000000 0.253701
O O15 0.635521 0.500000 0.777676
O O16 0.704961 0.257002 0.733850
O O17 0.214769 0.500000 0.304007
O O18 0.638976 0.500000 0.112320
O O19 0.527130 0.725893 0.099104
O O20 0.522161 0.000000 0.928393
O O21 0.500000 0.212216 0.000000
#
# Coordination Sequence:
#
# PCOD8098977 Si02
#       8
#     8   8   8   8   8   8   8   8
#     4   9  19  34  52  78 109 143 185 230 276 331
#     4  11  21  38  63  87 114 150 189 232 284 341
#     4   9  18  34  55  76 105 145 186 230 281 331
#     4  10  20  35  54  80 110 143 183 223 269 331
#     4   9  18  34  54  78 108 144 180 219 275 332
#     4  10  20  35  54  79 113 146 181 228 278 332
#     4  11  22  38  61  88 116 149 191 235 281 343
#     4  11  25  43  62  87 117 149 190 240 291 342
#
# _framework density 19.355035000000001
#
# number of rings (size 3 to 8) (size 9 to 14) (size 15 to 20)
#    0.000    2.000    2.500    1.125    0.000    3.750 
#    0.000    0.625    0.000    0.000    0.000    0.000 
#    0.000    0.000    0.000    0.000    0.000    0.000 
#
# Total GULP energy -396897.783020 kJ/mol
# GULP energy per Si atom -12403.055719 kJ/mol
# Density = 1.931098 g / cm^3
# Si number density = 19.355035 Si / 1000 Ang^3
#
#
#
# Elastic Constant Matrix: (Units=GPa)
#
#
# Indices 1 2 3 4 5 6 
#
# 1 96.4892 15.8568 2.4444 0.0000 -2.1590 0.0000
# 2 15.8568 35.5818 30.6362 0.0000 2.3769 0.0000
# 3 2.4444 30.6362 60.9723 0.0000 -2.9060 0.0000
# 4 0.0000 0.0000 0.0000 24.5514 0.0000 4.9481
# 5 -2.1590 2.3769 -2.9060 0.0000 27.4146 0.0000
# 6 0.0000 0.0000 0.0000 4.9481 0.0000 33.7293
#
#
#
# Elastic Compliance Matrix: (Units=1/GPa)
#
#
# Indices 1 2 3 4 5 6 
#
# 1 0.011776 -0.008940 0.004122 0.000000 0.002139 0.000000
# 2 -0.008940 0.057681 -0.029043 0.000000 -0.008784 0.000000
# 3 0.004122 -0.029043 0.031121 0.000000 0.006141 0.000000
# 4 0.000000 0.000000 0.000000 0.041972 0.000000 -0.006157
# 5 0.002139 -0.008784 0.006141 0.000000 0.038058 0.000000
# 6 0.000000 0.000000 0.000000 -0.006157 0.000000 0.030551
#
#
# Mechanical properties :
#
#
# Convention : Reuss Voigt Hill
#
# Bulk Modulus (GPa) = 30.43488 32.32422 31.37955
# Shear Modulus (GPa) = 17.25133 26.74613 21.99873
#
# Velocity S-wave (km/s) = 2.98872 3.72138 3.37499
# Velocity P-wave (km/s) = 5.26009 5.93312 5.60671
#
# Compressibility (1/GPa) = 0.03285704
#
# Stress axis : x y z
#
# Youngs Moduli (GPa) = 84.91513 17.33681 32.13260
#
# Poissons Ratio (x) = 0.15499 -0.13244
# Poissons Ratio (y) = 0.75913 0.93321
# Poissons Ratio (z) = -0.35000 0.50350
#
# Static dielectric constant tensor:
#      x y z
#    x 3.667970 0.000000 -0.068420 
#    y 0.000000 3.272530 0.000000 
#    z -0.068420 0.000000 3.557820 
# 
# 
# High freq. dielectric constant tensor:
#      x y z
#    x 1.765300 0.000000 -0.000940 
#    y 0.000000 1.736670 0.000000 
#    z -0.000940 0.000000 1.747710 
# 
# From -- ./inp_files/338805.got.cif
#   From: 2010.06.25/outbox.cif.g09.slc.cpg/sg12_170_cif.got.tgz:338805.got - 2010.06.28 00:19:55.
