data_PCOD8098731
_publ_section_title
;
Structure prediction by ZEFSAII (Michael W. Deem and Ramdas Pophale) SiO2 
 PCOD8098731
Probable space group: C 2/M
;
_chemical_formula_sum "Si O2"
_cell_formula_units_Z 56
_cell_length_a 29.071786
_cell_length_b 8.855789
_cell_length_c 11.743611
_cell_angle_alpha 90.000000
_cell_angle_beta 91.079392
_cell_angle_gamma 90.000000
_cell_volume 3022.898459
_symmetry_space_group_name_H-M "C 2/M"
_symmetry_group_IT_number 12
_symmetry_cell_setting 'monoclinic'
loop_
_space_group_symop_operation_xyz
x,y,z
-x,y,-z
-x,-y,-z
x,-y,z
1/2+x,1/2+y,z
1/2-x,1/2+y,-z
1/2-x,1/2-y,-z
1/2+x,1/2-y,z
loop_
_atom_site_type_symbol
_atom_site_label
_atom_site_fract_x
_atom_site_fract_y
_atom_site_fract_z
Si Si1 0.828519 0.823579 0.664144
Si Si2 0.361465 0.324996 0.913026
Si Si3 0.188789 0.668933 0.901258
Si Si4 0.952068 0.177827 0.042383
Si Si5 0.649527 0.179844 0.559355
Si Si6 0.767889 0.821310 0.299033
Si Si7 0.093324 0.332614 0.764484
O O1 0.858125 0.794603 0.778914
O O2 0.859183 0.761450 0.561429
O O3 0.782338 0.726451 0.663090
O O4 0.816839 0.000000 0.648475
O O5 0.356479 0.500000 0.943820
O O6 0.410992 0.263912 0.958514
O O7 0.319540 0.240110 0.974624
O O8 0.208659 0.500000 0.915765
O O9 0.225080 0.767573 0.831183
O O10 0.141025 0.667940 0.833328
O O11 0.955340 0.000000 0.039804
O O12 0.943125 0.226171 0.173060
O O13 0.000000 0.248841 0.000000
O O14 0.696513 0.241274 0.615281
O O15 0.605500 0.222204 0.636948
O O16 0.653792 0.000000 0.546509
O O17 0.774006 0.000000 0.307746
O O18 0.072044 0.500000 0.761235
#
# Coordination Sequence:
#
# PCOD8098731 Si02
#       7
#     8   8   8   8   8   8   8
#     4  11  22  34  48  68  97 133 170 206 245 288
#     4   9  19  34  50  71 100 131 162 198 245 299
#     4   9  17  31  50  71  97 128 164 206 247 288
#     4   9  17  31  54  81 103 122 150 193 242 292
#     4  10  20  35  52  71  97 129 169 210 244 281
#     4  11  21  33  50  71  96 129 170 211 249 285
#     4   8  16  30  49  73  98 124 155 195 239 284
#
# _framework density 18.525266999999999
#
# number of rings (size 3 to 8) (size 9 to 14) (size 15 to 20)
#    0.000    2.429    0.000    3.857    0.000    6.000 
#    0.000    0.000    0.000    0.857    0.000    6.000 
#    0.000    0.000    0.000    0.000    0.000    0.000 
#
# Total GULP energy -347147.533972 kJ/mol
# GULP energy per Si atom -12398.126213 kJ/mol
# Density = 1.848310 g / cm^3
# Si number density = 18.525267 Si / 1000 Ang^3
#
#
#
# Elastic Constant Matrix: (Units=GPa)
#
#
# Indices 1 2 3 4 5 6 
#
# 1 32.6578 14.4459 42.5136 0.0000 -10.6648 0.0000
# 2 14.4459 61.9903 40.7905 0.0000 0.1334 0.0000
# 3 42.5136 40.7905 149.6611 0.0000 -13.5000 0.0000
# 4 0.0000 0.0000 0.0000 36.1665 0.0000 -5.4949
# 5 -10.6648 0.1334 -13.5000 0.0000 23.4506 0.0000
# 6 0.0000 0.0000 0.0000 -5.4949 0.0000 14.6522
#
#
#
# Elastic Compliance Matrix: (Units=1/GPa)
#
#
# Indices 1 2 3 4 5 6 
#
# 1 0.055067 -0.004419 -0.012844 0.000000 0.017675 0.000000
# 2 -0.004419 0.020267 -0.004705 0.000000 -0.004833 0.000000
# 3 -0.012844 -0.004705 0.011695 0.000000 0.000918 0.000000
# 4 0.000000 0.000000 0.000000 0.029321 0.000000 0.010996
# 5 0.017675 -0.004833 0.000918 0.000000 0.051237 0.000000
# 6 0.000000 0.000000 0.000000 0.010996 0.000000 0.072373
#
#
# Mechanical properties :
#
#
# Convention : Reuss Voigt Hill
#
# Bulk Modulus (GPa) = 23.20464 48.86769 36.03617
# Shear Modulus (GPa) = 16.76381 24.62445 20.69413
#
# Velocity S-wave (km/s) = 3.01145 3.64982 3.34589
# Velocity P-wave (km/s) = 4.96436 6.64814 5.86697
#
# Compressibility (1/GPa) = 0.04309482
#
# Stress axis : x y z
#
# Youngs Moduli (GPa) = 18.15957 49.34011 85.50360
#
# Poissons Ratio (x) = 0.21804 1.09821
# Poissons Ratio (y) = 0.08025 0.40226
# Poissons Ratio (z) = 0.23324 0.23213
#
# Static dielectric constant tensor:
#      x y z
#    x 3.168550 0.000000 -0.205370 
#    y 0.000000 3.466390 0.000000 
#    z -0.205370 0.000000 3.780280 
# 
# 
# High freq. dielectric constant tensor:
#      x y z
#    x 1.672210 0.000000 -0.014570 
#    y 0.000000 1.722210 0.000000 
#    z -0.014570 0.000000 1.730110 
# 
# From -- ./inp_files/186419.got.cif
#   From: 2010.06.25/outbox.cif.g09.slc.cpg/sg12_94_cif.got.tgz:186419.got - 2010.06.28 00:19:55.
