data_PCOD8098649
_publ_section_title
;
Structure prediction by ZEFSAII (Michael W. Deem and Ramdas Pophale) SiO2 
 PCOD8098649
Probable space group: C 2/M
;
_chemical_formula_sum "Si O2"
_cell_formula_units_Z 48
_cell_length_a 12.134382
_cell_length_b 19.262751
_cell_length_c 10.791310
_cell_angle_alpha 90.000000
_cell_angle_beta 70.893084
_cell_angle_gamma 90.000000
_cell_volume 2383.418550
_symmetry_space_group_name_H-M "C 2/M"
_symmetry_group_IT_number 12
_symmetry_cell_setting 'monoclinic'
loop_
_space_group_symop_operation_xyz
x,y,z
-x,y,-z
-x,-y,-z
x,-y,z
1/2+x,1/2+y,z
1/2-x,1/2+y,-z
1/2-x,1/2-y,-z
1/2+x,1/2-y,z
loop_
_atom_site_type_symbol
_atom_site_label
_atom_site_fract_x
_atom_site_fract_y
_atom_site_fract_z
Si Si1 0.865053 0.329162 0.531523
Si Si2 0.734582 0.688661 0.333723
Si Si3 0.827200 0.080691 0.273103
Si Si4 0.373761 0.796778 0.031876
Si Si5 0.925158 0.920657 0.730022
Si Si6 0.833983 0.856548 0.006412
O O1 0.830199 0.333406 0.399992
O O2 0.842336 0.252824 0.592648
O O3 0.789102 0.384866 0.633188
O O4 0.000000 0.348507 0.500000
O O5 0.804343 0.709754 0.185747
O O6 0.643789 0.626557 0.342212
O O7 0.863206 0.112548 0.128243
O O8 0.935614 0.094309 0.326738
O O9 0.802182 0.000000 0.264618
O O10 0.390862 0.719879 0.968355
O O11 0.500000 0.831611 0.000000
O O12 0.305183 0.846568 0.961899
O O13 0.898934 0.000000 0.703649
O O14 0.883846 0.908118 0.885427
#
# Coordination Sequence:
#
# PCOD8098649 Si02
#       6
#     8   8   8   8   8   8
#     4  11  26  41  63  88 124 164 206 253 300 359
#     4  10  24  41  63  92 122 161 207 251 303 360
#     4  11  23  40  63  92 125 163 205 249 305 361
#     4  10  20  34  62  93 123 155 195 253 308 359
#     4  10  22  40  65  93 125 159 200 255 307 361
#     4  10  20  34  59  94 126 155 195 252 308 363
#
# _framework density 20.139140000000001
#
# number of rings (size 3 to 8) (size 9 to 14) (size 15 to 20)
#    0.000    1.667    1.667    2.000    7.000    2.333 
#    0.000    1.667    0.000    2.500    0.000    0.000 
#    0.000    0.000    0.000    0.000    0.000    0.000 
#
# Total GULP energy -297650.642927 kJ/mol
# GULP energy per Si atom -12402.110122 kJ/mol
# Density = 2.009330 g / cm^3
# Si number density = 20.139140 Si / 1000 Ang^3
#
#
#
# Elastic Constant Matrix: (Units=GPa)
#
#
# Indices 1 2 3 4 5 6 
#
# 1 164.8206 57.4866 25.2556 0.0000 2.9919 0.0000
# 2 57.4866 106.8529 25.2200 0.0000 4.4528 0.0000
# 3 25.2556 25.2200 54.5837 0.0000 12.9499 0.0000
# 4 0.0000 0.0000 0.0000 11.0068 0.0000 5.0440
# 5 2.9919 4.4528 12.9499 0.0000 29.6742 0.0000
# 6 0.0000 0.0000 0.0000 5.0440 0.0000 29.9510
#
#
#
# Elastic Compliance Matrix: (Units=1/GPa)
#
#
# Indices 1 2 3 4 5 6 
#
# 1 0.007640 -0.003666 -0.001995 0.000000 0.000651 0.000000
# 2 -0.003666 0.012273 -0.004044 0.000000 0.000293 0.000000
# 3 -0.001995 -0.004044 0.023337 0.000000 -0.009376 0.000000
# 4 0.000000 0.000000 0.000000 0.098451 0.000000 -0.016580
# 5 0.000651 0.000293 -0.009376 0.000000 0.037682 0.000000
# 6 0.000000 0.000000 0.000000 -0.016580 0.000000 0.036180
#
#
# Mechanical properties :
#
#
# Convention : Reuss Voigt Hill
#
# Bulk Modulus (GPa) = 41.94832 60.24242 51.09537
# Shear Modulus (GPa) = 20.58289 28.67938 24.63113
#
# Velocity S-wave (km/s) = 3.20040 3.77777 3.50100
# Velocity P-wave (km/s) = 5.87632 7.00048 6.46289
#
# Compressibility (1/GPa) = 0.02383886
#
# Stress axis : x y z
#
# Youngs Moduli (GPa) = 130.89138 81.47660 42.85111
#
# Poissons Ratio (x) = 0.29873 0.08550
# Poissons Ratio (y) = 0.47991 0.17328
# Poissons Ratio (z) = 0.26116 0.32948
#
# Static dielectric constant tensor:
#      x y z
#    x 3.877860 0.000000 0.196030 
#    y 0.000000 3.535400 0.000000 
#    z 0.196030 0.000000 3.568500 
# 
# 
# High freq. dielectric constant tensor:
#      x y z
#    x 1.799310 0.000000 0.011030 
#    y 0.000000 1.775470 0.000000 
#    z 0.011030 0.000000 1.784900 
# 
# From -- ./inp_files/131011.got.cif
#   From: 2010.06.25/outbox.cif.g09.slc.cpg/sg12_66_cif.got.tgz:131011.got - 2010.06.28 00:19:55.
