data_PCOD8098665
_publ_section_title
;
Structure prediction by ZEFSAII (Michael W. Deem and Ramdas Pophale) SiO2 
 PCOD8098665
Probable space group: C 2/M
;
_chemical_formula_sum "Si O2"
_cell_formula_units_Z 56
_cell_length_a 21.467853
_cell_length_b 17.741502
_cell_length_c 9.276797
_cell_angle_alpha 90.000000
_cell_angle_beta 124.537103
_cell_angle_gamma 90.000000
_cell_volume 2910.565274
_symmetry_space_group_name_H-M "C 2/M"
_symmetry_group_IT_number 12
_symmetry_cell_setting 'monoclinic'
loop_
_space_group_symop_operation_xyz
x,y,z
-x,y,-z
-x,-y,-z
x,-y,z
1/2+x,1/2+y,z
1/2-x,1/2+y,-z
1/2-x,1/2-y,-z
1/2+x,1/2-y,z
loop_
_atom_site_type_symbol
_atom_site_label
_atom_site_fract_x
_atom_site_fract_y
_atom_site_fract_z
Si Si1 0.812313 0.205824 0.168489
Si Si2 0.130393 0.087353 0.970968
Si Si3 0.324015 0.660741 0.687047
Si Si4 0.044916 0.303391 0.696180
Si Si5 0.015340 0.821574 0.179533
Si Si6 0.211038 0.327697 0.297222
Si Si7 0.070529 0.411532 0.990946
O O1 0.834281 0.129166 0.118347
O O2 0.882111 0.262540 0.273791
O O3 0.781285 0.180698 0.281707
O O4 0.750000 0.250000 0.000000
O O5 0.042908 0.110043 0.873750
O O6 0.136556 0.000000 0.947282
O O7 0.178777 0.107974 0.176584
O O8 0.400338 0.644307 0.696164
O O9 0.248005 0.645593 0.496641
O O10 0.330535 0.747721 0.744526
O O11 0.000000 0.336318 0.500000
O O12 0.994265 0.243266 0.715387
O O13 0.065999 0.371346 0.830050
O O14 0.000000 0.787022 0.000000
O O15 0.148978 0.388555 0.169982
O O16 0.072099 0.500000 0.963025
O O17 0.000000 0.389442 0.000000
#
# Coordination Sequence:
#
# PCOD8098665 Si02
#       7
#     8   8   8   8   8   8   8
#     4  11  20  38  60  86 117 150 188 233 284 347
#     4  10  21  37  58  85 121 156 185 228 288 345
#     4  10  20  34  61  89 114 143 196 244 277 332
#     4  11  21  36  63  87 111 143 193 240 284 334
#     4   9  18  35  59  87 113 151 186 227 281 343
#     4  11  21  38  60  85 114 149 193 240 288 337
#     4  11  24  41  57  77 112 155 193 235 291 344
#
# _framework density 19.240248999999999
#
# number of rings (size 3 to 8) (size 9 to 14) (size 15 to 20)
#    0.000    1.571    2.857    3.857    0.000    5.143 
#    0.000    0.000    0.000   14.571    0.000    0.000 
#    0.000    0.000    0.000    0.000    0.000    0.000 
#
# Total GULP energy -347238.097510 kJ/mol
# GULP energy per Si atom -12401.360625 kJ/mol
# Density = 1.919646 g / cm^3
# Si number density = 19.240249 Si / 1000 Ang^3
#
#
#
# Elastic Constant Matrix: (Units=GPa)
#
#
# Indices 1 2 3 4 5 6 
#
# 1 101.7740 35.0320 37.7173 0.0000 2.8140 0.0000
# 2 35.0320 108.9344 49.9529 0.0000 5.4766 0.0000
# 3 37.7173 49.9529 102.2861 0.0000 7.2715 0.0000
# 4 0.0000 0.0000 0.0000 13.0045 0.0000 1.1483
# 5 2.8140 5.4766 7.2715 0.0000 23.6534 0.0000
# 6 0.0000 0.0000 0.0000 1.1483 0.0000 18.0854
#
#
#
# Elastic Compliance Matrix: (Units=1/GPa)
#
#
# Indices 1 2 3 4 5 6 
#
# 1 0.011820 -0.002326 -0.003232 0.000000 0.000126 0.000000
# 2 -0.002326 0.012309 -0.005082 0.000000 -0.001011 0.000000
# 3 -0.003232 -0.005082 0.013637 0.000000 -0.002631 0.000000
# 4 0.000000 0.000000 0.000000 0.077330 0.000000 -0.004910
# 5 0.000126 -0.001011 -0.002631 0.000000 0.043305 0.000000
# 6 0.000000 0.000000 0.000000 -0.004910 0.000000 0.055605
#
#
# Mechanical properties :
#
#
# Convention : Reuss Voigt Hill
#
# Bulk Modulus (GPa) = 60.65104 62.04433 61.34768
# Shear Modulus (GPa) = 20.76572 23.63480 22.20026
#
# Velocity S-wave (km/s) = 3.28881 3.50866 3.40051
# Velocity P-wave (km/s) = 6.78330 6.98079 6.88275
#
# Compressibility (1/GPa) = 0.01648776
#
# Stress axis : x y z
#
# Youngs Moduli (GPa) = 84.59902 81.24232 73.32965
#
# Poissons Ratio (x) = 0.18894 0.23699
# Poissons Ratio (y) = 0.19674 0.37265
# Poissons Ratio (z) = 0.27342 0.41286
#
# Static dielectric constant tensor:
#      x y z
#    x 4.789550 0.000000 -0.387390 
#    y 0.000000 3.224400 0.000000 
#    z -0.387390 0.000000 3.618380 
# 
# 
# High freq. dielectric constant tensor:
#      x y z
#    x 1.762340 0.000000 0.002930 
#    y 0.000000 1.723770 0.000000 
#    z 0.002930 0.000000 1.752120 
# 
# From -- ./inp_files/88080.got.cif
#   From: 2010.06.25/outbox.cif.g09.slc.cpg/sg12_45_cif.got.tgz:88080.got - 2010.06.28 00:19:55.
