data_PCOD8098715
_publ_section_title
;
Structure prediction by ZEFSAII (Michael W. Deem and Ramdas Pophale) SiO2 
 PCOD8098715
Probable space group: C 2/M
;
_chemical_formula_sum "Si O2"
_cell_formula_units_Z 56
_cell_length_a 9.997057
_cell_length_b 15.637456
_cell_length_c 22.915674
_cell_angle_alpha 90.000000
_cell_angle_beta 124.745972
_cell_angle_gamma 90.000000
_cell_volume 2943.590038
_symmetry_space_group_name_H-M "C 2/M"
_symmetry_group_IT_number 12
_symmetry_cell_setting 'monoclinic'
loop_
_space_group_symop_operation_xyz
x,y,z
-x,y,-z
-x,-y,-z
x,-y,z
1/2+x,1/2+y,z
1/2-x,1/2+y,-z
1/2-x,1/2-y,-z
1/2+x,1/2-y,z
loop_
_atom_site_type_symbol
_atom_site_label
_atom_site_fract_x
_atom_site_fract_y
_atom_site_fract_z
Si Si1 0.753596 0.169942 0.679645
Si Si2 0.063761 0.324344 0.328376
Si Si3 0.826683 0.596488 0.453766
Si Si4 0.637230 0.168439 0.834488
Si Si5 0.761859 0.500000 0.083575
Si Si6 0.457906 0.331376 0.840749
Si Si7 0.671252 0.599268 0.527385
Si Si8 0.563975 0.500000 0.923309
O O1 0.827302 0.243575 0.658363
O O2 0.582085 0.199423 0.663978
O O3 0.737824 0.094380 0.628675
O O4 0.874077 0.138812 0.760015
O O5 0.185847 0.391164 0.388785
O O6 0.985464 0.357812 0.248215
O O7 0.850001 0.500000 0.481189
O O8 0.715409 0.641132 0.475393
O O9 0.000000 0.644594 0.500000
O O10 0.638785 0.086191 0.877233
O O11 0.571172 0.248656 0.856222
O O12 0.817849 0.190828 0.853978
O O13 0.601773 0.500000 0.082485
O O14 0.719490 0.500000 0.004513
O O15 0.569118 0.412149 0.887227
O O16 0.500000 0.644835 0.500000
O O17 0.637795 0.500000 0.511886
#
# Coordination Sequence:
#
# PCOD8098715 Si02
#       8
#     8   8   8   8   4   8   8   4
#     4  10  21  34  53  76 102 137 180 218 272 318
#     4  10  21  35  53  75 102 139 176 223 267 323
#     4  10  20  35  51  73 100 133 177 227 265 314
#     4   9  19  36  57  83 115 147 187 229 274 326
#     4   9  18  34  59  91 113 147 190 221 267 335
#     4   9  19  36  56  83 116 149 184 229 275 327
#     4  10  22  37  51  72 103 137 177 221 274 321
#     4   9  18  34  59  89 117 146 186 224 271 329
#
# _framework density 19.024387999999998
#
# number of rings (size 3 to 8) (size 9 to 14) (size 15 to 20)
#    0.000    2.429    1.429    0.000    4.000    1.714 
#    0.000    0.714    0.000    0.857    0.000    0.000 
#    0.000    0.000    0.000    0.000    0.000    0.000 
#
# Total GULP energy -346910.222298 kJ/mol
# GULP energy per Si atom -12389.650796 kJ/mol
# Density = 1.898109 g / cm^3
# Si number density = 19.024388 Si / 1000 Ang^3
#
#
#
# Elastic Constant Matrix: (Units=GPa)
#
#
# Indices 1 2 3 4 5 6 
#
# 1 125.9729 51.0916 56.2590 0.0000 -4.6595 0.0000
# 2 51.0916 88.1473 58.3792 0.0000 -4.0551 0.0000
# 3 56.2590 58.3792 126.2347 0.0000 -5.9531 0.0000
# 4 0.0000 0.0000 0.0000 24.9192 0.0000 -2.3496
# 5 -4.6595 -4.0551 -5.9531 0.0000 19.8496 0.0000
# 6 0.0000 0.0000 0.0000 -2.3496 0.0000 20.1678
#
#
#
# Elastic Compliance Matrix: (Units=1/GPa)
#
#
# Indices 1 2 3 4 5 6 
#
# 1 0.011049 -0.004513 -0.002798 0.000000 0.000833 0.000000
# 2 -0.004513 0.018220 -0.006380 0.000000 0.000750 0.000000
# 3 -0.002798 -0.006380 0.012199 0.000000 0.001699 0.000000
# 4 0.000000 0.000000 0.000000 0.040575 0.000000 0.004727
# 5 0.000833 0.000750 0.001699 0.000000 0.051237 0.000000
# 6 0.000000 0.000000 0.000000 0.004727 0.000000 0.050135
#
#
# Mechanical properties :
#
#
# Convention : Reuss Voigt Hill
#
# Bulk Modulus (GPa) = 70.98492 74.64605 72.81549
# Shear Modulus (GPa) = 23.20283 24.62899 23.91591
#
# Velocity S-wave (km/s) = 3.49612 3.60196 3.54943
# Velocity P-wave (km/s) = 7.32739 7.52469 7.42670
#
# Compressibility (1/GPa) = 0.01408750
#
# Stress axis : x y z
#
# Youngs Moduli (GPa) = 90.50764 54.88499 81.97334
#
# Poissons Ratio (x) = 0.24768 0.22935
# Poissons Ratio (y) = 0.40844 0.52295
# Poissons Ratio (z) = 0.25323 0.35014
#
# Static dielectric constant tensor:
#      x y z
#    x 3.785750 0.000000 -0.051410 
#    y 0.000000 3.278480 0.000000 
#    z -0.051410 0.000000 3.566560 
# 
# 
# High freq. dielectric constant tensor:
#      x y z
#    x 1.737750 0.000000 -0.005200 
#    y 0.000000 1.721980 0.000000 
#    z -0.005200 0.000000 1.741660 
# 
# From -- ./inp_files/333048.got.cif
#   From: 2010.06.25/outbox.cif.g09.slc.cpg/sg12_167_cif.got.tgz:333048.got - 2010.06.28 00:19:55.
