data_PCOD8098836
_publ_section_title
;
Structure prediction by ZEFSAII (Michael W. Deem and Ramdas Pophale) SiO2 
 PCOD8098836
Probable space group: C 2/M
;
_chemical_formula_sum "Si O2"
_cell_formula_units_Z 48
_cell_length_a 20.587050
_cell_length_b 7.707731
_cell_length_c 22.539082
_cell_angle_alpha 90.000000
_cell_angle_beta 44.118163
_cell_angle_gamma 90.000000
_cell_volume 2489.738513
_symmetry_space_group_name_H-M "C 2/M"
_symmetry_group_IT_number 12
_symmetry_cell_setting 'monoclinic'
loop_
_space_group_symop_operation_xyz
x,y,z
-x,y,-z
-x,-y,-z
x,-y,z
1/2+x,1/2+y,z
1/2-x,1/2+y,-z
1/2-x,1/2-y,-z
1/2+x,1/2-y,z
loop_
_atom_site_type_symbol
_atom_site_label
_atom_site_fract_x
_atom_site_fract_y
_atom_site_fract_z
Si Si1 0.813134 0.192566 0.739871
Si Si2 0.752735 0.804756 0.339543
Si Si3 0.516653 0.696307 0.300754
Si Si4 0.348364 0.000000 0.106951
Si Si5 0.519085 0.000000 0.084895
Si Si6 0.962112 0.791078 0.206868
Si Si7 0.835758 0.703282 0.485061
O O1 0.798167 0.301803 0.690187
O O2 0.893168 0.286380 0.727122
O O3 0.715998 0.172279 0.840451
O O4 0.846866 0.000000 0.697465
O O5 0.855757 0.722490 0.268865
O O6 0.688222 0.722031 0.433426
O O7 0.769795 0.000000 0.349449
O O8 0.546348 0.500000 0.270023
O O9 0.494450 0.773574 0.250712
O O10 0.427915 0.702582 0.401780
O O11 0.430735 0.000000 0.100067
O O12 0.386067 0.000000 0.015458
O O13 0.521596 0.178031 0.121325
O O14 0.973614 0.000000 0.188472
O O15 0.856825 0.500000 0.470802
O O16 0.750000 0.750000 0.500000
#
# Coordination Sequence:
#
# PCOD8098836 Si02
#       7
#     8   8   8   4   4   8   8
#     4   9  19  38  59  76 111 155 181 233 294 346
#     4  10  20  35  53  80 115 149 193 241 283 338
#     4  10  21  37  56  80 115 154 191 235 289 342
#     4   9  20  38  62  88 113 143 192 247 292 354
#     4  11  20  38  66  91 114 145 197 251 293 353
#     4  10  20  36  59  86 115 153 193 237 294 350
#     4  11  22  34  53  82 116 151 197 244 280 333
#
# _framework density 19.279133999999999
#
# number of rings (size 3 to 8) (size 9 to 14) (size 15 to 20)
#    0.500    1.500    3.333    0.500    1.167    2.667 
#    0.000    6.667    0.000    0.000    0.000    0.000 
#    0.000    0.000    0.000    0.000    0.000    0.000 
#
# Total GULP energy -297406.753017 kJ/mol
# GULP energy per Si atom -12391.948042 kJ/mol
# Density = 1.923525 g / cm^3
# Si number density = 19.279134 Si / 1000 Ang^3
#
#
#
# Elastic Constant Matrix: (Units=GPa)
#
#
# Indices 1 2 3 4 5 6 
#
# 1 152.5110 8.9080 65.7876 -0.0023 6.8511 0.0037
# 2 8.9080 44.5161 21.4634 -0.0027 9.8589 0.0108
# 3 65.7876 21.4634 153.3003 -0.0015 17.3712 0.0019
# 4 -0.0023 -0.0027 -0.0015 23.8387 0.0016 3.9009
# 5 6.8511 9.8589 17.3712 0.0016 30.1739 -0.0014
# 6 0.0037 0.0108 0.0019 3.9009 -0.0014 20.6190
#
#
#
# Elastic Compliance Matrix: (Units=1/GPa)
#
#
# Indices 1 2 3 4 5 6 
#
# 1 0.008047 0.000029 -0.003476 0.000001 0.000164 -0.000001
# 2 0.000029 0.025281 -0.002798 0.000006 -0.006656 -0.000015
# 3 -0.003476 -0.002798 0.008787 0.000000 -0.003355 0.000001
# 4 0.000001 0.000006 0.000000 0.043289 -0.000005 -0.008190
# 5 0.000164 -0.006656 -0.003355 -0.000005 0.037210 0.000007
# 6 -0.000001 -0.000015 0.000001 -0.008190 0.000007 0.050048
#
#
# Mechanical properties :
#
#
# Convention : Reuss Voigt Hill
#
# Bulk Modulus (GPa) = 33.75455 60.29391 47.02423
# Shear Modulus (GPa) = 25.63745 31.87089 28.75417
#
# Velocity S-wave (km/s) = 3.65060 4.07028 3.86614
# Velocity P-wave (km/s) = 5.94269 7.30969 6.66135
#
# Compressibility (1/GPa) = 0.02962563
#
# Stress axis : x y z
#
# Youngs Moduli (GPa) = 124.26533 39.55529 113.80664
#
# Poissons Ratio (x) = -0.00116 0.39561
# Poissons Ratio (y) = -0.00364 0.31842
# Poissons Ratio (z) = 0.43197 0.11067
#
# Static dielectric constant tensor:
#      x y z
#    x 3.621350 0.000000 0.033840 
#    y 0.000000 3.266210 0.000000 
#    z 0.033840 0.000000 3.537920 
# 
# 
# High freq. dielectric constant tensor:
#      x y z
#    x 1.755370 0.000000 0.007040 
#    y 0.000000 1.729190 0.000000 
#    z 0.007040 0.000000 1.737990 
# 
# From -- ./inp_files/319585.got.cif
#   From: 2010.06.25/outbox.cif.g09.slc.cpg/sg12_160_cif.got.tgz:319585.got - 2010.06.28 00:19:55.
