data_PCOD8098921
_publ_section_title
;
Structure prediction by ZEFSAII (Michael W. Deem and Ramdas Pophale) SiO2 
 PCOD8098921
Probable space group: C 2/M
;
_chemical_formula_sum "Si O2"
_cell_formula_units_Z 48
_cell_length_a 20.084382
_cell_length_b 8.727154
_cell_length_c 15.675062
_cell_angle_alpha 90.000000
_cell_angle_beta 71.930545
_cell_angle_gamma 90.000000
_cell_volume 2612.012767
_symmetry_space_group_name_H-M "C 2/M"
_symmetry_group_IT_number 12
_symmetry_cell_setting 'monoclinic'
loop_
_space_group_symop_operation_xyz
x,y,z
-x,y,-z
-x,-y,-z
x,-y,z
1/2+x,1/2+y,z
1/2-x,1/2+y,-z
1/2-x,1/2-y,-z
1/2+x,1/2-y,z
loop_
_atom_site_type_symbol
_atom_site_label
_atom_site_fract_x
_atom_site_fract_y
_atom_site_fract_z
Si Si1 0.683617 0.318495 0.072598
Si Si2 0.964574 0.180342 0.930460
Si Si3 0.658272 0.677710 0.601006
Si Si4 0.008741 0.179933 0.728839
Si Si5 0.866022 0.679280 0.738031
Si Si6 0.204662 0.823331 0.393352
O O1 0.688433 0.500000 0.070508
O O2 0.614614 0.258955 0.049923
O O3 0.679677 0.263166 0.171544
O O4 0.750000 0.250000 0.000000
O O5 0.009751 0.222359 0.828838
O O6 0.961619 0.000000 0.944587
O O7 0.000000 0.257368 0.000000
O O8 0.670218 0.500000 0.618922
O O9 0.581634 0.733683 0.659481
O O10 0.714190 0.776618 0.631256
O O11 0.665318 0.707503 0.497835
O O12 0.946551 0.267569 0.705794
O O13 0.995394 0.000000 0.721024
O O14 0.862035 0.500000 0.756367
O O15 0.833117 0.718011 0.660249
O O16 0.199800 0.000000 0.367871
#
# Coordination Sequence:
#
# PCOD8098921 Si02
#       6
#     8   8   8   8   8   8
#     4  10  20  35  55  79 107 138 173 216 265 315
#     4   8  15  29  50  75 101 131 168 208 250 302
#     4   9  19  35  55  78 105 140 178 218 269 327
#     4   9  18  34  54  76 105 139 176 218 265 319
#     4  11  22  36  54  76 105 141 181 222 266 316
#     4  10  20  35  54  77 107 139 176 223 270 319
#
# _framework density 18.376632000000001
#
# number of rings (size 3 to 8) (size 9 to 14) (size 15 to 20)
#    0.000    2.500    0.000    3.500    0.000    3.333 
#    0.000    6.667    0.000   12.500    0.000    0.000 
#    0.000    0.000    0.000    0.000    0.000    0.000 
#
# Total GULP energy -297628.620030 kJ/mol
# GULP energy per Si atom -12401.192501 kJ/mol
# Density = 1.833481 g / cm^3
# Si number density = 18.376632 Si / 1000 Ang^3
#
#
#
# Elastic Constant Matrix: (Units=GPa)
#
#
# Indices 1 2 3 4 5 6 
#
# 1 115.4796 37.1435 83.9466 0.0000 -10.7640 0.0000
# 2 37.1435 66.9177 32.8896 0.0000 -3.2127 0.0000
# 3 83.9466 32.8896 104.7188 0.0000 -10.5915 0.0000
# 4 0.0000 0.0000 0.0000 25.2056 0.0000 -1.6701
# 5 -10.7640 -3.2127 -10.5915 0.0000 41.9511 0.0000
# 6 0.0000 0.0000 0.0000 -1.6701 0.0000 30.5881
#
#
#
# Elastic Compliance Matrix: (Units=1/GPa)
#
#
# Indices 1 2 3 4 5 6 
#
# 1 0.021738 -0.004143 -0.016001 0.000000 0.001220 0.000000
# 2 -0.004143 0.018461 -0.002506 0.000000 -0.000282 0.000000
# 3 -0.016001 -0.002506 0.023324 0.000000 0.001591 0.000000
# 4 0.000000 0.000000 0.000000 0.039818 0.000000 0.002174
# 5 0.001220 -0.000282 0.001591 0.000000 0.024531 0.000000
# 6 0.000000 0.000000 0.000000 0.002174 0.000000 0.032811
#
#
# Mechanical properties :
#
#
# Convention : Reuss Voigt Hill
#
# Bulk Modulus (GPa) = 54.87247 66.11950 60.49598
# Shear Modulus (GPa) = 23.57858 28.42472 26.00165
#
# Velocity S-wave (km/s) = 3.58589 3.93719 3.76564
# Velocity P-wave (km/s) = 6.86072 7.53173 7.20404
#
# Compressibility (1/GPa) = 0.01822408
#
# Stress axis : x y z
#
# Youngs Moduli (GPa) = 46.00312 54.16753 42.87339
#
# Poissons Ratio (x) = 0.22440 0.68602
# Poissons Ratio (y) = 0.19058 0.10743
# Poissons Ratio (z) = 0.73610 0.13573
#
# Static dielectric constant tensor:
#      x y z
#    x -48.241460 0.000000 -0.361330 
#    y 0.000000 3.246090 0.000000 
#    z -0.361330 0.000000 3.472520 
# 
# 
# High freq. dielectric constant tensor:
#      x y z
#    x 1.716290 0.000000 -0.000460 
#    y 0.000000 1.700350 0.000000 
#    z -0.000460 0.000000 1.715140 
# 
# From -- ./inp_files/229877.got.cif
#   From: 2010.06.25/outbox.cif.g09.slc.cpg/sg12_115_cif.got.tgz:229877.got - 2010.06.28 00:19:55.
