data_PCOD8098473
_publ_section_title
;
Structure prediction by ZEFSAII (Michael W. Deem and Ramdas Pophale) SiO2 
 PCOD8098473
Probable space group: C 2/M
;
_chemical_formula_sum "Si O2"
_cell_formula_units_Z 56
_cell_length_a 28.740020
_cell_length_b 8.972518
_cell_length_c 21.341899
_cell_angle_alpha 90.000000
_cell_angle_beta 149.453681
_cell_angle_gamma 90.000000
_cell_volume 2797.040949
_symmetry_space_group_name_H-M "C 2/M"
_symmetry_group_IT_number 12
_symmetry_cell_setting 'monoclinic'
loop_
_space_group_symop_operation_xyz
x,y,z
-x,y,-z
-x,-y,-z
x,-y,z
1/2+x,1/2+y,z
1/2-x,1/2+y,-z
1/2-x,1/2-y,-z
1/2+x,1/2-y,z
loop_
_atom_site_type_symbol
_atom_site_label
_atom_site_fract_x
_atom_site_fract_y
_atom_site_fract_z
Si Si1 0.105490 0.674275 0.115124
Si Si2 0.795160 0.672796 0.641995
Si Si3 0.580542 0.826150 0.547081
Si Si4 0.210845 0.176650 0.892748
Si Si5 0.619752 0.172518 0.388997
Si Si6 0.497919 0.325427 0.336598
Si Si7 0.266585 0.324351 0.831918
O O1 0.117675 0.500000 0.114697
O O2 0.156945 0.720580 0.238293
O O3 0.145264 0.768299 0.103627
O O4 0.000000 0.717653 0.000000
O O5 0.766170 0.500000 0.608039
O O6 0.705417 0.770939 0.529032
O O7 0.866435 0.705291 0.668426
O O8 0.500000 0.777441 0.500000
O O9 0.569325 0.734114 0.470669
O O10 0.676555 0.780138 0.688597
O O11 0.575297 0.000000 0.524981
O O12 0.104489 0.222686 0.764205
O O13 0.265028 0.242142 0.896621
O O14 0.224200 0.000000 0.910950
O O15 0.250000 0.250000 0.000000
O O16 0.527298 0.255435 0.303909
O O17 0.607534 0.000000 0.388989
O O18 0.507430 0.500000 0.342219
O O19 0.272687 0.500000 0.850755
#
# Coordination Sequence:
#
# PCOD8098473 Si02
#       7
#     8   8   8   8   8   8   8
#     4  10  22  40  61  85 116 155 201 247 297 355
#     4   9  19  37  58  83 114 150 194 244 296 350
#     4  10  20  36  60  89 121 156 194 240 295 352
#     4  11  25  43  62  85 117 158 200 242 292 351
#     4  10  20  34  57  86 117 153 192 238 296 353
#     4  11  23  37  57  88 121 155 197 241 292 352
#     4  11  23  40  63  91 122 156 198 248 301 353
#
# _framework density 20.021156999999999
#
# number of rings (size 3 to 8) (size 9 to 14) (size 15 to 20)
#    0.000    1.714    1.429    2.571    0.000    8.000 
#    0.000    1.429    0.000    0.000    0.000    0.000 
#    0.000    0.000    0.000    0.000    0.000    0.000 
#
# Total GULP energy -347350.751852 kJ/mol
# GULP energy per Si atom -12405.383995 kJ/mol
# Density = 1.997559 g / cm^3
# Si number density = 20.021157 Si / 1000 Ang^3
#
#
#
# Elastic Constant Matrix: (Units=GPa)
#
#
# Indices 1 2 3 4 5 6 
#
# 1 152.1277 59.3170 51.3179 0.0000 -1.3216 0.0000
# 2 59.3170 80.4615 42.1791 0.0000 -1.9196 0.0000
# 3 51.3179 42.1791 81.1247 0.0000 -10.0299 0.0000
# 4 0.0000 0.0000 0.0000 29.5111 0.0000 0.4825
# 5 -1.3216 -1.9196 -10.0299 0.0000 32.3449 0.0000
# 6 0.0000 0.0000 0.0000 0.4825 0.0000 40.5017
#
#
#
# Elastic Compliance Matrix: (Units=1/GPa)
#
#
# Indices 1 2 3 4 5 6 
#
# 1 0.009887 -0.005455 -0.003544 0.000000 -0.001019 0.000000
# 2 -0.005455 0.020198 -0.007206 0.000000 -0.001259 0.000000
# 3 -0.003544 -0.007206 0.018972 0.000000 0.005310 0.000000
# 4 0.000000 0.000000 0.000000 0.033892 0.000000 -0.000404
# 5 -0.001019 -0.001259 0.005310 0.000000 0.032447 0.000000
# 6 0.000000 0.000000 0.000000 -0.000404 0.000000 0.024695
#
#
# Mechanical properties :
#
#
# Convention : Reuss Voigt Hill
#
# Bulk Modulus (GPa) = 60.07526 68.81577 64.44551
# Shear Modulus (GPa) = 28.08198 31.19821 29.64009
#
# Velocity S-wave (km/s) = 3.74921 3.95177 3.85182
# Velocity P-wave (km/s) = 6.98664 7.43425 7.21392
#
# Compressibility (1/GPa) = 0.01664579
#
# Stress axis : x y z
#
# Youngs Moduli (GPa) = 101.14032 49.51102 52.71018
#
# Poissons Ratio (x) = 0.27011 0.18680
# Poissons Ratio (y) = 0.55177 0.37982
# Poissons Ratio (z) = 0.35844 0.35677
#
# Static dielectric constant tensor:
#      x y z
#    x 3.866040 0.000000 0.029050 
#    y 0.000000 3.580680 0.000000 
#    z 0.029050 0.000000 3.625310 
# 
# 
# High freq. dielectric constant tensor:
#      x y z
#    x 1.800990 0.000000 0.000090 
#    y 0.000000 1.782580 0.000000 
#    z 0.000090 0.000000 1.769080 
# 
# From -- ./inp_files/329614.got.cif
#   From: 2010.06.25/outbox.cif.g09.slc.cpg/sg12_165_cif.got.tgz:329614.got - 2010.06.28 00:19:55.
