data_PCOD8098843
_publ_section_title
;
Structure prediction by ZEFSAII (Michael W. Deem and Ramdas Pophale) SiO2 
 PCOD8098843
Probable space group: C 2/M
;
_chemical_formula_sum "Si O2"
_cell_formula_units_Z 48
_cell_length_a 19.362582
_cell_length_b 9.212757
_cell_length_c 15.696801
_cell_angle_alpha 90.000000
_cell_angle_beta 77.361125
_cell_angle_gamma 90.000000
_cell_volume 2732.189670
_symmetry_space_group_name_H-M "C 2/M"
_symmetry_group_IT_number 12
_symmetry_cell_setting 'monoclinic'
loop_
_space_group_symop_operation_xyz
x,y,z
-x,y,-z
-x,-y,-z
x,-y,z
1/2+x,1/2+y,z
1/2-x,1/2+y,-z
1/2-x,1/2-y,-z
1/2+x,1/2-y,z
loop_
_atom_site_type_symbol
_atom_site_label
_atom_site_fract_x
_atom_site_fract_y
_atom_site_fract_z
Si Si1 0.569853 0.173067 0.026531
Si Si2 0.558782 0.828074 0.219534
Si Si3 0.176880 0.666104 0.859002
Si Si4 0.297364 0.169627 0.741366
Si Si5 0.096959 0.667362 0.706523
Si Si6 0.720784 0.328492 0.590212
O O1 0.574008 0.235752 0.121204
O O2 0.566501 0.000000 0.026772
O O3 0.500000 0.236352 0.000000
O O4 0.638865 0.223912 0.954864
O O5 0.621754 0.778848 0.265820
O O6 0.483744 0.774189 0.277241
O O7 0.554382 0.000000 0.212633
O O8 0.200146 0.500000 0.861740
O O9 0.247640 0.757043 0.825073
O O10 0.121590 0.685091 0.796912
O O11 0.274073 0.212597 0.652547
O O12 0.289726 0.000000 0.758852
O O13 0.103736 0.500000 0.674863
O O14 0.142945 0.767383 0.631485
O O15 0.716213 0.500000 0.576246
O O16 0.750000 0.250000 0.500000
#
# Coordination Sequence:
#
# PCOD8098843 Si02
#       6
#     8   8   8   8   8   8
#     4   9  14  23  43  72  99 125 165 205 227 257
#     4   9  16  28  47  71  99 130 161 195 233 273
#     4   9  16  27  46  71  96 127 167 202 228 264
#     4   9  19  33  48  69  99 128 154 192 243 288
#     4   9  16  29  51  74  95 123 160 196 232 275
#     4  10  20  35  54  73  93 120 155 193 237 291
#
# _framework density 17.568325999999999
#
# number of rings (size 3 to 8) (size 9 to 14) (size 15 to 20)
#    0.000    2.833    1.667    0.500    0.000    1.333 
#    0.000    1.667    0.000    6.500    0.000    0.000 
#    0.000    0.000    0.000    0.000    0.000    0.000 
#
# Total GULP energy -297539.716001 kJ/mol
# GULP energy per Si atom -12397.488167 kJ/mol
# Density = 1.752834 g / cm^3
# Si number density = 17.568326 Si / 1000 Ang^3
#
#
#
# Elastic Constant Matrix: (Units=GPa)
#
#
# Indices 1 2 3 4 5 6 
#
# 1 147.2740 37.0332 70.2500 0.0000 -17.7424 0.0000
# 2 37.0332 41.0965 42.9106 0.0000 -8.0671 0.0000
# 3 70.2500 42.9106 133.4415 0.0000 -21.7400 0.0000
# 4 0.0000 0.0000 0.0000 20.8197 0.0000 -7.0696
# 5 -17.7424 -8.0671 -21.7400 0.0000 22.1121 0.0000
# 6 0.0000 0.0000 0.0000 -7.0696 0.0000 21.2901
#
#
#
# Elastic Compliance Matrix: (Units=1/GPa)
#
#
# Indices 1 2 3 4 5 6 
#
# 1 0.009913 -0.005124 -0.003072 0.000000 0.003065 0.000000
# 2 -0.005124 0.039365 -0.009873 0.000000 0.000544 0.000000
# 3 -0.003072 -0.009873 0.013452 0.000000 0.007159 0.000000
# 4 0.000000 0.000000 0.000000 0.054135 0.000000 0.017976
# 5 0.003065 0.000544 0.007159 0.000000 0.054920 0.000000
# 6 0.000000 0.000000 0.000000 0.017976 0.000000 0.052939
#
#
# Mechanical properties :
#
#
# Convention : Reuss Voigt Hill
#
# Bulk Modulus (GPa) = 37.60245 69.13330 53.36787
# Shear Modulus (GPa) = 18.53729 24.28559 21.41144
#
# Velocity S-wave (km/s) = 3.25184 3.72203 3.49485
# Velocity P-wave (km/s) = 5.96232 7.60972 6.83583
#
# Compressibility (1/GPa) = 0.02659401
#
# Stress axis : x y z
#
# Youngs Moduli (GPa) = 100.87850 25.40299 74.33813
#
# Poissons Ratio (x) = 0.13016 0.22834
# Poissons Ratio (y) = 0.51690 0.73391
# Poissons Ratio (z) = 0.30986 0.25079
#
# Static dielectric constant tensor:
#      x y z
#    x 3.480420 0.000000 -0.077280 
#    y 0.000000 2.944700 0.000000 
#    z -0.077280 0.000000 3.250720 
# 
# 
# High freq. dielectric constant tensor:
#      x y z
#    x 1.680470 0.000000 -0.011420 
#    y 0.000000 1.641230 0.000000 
#    z -0.011420 0.000000 1.672850 
# 
# From -- ./inp_files/229976.got.cif
#   From: 2010.06.25/outbox.cif.g09.slc.cpg/sg12_115_cif.got.tgz:229976.got - 2010.06.28 00:19:55.
