data_PCOD8098621
_publ_section_title
;
Structure prediction by ZEFSAII (Michael W. Deem and Ramdas Pophale) SiO2 
 PCOD8098621
Probable space group: C 2/M
;
_chemical_formula_sum "Si O2"
_cell_formula_units_Z 56
_cell_length_a 12.193497
_cell_length_b 22.958170
_cell_length_c 10.849650
_cell_angle_alpha 90.000000
_cell_angle_beta 72.165015
_cell_angle_gamma 90.000000
_cell_volume 2891.292396
_symmetry_space_group_name_H-M "C 2/M"
_symmetry_group_IT_number 12
_symmetry_cell_setting 'monoclinic'
loop_
_space_group_symop_operation_xyz
x,y,z
-x,y,-z
-x,-y,-z
x,-y,z
1/2+x,1/2+y,z
1/2-x,1/2+y,-z
1/2-x,1/2-y,-z
1/2+x,1/2-y,z
loop_
_atom_site_type_symbol
_atom_site_label
_atom_site_fract_x
_atom_site_fract_y
_atom_site_fract_z
Si Si1 0.871803 0.620030 0.066783
Si Si2 0.194613 0.163240 0.716385
Si Si3 0.811666 0.567218 0.832141
Si Si4 0.259106 0.266237 0.854657
Si Si5 0.577957 0.936139 0.709383
Si Si6 0.110163 0.331448 0.541209
Si Si7 0.494114 0.716533 0.355640
O O1 0.799593 0.672074 0.150939
O O2 0.884974 0.567787 0.160520
O O3 0.806605 0.595386 0.969490
O O4 0.000000 0.644851 0.000000
O O5 0.225940 0.101524 0.769091
O O6 0.189243 0.213673 0.818811
O O7 0.285216 0.183119 0.582994
O O8 0.069439 0.162715 0.692194
O O9 0.771706 0.500000 0.850716
O O10 0.941382 0.572999 0.738162
O O11 0.385936 0.270586 0.752601
O O12 0.250000 0.250000 0.000000
O O13 0.645409 0.886917 0.611171
O O14 0.613638 0.000000 0.648505
O O15 0.082596 0.275202 0.634823
O O16 0.000000 0.349001 0.500000
O O17 0.500000 0.702701 0.500000
#
# Coordination Sequence:
#
# PCOD8098621 Si02
#       7
#     8   8   8   8   8   8   8
#     4  10  22  37  60  89 127 156 191 249 313 363
#     4  12  23  39  62  88 122 162 201 245 305 359
#     4  10  20  38  59  86 121 160 201 248 304 363
#     4  12  24  38  62  94 123 154 201 253 300 361
#     4  10  20  34  58  90 122 159 200 247 301 359
#     4  11  20  37  60  85 125 158 195 243 301 359
#     4  11  25  41  61  88 123 164 201 243 306 370
#
# _framework density 19.368500000000001
#
# number of rings (size 3 to 8) (size 9 to 14) (size 15 to 20)
#    0.000    1.143    5.714    1.714    6.000    2.571 
#    0.000    0.000    0.000    3.000    0.000    0.000 
#    0.000    0.000    0.000    0.000    0.000    0.000 
#
# Total GULP energy -347106.779230 kJ/mol
# GULP energy per Si atom -12396.670687 kJ/mol
# Density = 1.932442 g / cm^3
# Si number density = 19.368500 Si / 1000 Ang^3
#
#
#
# Elastic Constant Matrix: (Units=GPa)
#
#
# Indices 1 2 3 4 5 6 
#
# 1 72.7260 37.0405 31.5367 0.0000 14.7772 0.0000
# 2 37.0405 132.6500 33.8074 0.0000 11.2865 0.0000
# 3 31.5367 33.8074 95.9254 0.0000 5.8610 0.0000
# 4 0.0000 0.0000 0.0000 20.6124 0.0000 -1.4002
# 5 14.7772 11.2865 5.8610 0.0000 24.2800 0.0000
# 6 0.0000 0.0000 0.0000 -1.4002 0.0000 21.5375
#
#
#
# Elastic Compliance Matrix: (Units=1/GPa)
#
#
# Indices 1 2 3 4 5 6 
#
# 1 0.019342 -0.003462 -0.004586 0.000000 -0.009056 0.000000
# 2 -0.003462 0.009153 -0.001986 0.000000 -0.001669 0.000000
# 3 -0.004586 -0.001986 0.012591 0.000000 0.000675 0.000000
# 4 0.000000 0.000000 0.000000 0.048730 0.000000 0.003168
# 5 -0.009056 -0.001669 0.000675 0.000000 0.047310 0.000000
# 6 0.000000 0.000000 0.000000 0.003168 0.000000 0.046637
#
#
# Mechanical properties :
#
#
# Convention : Reuss Voigt Hill
#
# Bulk Modulus (GPa) = 47.57412 56.23007 51.90209
# Shear Modulus (GPa) = 23.71511 26.54709 25.13110
#
# Velocity S-wave (km/s) = 3.50296 3.70622 3.60602
# Velocity P-wave (km/s) = 6.40132 6.88546 6.64780
#
# Compressibility (1/GPa) = 0.02101983
#
# Stress axis : x y z
#
# Youngs Moduli (GPa) = 51.70140 109.24914 79.42172
#
# Poissons Ratio (x) = 0.37819 0.36419
# Poissons Ratio (y) = 0.17898 0.15773
# Poissons Ratio (z) = 0.23708 0.21696
#
# Static dielectric constant tensor:
#      x y z
#    x 3.611680 0.000000 0.158130 
#    y 0.000000 3.517150 0.000000 
#    z 0.158130 0.000000 3.657220 
# 
# 
# High freq. dielectric constant tensor:
#      x y z
#    x 1.729050 0.000000 0.019640 
#    y 0.000000 1.746480 0.000000 
#    z 0.019640 0.000000 1.763390 
# 
# From -- ./inp_files/133860.got.cif
#   From: 2010.06.25/outbox.cif.g09.slc.cpg/sg12_67_cif.got.tgz:133860.got - 2010.06.28 00:19:55.
