data_PCOD8098471
_publ_section_title
;
Structure prediction by ZEFSAII (Michael W. Deem and Ramdas Pophale) SiO2 
 PCOD8098471
Probable space group: C 2/M
;
_chemical_formula_sum "Si O2"
_cell_formula_units_Z 56
_cell_length_a 20.620554
_cell_length_b 8.713691
_cell_length_c 14.700157
_cell_angle_alpha 90.000000
_cell_angle_beta 86.159607
_cell_angle_gamma 90.000000
_cell_volume 2635.409770
_symmetry_space_group_name_H-M "C 2/M"
_symmetry_group_IT_number 12
_symmetry_cell_setting 'monoclinic'
loop_
_space_group_symop_operation_xyz
x,y,z
-x,y,-z
-x,-y,-z
x,-y,z
1/2+x,1/2+y,z
1/2-x,1/2+y,-z
1/2-x,1/2-y,-z
1/2+x,1/2-y,z
loop_
_atom_site_type_symbol
_atom_site_label
_atom_site_fract_x
_atom_site_fract_y
_atom_site_fract_z
Si Si1 0.271803 0.675374 0.127621
Si Si2 0.494071 0.319357 0.717486
Si Si3 0.976753 0.678230 0.904792
Si Si4 0.765560 0.820106 0.332614
Si Si5 0.890029 0.817605 0.425398
Si Si6 0.879149 0.317879 0.618675
Si Si7 0.847533 0.826642 0.948829
O O1 0.245530 0.500000 0.123776
O O2 0.289963 0.718783 0.228780
O O3 0.218235 0.794586 0.099117
O O4 0.335424 0.694377 0.058347
O O5 0.485104 0.500000 0.714695
O O6 0.510956 0.267077 0.818536
O O7 0.553344 0.265434 0.648429
O O8 0.426563 0.242578 0.692798
O O9 0.993211 0.500000 0.893773
O O10 0.899802 0.706189 0.907987
O O11 0.000000 0.744547 0.000000
O O12 0.820374 0.754007 0.395694
O O13 0.693845 0.750831 0.358269
O O14 0.761716 0.000000 0.348111
O O15 0.905622 0.740768 0.519948
O O16 0.889465 0.000000 0.436551
O O17 0.879411 0.500000 0.622020
O O18 0.870483 0.000000 0.925294
#
# Coordination Sequence:
#
# PCOD8098471 Si02
#       7
#     8   8   8   8   8   8   8
#     4   9  18  34  58  84 116 156 198 246 299 352
#     4  11  24  41  65  91 118 157 205 253 300 357
#     4  11  25  42  60  84 120 159 195 244 305 364
#     4   9  19  36  59  86 116 156 200 245 299 351
#     4  10  22  40  62  88 121 157 202 254 302 352
#     4  11  22  38  63  91 124 162 200 244 299 364
#     4  10  20  34  57  86 116 153 202 249 293 351
#
# _framework density 21.249067
#
# number of rings (size 3 to 8) (size 9 to 14) (size 15 to 20)
#    0.000    1.857    0.000    3.429    2.000    5.714 
#    0.000    2.143    0.000    0.000    0.000    0.000 
#    0.000    0.000    0.000    0.000    0.000    0.000 
#
# Total GULP energy -347247.344644 kJ/mol
# GULP energy per Si atom -12401.690880 kJ/mol
# Density = 2.120070 g / cm^3
# Si number density = 21.249067 Si / 1000 Ang^3
#
#
#
# Elastic Constant Matrix: (Units=GPa)
#
#
# Indices 1 2 3 4 5 6 
#
# 1 85.0565 20.2942 24.6463 0.0000 -2.3098 0.0000
# 2 20.2942 47.7731 26.4857 0.0000 -3.2790 0.0000
# 3 24.6463 26.4857 128.5758 0.0000 -2.5545 0.0000
# 4 0.0000 0.0000 0.0000 32.0442 0.0000 0.8553
# 5 -2.3098 -3.2790 -2.5545 0.0000 33.6059 0.0000
# 6 0.0000 0.0000 0.0000 0.8553 0.0000 24.0341
#
#
#
# Elastic Compliance Matrix: (Units=1/GPa)
#
#
# Indices 1 2 3 4 5 6 
#
# 1 0.013362 -0.004783 -0.001569 0.000000 0.000332 0.000000
# 2 -0.004783 0.025470 -0.004293 0.000000 0.001830 0.000000
# 3 -0.001569 -0.004293 0.008966 0.000000 0.000155 0.000000
# 4 0.000000 0.000000 0.000000 0.031237 0.000000 -0.001112
# 5 0.000332 0.001830 0.000155 0.000000 0.029970 0.000000
# 6 0.000000 0.000000 0.000000 -0.001112 0.000000 0.041647
#
#
# Mechanical properties :
#
#
# Convention : Reuss Voigt Hill
#
# Bulk Modulus (GPa) = 37.72773 44.91756 41.32265
# Shear Modulus (GPa) = 27.65808 30.60211 29.13009
#
# Velocity S-wave (km/s) = 3.61170 3.79906 3.70657
# Velocity P-wave (km/s) = 5.93179 6.35833 6.14876
#
# Compressibility (1/GPa) = 0.02650570
#
# Stress axis : x y z
#
# Youngs Moduli (GPa) = 74.83936 39.26161 111.53455
#
# Poissons Ratio (x) = 0.18780 0.17504
# Poissons Ratio (y) = 0.35798 0.47886
# Poissons Ratio (z) = 0.11745 0.16857
#
# Static dielectric constant tensor:
#      x y z
#    x 3.897400 0.000000 -0.080320 
#    y 0.000000 3.538010 0.000000 
#    z -0.080320 0.000000 4.044650 
# 
# 
# High freq. dielectric constant tensor:
#      x y z
#    x 1.830470 0.000000 -0.006030 
#    y 0.000000 1.812730 0.000000 
#    z -0.006030 0.000000 1.849100 
# 
# From -- ./inp_files/231063.got.cif
#   From: 2010.06.25/outbox.cif.g09.slc.cpg/sg12_116_cif.got.tgz:231063.got - 2010.06.28 00:19:55.
