data_PCOD8098341
_publ_section_title
;
Structure prediction by ZEFSAII (Michael W. Deem and Ramdas Pophale) SiO2 
 PCOD8098341
Probable space group: C 2/M
;
_chemical_formula_sum "Si O2"
_cell_formula_units_Z 64
_cell_length_a 29.920451
_cell_length_b 9.585918
_cell_length_c 22.966259
_cell_angle_alpha 90.000000
_cell_angle_beta 149.136601
_cell_angle_gamma 90.000000
_cell_volume 3379.119493
_symmetry_space_group_name_H-M "C 2/M"
_symmetry_group_IT_number 12
_symmetry_cell_setting 'monoclinic'
loop_
_space_group_symop_operation_xyz
x,y,z
-x,y,-z
-x,-y,-z
x,-y,z
1/2+x,1/2+y,z
1/2-x,1/2+y,-z
1/2-x,1/2-y,-z
1/2+x,1/2-y,z
loop_
_atom_site_type_symbol
_atom_site_label
_atom_site_fract_x
_atom_site_fract_y
_atom_site_fract_z
Si Si1 0.232498 0.660887 0.728811
Si Si2 0.689132 0.844680 0.276292
Si Si3 0.064715 0.159603 0.518732
Si Si4 0.359622 0.343207 0.970755
Si Si5 0.333673 0.663005 0.075695
Si Si6 0.806031 0.838900 0.517121
Si Si7 0.486283 0.335003 0.667017
Si Si8 0.502482 0.158055 0.936906
O O1 0.217950 0.500000 0.695811
O O2 0.303111 0.728724 0.764800
O O3 0.143468 0.742378 0.623666
O O4 0.269275 0.678376 0.835108
O O5 0.762842 0.821243 0.406114
O O6 0.593934 0.829614 0.198627
O O7 0.698254 0.000000 0.258995
O O8 0.023320 0.212161 0.411285
O O9 0.000000 0.173170 0.500000
O O10 0.096924 0.000000 0.547577
O O11 0.393820 0.500000 0.000531
O O12 0.342780 0.308418 0.018167
O O13 0.435294 0.244750 0.033933
O O14 0.318876 0.500000 0.073538
O O15 0.421107 0.720915 0.205374
O O16 0.250000 0.750000 0.000000
O O17 0.750000 0.750000 0.500000
O O18 0.905369 0.783336 0.617711
O O19 0.804802 0.000000 0.536481
O O20 0.485874 0.500000 0.670238
O O21 0.537174 0.000000 0.976151
O O22 0.500000 0.216086 0.000000
#
# Coordination Sequence:
#
# PCOD8098341 Si02
#       8
#     8   8   8   8   8   8   8   8
#     4  11  22  36  56  85 118 152 189 234 290 348
#     4  10  20  37  57  80 116 153 190 240 288 336
#     4  10  21  38  63  89 111 143 188 239 293 348
#     4  10  23  39  56  82 120 158 192 234 289 352
#     4  10  23  43  63  85 114 154 200 244 291 345
#     4  10  21  37  58  83 116 153 190 237 286 342
#     4   9  19  39  62  85 115 150 191 237 288 342
#     4  10  20  34  56  85 113 148 192 237 280 332
#
# _framework density 18.939845999999999
#
# number of rings (size 3 to 8) (size 9 to 14) (size 15 to 20)
#    0.000    2.000    2.500    0.375    3.500    2.500 
#    0.000    1.250    0.000    0.000    0.000    0.000 
#    0.000    0.000    0.000    0.000    0.000    0.000 
#
# Total GULP energy -396717.246455 kJ/mol
# GULP energy per Si atom -12397.413952 kJ/mol
# Density = 1.889674 g / cm^3
# Si number density = 18.939846 Si / 1000 Ang^3
#
#
#
# Elastic Constant Matrix: (Units=GPa)
#
#
# Indices 1 2 3 4 5 6 
#
# 1 109.4530 62.9747 69.2472 0.0000 8.1799 0.0000
# 2 62.9747 88.4114 58.7596 0.0000 5.6255 0.0000
# 3 69.2472 58.7596 146.8605 0.0000 11.6413 0.0000
# 4 0.0000 0.0000 0.0000 23.6450 0.0000 7.1026
# 5 8.1799 5.6255 11.6413 0.0000 28.5439 0.0000
# 6 0.0000 0.0000 0.0000 7.1026 0.0000 33.5452
#
#
#
# Elastic Compliance Matrix: (Units=1/GPa)
#
#
# Indices 1 2 3 4 5 6 
#
# 1 0.017401 -0.009436 -0.004322 0.000000 -0.001365 0.000000
# 2 -0.009436 0.020533 -0.003782 0.000000 0.000200 0.000000
# 3 -0.004322 -0.003782 0.010544 0.000000 -0.002316 0.000000
# 4 0.000000 0.000000 0.000000 0.045165 0.000000 -0.009563
# 5 -0.001365 0.000200 -0.002316 0.000000 0.036330 0.000000
# 6 0.000000 0.000000 0.000000 -0.009563 0.000000 0.031835
#
#
# Mechanical properties :
#
#
# Convention : Reuss Voigt Hill
#
# Bulk Modulus (GPa) = 74.63208 80.74312 77.68760
# Shear Modulus (GPa) = 24.83202 27.39639 26.11420
#
# Velocity S-wave (km/s) = 3.62484 3.80741 3.71724
# Velocity P-wave (km/s) = 7.55047 7.87733 7.71563
#
# Compressibility (1/GPa) = 0.01339906
#
# Stress axis : x y z
#
# Youngs Moduli (GPa) = 57.46650 48.70297 94.84406
#
# Poissons Ratio (x) = 0.45956 0.40987
# Poissons Ratio (y) = 0.54225 0.35869
# Poissons Ratio (z) = 0.24834 0.18419
#
# Static dielectric constant tensor:
#      x y z
#    x 7.862230 0.000000 -0.659070 
#    y 0.000000 3.400740 0.000000 
#    z -0.659070 0.000000 3.923520 
# 
# 
# High freq. dielectric constant tensor:
#      x y z
#    x 1.732760 0.000000 0.001790 
#    y 0.000000 1.719070 0.000000 
#    z 0.001790 0.000000 1.751980 
# 
# From -- ./inp_files/353565.got.cif
#   From: 2010.06.25/outbox.cif.g09.slc.cpg/sg12_177_cif.got.tgz:353565.got - 2010.06.28 00:19:55.
