data_PCOD8098911
_publ_section_title
;
Structure prediction by ZEFSAII (Michael W. Deem and Ramdas Pophale) SiO2 
 PCOD8098911
Probable space group: C 2/M
;
_chemical_formula_sum "Si O2"
_cell_formula_units_Z 64
_cell_length_a 10.322721
_cell_length_b 19.167661
_cell_length_c 22.245468
_cell_angle_alpha 90.000000
_cell_angle_beta 125.669596
_cell_angle_gamma 90.000000
_cell_volume 3575.782261
_symmetry_space_group_name_H-M "C 2/M"
_symmetry_group_IT_number 12
_symmetry_cell_setting 'monoclinic'
loop_
_space_group_symop_operation_xyz
x,y,z
-x,y,-z
-x,-y,-z
x,-y,z
1/2+x,1/2+y,z
1/2-x,1/2+y,-z
1/2-x,1/2-y,-z
1/2+x,1/2-y,z
loop_
_atom_site_type_symbol
_atom_site_label
_atom_site_fract_x
_atom_site_fract_y
_atom_site_fract_z
Si Si1 0.561716 0.581537 0.451529
Si Si2 0.396189 0.170991 0.308384
Si Si3 0.957487 0.919490 0.084401
Si Si4 0.755148 0.580612 0.084316
Si Si5 0.571672 0.080366 0.454218
Si Si6 0.525009 0.668605 0.212778
Si Si7 0.612937 0.666833 0.697137
Si Si8 0.481678 0.830398 0.788588
O O1 0.500000 0.604125 0.500000
O O2 0.537322 0.500000 0.433413
O O3 0.745040 0.603530 0.495079
O O4 0.458645 0.621531 0.375092
O O5 0.478187 0.128506 0.383162
O O6 0.210977 0.152068 0.257122
O O7 0.422345 0.252693 0.327409
O O8 0.475685 0.147390 0.267608
O O9 0.119654 0.896424 0.094943
O O10 0.930365 0.874144 0.136569
O O11 0.968248 0.000000 0.105965
O O12 0.807854 0.906703 0.000122
O O13 0.799473 0.500000 0.105923
O O14 0.911873 0.626778 0.135706
O O15 0.500000 0.093165 0.500000
O O16 0.553897 0.000000 0.429179
O O17 0.467323 0.643575 0.262339
O O18 0.483158 0.749211 0.191527
O O19 0.799694 0.651295 0.752575
#
# Coordination Sequence:
#
# PCOD8098911 Si02
#       8
#     8   8   8   8   8   8   8   8
#     4  10  21  37  53  72 102 138 174 215 265 322
#     4  10  20  35  54  77 104 138 180 222 260 314
#     4   9  18  34  57  83 108 139 181 225 266 311
#     4   9  18  34  57  83 108 138 183 227 259 309
#     4  10  21  35  53  78 104 132 174 227 272 312
#     4  10  20  35  54  79 112 142 174 221 271 317
#     4  10  22  35  52  79 108 140 176 216 268 321
#     4  10  20  35  54  79 110 142 180 220 260 318
#
# _framework density 17.89818
#
# number of rings (size 3 to 8) (size 9 to 14) (size 15 to 20)
#    0.000    2.250    1.250    2.250    0.000    3.500 
#    0.000    0.625    0.000    1.500    0.000    0.000 
#    0.000    0.000    0.000    0.000    0.000    0.000 
#
# Total GULP energy -396927.621462 kJ/mol
# GULP energy per Si atom -12403.988171 kJ/mol
# Density = 1.785744 g / cm^3
# Si number density = 17.898180 Si / 1000 Ang^3
#
#
#
# Elastic Constant Matrix: (Units=GPa)
#
#
# Indices 1 2 3 4 5 6 
#
# 1 68.9320 25.1610 17.5886 0.0000 -11.0906 0.0000
# 2 25.1610 64.9006 64.3058 0.0000 -1.3783 0.0000
# 3 17.5886 64.3058 106.3023 0.0000 -8.1191 0.0000
# 4 0.0000 0.0000 0.0000 47.7249 0.0000 -2.0917
# 5 -11.0906 -1.3783 -8.1191 0.0000 25.8774 0.0000
# 6 0.0000 0.0000 0.0000 -2.0917 0.0000 19.7570
#
#
#
# Elastic Compliance Matrix: (Units=1/GPa)
#
#
# Indices 1 2 3 4 5 6 
#
# 1 0.019096 -0.011893 0.004725 0.000000 0.009033 0.000000
# 2 -0.011893 0.046613 -0.027079 0.000000 -0.011110 0.000000
# 3 0.004725 -0.027079 0.025666 0.000000 0.008635 0.000000
# 4 0.000000 0.000000 0.000000 0.021051 0.000000 0.002229
# 5 0.009033 -0.011110 0.008635 0.000000 0.044633 0.000000
# 6 0.000000 0.000000 0.000000 0.002229 0.000000 0.050851
#
#
# Mechanical properties :
#
#
# Convention : Reuss Voigt Hill
#
# Bulk Modulus (GPa) = 43.70366 50.47173 47.08769
# Shear Modulus (GPa) = 17.60373 27.54383 22.57378
#
# Velocity S-wave (km/s) = 3.13956 3.92716 3.55524
# Velocity P-wave (km/s) = 6.13298 6.98742 6.57409
#
# Compressibility (1/GPa) = 0.02288138
#
# Stress axis : x y z
#
# Youngs Moduli (GPa) = 52.36756 21.45302 38.96227
#
# Poissons Ratio (x) = 0.25513 -0.18408
# Poissons Ratio (y) = 0.62279 1.05505
# Poissons Ratio (z) = -0.24741 0.58092
#
# Static dielectric constant tensor:
#      x y z
#    x 3.398490 0.000000 -0.007450 
#    y 0.000000 3.242130 0.000000 
#    z -0.007450 0.000000 3.212480 
# 
# 
# High freq. dielectric constant tensor:
#      x y z
#    x 1.696790 0.000000 -0.000800 
#    y 0.000000 1.688570 0.000000 
#    z -0.000800 0.000000 1.697230 
# 
# From -- ./inp_files/306235.got.cif
#   From: 2010.06.25/outbox.cif.g09.slc.cpg/sg12_154_cif.got.tgz:306235.got - 2010.06.28 00:19:55.
