data_PCOD8098968
_publ_section_title
;
Structure prediction by ZEFSAII (Michael W. Deem and Ramdas Pophale) SiO2 
 PCOD8098968
Probable space group: C 2/M
;
_chemical_formula_sum "Si O2"
_cell_formula_units_Z 40
_cell_length_a 17.809756
_cell_length_b 13.964973
_cell_length_c 11.838771
_cell_angle_alpha 90.000000
_cell_angle_beta 131.662016
_cell_angle_gamma 90.000000
_cell_volume 2199.739412
_symmetry_space_group_name_H-M "C 2/M"
_symmetry_group_IT_number 12
_symmetry_cell_setting 'monoclinic'
loop_
_space_group_symop_operation_xyz
x,y,z
-x,y,-z
-x,-y,-z
x,-y,z
1/2+x,1/2+y,z
1/2-x,1/2+y,-z
1/2-x,1/2-y,-z
1/2+x,1/2-y,z
loop_
_atom_site_type_symbol
_atom_site_label
_atom_site_fract_x
_atom_site_fract_y
_atom_site_fract_z
Si Si1 0.384034 0.741399 0.016749
Si Si2 0.763224 0.887303 0.479531
Si Si3 0.236776 0.887303 0.953083
Si Si4 0.611111 0.386857 0.611111
Si Si5 0.615966 0.258601 0.248681
O O1 0.343881 0.835013 0.043719
O O2 0.369812 0.756252 0.869812
O O3 0.320467 0.648142 0.991694
O O4 0.500000 0.726164 0.164599
O O5 0.830995 0.853210 0.442161
O O6 0.656119 0.835014 0.355957
O O7 0.820467 0.851858 0.649241
O O8 0.744571 0.000000 0.467763
O O9 0.169005 0.853211 0.780171
O O10 0.255430 0.000000 0.978622
O O11 0.500000 0.340584 0.500000
O O12 0.602847 0.500000 0.602847
#
# Coordination Sequence:
#
# PCOD8098968 Si02
#       5
#     8   8   8   8   8
#     4  10  21  36  55  81 111 142 178 222 271 320
#     4  10  20  35  54  79 109 142 181 221 265 319
#     4  10  20  35  54  79 109 142 181 221 265 319
#     4   9  16  28  49  75 100 131 173 217 259 305
#     4  10  21  36  55  81 111 142 178 222 271 320
#
# _framework density 18.183973000000002
#
# number of rings (size 3 to 8) (size 9 to 14) (size 15 to 20)
#    0.000    2.200    2.000    1.200    0.000    4.000 
#    0.000    4.000    0.000    0.000    0.000    5.600 
#    0.000    0.000    0.000    0.000    0.000    0.000 
#
# Total GULP energy -247992.631594 kJ/mol
# GULP energy per Si atom -12399.631580 kJ/mol
# Density = 1.814259 g / cm^3
# Si number density = 18.183973 Si / 1000 Ang^3
#
#
#
# Elastic Constant Matrix: (Units=GPa)
#
#
# Indices 1 2 3 4 5 6 
#
# 1 82.9424 24.1782 22.0172 0.0000 0.7753 0.0000
# 2 24.1782 96.5971 26.5796 0.0000 -8.3379 0.0000
# 3 22.0172 26.5796 80.8067 0.0000 6.6392 0.0000
# 4 0.0000 0.0000 0.0000 21.8559 0.0000 -0.7641
# 5 0.7753 -8.3379 6.6392 0.0000 9.9900 0.0000
# 6 0.0000 0.0000 0.0000 -0.7641 0.0000 21.6357
#
#
#
# Elastic Compliance Matrix: (Units=1/GPa)
#
#
# Indices 1 2 3 4 5 6 
#
# 1 0.013595 -0.002819 -0.002641 0.000000 -0.001652 0.000000
# 2 -0.002819 0.013719 -0.004975 0.000000 0.014976 0.000000
# 3 -0.002641 -0.004975 0.015925 0.000000 -0.014531 0.000000
# 4 0.000000 0.000000 0.000000 0.045811 0.000000 0.001618
# 5 -0.001652 0.014976 -0.014531 0.000000 0.122385 0.000000
# 6 0.000000 0.000000 0.000000 0.001618 0.000000 0.046277
#
#
# Mechanical properties :
#
#
# Convention : Reuss Voigt Hill
#
# Bulk Modulus (GPa) = 44.70401 45.09958 44.90179
# Shear Modulus (GPa) = 17.48013 23.20105 20.34059
#
# Velocity S-wave (km/s) = 3.10384 3.57586 3.34818
# Velocity P-wave (km/s) = 6.12231 6.47338 6.30029
#
# Compressibility (1/GPa) = 0.02236936
#
# Stress axis : x y z
#
# Youngs Moduli (GPa) = 73.55766 72.88950 62.79337
#
# Poissons Ratio (x) = 0.20545 0.16585
# Poissons Ratio (y) = 0.20733 0.31241
# Poissons Ratio (z) = 0.19429 0.36264
#
# Static dielectric constant tensor:
#      x y z
#    x 3.459180 0.000000 0.082360 
#    y 0.000000 3.092550 0.000000 
#    z 0.082360 0.000000 3.435460 
# 
# 
# High freq. dielectric constant tensor:
#      x y z
#    x 1.708620 0.000000 0.002880 
#    y 0.000000 1.686500 0.000000 
#    z 0.002880 0.000000 1.707790 
# 
# From -- ./inp_files/153288.got.cif
#   From: 2010.06.25/outbox.cif.g09.slc.cpg/sg12_77_cif.got.tgz:153288.got - 2010.06.28 00:19:55.
