data_PCOD8098201
_publ_section_title
;
Structure prediction by ZEFSAII (Michael W. Deem and Ramdas Pophale) SiO2 
 PCOD8098201
Probable space group: C 2/M
;
_chemical_formula_sum "Si O2"
_cell_formula_units_Z 44
_cell_length_a 18.565208
_cell_length_b 13.850897
_cell_length_c 8.792516
_cell_angle_alpha 90.000000
_cell_angle_beta 92.685168
_cell_angle_gamma 90.000000
_cell_volume 2258.467184
_symmetry_space_group_name_H-M "C 2/M"
_symmetry_group_IT_number 12
_symmetry_cell_setting 'monoclinic'
loop_
_space_group_symop_operation_xyz
x,y,z
-x,y,-z
-x,-y,-z
x,-y,z
1/2+x,1/2+y,z
1/2-x,1/2+y,-z
1/2-x,1/2-y,-z
1/2+x,1/2-y,z
loop_
_atom_site_type_symbol
_atom_site_label
_atom_site_fract_x
_atom_site_fract_y
_atom_site_fract_z
Si Si1 0.500000 0.651822 0.500000
Si Si2 0.508440 0.113872 0.177435
Si Si3 0.789693 0.107699 0.764641
Si Si4 0.634638 0.889221 0.667455
Si Si5 0.120712 0.272513 0.382241
Si Si6 0.381522 0.500000 0.972543
Si Si7 0.985050 0.000000 0.241754
O O1 0.569799 0.715545 0.490900
O O2 0.489652 0.593384 0.344937
O O3 0.437105 0.152853 0.258209
O O4 0.577769 0.171995 0.245223
O O5 0.521258 0.000000 0.203112
O O6 0.500000 0.138989 0.000000
O O7 0.704577 0.126243 0.782742
O O8 0.820785 0.198272 0.676543
O O9 0.799768 0.000000 0.683835
O O10 0.832618 0.095742 0.930221
O O11 0.655968 0.847807 0.503418
O O12 0.617363 0.000000 0.638498
O O13 0.450269 0.500000 0.869495
O O14 0.407678 0.500000 0.148333
#
# Coordination Sequence:
#
# PCOD8098201 Si02
#       7
#     4   8   8   8   8   4   4
#     4  11  20  32  53  86 118 142 191 240 277 326
#     4  10  22  39  60  84 111 149 196 246 284 332
#     4   9  20  37  58  84 118 153 185 233 286 346
#     4  10  20  38  61  80 115 154 192 237 290 337
#     4  12  20  35  58  90 113 148 198 234 287 339
#     4   9  18  36  56  80 104 160 194 221 289 334
#     4  10  20  34  56  78 118 154 189 235 274 346
#
# _framework density 19.482240000000001
#
# number of rings (size 3 to 8) (size 9 to 14) (size 15 to 20)
#    0.545    1.273    3.636    1.091    1.273    2.909 
#    0.000    0.909    4.000    0.000    0.000    0.000 
#    0.000    0.000    0.000    0.000    0.000    0.000 
#
# Total GULP energy -272546.912472 kJ/mol
# GULP energy per Si atom -12388.496021 kJ/mol
# Density = 1.943790 g / cm^3
# Si number density = 19.482240 Si / 1000 Ang^3
#
#
#
# Elastic Constant Matrix: (Units=GPa)
#
#
# Indices 1 2 3 4 5 6 
#
# 1 79.3739 25.1935 28.8980 0.0000 15.5535 0.0000
# 2 25.1935 58.5570 27.5603 0.0000 -1.9991 0.0000
# 3 28.8980 27.5603 99.3829 0.0000 19.0665 0.0000
# 4 0.0000 0.0000 0.0000 229.4402 0.0000 -31.6936
# 5 15.5535 -1.9991 19.0665 0.0000 29.2075 0.0000
# 6 0.0000 0.0000 0.0000 -31.6936 0.0000 29.9269
#
#
#
# Elastic Compliance Matrix: (Units=1/GPa)
#
#
# Indices 1 2 3 4 5 6 
#
# 1 0.016998 -0.006973 -0.001350 0.000000 -0.008648 0.000000
# 2 -0.006973 0.023337 -0.006245 0.000000 0.009387 0.000000
# 3 -0.001350 -0.006245 0.013867 0.000000 -0.008761 0.000000
# 4 0.000000 0.000000 0.000000 0.005105 0.000000 0.005407
# 5 -0.008648 0.009387 -0.008761 0.000000 0.045205 0.000000
# 6 0.000000 0.000000 0.000000 0.005407 0.000000 0.039141
#
#
# Mechanical properties :
#
#
# Convention : Reuss Voigt Hill
#
# Bulk Modulus (GPa) = 39.89394 44.51305 42.20349
# Shear Modulus (GPa) = 27.60234 68.09240 47.84737
#
# Velocity S-wave (km/s) = 3.76812 5.91835 4.96113
# Velocity P-wave (km/s) = 6.28117 8.34267 7.38422
#
# Compressibility (1/GPa) = 0.02506647
#
# Stress axis : x y z
#
# Youngs Moduli (GPa) = 58.83108 42.85000 72.11244
#
# Poissons Ratio (x) = 0.29880 0.09733
# Poissons Ratio (y) = 0.41023 0.45035
# Poissons Ratio (z) = 0.07941 0.26760
#
# Static dielectric constant tensor:
#      x y z
#    x 3.434750 0.000000 0.393240 
#    y 0.000000 3.616450 0.000000 
#    z 0.393240 0.000000 3.279180 
# 
# 
# High freq. dielectric constant tensor:
#      x y z
#    x 1.757190 0.000000 0.019090 
#    y 0.000000 1.760870 0.000000 
#    z 0.019090 0.000000 1.741060 
# 
# From -- ./inp_files/85236.got.cif
#   From: 2010.06.25/outbox.cif.g09.slc.cpg/sg12_43_cif.got.tgz:85236.got - 2010.06.28 00:19:55.
