data_PCOD8098763
_publ_section_title
;
Structure prediction by ZEFSAII (Michael W. Deem and Ramdas Pophale) SiO2 
 PCOD8098763
Probable space group: C 2/M
;
_chemical_formula_sum "Si O2"
_cell_formula_units_Z 56
_cell_length_a 19.442764
_cell_length_b 9.182982
_cell_length_c 24.458194
_cell_angle_alpha 90.000000
_cell_angle_beta 47.430509
_cell_angle_gamma 90.000000
_cell_volume 3215.983100
_symmetry_space_group_name_H-M "C 2/M"
_symmetry_group_IT_number 12
_symmetry_cell_setting 'monoclinic'
loop_
_space_group_symop_operation_xyz
x,y,z
-x,y,-z
-x,-y,-z
x,-y,z
1/2+x,1/2+y,z
1/2-x,1/2+y,-z
1/2-x,1/2-y,-z
1/2+x,1/2-y,z
loop_
_atom_site_type_symbol
_atom_site_label
_atom_site_fract_x
_atom_site_fract_y
_atom_site_fract_z
Si Si1 0.709891 0.831964 0.179095
Si Si2 0.482875 0.670292 0.202739
Si Si3 0.804818 0.827709 0.922638
Si Si4 0.455177 0.172936 0.443106
Si Si5 0.696574 0.672552 0.761551
Si Si6 0.507785 0.833064 0.694185
Si Si7 0.859050 0.673200 0.599406
O O1 0.733316 0.732946 0.114243
O O2 0.774380 0.771534 0.193922
O O3 0.602988 0.814251 0.254559
O O4 0.732633 0.000000 0.152509
O O5 0.476161 0.500000 0.216710
O O6 0.586422 0.715347 0.128292
O O7 0.409319 0.720535 0.195694
O O8 0.454392 0.742947 0.275109
O O9 0.788841 0.000000 0.933661
O O10 0.750000 0.750000 0.000000
O O11 0.441895 0.228454 0.387903
O O12 0.370562 0.221756 0.529193
O O13 0.552477 0.234209 0.414633
O O14 0.463135 0.000000 0.436639
O O15 0.707118 0.500000 0.756555
O O16 0.765039 0.736747 0.677494
O O17 0.533515 0.000000 0.691434
O O18 0.858098 0.500000 0.602602
#
# Coordination Sequence:
#
# PCOD8098763 Si02
#       7
#     8   8   8   8   8   8   8
#     4   9  16  28  50  74  92 117 153 190 224 262
#     4   9  19  32  47  68  94 122 150 183 227 276
#     4  10  20  35  53  72  93 118 148 182 221 271
#     4   8  12  19  35  64  94 117 151 198 235 256
#     4   9  15  27  45  67  94 123 155 189 226 268
#     4   9  15  26  44  67  92 120 157 196 228 262
#     4   8  12  19  36  63  93 120 150 194 234 259
#
# _framework density 17.413025999999999
#
# number of rings (size 3 to 8) (size 9 to 14) (size 15 to 20)
#    0.000    3.143    1.429    1.286    0.000    0.571 
#    0.000    2.143    0.000    4.286    0.000    3.000 
#    0.000    0.000    0.000    0.000    0.000    0.000 
#
# Total GULP energy -346965.228825 kJ/mol
# GULP energy per Si atom -12391.615315 kJ/mol
# Density = 1.737339 g / cm^3
# Si number density = 17.413026 Si / 1000 Ang^3
#
#
#
# Elastic Constant Matrix: (Units=GPa)
#
#
# Indices 1 2 3 4 5 6 
#
# 1 118.7251 27.2238 62.7325 0.0000 14.3593 -0.0002
# 2 27.2238 31.0434 35.6370 -0.0002 6.1475 -0.0007
# 3 62.7325 35.6370 140.1484 0.0000 20.2768 0.0000
# 4 0.0000 -0.0002 0.0000 16.7968 0.0000 6.1079
# 5 14.3593 6.1475 20.2768 0.0000 21.6418 0.0000
# 6 -0.0002 -0.0007 0.0000 6.1079 0.0000 17.7633
#
#
#
# Elastic Compliance Matrix: (Units=1/GPa)
#
#
# Indices 1 2 3 4 5 6 
#
# 1 0.011956 -0.005993 -0.003385 0.000000 -0.003059 0.000000
# 2 -0.005993 0.048606 -0.009549 0.000000 -0.000884 0.000002
# 3 -0.003385 -0.009549 0.011986 0.000000 -0.006272 0.000000
# 4 0.000000 0.000000 0.000000 0.068043 0.000000 -0.023396
# 5 -0.003059 -0.000884 -0.006272 0.000000 0.054363 0.000000
# 6 0.000000 0.000002 0.000000 -0.023396 0.000000 0.064341
#
#
# Mechanical properties :
#
#
# Convention : Reuss Voigt Hill
#
# Bulk Modulus (GPa) = 28.82419 60.12262 44.47340
# Shear Modulus (GPa) = 16.19631 22.19530 19.19581
#
# Velocity S-wave (km/s) = 3.05311 3.57408 3.32382
# Velocity P-wave (km/s) = 5.38681 7.18571 6.35028
#
# Compressibility (1/GPa) = 0.03469309
#
# Stress axis : x y z
#
# Youngs Moduli (GPa) = 83.64330 20.57377 83.43029
#
# Poissons Ratio (x) = 0.12329 0.28242
# Poissons Ratio (y) = 0.50126 0.79669
# Poissons Ratio (z) = 0.28314 0.19646
#
# Static dielectric constant tensor:
#      x y z
#    x 3.318460 0.000000 0.121460 
#    y 0.000000 2.824170 0.000000 
#    z 0.121460 0.000000 3.420090 
# 
# 
# High freq. dielectric constant tensor:
#      x y z
#    x 1.658650 0.000000 0.014560 
#    y 0.000000 1.624260 0.000000 
#    z 0.014560 0.000000 1.674680 
# 
# From -- ./inp_files/280396.got.cif
#   From: 2010.06.25/outbox.cif.g09.slc.cpg/sg12_141_cif.got.tgz:280396.got - 2010.06.28 00:19:55.
