data_PCOD8098229
_publ_section_title
;
Structure prediction by ZEFSAII (Michael W. Deem and Ramdas Pophale) SiO2 
 PCOD8098229
Probable space group: C 2/M
;
_chemical_formula_sum "Si O2"
_cell_formula_units_Z 56
_cell_length_a 20.214538
_cell_length_b 9.252141
_cell_length_c 20.275684
_cell_angle_alpha 90.000000
_cell_angle_beta 47.354843
_cell_angle_gamma 90.000000
_cell_volume 2789.341450
_symmetry_space_group_name_H-M "C 2/M"
_symmetry_group_IT_number 12
_symmetry_cell_setting 'monoclinic'
loop_
_space_group_symop_operation_xyz
x,y,z
-x,y,-z
-x,-y,-z
x,-y,z
1/2+x,1/2+y,z
1/2-x,1/2+y,-z
1/2-x,1/2-y,-z
1/2+x,1/2-y,z
loop_
_atom_site_type_symbol
_atom_site_label
_atom_site_fract_x
_atom_site_fract_y
_atom_site_fract_z
Si Si1 0.129529 0.164937 0.119555
Si Si2 0.716407 0.668227 0.923792
Si Si3 0.355579 0.834525 0.617009
Si Si4 0.523510 0.165322 0.590671
Si Si5 0.322346 0.166065 0.282112
Si Si6 0.562923 0.667647 0.695544
Si Si7 0.404161 0.165455 0.090047
O O1 0.184742 0.267116 0.131446
O O2 0.024824 0.193057 0.200739
O O3 0.156508 0.000000 0.116839
O O4 0.152062 0.204146 0.028994
O O5 0.727520 0.500000 0.902980
O O6 0.674579 0.739375 0.887685
O O7 0.401959 0.811264 0.515334
O O8 0.425481 0.795600 0.627944
O O9 0.271423 0.729058 0.680577
O O10 0.323515 0.000000 0.646021
O O11 0.547099 0.271796 0.633699
O O12 0.524547 0.000000 0.614980
O O13 0.354817 0.251540 0.324734
O O14 0.396433 0.180528 0.174126
O O15 0.307996 0.000000 0.311705
O O16 0.588049 0.500000 0.672650
O O17 0.391602 0.000000 0.075693
O O18 0.500000 0.225008 0.000000
#
# Coordination Sequence:
#
# PCOD8098229 Si02
#       7
#     8   8   8   8   8   8   8
#     4   9  20  37  54  79 116 150 190 239 289 345
#     4  10  20  34  56  82 108 149 196 242 289 340
#     4   9  20  41  65  89 119 153 191 239 292 350
#     4   9  20  40  65  90 118 153 192 237 292 353
#     4  11  24  39  59  87 119 156 199 244 292 349
#     4  11  23  38  59  86 118 156 194 242 294 344
#     4  10  22  39  57  79 114 157 196 239 291 343
#
# _framework density 20.076422999999998
#
# number of rings (size 3 to 8) (size 9 to 14) (size 15 to 20)
#    0.000    2.143    0.000    3.000    2.000    4.857 
#    0.000    1.429    0.000    0.000    0.000    0.000 
#    0.000    0.000    0.000    0.000    0.000    0.000 
#
# Total GULP energy -347327.381323 kJ/mol
# GULP energy per Si atom -12404.549333 kJ/mol
# Density = 2.003073 g / cm^3
# Si number density = 20.076423 Si / 1000 Ang^3
#
#
#
# Elastic Constant Matrix: (Units=GPa)
#
#
# Indices 1 2 3 4 5 6 
#
# 1 112.7033 69.1193 30.2896 0.0000 6.5927 0.0000
# 2 69.1193 117.1703 35.9039 0.0000 3.4164 0.0000
# 3 30.2896 35.9039 56.8759 0.0000 -1.7290 0.0000
# 4 0.0000 0.0000 0.0000 30.8150 0.0000 2.2595
# 5 6.5927 3.4164 -1.7290 0.0000 29.9753 0.0000
# 6 0.0000 0.0000 0.0000 2.2595 0.0000 34.1725
#
#
#
# Elastic Compliance Matrix: (Units=1/GPa)
#
#
# Indices 1 2 3 4 5 6 
#
# 1 0.014444 -0.007522 -0.003019 0.000000 -0.002493 0.000000
# 2 -0.007522 0.014576 -0.005204 0.000000 -0.000307 0.000000
# 3 -0.003019 -0.005204 0.022553 0.000000 0.002558 0.000000
# 4 0.000000 0.000000 0.000000 0.032610 0.000000 -0.002156
# 5 -0.002493 -0.000307 0.002558 0.000000 0.034092 0.000000
# 6 0.000000 0.000000 0.000000 -0.002156 0.000000 0.029406
#
#
# Mechanical properties :
#
#
# Convention : Reuss Voigt Hill
#
# Bulk Modulus (GPa) = 49.79963 61.93058 55.86510
# Shear Modulus (GPa) = 26.90117 29.08834 27.99476
#
# Velocity S-wave (km/s) = 3.66449 3.81055 3.73823
# Velocity P-wave (km/s) = 6.53938 7.09047 6.82049
#
# Compressibility (1/GPa) = 0.02008047
#
# Stress axis : x y z
#
# Youngs Moduli (GPa) = 69.23512 68.60659 44.33975
#
# Poissons Ratio (x) = 0.51609 0.13387
# Poissons Ratio (y) = 0.52082 0.23076
# Poissons Ratio (z) = 0.20903 0.35706
#
# Static dielectric constant tensor:
#      x y z
#    x 3.512330 0.000000 -0.018090 
#    y 0.000000 3.619730 0.000000 
#    z -0.018090 0.000000 3.561260 
# 
# 
# High freq. dielectric constant tensor:
#      x y z
#    x 1.783800 0.000000 0.000880 
#    y 0.000000 1.785510 0.000000 
#    z 0.000880 0.000000 1.781720 
# 
# From -- ./inp_files/319657.got.cif
#   From: 2010.06.25/outbox.cif.g09.slc.cpg/sg12_160_cif.got.tgz:319657.got - 2010.06.28 00:19:55.
