data_PCOD8098745
_publ_section_title
;
Structure prediction by ZEFSAII (Michael W. Deem and Ramdas Pophale) SiO2 
 PCOD8098745
Probable space group: C 2/M
;
_chemical_formula_sum "Si O2"
_cell_formula_units_Z 48
_cell_length_a 31.322729
_cell_length_b 10.603460
_cell_length_c 25.678610
_cell_angle_alpha 90.000000
_cell_angle_beta 159.871559
_cell_angle_gamma 90.000000
_cell_volume 2934.917862
_symmetry_space_group_name_H-M "C 2/M"
_symmetry_group_IT_number 12
_symmetry_cell_setting 'monoclinic'
loop_
_space_group_symop_operation_xyz
x,y,z
-x,y,-z
-x,-y,-z
x,-y,z
1/2+x,1/2+y,z
1/2-x,1/2+y,-z
1/2-x,1/2-y,-z
1/2+x,1/2-y,z
loop_
_atom_site_type_symbol
_atom_site_label
_atom_site_fract_x
_atom_site_fract_y
_atom_site_fract_z
Si Si1 0.170042 0.500000 0.120359
Si Si2 0.780654 0.500000 0.709693
Si Si3 0.527285 0.211600 0.089062
Si Si4 0.171220 0.361552 0.934327
Si Si5 0.789609 0.000000 0.152217
Si Si6 0.030277 0.000000 0.363296
Si Si7 0.420185 0.266619 0.648603
Si Si8 0.339534 0.351567 0.669396
O O1 0.249566 0.500000 0.263935
O O2 0.276456 0.500000 0.198849
O O3 0.087021 0.626501 0.021779
O O4 0.854561 0.623878 0.780047
O O5 0.661531 0.500000 0.539285
O O6 0.564875 0.317440 0.174360
O O7 0.500000 0.270170 0.000000
O O8 0.196749 0.500000 0.936184
O O9 0.023697 0.341860 0.766205
O O10 0.250000 0.250000 0.000000
O O11 0.220370 0.375277 0.050086
O O12 0.931880 0.000000 0.297215
O O13 0.017802 0.878368 0.312997
O O14 0.399514 0.310822 0.683795
O O15 0.293697 0.216935 0.477317
O O16 0.316470 0.500000 0.643783
#
# Coordination Sequence:
#
# PCOD8098745 Si02
#       8
#     4   4   8   8   4   4   8   8
#     4   9  18  35  53  81  99 136 176 217 265 313
#     4   9  18  33  55  75 105 135 172 219 274 306
#     4   9  18  34  55  74 105 137 171 221 271 315
#     4  10  20  35  52  75 105 142 173 210 256 319
#     4  10  21  32  56  76 105 138 180 211 259 307
#     4  12  19  34  54  76 108 139 171 223 261 315
#     4  11  21  35  49  75 111 137 173 215 270 319
#     4  11  22  32  51  78 104 139 177 218 265 320
#
# _framework density 16.354800999999998
#
# number of rings (size 3 to 8) (size 9 to 14) (size 15 to 20)
#    0.500    1.333    4.167    2.500    0.000    0.667 
#    1.500    0.000    0.000    0.000    0.000    0.000 
#    0.000    4.333    0.000    0.000    0.000    0.000 
#
# Total GULP energy -297364.177603 kJ/mol
# GULP energy per Si atom -12390.174067 kJ/mol
# Density = 1.631758 g / cm^3
# Si number density = 16.354801 Si / 1000 Ang^3
#
#
#
# Elastic Constant Matrix: (Units=GPa)
#
#
# Indices 1 2 3 4 5 6 
#
# 1 89.4273 27.3036 10.4839 0.0002 2.9454 0.0001
# 2 27.3036 85.6381 2.7034 0.0004 -1.4814 0.0003
# 3 10.4839 2.7034 27.4487 0.0004 -6.0832 0.0004
# 4 0.0002 0.0004 0.0004 36.6644 0.0001 7.4750
# 5 2.9454 -1.4814 -6.0832 0.0001 29.1145 0.0001
# 6 0.0001 0.0003 0.0004 7.4750 0.0001 16.5900
#
#
#
# Elastic Compliance Matrix: (Units=1/GPa)
#
#
# Indices 1 2 3 4 5 6 
#
# 1 0.013118 -0.004064 -0.005190 0.000000 -0.002618 0.000000
# 2 -0.004064 0.012976 0.000536 0.000000 0.001183 0.000000
# 3 -0.005190 0.000536 0.040352 0.000000 0.008984 -0.000001
# 4 0.000000 0.000000 0.000000 0.030033 0.000000 -0.013532
# 5 -0.002618 0.001183 0.008984 0.000000 0.036549 0.000000
# 6 0.000000 0.000000 -0.000001 -0.013532 0.000000 0.066375
#
#
# Mechanical properties :
#
#
# Convention : Reuss Voigt Hill
#
# Bulk Modulus (GPa) = 20.40369 31.49956 25.95163
# Shear Modulus (GPa) = 21.44308 27.27531 24.35920
#
# Velocity S-wave (km/s) = 3.62487 4.08821 3.86349
# Velocity P-wave (km/s) = 5.47926 6.44876 5.98368
#
# Compressibility (1/GPa) = 0.04901075
#
# Stress axis : x y z
#
# Youngs Moduli (GPa) = 76.23285 77.06419 24.78183
#
# Poissons Ratio (x) = 0.31317 0.12862
# Poissons Ratio (y) = 0.30979 -0.01329
# Poissons Ratio (z) = 0.39567 -0.04133
#
# Static dielectric constant tensor:
#      x y z
#    x 2.988740 0.000000 -0.072220 
#    y 0.000000 3.023910 0.000000 
#    z -0.072220 0.000000 3.121470 
# 
# 
# High freq. dielectric constant tensor:
#      x y z
#    x 1.620660 0.000000 0.000960 
#    y 0.000000 1.620530 0.000000 
#    z 0.000960 0.000000 1.633910 
# 
# From -- ./inp_files/353881.got.cif
#   From: 2010.06.25/outbox.cif.g09.slc.cpg/sg12_177_cif.got.tgz:353881.got - 2010.06.28 00:19:55.
