data_PCOD8098909
_publ_section_title
;
Structure prediction by ZEFSAII (Michael W. Deem and Ramdas Pophale) SiO2 
 PCOD8098909
Probable space group: C 2/M
;
_chemical_formula_sum "Si O2"
_cell_formula_units_Z 64
_cell_length_a 23.197715
_cell_length_b 9.079225
_cell_length_c 16.897861
_cell_angle_alpha 90.000000
_cell_angle_beta 85.014916
_cell_angle_gamma 90.000000
_cell_volume 3545.519052
_symmetry_space_group_name_H-M "C 2/M"
_symmetry_group_IT_number 12
_symmetry_cell_setting 'monoclinic'
loop_
_space_group_symop_operation_xyz
x,y,z
-x,y,-z
-x,-y,-z
x,-y,z
1/2+x,1/2+y,z
1/2-x,1/2+y,-z
1/2-x,1/2-y,-z
1/2+x,1/2-y,z
loop_
_atom_site_type_symbol
_atom_site_label
_atom_site_fract_x
_atom_site_fract_y
_atom_site_fract_z
Si Si1 0.438283 0.672366 0.235947
Si Si2 0.806074 0.172220 0.458773
Si Si3 0.113354 0.334540 0.163679
Si Si4 0.971505 0.333457 0.677937
Si Si5 0.326019 0.173848 0.291681
Si Si6 0.381463 0.331410 0.598101
Si Si7 0.299294 0.329941 0.750138
Si Si8 0.022284 0.828795 0.081475
O O1 0.427265 0.500000 0.251005
O O2 0.472562 0.735902 0.307831
O O3 0.378175 0.759120 0.234352
O O4 0.472998 0.704288 0.151645
O O5 0.750000 0.250000 0.500000
O O6 0.825221 0.246211 0.375676
O O7 0.859511 0.194897 0.512148
O O8 0.792379 0.000000 0.448243
O O9 0.126283 0.500000 0.135244
O O10 0.072186 0.326680 0.244048
O O11 0.174167 0.259236 0.179190
O O12 0.082130 0.252646 0.094904
O O13 0.991084 0.500000 0.657109
O O14 0.938608 0.266801 0.605710
O O15 0.268050 0.209031 0.249702
O O16 0.333623 0.000000 0.304149
O O17 0.399252 0.500000 0.610743
O O18 0.329828 0.286241 0.663925
O O19 0.309335 0.500000 0.767951
O O20 0.037230 0.000000 0.075699
O O21 0.000000 0.769234 0.000000
#
# Coordination Sequence:
#
# PCOD8098909 Si02
#       8
#     8   8   8   8   8   8   8   8
#     4  10  20  35  54  77 104 136 170 208 255 311
#     4  11  21  34  51  74 104 137 177 222 266 310
#     4   9  17  28  47  78 107 130 164 210 254 296
#     4   9  17  30  49  73  99 131 168 211 258 305
#     4  11  22  36  52  74 104 140 177 216 261 310
#     4   9  17  31  49  71  98 130 170 216 262 305
#     4   9  17  31  49  70  99 136 173 209 254 303
#     4   9  18  34  57  82 107 136 168 203 250 309
#
# _framework density 18.050954000000001
#
# number of rings (size 3 to 8) (size 9 to 14) (size 15 to 20)
#    0.000    2.375    1.250    1.875    0.000    5.750 
#    0.000    0.625    0.000    4.500    0.000    0.000 
#    0.000    0.000    0.000    0.000    0.000    0.000 
#
# Total GULP energy -396838.551660 kJ/mol
# GULP energy per Si atom -12401.204739 kJ/mol
# Density = 1.800987 g / cm^3
# Si number density = 18.050954 Si / 1000 Ang^3
#
#
#
# Elastic Constant Matrix: (Units=GPa)
#
#
# Indices 1 2 3 4 5 6 
#
# 1 117.1729 69.0647 48.2157 0.0000 26.9694 0.0000
# 2 69.0647 117.1474 52.0580 0.0000 22.0703 0.0000
# 3 48.2157 52.0580 73.5669 0.0000 27.1228 0.0000
# 4 0.0000 0.0000 0.0000 21.9659 0.0000 4.8558
# 5 26.9694 22.0703 27.1228 0.0000 27.6959 0.0000
# 6 0.0000 0.0000 0.0000 4.8558 0.0000 35.8497
#
#
#
# Elastic Compliance Matrix: (Units=1/GPa)
#
#
# Indices 1 2 3 4 5 6 
#
# 1 0.014974 -0.006274 -0.002883 0.000000 -0.006759 0.000000
# 2 -0.006274 0.015153 -0.006904 0.000000 0.000795 0.000000
# 3 -0.002883 -0.006904 0.027083 0.000000 -0.018214 0.000000
# 4 0.000000 0.000000 0.000000 0.046930 0.000000 -0.006357
# 5 -0.006759 0.000795 -0.018214 0.000000 0.059891 0.000000
# 6 0.000000 0.000000 0.000000 -0.006357 0.000000 0.028755
#
#
# Mechanical properties :
#
#
# Convention : Reuss Voigt Hill
#
# Bulk Modulus (GPa) = 39.85783 71.84047 55.84915
# Shear Modulus (GPa) = 21.43422 26.33889 23.88655
#
# Velocity S-wave (km/s) = 3.44965 3.82401 3.64164
# Velocity P-wave (km/s) = 6.16404 7.70601 6.97775
#
# Compressibility (1/GPa) = 0.02508918
#
# Stress axis : x y z
#
# Youngs Moduli (GPa) = 66.78161 65.99250 36.92333
#
# Poissons Ratio (x) = 0.41402 0.10644
# Poissons Ratio (y) = 0.41897 0.25493
# Poissons Ratio (z) = 0.19251 0.45563
#
# Static dielectric constant tensor:
#      x y z
#    x 3.426060 0.000000 0.163780 
#    y 0.000000 3.453370 0.000000 
#    z 0.163780 0.000000 3.194470 
# 
# 
# High freq. dielectric constant tensor:
#      x y z
#    x 1.696030 0.000000 0.025970 
#    y 0.000000 1.709280 0.000000 
#    z 0.025970 0.000000 1.665550 
# 
# From -- ./inp_files/281388.got.cif
#   From: 2010.06.25/outbox.cif.g09.slc.cpg/sg12_141_cif.got.tgz:281388.got - 2010.06.28 00:19:55.
