data_PCOD8098270
_publ_section_title
;
Structure prediction by ZEFSAII (Michael W. Deem and Ramdas Pophale) SiO2 
 PCOD8098270
Probable space group: C 2/M
;
_chemical_formula_sum "Si O2"
_cell_formula_units_Z 56
_cell_length_a 14.844964
_cell_length_b 9.232310
_cell_length_c 31.248954
_cell_angle_alpha 90.000000
_cell_angle_beta 44.097241
_cell_angle_gamma 90.000000
_cell_volume 2980.288131
_symmetry_space_group_name_H-M "C 2/M"
_symmetry_group_IT_number 12
_symmetry_cell_setting 'monoclinic'
loop_
_space_group_symop_operation_xyz
x,y,z
-x,y,-z
-x,-y,-z
x,-y,z
1/2+x,1/2+y,z
1/2-x,1/2+y,-z
1/2-x,1/2-y,-z
1/2+x,1/2-y,z
loop_
_atom_site_type_symbol
_atom_site_label
_atom_site_fract_x
_atom_site_fract_y
_atom_site_fract_z
Si Si1 0.542241 0.330581 0.787532
Si Si2 0.440445 0.672985 0.121920
Si Si3 0.289654 0.173194 0.859221
Si Si4 0.880062 0.158255 0.009288
Si Si5 0.264334 0.832496 0.646731
Si Si6 0.440534 0.832576 0.444461
Si Si7 0.748507 0.830667 0.566850
O O1 0.510004 0.500000 0.798439
O O2 0.556928 0.269516 0.830663
O O3 0.427092 0.246176 0.803176
O O4 0.674777 0.296743 0.717744
O O5 0.447795 0.500000 0.117321
O O6 0.306064 0.723305 0.146131
O O7 0.565242 0.737372 0.052475
O O8 0.303034 0.000000 0.855671
O O9 0.234712 0.234099 0.924062
O O10 0.828819 0.000000 0.013355
O O11 0.000000 0.139636 0.000000
O O12 0.409582 0.790903 0.610937
O O13 0.215680 0.737604 0.623699
O O14 0.254419 0.000000 0.636815
O O15 0.372452 0.795998 0.422715
O O16 0.379171 0.739213 0.503522
O O17 0.420762 0.000000 0.463414
O O18 0.772439 0.000000 0.564028
#
# Coordination Sequence:
#
# PCOD8098270 Si02
#       7
#     8   8   8   8   8   8   8
#     4  10  21  34  48  70  99 133 171 204 240 290
#     4   8  15  30  51  71  95 130 168 203 243 300
#     4   9  17  31  52  74  96 125 164 210 254 296
#     4   7  11  23  46  73  94 118 159 206 249 294
#     4  10  21  36  51  69 100 140 172 197 235 292
#     4   9  19  36  56  77 103 134 164 195 239 296
#     4  10  20  34  56  84 105 123 158 208 251 284
#
# _framework density 18.790129
#
# number of rings (size 3 to 8) (size 9 to 14) (size 15 to 20)
#    0.000    3.000    0.000    2.571    0.000    5.143 
#    0.000    3.571    0.000    3.857    0.000    0.000 
#    0.000    0.000    0.000    0.000    0.000    0.000 
#
# Total GULP energy -347024.418334 kJ/mol
# GULP energy per Si atom -12393.729226 kJ/mol
# Density = 1.874736 g / cm^3
# Si number density = 18.790129 Si / 1000 Ang^3
#
#
#
# Elastic Constant Matrix: (Units=GPa)
#
#
# Indices 1 2 3 4 5 6 
#
# 1 65.1708 24.0560 34.9215 -0.0002 -1.0332 -0.0007
# 2 24.0560 38.4989 31.4353 -0.0005 1.4359 -0.0011
# 3 34.9215 31.4353 100.1203 0.0000 1.6372 -0.0002
# 4 -0.0002 -0.0005 0.0000 19.9184 -0.0001 0.6122
# 5 -1.0332 1.4359 1.6372 -0.0001 30.6946 -0.0001
# 6 -0.0007 -0.0011 -0.0002 0.6122 -0.0001 25.5036
#
#
#
# Elastic Compliance Matrix: (Units=1/GPa)
#
#
# Indices 1 2 3 4 5 6 
#
# 1 0.021336 -0.009802 -0.004387 0.000000 0.001411 0.000000
# 2 -0.009802 0.039466 -0.008945 0.000001 -0.001699 0.000001
# 3 -0.004387 -0.008945 0.014335 0.000000 -0.000494 0.000000
# 4 0.000000 0.000001 0.000000 0.050242 0.000000 -0.001206
# 5 0.001411 -0.001699 -0.000494 0.000000 0.032732 0.000000
# 6 0.000000 0.000001 0.000000 -0.001206 0.000000 0.039239
#
#
# Mechanical properties :
#
#
# Convention : Reuss Voigt Hill
#
# Bulk Modulus (GPa) = 34.63933 42.73506 38.68719
# Shear Modulus (GPa) = 19.74401 22.78180 21.26291
#
# Velocity S-wave (km/s) = 3.24507 3.48578 3.36758
# Velocity P-wave (km/s) = 5.70224 6.24449 5.97951
#
# Compressibility (1/GPa) = 0.02886892
#
# Stress axis : x y z
#
# Youngs Moduli (GPa) = 46.86994 25.33795 69.76024
#
# Poissons Ratio (x) = 0.24836 0.30606
# Poissons Ratio (y) = 0.45941 0.62400
# Poissons Ratio (z) = 0.20563 0.22665
#
# Static dielectric constant tensor:
#      x y z
#    x 3.411640 0.000000 0.052680 
#    y 0.000000 3.087720 0.000000 
#    z 0.052680 0.000000 3.641560 
# 
# 
# High freq. dielectric constant tensor:
#      x y z
#    x 1.726950 0.000000 0.000820 
#    y 0.000000 1.691990 0.000000 
#    z 0.000820 0.000000 1.735560 
# 
# From -- ./inp_files/337891.got.cif
#   From: 2010.06.25/outbox.cif.g09.slc.cpg/sg12_169_cif.got.tgz:337891.got - 2010.06.28 00:19:55.
