data_PCOD8098095
_publ_section_title
;
Structure prediction by ZEFSAII (Michael W. Deem and Ramdas Pophale) SiO2 
 PCOD8098095
Probable space group: C 2/M
;
_chemical_formula_sum "Si O2"
_cell_formula_units_Z 64
_cell_length_a 24.855367
_cell_length_b 8.938272
_cell_length_c 28.835823
_cell_angle_alpha 90.000000
_cell_angle_beta 150.223042
_cell_angle_gamma 90.000000
_cell_volume 3181.519756
_symmetry_space_group_name_H-M "C 2/M"
_symmetry_group_IT_number 12
_symmetry_cell_setting 'monoclinic'
loop_
_space_group_symop_operation_xyz
x,y,z
-x,y,-z
-x,-y,-z
x,-y,z
1/2+x,1/2+y,z
1/2-x,1/2+y,-z
1/2-x,1/2-y,-z
1/2+x,1/2-y,z
loop_
_atom_site_type_symbol
_atom_site_label
_atom_site_fract_x
_atom_site_fract_y
_atom_site_fract_z
Si Si1 0.219649 0.168470 0.523726
Si Si2 0.904869 0.676521 0.492785
Si Si3 0.879394 0.177967 0.326460
Si Si4 0.223394 0.674805 0.028839
Si Si5 0.268219 0.676641 0.714516
Si Si6 0.457675 0.166020 0.721372
Si Si7 0.607421 0.676180 0.769073
Si Si8 0.483529 0.826409 0.842823
O O1 0.250000 0.250000 0.500000
O O2 0.129235 0.263417 0.482336
O O3 0.329664 0.166120 0.635413
O O4 0.175425 0.000000 0.482201
O O5 0.920577 0.500000 0.505639
O O6 0.813918 0.725186 0.387886
O O7 0.020936 0.751777 0.569388
O O8 0.769073 0.238496 0.266861
O O9 0.879914 0.237159 0.273733
O O10 0.885076 0.000000 0.333912
O O11 0.244582 0.500000 0.037566
O O12 0.298778 0.739372 0.126651
O O13 0.250000 0.750000 0.000000
O O14 0.099745 0.703449 0.953655
O O15 0.265297 0.500000 0.720170
O O16 0.391042 0.724607 0.796064
O O17 0.492426 0.273301 0.704961
O O18 0.506787 0.220139 0.806827
O O19 0.498506 0.000000 0.738939
O O20 0.611260 0.500000 0.769998
O O21 0.447898 0.000000 0.819567
#
# Coordination Sequence:
#
# PCOD8098095 Si02
#       8
#     8   8   8   8   8   8   8   8
#     4  11  22  35  52  79 117 156 195 237 287 347
#     4  11  23  39  59  85 116 151 196 245 292 344
#     4  11  24  41  61  85 116 157 199 242 292 347
#     4  10  20  36  60  89 120 152 190 235 287 347
#     4  11  24  41  62  87 116 153 198 248 294 340
#     4  10  20  34  55  83 115 151 190 233 285 341
#     4  10  22  38  58  87 120 153 192 238 290 347
#     4  10  20  37  60  87 116 150 192 236 286 346
#
# _framework density 20.116171999999999
#
# number of rings (size 3 to 8) (size 9 to 14) (size 15 to 20)
#    0.000    1.500    2.500    2.625    0.000    8.000 
#    0.000    0.625    0.000    3.750    0.000    0.000 
#    0.000    0.000    0.000    0.000    0.000    0.000 
#
# Total GULP energy -396814.631801 kJ/mol
# GULP energy per Si atom -12400.457244 kJ/mol
# Density = 2.007039 g / cm^3
# Si number density = 20.116172 Si / 1000 Ang^3
#
#
#
# Elastic Constant Matrix: (Units=GPa)
#
#
# Indices 1 2 3 4 5 6 
#
# 1 102.4338 34.9719 26.3132 -0.0003 11.7999 0.0000
# 2 34.9719 65.2298 27.5263 -0.0004 3.6170 0.0012
# 3 26.3132 27.5263 75.1986 -0.0016 9.7344 -0.0005
# 4 -0.0003 -0.0004 -0.0016 26.3034 -0.0002 4.5689
# 5 11.7999 3.6170 9.7344 -0.0002 25.9656 0.0000
# 6 0.0000 0.0012 -0.0005 4.5689 0.0000 35.5327
#
#
#
# Elastic Compliance Matrix: (Units=1/GPa)
#
#
# Indices 1 2 3 4 5 6 
#
# 1 0.012699 -0.005830 -0.001753 0.000000 -0.004302 0.000000
# 2 -0.005830 0.020808 -0.005827 0.000000 0.001935 -0.000001
# 3 -0.001753 -0.005827 0.016644 0.000001 -0.004632 0.000000
# 4 0.000000 0.000000 0.000001 0.038886 0.000000 -0.005000
# 5 -0.004302 0.001935 -0.004632 0.000000 0.041934 0.000000
# 6 0.000000 -0.000001 0.000000 -0.005000 0.000000 0.028786
#
#
# Mechanical properties :
#
#
# Convention : Reuss Voigt Hill
#
# Bulk Modulus (GPa) = 42.86175 46.72053 44.79114
# Shear Modulus (GPa) = 25.72638 27.83041 26.77839
#
# Velocity S-wave (km/s) = 3.58004 3.72356 3.65250
# Velocity P-wave (km/s) = 6.20018 6.46237 6.33264
#
# Compressibility (1/GPa) = 0.02333082
#
# Stress axis : x y z
#
# Youngs Moduli (GPa) = 78.74919 48.05895 60.08197
#
# Poissons Ratio (x) = 0.28019 0.10529
# Poissons Ratio (y) = 0.45911 0.35011
# Poissons Ratio (z) = 0.13801 0.28005
#
# Static dielectric constant tensor:
#      x y z
#    x 3.592920 0.000000 -0.001110 
#    y 0.000000 3.556820 0.000000 
#    z -0.001110 0.000000 3.981720 
# 
# 
# High freq. dielectric constant tensor:
#      x y z
#    x 1.780220 0.000000 0.006590 
#    y 0.000000 1.780910 0.000000 
#    z 0.006590 0.000000 1.787660 
# 
# From -- ./inp_files/382492.got.cif
#   From: 2010.06.25/outbox.cif.g09.slc.cpg/sg12_192_cif.got.tgz:382492.got - 2010.06.28 00:19:55.
