data_PCOD8098512
_publ_section_title
;
Structure prediction by ZEFSAII (Michael W. Deem and Ramdas Pophale) SiO2 
 PCOD8098512
Probable space group: C 2/M
;
_chemical_formula_sum "Si O2"
_cell_formula_units_Z 64
_cell_length_a 9.248427
_cell_length_b 25.229490
_cell_length_c 14.839904
_cell_angle_alpha 90.000000
_cell_angle_beta 94.684190
_cell_angle_gamma 90.000000
_cell_volume 3451.075389
_symmetry_space_group_name_H-M "C 2/M"
_symmetry_group_IT_number 12
_symmetry_cell_setting 'monoclinic'
loop_
_space_group_symop_operation_xyz
x,y,z
-x,y,-z
-x,-y,-z
x,-y,z
1/2+x,1/2+y,z
1/2-x,1/2+y,-z
1/2-x,1/2-y,-z
1/2+x,1/2-y,z
loop_
_atom_site_type_symbol
_atom_site_label
_atom_site_fract_x
_atom_site_fract_y
_atom_site_fract_z
Si Si1 0.498988 0.328453 0.190810
Si Si2 0.905717 0.560528 0.416621
Si Si3 0.247747 0.694397 0.048177
Si Si4 0.054102 0.709705 0.210896
Si Si5 0.158987 0.061009 0.531446
Si Si6 0.249450 0.626237 0.293310
Si Si7 0.995281 0.437747 0.227468
Si Si8 0.801423 0.358125 0.135404
O O1 0.405576 0.318301 0.096391
O O2 0.546193 0.271613 0.234694
O O3 0.407025 0.362239 0.258589
O O4 0.641723 0.361201 0.171314
O O5 0.959382 0.500000 0.410796
O O6 0.739593 0.565166 0.439279
O O7 0.933918 0.584992 0.320199
O O8 0.000000 0.588641 0.500000
O O9 0.127919 0.696688 0.119150
O O10 0.250000 0.750000 0.000000
O O11 0.207742 0.650719 0.971996
O O12 0.151787 0.680190 0.292524
O O13 0.890742 0.687411 0.193865
O O14 0.231044 0.099821 0.608065
O O15 0.000000 0.080915 0.500000
O O16 0.162555 0.000000 0.567486
O O17 0.158813 0.585021 0.225423
O O18 0.995755 0.500000 0.215750
O O19 0.884996 0.413996 0.148619
#
# Coordination Sequence:
#
# PCOD8098512 Si02
#       8
#     8   8   8   8   8   8   8   8
#     4  11  21  34  53  85 115 145 181 239 285 328
#     4   9  16  31  57  82 104 137 182 230 278 318
#     4  11  19  33  57  83 116 141 177 236 286 323
#     4  10  20  35  55  82 114 146 182 230 282 336
#     4  10  20  34  57  88 116 140 181 238 283 327
#     4  10  21  35  55  82 115 150 185 226 288 342
#     4  10  21  38  56  81 116 151 190 231 275 343
#     4  11  21  31  55  86 112 146 185 228 286 333
#
# _framework density 18.544943
#
# number of rings (size 3 to 8) (size 9 to 14) (size 15 to 20)
#    0.000    1.750    3.750    1.875    1.750    0.000 
#    0.000    0.625    0.000   18.750    0.000    0.000 
#    0.000    0.000    0.000    0.000    0.000    0.000 
#
# Total GULP energy -396651.210990 kJ/mol
# GULP energy per Si atom -12395.350343 kJ/mol
# Density = 1.850273 g / cm^3
# Si number density = 18.544943 Si / 1000 Ang^3
#
#
#
# Elastic Constant Matrix: (Units=GPa)
#
#
# Indices 1 2 3 4 5 6 
#
# 1 116.8600 32.9383 19.2438 0.0000 1.7880 0.0000
# 2 32.9383 99.5312 36.2516 0.0000 1.9925 0.0000
# 3 19.2438 36.2516 64.8660 0.0000 5.0617 0.0000
# 4 0.0000 0.0000 0.0000 29.4332 0.0000 5.1724
# 5 1.7880 1.9925 5.0617 0.0000 29.1916 0.0000
# 6 0.0000 0.0000 0.0000 5.1724 0.0000 24.2905
#
#
#
# Elastic Compliance Matrix: (Units=1/GPa)
#
#
# Indices 1 2 3 4 5 6 
#
# 1 0.009530 -0.002669 -0.001322 0.000000 -0.000172 0.000000
# 2 -0.002669 0.013366 -0.006711 0.000000 0.000415 0.000000
# 3 -0.001322 -0.006711 0.019785 0.000000 -0.002892 0.000000
# 4 0.000000 0.000000 0.000000 0.035296 0.000000 -0.007516
# 5 -0.000172 0.000415 -0.002892 0.000000 0.034740 0.000000
# 6 0.000000 0.000000 0.000000 -0.007516 0.000000 0.042769
#
#
# Mechanical properties :
#
#
# Convention : Reuss Voigt Hill
#
# Bulk Modulus (GPa) = 46.99806 50.90272 48.95039
# Shear Modulus (GPa) = 27.17671 29.43796 28.30734
#
# Velocity S-wave (km/s) = 3.83227 3.98852 3.91118
# Velocity P-wave (km/s) = 6.70668 6.97990 6.84465
#
# Compressibility (1/GPa) = 0.02127748
#
# Stress axis : x y z
#
# Youngs Moduli (GPa) = 104.93371 74.81612 50.54421
#
# Poissons Ratio (x) = 0.19966 0.06684
# Poissons Ratio (y) = 0.28003 0.33918
# Poissons Ratio (z) = 0.13876 0.50206
#
# Static dielectric constant tensor:
#      x y z
#    x 3.648280 0.000000 0.002860 
#    y 0.000000 3.250990 0.000000 
#    z 0.002860 0.000000 3.232250 
# 
# 
# High freq. dielectric constant tensor:
#      x y z
#    x 1.740500 0.000000 0.005690 
#    y 0.000000 1.694550 0.000000 
#    z 0.005690 0.000000 1.696740 
# 
# From -- ./inp_files/199868.got.cif
#   From: 2010.06.25/outbox.cif.g09.slc.cpg/sg12_100_cif.got.tgz:199868.got - 2010.06.28 00:19:55.
