data_PCOD8098878
_publ_section_title
;
Structure prediction by ZEFSAII (Michael W. Deem and Ramdas Pophale) SiO2 
 PCOD8098878
Probable space group: C 2/M
;
_chemical_formula_sum "Si O2"
_cell_formula_units_Z 56
_cell_length_a 14.337581
_cell_length_b 8.898439
_cell_length_c 24.378843
_cell_angle_alpha 90.000000
_cell_angle_beta 74.224452
_cell_angle_gamma 90.000000
_cell_volume 2993.151370
_symmetry_space_group_name_H-M "C 2/M"
_symmetry_group_IT_number 12
_symmetry_cell_setting 'monoclinic'
loop_
_space_group_symop_operation_xyz
x,y,z
-x,y,-z
-x,-y,-z
x,-y,z
1/2+x,1/2+y,z
1/2-x,1/2+y,-z
1/2-x,1/2-y,-z
1/2+x,1/2-y,z
loop_
_atom_site_type_symbol
_atom_site_label
_atom_site_fract_x
_atom_site_fract_y
_atom_site_fract_z
Si Si1 0.323404 0.327824 0.854645
Si Si2 0.618087 0.175871 0.263837
Si Si3 0.635355 0.822626 0.951246
Si Si4 0.559333 0.322925 0.656869
Si Si5 0.453478 0.677007 0.563661
Si Si6 0.450662 0.326020 0.935371
Si Si7 0.724128 0.822910 0.356827
O O1 0.312426 0.500000 0.837418
O O2 0.332445 0.224386 0.800337
O O3 0.230764 0.274160 0.903642
O O4 0.416625 0.306794 0.878421
O O5 0.513349 0.252954 0.286936
O O6 0.690114 0.224473 0.301390
O O7 0.600751 0.000000 0.266600
O O8 0.545207 0.775386 0.927783
O O9 0.632625 0.000000 0.963456
O O10 0.631780 0.732700 0.009296
O O11 0.556398 0.500000 0.665708
O O12 0.525318 0.275458 0.601438
O O13 0.667549 0.260581 0.650084
O O14 0.500000 0.737243 0.500000
O O15 0.438042 0.500000 0.564374
O O16 0.348112 0.750938 0.587257
O O17 0.472673 0.500000 0.944991
O O18 0.721126 0.000000 0.365798
#
# Coordination Sequence:
#
# PCOD8098878 Si02
#       7
#     8   8   8   8   8   8   8
#     4  10  22  37  53  74 102 135 168 204 254 307
#     4  10  21  35  52  75 100 127 169 217 252 294
#     4  10  20  35  54  77 104 133 166 206 251 301
#     4   9  18  35  55  72 101 140 170 204 253 303
#     4   9  18  32  51  78 108 136 169 208 249 296
#     4  10  20  35  54  76 102 133 167 204 249 304
#     4   9  19  35  53  74 100 135 173 207 251 300
#
# _framework density 18.709378999999998
#
# number of rings (size 3 to 8) (size 9 to 14) (size 15 to 20)
#    0.000    2.429    0.000    2.571    0.000    5.429 
#    0.000    4.286    0.000    0.000    0.000    0.000 
#    0.000    0.000    0.000    0.000    0.000    0.000 
#
# Total GULP energy -347247.105776 kJ/mol
# GULP energy per Si atom -12401.682349 kJ/mol
# Density = 1.866680 g / cm^3
# Si number density = 18.709379 Si / 1000 Ang^3
#
#
#
# Elastic Constant Matrix: (Units=GPa)
#
#
# Indices 1 2 3 4 5 6 
#
# 1 105.0536 20.1678 35.5530 0.0000 -9.8043 0.0000
# 2 20.1678 34.2341 26.0172 0.0000 -3.2040 0.0000
# 3 35.5530 26.0172 90.5424 0.0000 -0.6855 0.0000
# 4 0.0000 0.0000 0.0000 32.2812 0.0000 -3.8057
# 5 -9.8043 -3.2040 -0.6855 0.0000 19.2457 0.0000
# 6 0.0000 0.0000 0.0000 -3.8057 0.0000 26.1026
#
#
#
# Elastic Compliance Matrix: (Units=1/GPa)
#
#
# Indices 1 2 3 4 5 6 
#
# 1 0.011955 -0.003848 -0.003548 0.000000 0.005323 0.000000
# 2 -0.003848 0.039279 -0.009744 0.000000 0.004232 0.000000
# 3 -0.003548 -0.009744 0.015216 0.000000 -0.002888 0.000000
# 4 0.000000 0.000000 0.000000 0.031520 0.000000 0.004596
# 5 0.005323 0.004232 -0.002888 0.000000 0.055273 0.000000
# 6 0.000000 0.000000 0.000000 0.004596 0.000000 0.038980
#
#
# Mechanical properties :
#
#
# Convention : Reuss Voigt Hill
#
# Bulk Modulus (GPa) = 31.08527 43.70070 37.39298
# Shear Modulus (GPa) = 21.07689 25.39870 23.23780
#
# Velocity S-wave (km/s) = 3.36004 3.68848 3.52808
# Velocity P-wave (km/s) = 5.63063 6.44579 6.05195
#
# Compressibility (1/GPa) = 0.03216958
#
# Stress axis : x y z
#
# Youngs Moduli (GPa) = 83.64417 25.45909 65.72090
#
# Poissons Ratio (x) = 0.09797 0.23321
# Poissons Ratio (y) = 0.32188 0.64036
# Poissons Ratio (z) = 0.29681 0.24806
#
# Static dielectric constant tensor:
#      x y z
#    x 3.543490 0.000000 -0.003100 
#    y 0.000000 3.339170 0.000000 
#    z -0.003100 0.000000 3.426970 
# 
# 
# High freq. dielectric constant tensor:
#      x y z
#    x 1.730200 0.000000 -0.001500 
#    y 0.000000 1.724060 0.000000 
#    z -0.001500 0.000000 1.723410 
# 
# From -- ./inp_files/337847.got.cif
#   From: 2010.06.25/outbox.cif.g09.slc.cpg/sg12_169_cif.got.tgz:337847.got - 2010.06.28 00:19:55.
