data_PCOD8098662
_publ_section_title
;
Structure prediction by ZEFSAII (Michael W. Deem and Ramdas Pophale) SiO2 
 PCOD8098662
Probable space group: C 2/M
;
_chemical_formula_sum "Si O2"
_cell_formula_units_Z 48
_cell_length_a 26.903573
_cell_length_b 18.495737
_cell_length_c 12.532629
_cell_angle_alpha 90.000000
_cell_angle_beta 157.747666
_cell_angle_gamma 90.000000
_cell_volume 2361.584027
_symmetry_space_group_name_H-M "C 2/M"
_symmetry_group_IT_number 12
_symmetry_cell_setting 'monoclinic'
loop_
_space_group_symop_operation_xyz
x,y,z
-x,y,-z
-x,-y,-z
x,-y,z
1/2+x,1/2+y,z
1/2-x,1/2+y,-z
1/2-x,1/2-y,-z
1/2+x,1/2-y,z
loop_
_atom_site_type_symbol
_atom_site_label
_atom_site_fract_x
_atom_site_fract_y
_atom_site_fract_z
Si Si1 0.655693 0.914841 0.200767
Si Si2 0.639886 0.085639 0.408766
Si Si3 0.010125 0.210851 0.394335
Si Si4 0.733126 0.180131 0.781442
Si Si5 0.852705 0.581820 0.207555
Si Si6 0.323976 0.417564 0.343153
O O1 0.692249 0.894111 0.394590
O O2 0.767820 0.885570 0.343436
O O3 0.649464 0.000000 0.176202
O O4 0.510630 0.887488 0.880497
O O5 0.727330 0.130559 0.665064
O O6 0.654086 0.000000 0.459142
O O7 0.113646 0.264250 0.545876
O O8 0.054205 0.128798 0.456869
O O9 0.000000 0.224937 0.500000
O O10 0.869903 0.223949 0.058684
O O11 0.735643 0.129490 0.890489
O O12 0.853787 0.500000 0.253383
O O13 0.000000 0.613418 0.500000
O O14 0.797527 0.586743 0.979386
O O15 0.374359 0.500000 0.454594
#
# Coordination Sequence:
#
# PCOD8098662 Si02
#       6
#     8   8   8   8   8   8
#     4   8  16  34  64  98 123 155 195 245 308 357
#     4   9  18  36  66  96 123 156 201 250 297 356
#     4  12  27  43  59  86 122 169 204 247 310 366
#     4  12  25  40  61  87 122 163 204 251 300 363
#     4  10  20  34  60  94 121 152 198 250 300 356
#     4  10  21  38  61  88 122 157 198 250 305 361
#
# _framework density 20.325340000000001
#
# number of rings (size 3 to 8) (size 9 to 14) (size 15 to 20)
#    0.000    1.833    1.667    3.500    4.667    4.333 
#    0.000    1.667    0.000    3.000    0.000    0.000 
#    0.000    0.000    0.000    0.000    0.000    0.000 
#
# Total GULP energy -297624.890315 kJ/mol
# GULP energy per Si atom -12401.037096 kJ/mol
# Density = 2.027908 g / cm^3
# Si number density = 20.325340 Si / 1000 Ang^3
#
#
#
# Elastic Constant Matrix: (Units=GPa)
#
#
# Indices 1 2 3 4 5 6 
#
# 1 93.9433 32.4667 42.3472 0.0000 -10.1116 0.0000
# 2 32.4667 67.7754 37.6349 0.0000 -1.1496 0.0000
# 3 42.3472 37.6349 114.9314 0.0000 1.0095 0.0000
# 4 0.0000 0.0000 0.0000 22.3734 0.0000 13.1754
# 5 -10.1116 -1.1496 1.0095 0.0000 30.2130 0.0000
# 6 0.0000 0.0000 0.0000 13.1754 0.0000 16.7152
#
#
#
# Elastic Compliance Matrix: (Units=1/GPa)
#
#
# Indices 1 2 3 4 5 6 
#
# 1 0.014536 -0.004747 -0.003844 0.000000 0.004813 0.000000
# 2 -0.004747 0.019608 -0.004665 0.000000 -0.000687 0.000000
# 3 -0.003844 -0.004665 0.011661 0.000000 -0.001854 0.000000
# 4 0.000000 0.000000 0.000000 0.083416 0.000000 -0.065751
# 5 0.004813 -0.000687 -0.001854 0.000000 0.034745 0.000000
# 6 0.000000 0.000000 0.000000 -0.065751 0.000000 0.111653
#
#
# Mechanical properties :
#
#
# Convention : Reuss Voigt Hill
#
# Bulk Modulus (GPa) = 51.83479 55.72752 53.78115
# Shear Modulus (GPa) = 16.20424 24.80707 20.50566
#
# Velocity S-wave (km/s) = 2.82661 3.49736 3.17972
# Velocity P-wave (km/s) = 6.01755 6.61709 6.32443
#
# Compressibility (1/GPa) = 0.01929206
#
# Stress axis : x y z
#
# Youngs Moduli (GPa) = 68.79466 51.00024 85.75547
#
# Poissons Ratio (x) = 0.24211 0.32961
# Poissons Ratio (y) = 0.32659 0.40009
# Poissons Ratio (z) = 0.26442 0.23794
#
# Static dielectric constant tensor:
#      x y z
#    x 4.036000 0.000000 0.036230 
#    y 0.000000 3.594300 0.000000 
#    z 0.036230 0.000000 3.477330 
# 
# 
# High freq. dielectric constant tensor:
#      x y z
#    x 1.796080 0.000000 -0.001570 
#    y 0.000000 1.783940 0.000000 
#    z -0.001570 0.000000 1.777850 
# 
# From -- ./inp_files/131133.got.cif
#   From: 2010.06.25/outbox.cif.g09.slc.cpg/sg12_66_cif.got.tgz:131133.got - 2010.06.28 00:19:55.
