data_PCOD8098514
_publ_section_title
;
Structure prediction by ZEFSAII (Michael W. Deem and Ramdas Pophale) SiO2 
 PCOD8098514
Probable space group: C 2/M
;
_chemical_formula_sum "Si O2"
_cell_formula_units_Z 64
_cell_length_a 19.901840
_cell_length_b 9.082002
_cell_length_c 24.281139
_cell_angle_alpha 90.000000
_cell_angle_beta 51.271176
_cell_angle_gamma 90.000000
_cell_volume 3423.757002
_symmetry_space_group_name_H-M "C 2/M"
_symmetry_group_IT_number 12
_symmetry_cell_setting 'monoclinic'
loop_
_space_group_symop_operation_xyz
x,y,z
-x,y,-z
-x,-y,-z
x,-y,z
1/2+x,1/2+y,z
1/2-x,1/2+y,-z
1/2-x,1/2-y,-z
1/2+x,1/2-y,z
loop_
_atom_site_type_symbol
_atom_site_label
_atom_site_fract_x
_atom_site_fract_y
_atom_site_fract_z
Si Si1 0.098659 0.829734 0.796873
Si Si2 0.998215 0.673971 0.938341
Si Si3 0.052132 0.827579 0.418403
Si Si4 0.532752 0.830241 0.210491
Si Si5 0.017797 0.665893 0.646812
Si Si6 0.160937 0.330165 0.053064
Si Si7 0.285712 0.168779 0.429080
Si Si8 0.273854 0.828728 0.649207
O O1 0.199082 0.804719 0.732379
O O2 0.076882 0.747447 0.864963
O O3 0.043525 0.768934 0.774250
O O4 0.076316 0.000000 0.815535
O O5 0.011081 0.500000 0.927961
O O6 0.907916 0.722952 0.957349
O O7 0.000000 0.730495 0.000000
O O8 0.139495 0.735735 0.369249
O O9 0.000000 0.785745 0.500000
O O10 0.994767 0.782284 0.395365
O O11 0.072585 0.000000 0.405588
O O12 0.545710 0.800059 0.269007
O O13 0.622350 0.795434 0.133426
O O14 0.506226 0.000000 0.213402
O O15 0.002936 0.500000 0.631815
O O16 0.111999 0.682179 0.624317
O O17 0.180810 0.500000 0.034882
O O18 0.250000 0.250000 0.000000
O O19 0.250000 0.250000 0.500000
O O20 0.245795 0.243913 0.396444
O O21 0.254911 0.000000 0.445755
O O22 0.286185 0.000000 0.628808
#
# Coordination Sequence:
#
# PCOD8098514 Si02
#       8
#     8   8   8   8   8   8   8   8
#     4  10  20  34  57  88 116 145 185 237 284 326
#     4   9  19  37  59  81 111 151 191 228 274 335
#     4  11  25  42  59  81 112 151 192 238 290 342
#     4   9  18  36  59  82 111 150 189 227 278 336
#     4  10  21  38  60  83 111 148 188 231 284 340
#     4   9  18  33  55  81 111 145 181 223 271 325
#     4  11  22  36  59  88 115 146 186 233 282 335
#     4  11  23  39  59  84 116 151 190 234 285 342
#
# _framework density 18.692916
#
# number of rings (size 3 to 8) (size 9 to 14) (size 15 to 20)
#    0.000    2.000    1.250    3.000    0.000    8.250 
#    2.250    0.000    0.000    0.000    0.000    0.000 
#    0.000    0.000    0.000    0.000    0.000    0.000 
#
# Total GULP energy -396867.026615 kJ/mol
# GULP energy per Si atom -12402.094582 kJ/mol
# Density = 1.865037 g / cm^3
# Si number density = 18.692916 Si / 1000 Ang^3
#
#
#
# Elastic Constant Matrix: (Units=GPa)
#
#
# Indices 1 2 3 4 5 6 
#
# 1 55.6747 28.6476 35.1727 -0.0001 1.9746 -0.0003
# 2 28.6476 83.3970 49.3449 -0.0003 -2.9780 -0.0009
# 3 35.1727 49.3449 121.8071 0.0000 8.2329 -0.0001
# 4 -0.0001 -0.0003 0.0000 32.8698 0.0000 -2.6903
# 5 1.9746 -2.9780 8.2329 0.0000 35.8865 0.0000
# 6 -0.0003 -0.0009 -0.0001 -2.6903 0.0000 30.6763
#
#
#
# Elastic Compliance Matrix: (Units=1/GPa)
#
#
# Indices 1 2 3 4 5 6 
#
# 1 0.023687 -0.005449 -0.004585 0.000000 -0.000704 0.000000
# 2 -0.005449 0.017310 -0.005644 0.000000 0.003031 0.000000
# 3 -0.004585 -0.005644 0.012021 0.000000 -0.002974 0.000000
# 4 0.000000 0.000000 0.000000 0.030643 0.000000 0.002687
# 5 -0.000704 0.003031 -0.002974 0.000000 0.028838 0.000000
# 6 0.000000 0.000000 0.000000 0.002687 0.000000 0.032834
#
#
# Mechanical properties :
#
#
# Convention : Reuss Voigt Hill
#
# Bulk Modulus (GPa) = 46.16250 54.13437 50.14843
# Shear Modulus (GPa) = 27.18730 29.73409 28.46070
#
# Velocity S-wave (km/s) = 3.81782 3.99264 3.90621
# Velocity P-wave (km/s) = 6.64704 7.09067 6.87243
#
# Compressibility (1/GPa) = 0.02166261
#
# Stress axis : x y z
#
# Youngs Moduli (GPa) = 42.21790 57.76905 83.18785
#
# Poissons Ratio (x) = 0.31478 0.38139
# Poissons Ratio (y) = 0.23004 0.46951
# Poissons Ratio (z) = 0.19356 0.32605
#
# Static dielectric constant tensor:
#      x y z
#    x 3.265750 0.000000 0.088080 
#    y 0.000000 3.352340 0.000000 
#    z 0.088080 0.000000 4.257790 
# 
# 
# High freq. dielectric constant tensor:
#      x y z
#    x 1.710270 0.000000 0.001570 
#    y 0.000000 1.730160 0.000000 
#    z 0.001570 0.000000 1.738750 
# 
# From -- ./inp_files/345977.got.cif
#   From: 2010.06.25/outbox.cif.g09.slc.cpg/sg12_173_cif.got.tgz:345977.got - 2010.06.28 00:19:55.
