data_PCOD8098556
_publ_section_title
;
Structure prediction by ZEFSAII (Michael W. Deem and Ramdas Pophale) SiO2 
 PCOD8098556
Probable space group: C 2/M
;
_chemical_formula_sum "Si O2"
_cell_formula_units_Z 52
_cell_length_a 12.539570
_cell_length_b 20.037661
_cell_length_c 11.374728
_cell_angle_alpha 90.000000
_cell_angle_beta 60.900564
_cell_angle_gamma 90.000000
_cell_volume 2497.303370
_symmetry_space_group_name_H-M "C 2/M"
_symmetry_group_IT_number 12
_symmetry_cell_setting 'monoclinic'
loop_
_space_group_symop_operation_xyz
x,y,z
-x,y,-z
-x,-y,-z
x,-y,z
1/2+x,1/2+y,z
1/2-x,1/2+y,-z
1/2-x,1/2-y,-z
1/2+x,1/2-y,z
loop_
_atom_site_type_symbol
_atom_site_label
_atom_site_fract_x
_atom_site_fract_y
_atom_site_fract_z
Si Si1 0.224128 0.575336 0.238816
Si Si2 0.950723 0.076673 0.262965
Si Si3 0.500000 0.883791 0.500000
Si Si4 0.886385 0.576308 0.146862
Si Si5 0.861804 0.322334 0.365744
Si Si6 0.214366 0.076645 0.042347
Si Si7 0.415530 0.692002 0.440503
O O1 0.268145 0.500000 0.195364
O O2 0.329161 0.606216 0.265638
O O3 0.088400 0.574640 0.365828
O O4 0.229089 0.610267 0.106796
O O5 0.971418 0.122273 0.365869
O O6 0.068383 0.084602 0.116262
O O7 0.934629 0.000000 0.312728
O O8 0.405276 0.843171 0.472301
O O9 0.864699 0.500000 0.206489
O O10 0.912658 0.627371 0.239689
O O11 0.772263 0.605678 0.131953
O O12 0.000000 0.576857 0.000000
O O13 0.716967 0.322150 0.434929
O O14 0.911425 0.245827 0.334295
O O15 0.256276 0.000000 0.023051
O O16 0.500000 0.719514 0.500000
#
# Coordination Sequence:
#
# PCOD8098556 Si02
#       7
#     8   8   4   8   8   8   8
#     4  10  20  34  57  90 126 158 196 248 304 361
#     4  10  20  36  60  91 120 155 207 254 303 362
#     4  12  21  38  58  86 117 162 204 250 286 374
#     4  10  21  39  62  91 123 159 204 254 307 361
#     4  11  24  40  62  86 122 163 202 248 307 365
#     4   9  18  35  58  86 122 160 195 247 308 355
#     4  11  23  42  63  84 122 164 203 251 308 363
#
# _framework density 20.822458999999998
#
# number of rings (size 3 to 8) (size 9 to 14) (size 15 to 20)
#    0.000    1.692    2.308    2.538    0.000    5.231 
#    0.000    1.538    0.000    3.692    0.000    0.000 
#    0.000    0.000    0.000    0.000    0.000    0.000 
#
# Total GULP energy -322178.397369 kJ/mol
# GULP energy per Si atom -12391.476822 kJ/mol
# Density = 2.077507 g / cm^3
# Si number density = 20.822459 Si / 1000 Ang^3
#
#
#
# Elastic Constant Matrix: (Units=GPa)
#
#
# Indices 1 2 3 4 5 6 
#
# 1 124.4031 26.1294 44.9881 0.0000 -3.7810 0.0000
# 2 26.1294 89.4684 49.4421 0.0000 8.7351 0.0000
# 3 44.9881 49.4421 107.2621 0.0000 0.6821 0.0000
# 4 0.0000 0.0000 0.0000 18.3973 0.0000 5.6384
# 5 -3.7810 8.7351 0.6821 0.0000 33.5061 0.0000
# 6 0.0000 0.0000 0.0000 5.6384 0.0000 24.6762
#
#
#
# Elastic Compliance Matrix: (Units=1/GPa)
#
#
# Indices 1 2 3 4 5 6 
#
# 1 0.009578 -0.000952 -0.003588 0.000000 0.001402 0.000000
# 2 -0.000952 0.015584 -0.006758 0.000000 -0.004033 0.000000
# 3 -0.003588 -0.006758 0.013936 0.000000 0.001073 0.000000
# 4 0.000000 0.000000 0.000000 0.058449 0.000000 -0.013355
# 5 0.001402 -0.004033 0.001073 0.000000 0.031033 0.000000
# 6 0.000000 0.000000 0.000000 -0.013355 0.000000 0.043576
#
#
# Mechanical properties :
#
#
# Convention : Reuss Voigt Hill
#
# Bulk Modulus (GPa) = 60.59629 62.47253 61.53441
# Shear Modulus (GPa) = 24.96850 28.68754 26.82802
#
# Velocity S-wave (km/s) = 3.46658 3.71579 3.59335
# Velocity P-wave (km/s) = 6.72216 6.96255 6.84341
#
# Compressibility (1/GPa) = 0.01650266
#
# Stress axis : x y z
#
# Youngs Moduli (GPa) = 104.40306 64.17001 71.75603
#
# Poissons Ratio (x) = 0.06107 0.25743
# Poissons Ratio (y) = 0.09935 0.48496
# Poissons Ratio (z) = 0.37456 0.43369
#
# Static dielectric constant tensor:
#      x y z
#    x 4.000990 0.000000 0.111680 
#    y 0.000000 3.585450 0.000000 
#    z 0.111680 0.000000 3.532420 
# 
# 
# High freq. dielectric constant tensor:
#      x y z
#    x 1.837300 0.000000 -0.002090 
#    y 0.000000 1.783380 0.000000 
#    z -0.002090 0.000000 1.801030 
# 
# From -- ./inp_files/133806.got.cif
#   From: 2010.06.25/outbox.cif.g09.slc.cpg/sg12_67_cif.got.tgz:133806.got - 2010.06.28 00:19:55.
