data_PCOD8098260
_publ_section_title
;
Structure prediction by ZEFSAII (Michael W. Deem and Ramdas Pophale) SiO2 
 PCOD8098260
Probable space group: C 2/M
;
_chemical_formula_sum "Si O2"
_cell_formula_units_Z 64
_cell_length_a 22.762604
_cell_length_b 8.701416
_cell_length_c 21.111348
_cell_angle_alpha 90.000000
_cell_angle_beta 127.116837
_cell_angle_gamma 90.000000
_cell_volume 3334.323128
_symmetry_space_group_name_H-M "C 2/M"
_symmetry_group_IT_number 12
_symmetry_cell_setting 'monoclinic'
loop_
_space_group_symop_operation_xyz
x,y,z
-x,y,-z
-x,-y,-z
x,-y,z
1/2+x,1/2+y,z
1/2-x,1/2+y,-z
1/2-x,1/2-y,-z
1/2+x,1/2-y,z
loop_
_atom_site_type_symbol
_atom_site_label
_atom_site_fract_x
_atom_site_fract_y
_atom_site_fract_z
Si Si1 0.417586 0.321907 0.937107
Si Si2 0.687712 0.824427 0.884548
Si Si3 0.356113 0.681501 0.537173
Si Si4 0.506011 0.317750 0.574152
Si Si5 0.219113 0.181154 0.383131
Si Si6 0.153723 0.818313 0.736786
Si Si7 0.160018 0.672827 0.003379
Si Si8 0.804804 0.319051 0.767350
O O1 0.416276 0.500000 0.917736
O O2 0.374835 0.230442 0.854643
O O3 0.500000 0.259011 0.000000
O O4 0.381807 0.297456 0.982335
O O5 0.641143 0.771865 0.794008
O O6 0.637101 0.811102 0.914668
O O7 0.716010 0.000000 0.895280
O O8 0.753633 0.703797 0.933659
O O9 0.349034 0.500000 0.524216
O O10 0.438372 0.740589 0.574093
O O11 0.300347 0.755286 0.450306
O O12 0.336053 0.731556 0.595856
O O13 0.500000 0.247684 0.500000
O O14 0.502995 0.500000 0.569499
O O15 0.584621 0.262554 0.650838
O O16 0.188130 0.246803 0.297440
O O17 0.223495 0.000000 0.380162
O O18 0.229442 0.764555 0.752461
O O19 0.153402 0.000000 0.748419
O O20 0.144450 0.500000 0.018340
O O21 0.805081 0.500000 0.759613
#
# Coordination Sequence:
#
# PCOD8098260 Si02
#       8
#     8   8   8   8   8   8   8   8
#     4  11  24  41  60  84 113 146 186 237 292 341
#     4  10  20  34  56  83 113 146 183 231 280 332
#     4   9  18  35  57  81 112 148 189 231 278 336
#     4   9  17  32  55  82 111 143 182 230 278 331
#     4  10  20  34  56  83 113 149 189 232 278 330
#     4  10  20  34  56  84 110 142 188 236 284 338
#     4  10  20  36  58  83 111 145 187 227 277 340
#     4  11  22  37  59  84 110 145 190 233 278 339
#
# _framework density 19.194299999999998
#
# number of rings (size 3 to 8) (size 9 to 14) (size 15 to 20)
#    0.000    2.000    1.250    2.625    0.000    5.500 
#    2.250    0.625    0.000    1.500    0.000    0.000 
#    0.000    0.000    0.000    0.000    0.000    0.000 
#
# Total GULP energy -396779.826697 kJ/mol
# GULP energy per Si atom -12399.369584 kJ/mol
# Density = 1.915061 g / cm^3
# Si number density = 19.194300 Si / 1000 Ang^3
#
#
#
# Elastic Constant Matrix: (Units=GPa)
#
#
# Indices 1 2 3 4 5 6 
#
# 1 94.8242 18.4790 68.7731 0.0000 0.0526 0.0000
# 2 18.4790 38.7770 28.2088 0.0000 -4.9527 0.0000
# 3 68.7731 28.2088 149.8942 0.0000 -7.6005 0.0000
# 4 0.0000 0.0000 0.0000 33.5552 0.0000 -3.3975
# 5 0.0526 -4.9527 -7.6005 0.0000 34.8169 0.0000
# 6 0.0000 0.0000 0.0000 -3.3975 0.0000 24.3280
#
#
#
# Elastic Compliance Matrix: (Units=1/GPa)
#
#
# Indices 1 2 3 4 5 6 
#
# 1 0.016167 -0.002880 -0.006975 0.000000 -0.001957 0.000000
# 2 -0.002880 0.030717 -0.004285 0.000000 0.003438 0.000000
# 3 -0.006975 -0.004285 0.010767 0.000000 0.001751 0.000000
# 4 0.000000 0.000000 0.000000 0.030229 0.000000 0.004222
# 5 -0.001957 0.003438 0.001751 0.000000 0.029596 0.000000
# 6 0.000000 0.000000 0.000000 0.004222 0.000000 0.041694
#
#
# Mechanical properties :
#
#
# Convention : Reuss Voigt Hill
#
# Bulk Modulus (GPa) = 34.04717 57.15746 45.60231
# Shear Modulus (GPa) = 25.34980 29.74232 27.54606
#
# Velocity S-wave (km/s) = 3.63808 3.94069 3.79240
# Velocity P-wave (km/s) = 5.95182 7.10974 6.55639
#
# Compressibility (1/GPa) = 0.02937102
#
# Stress axis : x y z
#
# Youngs Moduli (GPa) = 61.85550 32.55492 92.87983
#
# Poissons Ratio (x) = 0.09377 0.64780
# Poissons Ratio (y) = 0.17816 0.39798
# Poissons Ratio (z) = 0.43142 0.13949
#
# Static dielectric constant tensor:
#      x y z
#    x 3.667620 0.000000 -0.161800 
#    y 0.000000 3.350650 0.000000 
#    z -0.161800 0.000000 3.627230 
# 
# 
# High freq. dielectric constant tensor:
#      x y z
#    x 1.741580 0.000000 -0.015030 
#    y 0.000000 1.737890 0.000000 
#    z -0.015030 0.000000 1.749040 
# 
# From -- ./inp_files/324282.got.cif
#   From: 2010.06.25/outbox.cif.g09.slc.cpg/sg12_163_cif.got.tgz:324282.got - 2010.06.28 00:19:55.
