data_PCOD8098457
_publ_section_title
;
Structure prediction by ZEFSAII (Michael W. Deem and Ramdas Pophale) SiO2 
 PCOD8098457
Probable space group: C 2/M
;
_chemical_formula_sum "Si O2"
_cell_formula_units_Z 56
_cell_length_a 21.375701
_cell_length_b 28.852430
_cell_length_c 9.249362
_cell_angle_alpha 90.000000
_cell_angle_beta 150.841177
_cell_angle_gamma 90.000000
_cell_volume 2779.396519
_symmetry_space_group_name_H-M "C 2/M"
_symmetry_group_IT_number 12
_symmetry_cell_setting 'monoclinic'
loop_
_space_group_symop_operation_xyz
x,y,z
-x,y,-z
-x,-y,-z
x,-y,z
1/2+x,1/2+y,z
1/2-x,1/2+y,-z
1/2-x,1/2-y,-z
1/2+x,1/2-y,z
loop_
_atom_site_type_symbol
_atom_site_label
_atom_site_fract_x
_atom_site_fract_y
_atom_site_fract_z
Si Si1 0.806137 0.867478 0.671323
Si Si2 0.384205 0.054567 0.357756
Si Si3 0.008524 0.770453 0.349898
Si Si4 0.942992 0.132719 0.664061
Si Si5 0.130065 0.448137 0.348700
Si Si6 0.631882 0.552615 0.681204
Si Si7 0.243496 0.271594 0.646335
O O1 0.862474 0.846853 0.635975
O O2 0.723964 0.912277 0.460919
O O3 0.727677 0.826929 0.592688
O O4 0.919049 0.885210 0.003987
O O5 0.500000 0.077693 0.500000
O O6 0.394278 0.072626 0.541152
O O7 0.403052 0.000000 0.396121
O O8 0.246781 0.068550 0.016854
O O9 0.040792 0.825311 0.416077
O O10 0.121919 0.743754 0.495437
O O11 0.000000 0.753973 0.500000
O O12 0.875068 0.760000 0.997992
O O13 0.868866 0.088501 0.451252
O O14 0.190934 0.500000 0.477061
O O15 0.000000 0.449972 0.000000
O O16 0.500000 0.556626 0.500000
O O17 0.653338 0.500000 0.667039
O O18 0.250000 0.250000 0.500000
#
# Coordination Sequence:
#
# PCOD8098457 Si02
#       7
#     8   8   8   8   8   8   8
#     4  10  22  39  60  89 119 157 207 244 297 369
#     4   9  19  36  56  79 112 155 199 241 295 357
#     4  11  23  41  67  97 127 157 202 261 311 363
#     4  10  21  38  61  88 121 160 196 248 309 361
#     4  10  22  38  58  84 120 161 201 250 299 348
#     4  10  20  34  57  85 116 157 202 243 295 357
#     4  11  22  43  68  91 122 168 205 246 310 381
#
# _framework density 20.148257000000001
#
# number of rings (size 3 to 8) (size 9 to 14) (size 15 to 20)
#    0.000    1.857    1.429    2.143    2.000    4.571 
#    0.000    2.143    0.000    0.000    0.000    0.000 
#    0.000    0.000    0.000    0.000    0.000    0.000 
#
# Total GULP energy -347144.618814 kJ/mol
# GULP energy per Si atom -12398.022101 kJ/mol
# Density = 2.010240 g / cm^3
# Si number density = 20.148257 Si / 1000 Ang^3
#
#
#
# Elastic Constant Matrix: (Units=GPa)
#
#
# Indices 1 2 3 4 5 6 
#
# 1 113.1053 41.6169 55.9639 0.0000 -2.4292 0.0000
# 2 41.6169 87.4111 49.6472 0.0000 1.4387 0.0000
# 3 55.9639 49.6472 128.1785 0.0000 -2.3735 0.0000
# 4 0.0000 0.0000 0.0000 7.3990 0.0000 -9.2178
# 5 -2.4292 1.4387 -2.3735 0.0000 38.8481 0.0000
# 6 0.0000 0.0000 0.0000 -9.2178 0.0000 28.8326
#
#
#
# Elastic Compliance Matrix: (Units=1/GPa)
#
#
# Indices 1 2 3 4 5 6 
#
# 1 0.012088 -0.003558 -0.003888 0.000000 0.000650 0.000000
# 2 -0.003558 0.015745 -0.004565 0.000000 -0.001084 0.000000
# 3 -0.003888 -0.004565 0.011279 0.000000 0.000615 0.000000
# 4 0.000000 0.000000 0.000000 0.224616 0.000000 0.071810
# 5 0.000650 -0.001084 0.000615 0.000000 0.025860 0.000000
# 6 0.000000 0.000000 0.000000 0.071810 0.000000 0.057641
#
#
# Mechanical properties :
#
#
# Convention : Reuss Voigt Hill
#
# Bulk Modulus (GPa) = 66.26795 69.23897 67.75346
# Shear Modulus (GPa) = 13.28801 27.11374 20.20087
#
# Velocity S-wave (km/s) = 2.57088 3.67237 3.16984
# Velocity P-wave (km/s) = 6.46329 7.24024 6.86277
#
# Compressibility (1/GPa) = 0.01509025
#
# Stress axis : x y z
#
# Youngs Moduli (GPa) = 82.72716 63.51312 88.66355
#
# Poissons Ratio (x) = 0.22596 0.34469
# Poissons Ratio (y) = 0.29432 0.40476
# Poissons Ratio (z) = 0.32161 0.28995
#
# Static dielectric constant tensor:
#      x y z
#    x 3.746620 0.000000 -0.009820 
#    y 0.000000 3.536920 0.000000 
#    z -0.009820 0.000000 3.737340 
# 
# 
# High freq. dielectric constant tensor:
#      x y z
#    x 1.788420 0.000000 -0.003490 
#    y 0.000000 1.773710 0.000000 
#    z -0.003490 0.000000 1.792990 
# 
# From -- ./inp_files/91647.got.cif
#   From: 2010.06.25/outbox.cif.g09.slc.cpg/sg12_46_cif.got.tgz:91647.got - 2010.06.28 00:19:55.
