data_PCOD8098380
_publ_section_title
;
Structure prediction by ZEFSAII (Michael W. Deem and Ramdas Pophale) SiO2 
 PCOD8098380
Probable space group: C 2/M
;
_chemical_formula_sum "Si O2"
_cell_formula_units_Z 56
_cell_length_a 21.186616
_cell_length_b 8.904174
_cell_length_c 15.139398
_cell_angle_alpha 90.000000
_cell_angle_beta 87.438769
_cell_angle_gamma 90.000000
_cell_volume 2853.183989
_symmetry_space_group_name_H-M "C 2/M"
_symmetry_group_IT_number 12
_symmetry_cell_setting 'monoclinic'
loop_
_space_group_symop_operation_xyz
x,y,z
-x,y,-z
-x,-y,-z
x,-y,z
1/2+x,1/2+y,z
1/2-x,1/2+y,-z
1/2-x,1/2-y,-z
1/2+x,1/2-y,z
loop_
_atom_site_type_symbol
_atom_site_label
_atom_site_fract_x
_atom_site_fract_y
_atom_site_fract_z
Si Si1 0.164877 0.169979 0.955714
Si Si2 0.686191 0.672213 0.474642
Si Si3 0.862946 0.827584 0.711844
Si Si4 0.700551 0.828173 0.124955
Si Si5 0.054886 0.821397 0.563844
Si Si6 0.971573 0.826678 0.095125
Si Si7 0.007511 0.323188 0.271978
O O1 0.224672 0.196733 0.889178
O O2 0.103546 0.198743 0.900299
O O3 0.165211 0.000000 0.993646
O O4 0.165050 0.284742 0.037024
O O5 0.692571 0.500000 0.500703
O O6 0.750000 0.750000 0.500000
O O7 0.680501 0.695284 0.370510
O O8 0.623069 0.736928 0.525703
O O9 0.821313 0.781964 0.797505
O O10 0.923882 0.723713 0.697944
O O11 0.885304 0.000000 0.719307
O O12 0.683528 0.000000 0.148954
O O13 0.000000 0.766625 0.500000
O O14 0.044593 0.751777 0.661379
O O15 0.053151 0.000000 0.571383
O O16 0.000696 0.729322 0.171505
O O17 0.989766 0.000000 0.110255
O O18 0.000000 0.771864 0.000000
O O19 0.999593 0.500000 0.276926
#
# Coordination Sequence:
#
# PCOD8098380 Si02
#       7
#     8   8   8   8   8   8   8
#     4   9  19  36  56  81 116 159 200 239 294 359
#     4  10  23  41  64  91 121 159 198 249 305 359
#     4  11  22  40  61  83 114 156 202 240 295 369
#     4  10  20  34  56  86 117 151 196 248 299 349
#     4  10  20  42  68  88 119 163 209 248 296 367
#     4  10  21  38  60  85 118 161 204 244 291 358
#     4  12  25  38  60  94 123 154 198 254 311 357
#
# _framework density 19.627196000000001
#
# number of rings (size 3 to 8) (size 9 to 14) (size 15 to 20)
#    0.000    1.714    1.429    3.000    0.000    5.714 
#    0.000    4.286    0.000    0.000    0.000    0.000 
#    0.000    0.000    0.000    0.000    0.000    0.000 
#
# Total GULP energy -347304.310362 kJ/mol
# GULP energy per Si atom -12403.725370 kJ/mol
# Density = 1.958252 g / cm^3
# Si number density = 19.627196 Si / 1000 Ang^3
#
#
#
# Elastic Constant Matrix: (Units=GPa)
#
#
# Indices 1 2 3 4 5 6 
#
# 1 122.4868 35.7448 40.7308 0.0000 -0.8791 0.0000
# 2 35.7448 59.4166 34.9455 0.0000 0.4826 0.0000
# 3 40.7308 34.9455 88.7746 0.0000 -9.0791 0.0000
# 4 0.0000 0.0000 0.0000 30.5706 0.0000 0.8113
# 5 -0.8791 0.4826 -9.0791 0.0000 29.2943 0.0000
# 6 0.0000 0.0000 0.0000 0.8113 0.0000 31.1669
#
#
#
# Elastic Compliance Matrix: (Units=1/GPa)
#
#
# Indices 1 2 3 4 5 6 
#
# 1 0.010504 -0.004483 -0.003113 0.000000 -0.000576 0.000000
# 2 -0.004483 0.024096 -0.007728 0.000000 -0.002926 0.000000
# 3 -0.003113 -0.007728 0.016253 0.000000 0.005071 0.000000
# 4 0.000000 0.000000 0.000000 0.032734 0.000000 -0.000852
# 5 -0.000576 -0.002926 0.005071 0.000000 0.035739 0.000000
# 6 0.000000 0.000000 0.000000 -0.000852 0.000000 0.032108
#
#
# Mechanical properties :
#
#
# Convention : Reuss Voigt Hill
#
# Bulk Modulus (GPa) = 49.49277 54.83558 52.16417
# Shear Modulus (GPa) = 26.48070 28.82347 27.65208
#
# Velocity S-wave (km/s) = 3.67711 3.83632 3.75756
# Velocity P-wave (km/s) = 6.58022 6.90090 6.74247
#
# Compressibility (1/GPa) = 0.02020497
#
# Stress axis : x y z
#
# Youngs Moduli (GPa) = 95.20553 41.50044 61.52531
#
# Poissons Ratio (x) = 0.18605 0.19155
# Poissons Ratio (y) = 0.42682 0.47545
# Poissons Ratio (z) = 0.29640 0.32070
#
# Static dielectric constant tensor:
#      x y z
#    x 3.724790 0.000000 -0.167350 
#    y 0.000000 3.532130 0.000000 
#    z -0.167350 0.000000 3.590190 
# 
# 
# High freq. dielectric constant tensor:
#      x y z
#    x 1.771900 0.000000 -0.008330 
#    y 0.000000 1.757890 0.000000 
#    z -0.008330 0.000000 1.766320 
# 
# From -- ./inp_files/230911.got.cif
#   From: 2010.06.25/outbox.cif.g09.slc.cpg/sg12_116_cif.got.tgz:230911.got - 2010.06.28 00:19:55.
