data_PCOD8098369
_publ_section_title
;
Structure prediction by ZEFSAII (Michael W. Deem and Ramdas Pophale) SiO2 
 PCOD8098369
Probable space group: C 2/M
;
_chemical_formula_sum "Si O2"
_cell_formula_units_Z 56
_cell_length_a 15.133224
_cell_length_b 8.936810
_cell_length_c 22.593377
_cell_angle_alpha 90.000000
_cell_angle_beta 70.987120
_cell_angle_gamma 90.000000
_cell_volume 2888.893763
_symmetry_space_group_name_H-M "C 2/M"
_symmetry_group_IT_number 12
_symmetry_cell_setting 'monoclinic'
loop_
_space_group_symop_operation_xyz
x,y,z
-x,y,-z
-x,-y,-z
x,-y,z
1/2+x,1/2+y,z
1/2-x,1/2+y,-z
1/2-x,1/2-y,-z
1/2+x,1/2-y,z
loop_
_atom_site_type_symbol
_atom_site_label
_atom_site_fract_x
_atom_site_fract_y
_atom_site_fract_z
Si Si1 0.542236 0.829342 0.617273
Si Si2 0.656915 0.323002 0.495975
Si Si3 0.812018 0.175777 0.069782
Si Si4 0.383628 0.824595 0.940828
Si Si5 0.416819 0.175031 0.149978
Si Si6 0.343357 0.175135 0.293173
Si Si7 0.660471 0.171301 0.371209
O O1 0.571395 0.725131 0.556227
O O2 0.592193 0.774181 0.666116
O O3 0.430827 0.817029 0.650537
O O4 0.571402 0.000000 0.596283
O O5 0.666846 0.500000 0.493423
O O6 0.750000 0.250000 0.500000
O O7 0.639771 0.267201 0.433775
O O8 0.704317 0.220877 0.080950
O O9 0.841028 0.240997 0.126563
O O10 0.825730 0.000000 0.067682
O O11 0.879023 0.242119 0.004635
O O12 0.477884 0.772815 0.887591
O O13 0.383367 0.000000 0.954160
O O14 0.398045 0.218248 0.221855
O O15 0.404630 0.000000 0.141221
O O16 0.246695 0.264577 0.315439
O O17 0.320699 0.000000 0.301052
O O18 0.681000 0.000000 0.384742
#
# Coordination Sequence:
#
# PCOD8098369 Si02
#       7
#     8   8   8   8   8   8   8
#     4  10  22  40  61  85 115 151 191 234 285 343
#     4  12  23  37  61  89 118 149 187 236 290 341
#     4  10  20  34  56  86 115 143 183 235 287 332
#     4   9  19  36  57  81 113 150 187 226 278 343
#     4  10  21  37  57  80 110 152 195 228 276 338
#     4  10  22  40  59  80 111 153 194 235 280 334
#     4  11  23  39  61  88 116 149 190 236 289 344
#
# _framework density 19.384582999999999
#
# number of rings (size 3 to 8) (size 9 to 14) (size 15 to 20)
#    0.000    1.714    1.429    3.000    0.000    7.429 
#    0.000    2.857    0.000    0.000    0.000    0.000 
#    0.000    0.000    0.000    0.000    0.000    0.000 
#
# Total GULP energy -347324.786977 kJ/mol
# GULP energy per Si atom -12404.456678 kJ/mol
# Density = 1.934046 g / cm^3
# Si number density = 19.384583 Si / 1000 Ang^3
#
#
#
# Elastic Constant Matrix: (Units=GPa)
#
#
# Indices 1 2 3 4 5 6 
#
# 1 98.0556 33.9538 45.2492 0.0000 -13.8342 0.0000
# 2 33.9538 78.8630 41.6981 0.0000 -4.3170 0.0000
# 3 45.2492 41.6981 113.5684 0.0000 -6.5038 0.0000
# 4 0.0000 0.0000 0.0000 30.1015 0.0000 -0.4937
# 5 -13.8342 -4.3170 -6.5038 0.0000 21.6921 0.0000
# 6 0.0000 0.0000 0.0000 -0.4937 0.0000 31.5402
#
#
#
# Elastic Compliance Matrix: (Units=1/GPa)
#
#
# Indices 1 2 3 4 5 6 
#
# 1 0.014307 -0.003685 -0.003935 0.000000 0.007212 0.000000
# 2 -0.003685 0.016727 -0.004698 0.000000 -0.000430 0.000000
# 3 -0.003935 -0.004698 0.012109 0.000000 0.000186 0.000000
# 4 0.000000 0.000000 0.000000 0.033229 0.000000 0.000520
# 5 0.007212 -0.000430 0.000186 0.000000 0.050669 0.000000
# 6 0.000000 0.000000 0.000000 0.000520 0.000000 0.031714
#
#
# Mechanical properties :
#
#
# Convention : Reuss Voigt Hill
#
# Bulk Modulus (GPa) = 54.03008 59.14325 56.58667
# Shear Modulus (GPa) = 26.37689 27.97248 27.17469
#
# Velocity S-wave (km/s) = 3.69279 3.80284 3.74822
# Velocity P-wave (km/s) = 6.79084 7.06108 6.92728
#
# Compressibility (1/GPa) = 0.01850821
#
# Stress axis : x y z
#
# Youngs Moduli (GPa) = 69.89422 59.78278 82.58627
#
# Poissons Ratio (x) = 0.22029 0.32494
# Poissons Ratio (y) = 0.25754 0.38800
# Poissons Ratio (z) = 0.27500 0.28086
#
# Static dielectric constant tensor:
#      x y z
#    x 3.748180 0.000000 -0.035820 
#    y 0.000000 3.557200 0.000000 
#    z -0.035820 0.000000 3.544440 
# 
# 
# High freq. dielectric constant tensor:
#      x y z
#    x 1.767310 0.000000 -0.003250 
#    y 0.000000 1.753310 0.000000 
#    z -0.003250 0.000000 1.747180 
# 
# From -- ./inp_files/338536.got.cif
#   From: 2010.06.25/outbox.cif.g09.slc.cpg/sg12_170_cif.got.tgz:338536.got - 2010.06.28 00:19:55.
