data_PCOD8098978
_publ_section_title
;
Structure prediction by ZEFSAII (Michael W. Deem and Ramdas Pophale) SiO2 
 PCOD8098978
Probable space group: C 2/M
;
_chemical_formula_sum "Si O2"
_cell_formula_units_Z 52
_cell_length_a 16.963940
_cell_length_b 12.431688
_cell_length_c 24.847845
_cell_angle_alpha 90.000000
_cell_angle_beta 31.202788
_cell_angle_gamma 90.000000
_cell_volume 2714.768837
_symmetry_space_group_name_H-M "C 2/M"
_symmetry_group_IT_number 12
_symmetry_cell_setting 'monoclinic'
loop_
_space_group_symop_operation_xyz
x,y,z
-x,y,-z
-x,-y,-z
x,-y,z
1/2+x,1/2+y,z
1/2-x,1/2+y,-z
1/2-x,1/2-y,-z
1/2+x,1/2-y,z
loop_
_atom_site_type_symbol
_atom_site_label
_atom_site_fract_x
_atom_site_fract_y
_atom_site_fract_z
Si Si1 0.745501 0.378466 0.630647
Si Si2 0.403093 0.375936 0.005011
Si Si3 0.900168 0.223595 0.378889
Si Si4 0.051748 0.375746 0.209961
Si Si5 0.647334 0.625123 0.312589
Si Si6 0.073628 0.751234 0.816657
Si Si7 0.500000 0.281412 0.500000
O O1 0.805427 0.500000 0.600762
O O2 0.631300 0.369230 0.646889
O O3 0.666614 0.346232 0.732838
O O4 0.882841 0.296686 0.537549
O O5 0.433944 0.500000 0.972345
O O6 0.448034 0.303654 0.928095
O O7 0.500000 0.340489 0.000000
O O8 0.227462 0.355454 0.121064
O O9 0.750000 0.250000 0.500000
O O10 0.951035 0.330843 0.317714
O O11 0.036806 0.182924 0.335554
O O12 0.010889 0.500000 0.228516
O O13 0.011794 0.321914 0.176696
O O14 0.661115 0.500000 0.290579
O O15 0.813292 0.679439 0.212911
O O16 0.583548 0.640207 0.409904
#
# Coordination Sequence:
#
# PCOD8098978 Si02
#       7
#     8   8   8   8   8   8   4
#     4  10  20  35  54  79 113 150 190 237 287 340
#     4  10  20  37  62  90 118 154 194 240 294 344
#     4  11  22  39  55  84 116 151 197 239 292 342
#     4  10  22  39  61  88 117 153 199 242 291 349
#     4  11  22  37  57  81 114 152 191 236 289 346
#     4  10  21  37  59  86 119 152 194 238 292 349
#     4  10  20  36  52  80 110 146 194 234 282 338
#
# _framework density 19.154485999999999
#
# number of rings (size 3 to 8) (size 9 to 14) (size 15 to 20)
#    0.000    1.692    1.538    3.231    0.000    1.231 
#    0.000    0.769    0.000   11.077    0.000    0.000 
#    0.000    0.000    0.000    0.000    0.000    0.000 
#
# Total GULP energy -322484.789690 kJ/mol
# GULP energy per Si atom -12403.261142 kJ/mol
# Density = 1.911089 g / cm^3
# Si number density = 19.154486 Si / 1000 Ang^3
#
#
#
# Elastic Constant Matrix: (Units=GPa)
#
#
# Indices 1 2 3 4 5 6 
#
# 1 120.0624 44.0379 31.1702 0.0004 -11.1441 0.0000
# 2 44.0379 109.3347 46.5220 -0.0010 6.9970 0.0002
# 3 31.1702 46.5220 100.3826 -0.0044 6.3937 0.0002
# 4 0.0004 -0.0010 -0.0044 22.6390 0.0003 -1.1843
# 5 -11.1441 6.9970 6.3937 0.0003 31.1287 0.0002
# 6 0.0000 0.0002 0.0002 -1.1843 0.0002 22.2641
#
#
#
# Elastic Compliance Matrix: (Units=1/GPa)
#
#
# Indices 1 2 3 4 5 6 
#
# 1 0.010692 -0.003838 -0.001864 -0.000001 0.005073 0.000000
# 2 -0.003838 0.012840 -0.004547 0.000000 -0.003326 0.000000
# 3 -0.001864 -0.004547 0.012793 0.000002 -0.002273 0.000000
# 4 -0.000001 0.000000 0.000002 0.044295 -0.000001 0.002356
# 5 0.005073 -0.003326 -0.002273 -0.000001 0.035155 0.000000
# 6 0.000000 0.000000 0.000000 0.002356 0.000000 0.045041
#
#
# Mechanical properties :
#
#
# Convention : Reuss Voigt Hill
#
# Bulk Modulus (GPa) = 63.18788 63.69331 63.44060
# Shear Modulus (GPa) = 26.79695 29.07633 27.93664
#
# Velocity S-wave (km/s) = 3.74437 3.90037 3.82316
# Velocity P-wave (km/s) = 7.19402 7.32178 7.25818
#
# Compressibility (1/GPa) = 0.01582582
#
# Stress axis : x y z
#
# Youngs Moduli (GPa) = 93.53174 77.88422 78.16852
#
# Poissons Ratio (x) = 0.29890 0.14574
# Poissons Ratio (y) = 0.35895 0.35543
# Poissons Ratio (z) = 0.17438 0.35414
#
# Static dielectric constant tensor:
#      x y z
#    x 3.639690 0.000000 -0.131530 
#    y 0.000000 3.410270 0.000000 
#    z -0.131530 0.000000 3.435730 
# 
# 
# High freq. dielectric constant tensor:
#      x y z
#    x 1.759340 0.000000 -0.009160 
#    y 0.000000 1.742210 0.000000 
#    z -0.009160 0.000000 1.740390 
# 
# From -- ./inp_files/363605.got.cif
#   From: 2010.06.25/outbox.cif.g09.slc.cpg/sg12_182_cif.got.tgz:363605.got - 2010.06.28 00:19:55.
