data_PCOD8098708
_publ_section_title
;
Structure prediction by ZEFSAII (Michael W. Deem and Ramdas Pophale) SiO2 
 PCOD8098708
Probable space group: C 2/M
;
_chemical_formula_sum "Si O2"
_cell_formula_units_Z 48
_cell_length_a 9.697848
_cell_length_b 14.281118
_cell_length_c 27.836007
_cell_angle_alpha 90.000000
_cell_angle_beta 36.038316
_cell_angle_gamma 90.000000
_cell_volume 2268.102435
_symmetry_space_group_name_H-M "C 2/M"
_symmetry_group_IT_number 12
_symmetry_cell_setting 'monoclinic'
loop_
_space_group_symop_operation_xyz
x,y,z
-x,y,-z
-x,-y,-z
x,-y,z
1/2+x,1/2+y,z
1/2-x,1/2+y,-z
1/2-x,1/2-y,-z
1/2+x,1/2-y,z
loop_
_atom_site_type_symbol
_atom_site_label
_atom_site_fract_x
_atom_site_fract_y
_atom_site_fract_z
Si Si1 0.807633 0.387454 0.591377
Si Si2 0.195507 0.396799 0.303131
Si Si3 0.745992 0.602638 0.152604
Si Si4 0.130542 0.612727 0.217367
Si Si5 0.505403 0.276680 0.945740
Si Si6 0.212588 0.110367 0.269792
O O1 0.804877 0.500000 0.594819
O O2 0.870826 0.347822 0.627249
O O3 0.551147 0.351198 0.646648
O O4 0.000000 0.349111 0.500000
O O5 0.082277 0.500000 0.335237
O O6 0.472477 0.404568 0.221336
O O7 0.107690 0.346803 0.278661
O O8 0.858804 0.500000 0.111362
O O9 0.854717 0.679258 0.087043
O O10 0.799146 0.636331 0.192123
O O11 0.148774 0.500000 0.211748
O O12 0.365406 0.652432 0.126829
O O13 0.900452 0.652433 0.254577
O O14 0.500000 0.324164 0.000000
O O15 0.250000 0.250000 0.000000
O O16 0.208021 0.000000 0.277465
#
# Coordination Sequence:
#
# PCOD8098708 Si02
#       6
#     8   8   8   8   8   8
#     4   8  13  24  46  78 109 133 168 215 249 285
#     4   8  15  29  50  72  96 133 173 205 247 300
#     4   9  18  35  54  71  96 130 169 210 251 306
#     4  10  20  35  51  70 102 139 174 210 249 305
#     4  12  25  36  51  77 101 127 170 218 267 311
#     4   8  15  29  50  72  97 135 173 202 246 305
#
# _framework density 21.163065
#
# number of rings (size 3 to 8) (size 9 to 14) (size 15 to 20)
#    0.000    2.833    0.000    4.000    0.000    1.333 
#    0.000    0.833    0.000    5.000    0.000   18.667 
#    0.000    0.000    0.000    0.000    0.000    0.333 
#
# Total GULP energy -297375.272248 kJ/mol
# GULP energy per Si atom -12390.636344 kJ/mol
# Density = 2.111490 g / cm^3
# Si number density = 21.163065 Si / 1000 Ang^3
#
#
#
# Elastic Constant Matrix: (Units=GPa)
#
#
# Indices 1 2 3 4 5 6 
#
# 1 168.6421 -3.0546 57.0801 0.0061 19.1640 -0.0090
# 2 -3.0546 35.2681 16.8331 0.0085 3.3063 -0.0017
# 3 57.0801 16.8331 111.3787 -0.0422 15.0908 0.0037
# 4 0.0061 0.0085 -0.0422 15.1655 0.0148 3.8163
# 5 19.1640 3.3063 15.0908 0.0148 29.1150 0.0038
# 6 -0.0090 -0.0017 0.0037 3.8163 0.0038 10.5150
#
#
#
# Elastic Compliance Matrix: (Units=1/GPa)
#
#
# Indices 1 2 3 4 5 6 
#
# 1 0.007688 0.002849 -0.003916 -0.000016 -0.003354 0.000015
# 2 0.002849 0.031651 -0.005918 -0.000039 -0.002402 0.000025
# 3 -0.003916 -0.005918 0.012304 0.000048 -0.003127 -0.000025
# 4 -0.000016 -0.000039 0.000048 0.072567 -0.000043 -0.026338
# 5 -0.003354 -0.002402 -0.003127 -0.000043 0.038448 0.000000
# 6 0.000015 0.000025 -0.000025 -0.026338 0.000000 0.104661
#
#
# Mechanical properties :
#
#
# Convention : Reuss Voigt Hill
#
# Bulk Modulus (GPa) = 26.54466 50.77845 38.66156
# Shear Modulus (GPa) = 17.01569 27.25446 22.13507
#
# Velocity S-wave (km/s) = 2.83861 3.59253 3.23759
# Velocity P-wave (km/s) = 4.82844 6.42296 5.68191
#
# Compressibility (1/GPa) = 0.03767236
#
# Stress axis : x y z
#
# Youngs Moduli (GPa) = 130.07295 31.59457 81.27705
#
# Poissons Ratio (x) = -0.09003 0.31830
# Poissons Ratio (y) = -0.37064 0.48103
# Poissons Ratio (z) = 0.50939 0.18699
#
# Static dielectric constant tensor:
#      x y z
#    x 4.792980 -0.000100 0.803070 
#    y -0.000100 3.714130 -0.000110 
#    z 0.803070 -0.000110 4.550190 
# 
# 
# High freq. dielectric constant tensor:
#      x y z
#    x 1.840410 0.000000 0.009890 
#    y 0.000000 1.803090 0.000000 
#    z 0.009890 0.000000 1.806600 
# 
# From -- ./inp_files/356281.got.cif
#   From: 2010.06.25/outbox.cif.g09.slc.cpg/sg12_179_cif.got.tgz:356281.got - 2010.06.28 00:19:55.
