data_PCOD8098013
_publ_section_title
;
Structure prediction by ZEFSAII (Michael W. Deem and Ramdas Pophale) SiO2 
 PCOD8098013
Probable space group: C 2/M
;
_chemical_formula_sum "Si O2"
_cell_formula_units_Z 48
_cell_length_a 17.733366
_cell_length_b 9.086871
_cell_length_c 15.352405
_cell_angle_alpha 90.000000
_cell_angle_beta 89.463063
_cell_angle_gamma 90.000000
_cell_volume 2473.790335
_symmetry_space_group_name_H-M "C 2/M"
_symmetry_group_IT_number 12
_symmetry_cell_setting 'monoclinic'
loop_
_space_group_symop_operation_xyz
x,y,z
-x,y,-z
-x,-y,-z
x,-y,z
1/2+x,1/2+y,z
1/2-x,1/2+y,-z
1/2-x,1/2-y,-z
1/2+x,1/2-y,z
loop_
_atom_site_type_symbol
_atom_site_label
_atom_site_fract_x
_atom_site_fract_y
_atom_site_fract_z
Si Si1 0.412719 0.330726 0.520648
Si Si2 0.412390 0.328812 0.834685
Si Si3 0.828503 0.829143 0.012950
Si Si4 0.161459 0.674434 0.322024
Si Si5 0.831191 0.825375 0.349689
Si Si6 0.583206 0.675282 0.820422
O O1 0.500000 0.314085 0.500000
O O2 0.391301 0.500000 0.539455
O O3 0.395591 0.235755 0.605678
O O4 0.365754 0.266138 0.439615
O O5 0.407920 0.500000 0.808608
O O6 0.384667 0.301275 0.932535
O O7 0.359021 0.236849 0.771847
O O8 0.497481 0.268072 0.826286
O O9 0.810557 0.000000 0.025198
O O10 0.750000 0.750000 0.000000
O O11 0.869309 0.764113 0.098155
O O12 0.156217 0.500000 0.319474
O O13 0.245484 0.728968 0.344041
O O14 0.879053 0.762081 0.268081
O O15 0.837010 0.000000 0.347600
O O16 0.583529 0.500000 0.823088
#
# Coordination Sequence:
#
# PCOD8098013 Si02
#       6
#     8   8   8   8   8   8
#     4  10  20  36  58  80 103 137 181 222 258 306
#     4  10  20  35  56  80 105 139 184 224 257 305
#     4  10  20  34  55  82 110 141 177 218 265 314
#     4  11  22  35  53  79 111 142 171 213 271 323
#     4   9  18  32  52  78 106 138 174 214 264 316
#     4   9  17  33  56  79 104 137 180 223 258 303
#
# _framework density 19.403421000000002
#
# number of rings (size 3 to 8) (size 9 to 14) (size 15 to 20)
#    0.000    2.167    0.000    3.500    0.000    7.000 
#    0.000    1.667    0.000    7.000    0.000    0.000 
#    0.000    0.000    0.000    0.000    0.000    0.000 
#
# Total GULP energy -297680.931347 kJ/mol
# GULP energy per Si atom -12403.372139 kJ/mol
# Density = 1.935926 g / cm^3
# Si number density = 19.403421 Si / 1000 Ang^3
#
#
#
# Elastic Constant Matrix: (Units=GPa)
#
#
# Indices 1 2 3 4 5 6 
#
# 1 91.1437 24.1597 12.3071 0.0000 7.0381 0.0000
# 2 24.1597 38.7601 21.9696 0.0000 -0.4902 0.0000
# 3 12.3071 21.9696 87.2561 0.0000 6.8830 0.0000
# 4 0.0000 0.0000 0.0000 20.5055 0.0000 6.1094
# 5 7.0381 -0.4902 6.8830 0.0000 43.0351 0.0000
# 6 0.0000 0.0000 0.0000 6.1094 0.0000 24.9532
#
#
#
# Elastic Compliance Matrix: (Units=1/GPa)
#
#
# Indices 1 2 3 4 5 6 
#
# 1 0.013380 -0.008639 0.000474 0.000000 -0.002362 0.000000
# 2 -0.008639 0.035778 -0.008035 0.000000 0.003105 0.000000
# 3 0.000474 -0.008035 0.013602 0.000000 -0.002345 0.000000
# 4 0.000000 0.000000 0.000000 0.052605 0.000000 -0.012879
# 5 -0.002362 0.003105 -0.002345 0.000000 0.024034 0.000000
# 6 0.000000 0.000000 0.000000 -0.012879 0.000000 0.043228
#
#
# Mechanical properties :
#
#
# Convention : Reuss Voigt Hill
#
# Bulk Modulus (GPa) = 32.93697 37.11475 35.02586
# Shear Modulus (GPa) = 22.20800 28.28034 25.24417
#
# Velocity S-wave (km/s) = 3.38678 3.82185 3.61087
# Velocity P-wave (km/s) = 5.68378 6.21650 5.95610
#
# Compressibility (1/GPa) = 0.03036102
#
# Stress axis : x y z
#
# Youngs Moduli (GPa) = 74.73881 27.95038 73.52081
#
# Poissons Ratio (x) = 0.24145 -0.03487
# Poissons Ratio (y) = 0.64564 0.59072
# Poissons Ratio (z) = -0.03544 0.22457
#
# Static dielectric constant tensor:
#      x y z
#    x 3.730880 0.000000 0.045880 
#    y 0.000000 3.156590 0.000000 
#    z 0.045880 0.000000 3.767700 
# 
# 
# High freq. dielectric constant tensor:
#      x y z
#    x 1.772080 0.000000 0.001530 
#    y 0.000000 1.710370 0.000000 
#    z 0.001530 0.000000 1.774670 
# 
# From -- ./inp_files/221531.got.cif
#   From: 2010.06.25/outbox.cif.g09.slc.cpg/sg12_111_cif.got.tgz:221531.got - 2010.06.28 00:19:55.
