data_PCOD8098347
_publ_section_title
;
Structure prediction by ZEFSAII (Michael W. Deem and Ramdas Pophale) SiO2 
 PCOD8098347
Probable space group: C 2/M
;
_chemical_formula_sum "Si O2"
_cell_formula_units_Z 56
_cell_length_a 28.273439
_cell_length_b 8.871544
_cell_length_c 12.724584
_cell_angle_alpha 90.000000
_cell_angle_beta 56.763951
_cell_angle_gamma 90.000000
_cell_volume 2669.596719
_symmetry_space_group_name_H-M "C 2/M"
_symmetry_group_IT_number 12
_symmetry_cell_setting 'monoclinic'
loop_
_space_group_symop_operation_xyz
x,y,z
-x,y,-z
-x,-y,-z
x,-y,z
1/2+x,1/2+y,z
1/2-x,1/2+y,-z
1/2-x,1/2-y,-z
1/2+x,1/2-y,z
loop_
_atom_site_type_symbol
_atom_site_label
_atom_site_fract_x
_atom_site_fract_y
_atom_site_fract_z
Si Si1 0.002922 0.672394 0.299633
Si Si2 0.525986 0.665852 0.860870
Si Si3 0.880468 0.679274 0.492614
Si Si4 0.186505 0.826308 0.239990
Si Si5 0.127929 0.680351 0.124188
Si Si6 0.653937 0.332735 0.677149
Si Si7 0.812862 0.327942 0.157556
O O1 0.006137 0.500000 0.327004
O O2 0.991356 0.696860 0.191492
O O3 0.946160 0.741989 0.423973
O O4 0.065938 0.739671 0.241330
O O5 0.504447 0.500000 0.847769
O O6 0.592037 0.657705 0.799181
O O7 0.500000 0.715316 0.000000
O O8 0.881967 0.500000 0.480016
O O9 0.848516 0.728021 0.634978
O O10 0.846895 0.742598 0.431936
O O11 0.173833 0.763061 0.139898
O O12 0.252600 0.805384 0.176771
O O13 0.168157 0.000000 0.272376
O O14 0.133245 0.500000 0.129089
O O15 0.140670 0.725832 0.986484
O O16 0.678550 0.500000 0.624117
O O17 0.689449 0.259191 0.728534
O O18 0.824826 0.500000 0.172631
#
# Coordination Sequence:
#
# PCOD8098347 Si02
#       7
#     8   8   8   8   8   8   8
#     4   9  19  34  55  82 109 141 183 227 271 328
#     4   9  17  29  47  76 113 147 178 218 272 331
#     4  10  21  39  60  83 114 151 188 227 277 333
#     4  11  24  40  58  82 112 148 192 237 278 328
#     4  10  21  39  61  85 113 146 186 232 282 333
#     4  10  20  34  56  85 115 147 185 230 278 331
#     4  10  22  39  59  84 114 148 187 231 280 334
#
# _framework density 20.976952000000001
#
# number of rings (size 3 to 8) (size 9 to 14) (size 15 to 20)
#    0.000    2.143    0.000    2.571    0.000    4.857 
#    0.000    2.857    0.000    0.000    0.000    0.000 
#    0.000    0.000    0.000    0.000    0.000    0.000 
#
# Total GULP energy -346885.786687 kJ/mol
# GULP energy per Si atom -12388.778096 kJ/mol
# Density = 2.092921 g / cm^3
# Si number density = 20.976952 Si / 1000 Ang^3
#
#
#
# Elastic Constant Matrix: (Units=GPa)
#
#
# Indices 1 2 3 4 5 6 
#
# 1 75.3910 25.2764 8.4507 0.0000 6.3362 0.0000
# 2 25.2764 55.3579 15.0198 0.0000 -3.4283 0.0000
# 3 8.4507 15.0198 66.8961 0.0000 -14.5194 0.0000
# 4 0.0000 0.0000 0.0000 19.2942 0.0000 11.0421
# 5 6.3362 -3.4283 -14.5194 0.0000 13.3410 0.0000
# 6 0.0000 0.0000 0.0000 11.0421 0.0000 28.4416
#
#
#
# Elastic Compliance Matrix: (Units=1/GPa)
#
#
# Indices 1 2 3 4 5 6 
#
# 1 0.017502 -0.007917 -0.003508 0.000000 -0.014164 0.000000
# 2 -0.007917 0.022818 -0.002664 0.000000 0.006725 0.000000
# 3 -0.003508 -0.002664 0.021214 0.000000 0.024069 0.000000
# 4 0.000000 0.000000 0.000000 0.066635 0.000000 -0.025870
# 5 -0.014164 0.006725 0.024069 0.000000 0.109607 0.000000
# 6 0.000000 0.000000 0.000000 -0.025870 0.000000 0.045204
#
#
# Mechanical properties :
#
#
# Convention : Reuss Voigt Hill
#
# Bulk Modulus (GPa) = 29.97805 32.79318 31.38562
# Shear Modulus (GPa) = 15.51472 22.14190 18.82831
#
# Velocity S-wave (km/s) = 2.72252 3.25242 2.99920
# Velocity P-wave (km/s) = 4.91984 5.45630 5.19500
#
# Compressibility (1/GPa) = 0.03335774
#
# Stress axis : x y z
#
# Youngs Moduli (GPa) = 57.13595 43.82453 47.13934
#
# Poissons Ratio (x) = 0.34696 0.16535
# Poissons Ratio (y) = 0.45234 0.12556
# Poissons Ratio (z) = 0.20042 0.11673
#
# Static dielectric constant tensor:
#      x y z
#    x 3.861760 0.000000 -0.206710 
#    y 0.000000 3.816640 0.000000 
#    z -0.206710 0.000000 3.720460 
# 
# 
# High freq. dielectric constant tensor:
#      x y z
#    x 1.821000 0.000000 -0.009110 
#    y 0.000000 1.809890 0.000000 
#    z -0.009110 0.000000 1.824880 
# 
# From -- ./inp_files/180772.got.cif
#   From: 2010.06.25/outbox.cif.g09.slc.cpg/sg12_91_cif.got.tgz:180772.got - 2010.06.28 00:19:55.
