data_PCOD8098502
_publ_section_title
;
Structure prediction by ZEFSAII (Michael W. Deem and Ramdas Pophale) SiO2 
 PCOD8098502
Probable space group: C 2/M
;
_chemical_formula_sum "Si O2"
_cell_formula_units_Z 64
_cell_length_a 15.660725
_cell_length_b 18.208656
_cell_length_c 19.257361
_cell_angle_alpha 90.000000
_cell_angle_beta 34.192435
_cell_angle_gamma 90.000000
_cell_volume 3086.049452
_symmetry_space_group_name_H-M "C 2/M"
_symmetry_group_IT_number 12
_symmetry_cell_setting 'monoclinic'
loop_
_space_group_symop_operation_xyz
x,y,z
-x,y,-z
-x,-y,-z
x,-y,z
1/2+x,1/2+y,z
1/2-x,1/2+y,-z
1/2-x,1/2-y,-z
1/2+x,1/2-y,z
loop_
_atom_site_type_symbol
_atom_site_label
_atom_site_fract_x
_atom_site_fract_y
_atom_site_fract_z
Si Si1 0.649389 0.578098 0.944426
Si Si2 0.377684 0.729600 0.782504
Si Si3 0.955155 0.081185 0.339038
Si Si4 0.871507 0.284545 0.286434
Si Si5 0.567297 0.272031 0.031622
Si Si6 0.122215 0.356615 0.314624
Si Si7 0.293914 0.857148 0.586127
Si Si8 0.154861 0.083102 0.434070
O O1 0.679888 0.500000 0.962712
O O2 0.621301 0.645064 0.017048
O O3 0.796407 0.593077 0.797067
O O4 0.500000 0.569135 0.000000
O O5 0.420685 0.645080 0.743506
O O6 0.495899 0.781238 0.745291
O O7 0.218851 0.722912 0.930689
O O8 0.358078 0.770933 0.721627
O O9 0.840596 0.092624 0.352356
O O10 0.862389 0.085754 0.472191
O O11 0.030721 0.000000 0.280785
O O12 0.740221 0.229474 0.401488
O O13 0.798210 0.364199 0.321692
O O14 0.940202 0.257867 0.167601
O O15 0.500000 0.276136 0.000000
O O16 0.199297 0.371863 0.336620
O O17 0.945227 0.376924 0.441892
O O18 0.000000 0.109791 0.500000
O O19 0.193695 0.000000 0.382710
#
# Coordination Sequence:
#
# PCOD8098502 Si02
#       8
#     8   8   8   8   8   8   8   8
#     4   9  18  34  53  77 114 156 198 241 292 353
#     4  10  21  38  60  88 121 159 210 255 304 363
#     4  10  22  40  59  85 126 164 199 250 316 374
#     4  11  21  37  61  85 119 160 203 258 309 363
#     4  10  21  37  60  88 115 158 211 261 303 363
#     4  10  20  34  57  87 118 155 204 251 300 366
#     4  10  21  34  57  91 120 157 199 252 307 367
#     4  10  23  39  61  90 121 161 208 256 314 376
#
# _framework density 20.738489000000001
#
# number of rings (size 3 to 8) (size 9 to 14) (size 15 to 20)
#    0.000    2.000    0.000    4.125    5.250    3.000 
#    0.000    9.375    0.000    0.750    0.000    0.000 
#    0.000    0.000    0.000    0.000    0.000    0.000 
#
# Total GULP energy -396595.304497 kJ/mol
# GULP energy per Si atom -12393.603266 kJ/mol
# Density = 2.069129 g / cm^3
# Si number density = 20.738489 Si / 1000 Ang^3
#
#
#
# Elastic Constant Matrix: (Units=GPa)
#
#
# Indices 1 2 3 4 5 6 
#
# 1 56.8399 33.8303 27.1987 0.0449 2.0319 -0.0505
# 2 33.8303 167.8429 65.5188 0.0059 -8.8415 -0.0133
# 3 27.1987 65.5188 100.3383 0.1182 -9.3965 -0.1502
# 4 0.0449 0.0059 0.1182 186.8343 -0.0196 -182.1950
# 5 2.0319 -8.8415 -9.3965 -0.0196 30.1259 0.0261
# 6 -0.0505 -0.0133 -0.1502 -182.1950 0.0261 221.9835
#
#
#
# Elastic Compliance Matrix: (Units=1/GPa)
#
#
# Indices 1 2 3 4 5 6 
#
# 1 0.021473 -0.002838 -0.004307 -0.000003 -0.003625 0.000000
# 2 -0.002838 0.008387 -0.004593 0.000001 0.001220 -0.000003
# 3 -0.004307 -0.004593 0.014456 0.000002 0.003451 0.000009
# 4 -0.000003 0.000001 0.000002 0.026812 -0.000001 0.022007
# 5 -0.003625 0.001220 0.003451 -0.000001 0.034873 -0.000003
# 6 0.000000 -0.000003 0.000009 0.022007 -0.000003 0.022567
#
#
# Mechanical properties :
#
#
# Convention : Reuss Voigt Hill
#
# Bulk Modulus (GPa) = 47.98384 64.23522 56.10953
# Shear Modulus (GPa) = 31.44822 101.02030 66.23426
#
# Velocity S-wave (km/s) = 3.89835 6.98693 5.65749
# Velocity P-wave (km/s) = 6.59171 9.80463 8.35408
#
# Compressibility (1/GPa) = 0.02084035
#
# Stress axis : x y z
#
# Youngs Moduli (GPa) = 46.57056 119.22971 69.17398
#
# Poissons Ratio (x) = 0.33833 0.29794
# Poissons Ratio (y) = 0.13215 0.31773
# Poissons Ratio (z) = 0.20059 0.54764
#
# Static dielectric constant tensor:
#      x y z
#    x 3.797950 -0.000010 -0.112630 
#    y -0.000010 4.043850 0.000020 
#    z -0.112630 0.000020 3.730010 
# 
# 
# High freq. dielectric constant tensor:
#      x y z
#    x 1.806920 0.000000 -0.007510 
#    y 0.000000 1.804510 0.000000 
#    z -0.007510 0.000000 1.806670 
# 
# From -- ./inp_files/271687.got.cif
#   From: 2010.06.25/outbox.cif.g09.slc.cpg/sg12_136_cif.got.tgz:271687.got - 2010.06.28 00:19:55.
