data_PCOD8098391
_publ_section_title
;
Structure prediction by ZEFSAII (Michael W. Deem and Ramdas Pophale) SiO2 
 PCOD8098391
Probable space group: C 2/M
;
_chemical_formula_sum "Si O2"
_cell_formula_units_Z 44
_cell_length_a 10.721787
_cell_length_b 26.018607
_cell_length_c 9.285949
_cell_angle_alpha 90.000000
_cell_angle_beta 116.364590
_cell_angle_gamma 90.000000
_cell_volume 2321.020200
_symmetry_space_group_name_H-M "C 2/M"
_symmetry_group_IT_number 12
_symmetry_cell_setting 'monoclinic'
loop_
_space_group_symop_operation_xyz
x,y,z
-x,y,-z
-x,-y,-z
x,-y,z
1/2+x,1/2+y,z
1/2-x,1/2+y,-z
1/2-x,1/2-y,-z
1/2+x,1/2-y,z
loop_
_atom_site_type_symbol
_atom_site_label
_atom_site_fract_x
_atom_site_fract_y
_atom_site_fract_z
Si Si1 0.278335 0.059969 0.218429
Si Si2 0.500000 0.127289 0.500000
Si Si3 0.941808 0.861504 0.820309
Si Si4 0.653269 0.940865 0.073132
Si Si5 0.246055 0.689614 0.513312
Si Si6 0.625582 0.618367 0.653395
O O1 0.407479 0.090203 0.353218
O O2 0.131458 0.082450 0.200014
O O3 0.287970 0.000000 0.265173
O O4 0.277930 0.068129 0.046678
O O5 0.592625 0.164675 0.446467
O O6 0.826591 0.822235 0.702904
O O7 0.071521 0.863075 0.779614
O O8 0.000000 0.840061 0.000000
O O9 0.745925 0.919074 0.251205
O O10 0.637732 0.000000 0.103392
O O11 0.500000 0.915068 0.000000
O O12 0.250000 0.750000 0.500000
O O13 0.324606 0.666526 0.415517
O O14 0.500000 0.590447 0.500000
#
# Coordination Sequence:
#
# PCOD8098391 Si02
#       6
#     8   4   8   8   8   8
#     4  10  20  35  58  88 123 163 201 242 295 367
#     4  10  21  38  60  86 118 160 207 246 304 368
#     4  10  20  38  60  88 119 153 200 248 295 356
#     4  10  20  34  56  86 124 162 199 245 301 357
#     4  10  23  40  63  86 115 158 201 255 316 359
#     4  10  21  38  60  85 123 158 197 256 297 360
#
# _framework density 18.957180999999999
#
# number of rings (size 3 to 8) (size 9 to 14) (size 15 to 20)
#    0.000    2.000    1.818    1.364    3.818    1.455 
#    0.000   12.727    0.000    0.000    0.000    0.000 
#    0.000    0.000    0.000    0.000    0.000    0.000 
#
# Total GULP energy -272750.377631 kJ/mol
# GULP energy per Si atom -12397.744438 kJ/mol
# Density = 1.891403 g / cm^3
# Si number density = 18.957181 Si / 1000 Ang^3
#
#
#
# Elastic Constant Matrix: (Units=GPa)
#
#
# Indices 1 2 3 4 5 6 
#
# 1 121.5625 49.6518 51.6175 0.0000 -0.2928 0.0000
# 2 49.6518 125.6351 60.1165 0.0000 5.8639 0.0000
# 3 51.6175 60.1165 136.1484 0.0000 8.1074 0.0000
# 4 0.0000 0.0000 0.0000 21.4526 0.0000 -5.1136
# 5 -0.2928 5.8639 8.1074 0.0000 33.7812 0.0000
# 6 0.0000 0.0000 0.0000 -5.1136 0.0000 22.9451
#
#
#
# Elastic Compliance Matrix: (Units=1/GPa)
#
#
# Indices 1 2 3 4 5 6 
#
# 1 0.010612 -0.002906 -0.002816 0.000000 0.001272 0.000000
# 2 -0.002906 0.010903 -0.003651 0.000000 -0.001042 0.000000
# 3 -0.002816 -0.003651 0.010133 0.000000 -0.001823 0.000000
# 4 0.000000 0.000000 0.000000 0.049230 0.000000 0.010971
# 5 0.001272 -0.001042 -0.001823 0.000000 0.030232 0.000000
# 6 0.000000 0.000000 0.000000 0.010971 0.000000 0.046027
#
#
# Mechanical properties :
#
#
# Convention : Reuss Voigt Hill
#
# Bulk Modulus (GPa) = 77.49904 78.45752 77.97828
# Shear Modulus (GPa) = 27.74955 30.43311 29.09133
#
# Velocity S-wave (km/s) = 3.83012 4.01104 3.92162
# Velocity P-wave (km/s) = 7.78008 7.93271 7.85676
#
# Compressibility (1/GPa) = 0.01290339
#
# Stress axis : x y z
#
# Youngs Moduli (GPa) = 94.23431 91.71400 98.68710
#
# Poissons Ratio (x) = 0.26651 0.27789
# Poissons Ratio (y) = 0.27383 0.36028
# Poissons Ratio (z) = 0.26536 0.33482
#
# Static dielectric constant tensor:
#      x y z
#    x 3.741190 0.000000 0.099000 
#    y 0.000000 3.172470 0.000000 
#    z 0.099000 0.000000 3.676280 
# 
# 
# High freq. dielectric constant tensor:
#      x y z
#    x 1.754660 0.000000 0.004430 
#    y 0.000000 1.707000 0.000000 
#    z 0.004430 0.000000 1.746810 
# 
# From -- ./inp_files/51540.got.cif
#   From: 2010.06.25/outbox.cif.g09.slc.cpg/sg12_26_cif.got.tgz:51540.got - 2010.06.28 00:19:55.
