data_PCOD8098315
_publ_section_title
;
Structure prediction by ZEFSAII (Michael W. Deem and Ramdas Pophale) SiO2 
 PCOD8098315
Probable space group: C 2/M
;
_chemical_formula_sum "Si O2"
_cell_formula_units_Z 64
_cell_length_a 17.038162
_cell_length_b 13.636987
_cell_length_c 19.181268
_cell_angle_alpha 90.000000
_cell_angle_beta 42.923404
_cell_angle_gamma 90.000000
_cell_volume 3035.137526
_symmetry_space_group_name_H-M "C 2/M"
_symmetry_group_IT_number 12
_symmetry_cell_setting 'monoclinic'
loop_
_space_group_symop_operation_xyz
x,y,z
-x,y,-z
-x,-y,-z
x,-y,z
1/2+x,1/2+y,z
1/2-x,1/2+y,-z
1/2-x,1/2-y,-z
1/2+x,1/2-y,z
loop_
_atom_site_type_symbol
_atom_site_label
_atom_site_fract_x
_atom_site_fract_y
_atom_site_fract_z
Si Si1 0.835623 0.391001 0.764016
Si Si2 0.875737 0.610012 0.579016
Si Si3 0.565155 0.722178 0.215992
Si Si4 0.775433 0.385673 0.134335
Si Si5 0.043445 0.715579 0.083746
Si Si6 0.702016 0.732340 0.608055
Si Si7 0.828610 0.611074 0.255703
Si Si8 0.404665 0.393975 0.114936
O O1 0.873620 0.500000 0.762918
O O2 0.824810 0.381488 0.688310
O O3 0.923351 0.316724 0.741878
O O4 0.702587 0.365225 0.866871
O O5 0.898867 0.500000 0.538202
O O6 0.783683 0.649509 0.584941
O O7 0.000000 0.665490 0.500000
O O8 0.647535 0.634515 0.187975
O O9 0.611318 0.750077 0.108639
O O10 0.430328 0.693659 0.306712
O O11 0.806482 0.500000 0.102058
O O12 0.770262 0.359111 0.219610
O O13 0.872004 0.316579 0.033943
O O14 0.966107 0.622147 0.155541
O O15 0.949597 0.802462 0.130879
O O16 0.750000 0.750000 0.500000
O O17 0.716534 0.825977 0.649511
O O18 0.798565 0.500000 0.294252
O O19 0.378951 0.500000 0.172136
O O20 0.500000 0.423366 0.000000
#
# Coordination Sequence:
#
# PCOD8098315 Si02
#       8
#     8   8   8   8   8   8   8   8
#     4  10  20  36  58  82 113 152 193 241 294 350
#     4  10  21  39  64  88 109 142 190 242 297 359
#     4  11  23  37  56  87 124 159 196 246 305 363
#     4  11  23  39  59  84 120 167 211 250 297 362
#     4  11  21  36  60  88 122 163 208 256 303 354
#     4  11  24  40  63  91 120 155 193 250 317 371
#     4  10  22  40  62  87 117 160 211 254 293 353
#     4  10  20  34  56  84 114 153 200 250 299 346
#
# _framework density 21.086359000000002
#
# number of rings (size 3 to 8) (size 9 to 14) (size 15 to 20)
#    0.000    1.500    0.000    6.375    0.000    5.000 
#    0.000    1.250    0.000    1.875    0.000    0.000 
#    0.000    0.000    0.000    0.000    0.000    0.000 
#
# Total GULP energy -396454.285234 kJ/mol
# GULP energy per Si atom -12389.196414 kJ/mol
# Density = 2.103837 g / cm^3
# Si number density = 21.086359 Si / 1000 Ang^3
#
#
#
# Elastic Constant Matrix: (Units=GPa)
#
#
# Indices 1 2 3 4 5 6 
#
# 1 133.2762 50.5734 40.8558 0.0000 -3.9416 0.0000
# 2 50.5734 91.7154 32.3801 0.0000 4.0864 0.0000
# 3 40.8558 32.3801 91.7486 0.0000 3.2752 0.0000
# 4 0.0000 0.0000 0.0000 23.9409 0.0000 -2.7384
# 5 -3.9416 4.0864 3.2752 0.0000 43.7613 0.0000
# 6 0.0000 0.0000 0.0000 -2.7384 0.0000 28.1153
#
#
#
# Elastic Compliance Matrix: (Units=1/GPa)
#
#
# Indices 1 2 3 4 5 6 
#
# 1 0.010229 -0.004664 -0.002965 0.000000 0.001579 0.000000
# 2 -0.004664 0.014612 -0.003025 0.000000 -0.001558 0.000000
# 3 -0.002965 -0.003025 0.013322 0.000000 -0.000982 0.000000
# 4 0.000000 0.000000 0.000000 0.042240 0.000000 0.004114
# 5 0.001579 -0.001558 -0.000982 0.000000 0.023212 0.000000
# 6 0.000000 0.000000 0.000000 0.004114 0.000000 0.035969
#
#
# Mechanical properties :
#
#
# Convention : Reuss Voigt Hill
#
# Bulk Modulus (GPa) = 59.32604 62.70652 61.01628
# Shear Modulus (GPa) = 30.02827 32.02556 31.02692
#
# Velocity S-wave (km/s) = 3.77777 3.90138 3.84007
# Velocity P-wave (km/s) = 6.87201 7.07792 6.97572
#
# Compressibility (1/GPa) = 0.01685600
#
# Stress axis : x y z
#
# Youngs Moduli (GPa) = 97.76513 68.43609 75.06233
#
# Poissons Ratio (x) = 0.31916 0.22258
# Poissons Ratio (y) = 0.45594 0.22703
# Poissons Ratio (z) = 0.28990 0.20699
#
# Static dielectric constant tensor:
#      x y z
#    x 3.754780 0.000000 -0.006400 
#    y 0.000000 3.930150 0.000000 
#    z -0.006400 0.000000 3.796120 
# 
# 
# High freq. dielectric constant tensor:
#      x y z
#    x 1.832710 0.000000 -0.004190 
#    y 0.000000 1.826660 0.000000 
#    z -0.004190 0.000000 1.819510 
# 
# From -- ./inp_files/270640.got.cif
#   From: 2010.06.25/outbox.cif.g09.slc.cpg/sg12_136_cif.got.tgz:270640.got - 2010.06.28 00:19:55.
