data_PCOD8098702
_publ_section_title
;
Structure prediction by ZEFSAII (Michael W. Deem and Ramdas Pophale) SiO2 
 PCOD8098702
Probable space group: C 2/M
;
_chemical_formula_sum "Si O2"
_cell_formula_units_Z 64
_cell_length_a 8.108144
_cell_length_b 19.717409
_cell_length_c 25.474593
_cell_angle_alpha 90.000000
_cell_angle_beta 57.692659
_cell_angle_gamma 90.000000
_cell_volume 3442.188349
_symmetry_space_group_name_H-M "C 2/M"
_symmetry_group_IT_number 12
_symmetry_cell_setting 'monoclinic'
loop_
_space_group_symop_operation_xyz
x,y,z
-x,y,-z
-x,-y,-z
x,-y,z
1/2+x,1/2+y,z
1/2-x,1/2+y,-z
1/2-x,1/2-y,-z
1/2+x,1/2-y,z
loop_
_atom_site_type_symbol
_atom_site_label
_atom_site_fract_x
_atom_site_fract_y
_atom_site_fract_z
Si Si1 0.244371 0.191950 0.542950
Si Si2 0.035923 0.419272 0.869118
Si Si3 0.686232 0.580629 0.999898
Si Si4 0.729967 0.422577 0.467891
Si Si5 0.040659 0.352148 0.664653
Si Si6 0.596150 0.580732 0.130764
Si Si7 0.153909 0.580040 0.206038
Si Si8 0.641888 0.752314 0.372915
O O1 0.250000 0.250000 0.500000
O O2 0.288805 0.118658 0.510269
O O3 0.393551 0.210309 0.564301
O O4 0.030049 0.197223 0.605962
O O5 0.036140 0.500000 0.867131
O O6 0.962345 0.390746 0.825112
O O7 0.254430 0.393713 0.848626
O O8 0.884111 0.393141 0.938969
O O9 0.679751 0.500000 0.999776
O O10 0.679946 0.606662 0.060799
O O11 0.500000 0.609561 0.000000
O O12 0.500000 0.414702 0.500000
O O13 0.793888 0.500000 0.465660
O O14 0.832985 0.393985 0.398606
O O15 0.162468 0.289899 0.667928
O O16 0.968454 0.402094 0.721706
O O17 0.858352 0.314622 0.668097
O O18 0.589032 0.500000 0.133045
O O19 0.374799 0.609390 0.174415
O O20 0.167036 0.500000 0.198306
#
# Coordination Sequence:
#
# PCOD8098702 Si02
#       8
#     8   8   8   8   8   8   8   8
#     4  11  17  34  59  82 101 135 169 221 269 329
#     4   9  16  27  45  69 101 146 186 218 262 323
#     4   9  13  21  41  69 102 140 183 225 259 309
#     4  11  21  33  54  85 114 137 169 218 276 331
#     4  11  22  38  54  78 101 139 179 227 268 323
#     4   9  16  27  44  69 103 145 185 218 263 326
#     4  10  20  35  50  70 111 152 178 214 275 338
#     4  10  21  34  60  76  96 129 182 222 268 315
#
# _framework density 18.592822999999999
#
# number of rings (size 3 to 8) (size 9 to 14) (size 15 to 20)
#    0.000    2.000    5.000    1.125    0.000    1.500 
#    4.500    1.875    0.000    0.000    0.000    0.000 
#    0.000    4.000    0.000    0.000    0.000    0.000 
#
# Total GULP energy -396524.071358 kJ/mol
# GULP energy per Si atom -12391.377230 kJ/mol
# Density = 1.855051 g / cm^3
# Si number density = 18.592823 Si / 1000 Ang^3
#
#
#
# Elastic Constant Matrix: (Units=GPa)
#
#
# Indices 1 2 3 4 5 6 
#
# 1 136.5534 21.3266 45.8246 0.0000 8.0058 0.0000
# 2 21.3266 49.0914 13.3741 0.0000 1.2395 0.0000
# 3 45.8246 13.3741 99.3480 0.0000 0.7353 0.0000
# 4 0.0000 0.0000 0.0000 10.6399 0.0000 0.8646
# 5 8.0058 1.2395 0.7353 0.0000 20.4169 0.0000
# 6 0.0000 0.0000 0.0000 0.8646 0.0000 14.9259
#
#
#
# Elastic Compliance Matrix: (Units=1/GPa)
#
#
# Indices 1 2 3 4 5 6 
#
# 1 0.009264 -0.002889 -0.003860 0.000000 -0.003318 0.000000
# 2 -0.002889 0.022075 -0.001638 0.000000 -0.000148 0.000000
# 3 -0.003860 -0.001638 0.012058 0.000000 0.001179 0.000000
# 4 0.000000 0.000000 0.000000 0.094430 0.000000 -0.005470
# 5 -0.003318 -0.000148 0.001179 0.000000 0.050247 0.000000
# 6 0.000000 0.000000 0.000000 -0.005470 0.000000 0.067314
#
#
# Mechanical properties :
#
#
# Convention : Reuss Voigt Hill
#
# Bulk Modulus (GPa) = 37.56097 49.56040 43.56068
# Shear Modulus (GPa) = 17.79129 22.82771 20.30950
#
# Velocity S-wave (km/s) = 3.09672 3.50776 3.30863
# Velocity P-wave (km/s) = 5.74734 6.56653 6.17055
#
# Compressibility (1/GPa) = 0.02662338
#
# Stress axis : x y z
#
# Youngs Moduli (GPa) = 107.94307 45.29941 82.93479
#
# Poissons Ratio (x) = 0.13088 0.32010
# Poissons Ratio (y) = 0.31188 0.13584
# Poissons Ratio (z) = 0.41662 0.07420
#
# Static dielectric constant tensor:
#      x y z
#    x 3.965840 0.000000 0.064860 
#    y 0.000000 2.856320 0.000000 
#    z 0.064860 0.000000 3.434110 
# 
# 
# High freq. dielectric constant tensor:
#      x y z
#    x 1.742520 0.000000 0.001190 
#    y 0.000000 1.659830 0.000000 
#    z 0.001190 0.000000 1.711110 
# 
# From -- ./inp_files/301707.got.cif
#   From: 2010.06.25/outbox.cif.g09.slc.cpg/sg12_151_cif.got.tgz:301707.got - 2010.06.28 00:19:55.
