data_PCOD8098743
_publ_section_title
;
Structure prediction by ZEFSAII (Michael W. Deem and Ramdas Pophale) SiO2 
 PCOD8098743
Probable space group: C 2/M
;
_chemical_formula_sum "Si O2"
_cell_formula_units_Z 64
_cell_length_a 27.975766
_cell_length_b 8.882179
_cell_length_c 34.402644
_cell_angle_alpha 90.000000
_cell_angle_beta 156.264749
_cell_angle_gamma 90.000000
_cell_volume 3440.892824
_symmetry_space_group_name_H-M "C 2/M"
_symmetry_group_IT_number 12
_symmetry_cell_setting 'monoclinic'
loop_
_space_group_symop_operation_xyz
x,y,z
-x,y,-z
-x,-y,-z
x,-y,z
1/2+x,1/2+y,z
1/2-x,1/2+y,-z
1/2-x,1/2-y,-z
1/2+x,1/2-y,z
loop_
_atom_site_type_symbol
_atom_site_label
_atom_site_fract_x
_atom_site_fract_y
_atom_site_fract_z
Si Si1 0.471905 0.172512 0.392861
Si Si2 0.363991 0.678164 0.154409
Si Si3 0.344665 0.174533 0.219770
Si Si4 0.869546 0.168031 0.385360
Si Si5 0.964508 0.678868 0.780141
Si Si6 0.402286 0.178108 0.958559
Si Si7 0.594811 0.822980 0.952487
Si Si8 0.723458 0.176770 0.612147
O O1 0.442693 0.196322 0.326155
O O2 0.376567 0.265242 0.347307
O O3 0.606806 0.226259 0.501109
O O4 0.459319 0.000000 0.396611
O O5 0.382375 0.500000 0.164477
O O6 0.393784 0.729795 0.220289
O O7 0.448568 0.764551 0.188300
O O8 0.229622 0.729847 0.045032
O O9 0.219049 0.236475 0.141749
O O10 0.330554 0.000000 0.197772
O O11 0.785080 0.268608 0.349533
O O12 0.000000 0.167855 0.500000
O O13 0.815796 0.000000 0.343337
O O14 0.960653 0.500000 0.776457
O O15 0.834410 0.742843 0.674449
O O16 0.009782 0.743629 0.855662
O O17 0.377689 0.000000 0.938498
O O18 0.500000 0.228728 0.000000
O O19 0.446091 0.226189 0.034562
O O20 0.590232 0.000000 0.945876
O O21 0.743936 0.000000 0.626619
#
# Coordination Sequence:
#
# PCOD8098743 Si02
#       8
#     8   8   8   8   8   8   8   8
#     4   9  19  35  54  75 104 141 176 211 255 308
#     4  10  20  37  57  77 101 132 171 212 262 320
#     4  10  20  35  55  79 104 134 175 218 259 305
#     4   9  17  30  50  75 101 131 170 213 253 296
#     4  11  21  34  53  78 106 135 171 218 264 303
#     4   9  18  34  54  78 110 144 173 205 250 305
#     4   8  17  33  53  77 105 136 170 207 251 307
#     4  10  20  35  52  74 107 142 174 211 257 307
#
# _framework density 18.599824000000002
#
# number of rings (size 3 to 8) (size 9 to 14) (size 15 to 20)
#    0.000    2.500    0.000    3.000    0.000    4.250 
#    0.000    7.500    0.000    0.000    0.000    0.000 
#    0.000    0.000    0.000    0.000    0.000    0.000 
#
# Total GULP energy -396782.833178 kJ/mol
# GULP energy per Si atom -12399.463537 kJ/mol
# Density = 1.855749 g / cm^3
# Si number density = 18.599824 Si / 1000 Ang^3
#
#
#
# Elastic Constant Matrix: (Units=GPa)
#
#
# Indices 1 2 3 4 5 6 
#
# 1 121.6147 35.6940 58.6934 0.0000 10.6073 -0.0013
# 2 35.6940 73.0164 34.6456 -0.0001 2.2686 0.0041
# 3 58.6934 34.6456 87.6323 0.0056 -2.2768 0.0004
# 4 0.0000 -0.0001 0.0056 24.7635 0.0003 3.2720
# 5 10.6073 2.2686 -2.2768 0.0003 25.2090 0.0005
# 6 -0.0013 0.0041 0.0004 3.2720 0.0005 31.5203
#
#
#
# Elastic Compliance Matrix: (Units=1/GPa)
#
#
# Indices 1 2 3 4 5 6 
#
# 1 0.013439 -0.002500 -0.008173 0.000002 -0.006168 0.000001
# 2 -0.002500 0.017437 -0.005245 0.000002 -0.000991 -0.000002
# 3 -0.008173 -0.005245 0.019105 -0.000004 0.005636 0.000000
# 4 0.000002 0.000002 -0.000004 0.040944 -0.000002 -0.004250
# 5 -0.006168 -0.000991 0.005636 -0.000002 0.042862 -0.000001
# 6 0.000001 -0.000002 0.000000 -0.004250 -0.000001 0.032167
#
#
# Mechanical properties :
#
#
# Convention : Reuss Voigt Hill
#
# Bulk Modulus (GPa) = 55.11014 60.03659 57.57337
# Shear Modulus (GPa) = 24.52932 26.51391 25.52162
#
# Velocity S-wave (km/s) = 3.63546 3.77967 3.70826
# Velocity P-wave (km/s) = 6.87865 7.16910 7.02537
#
# Compressibility (1/GPa) = 0.01814548
#
# Stress axis : x y z
#
# Youngs Moduli (GPa) = 74.41200 57.34855 52.34162
#
# Poissons Ratio (x) = 0.14337 0.42777
# Poissons Ratio (y) = 0.18603 0.27454
# Poissons Ratio (z) = 0.60815 0.30080
#
# Static dielectric constant tensor:
#      x y z
#    x 3.465770 0.000000 -0.094510 
#    y 0.000000 3.397920 0.000000 
#    z -0.094510 0.000000 3.432760 
# 
# 
# High freq. dielectric constant tensor:
#      x y z
#    x 1.722510 0.000000 -0.002180 
#    y 0.000000 1.719460 0.000000 
#    z -0.002180 0.000000 1.709270 
# 
# From -- ./inp_files/248278.got.cif
#   From: 2010.06.25/outbox.cif.g09.slc.cpg/sg12_125_cif.got.tgz:248278.got - 2010.06.28 00:19:55.
