data_PCOD8098713
_publ_section_title
;
Structure prediction by ZEFSAII (Michael W. Deem and Ramdas Pophale) SiO2 
 PCOD8098713
Probable space group: C 2/M
;
_chemical_formula_sum "Si O2"
_cell_formula_units_Z 36
_cell_length_a 13.508069
_cell_length_b 28.521785
_cell_length_c 4.891881
_cell_angle_alpha 90.000000
_cell_angle_beta 98.986423
_cell_angle_gamma 90.000000
_cell_volume 1861.581568
_symmetry_space_group_name_H-M "C 2/M"
_symmetry_group_IT_number 12
_symmetry_cell_setting 'monoclinic'
loop_
_space_group_symop_operation_xyz
x,y,z
-x,y,-z
-x,-y,-z
x,-y,z
1/2+x,1/2+y,z
1/2-x,1/2+y,-z
1/2-x,1/2-y,-z
1/2+x,1/2-y,z
loop_
_atom_site_type_symbol
_atom_site_label
_atom_site_fract_x
_atom_site_fract_y
_atom_site_fract_z
Si Si1 0.395938 0.194552 0.365939
Si Si2 0.926115 0.000000 0.223885
Si Si3 0.616695 0.402638 0.614979
Si Si4 0.196501 0.147484 0.157039
Si Si5 0.852892 0.751925 0.874703
O O1 0.500000 0.169603 0.500000
O O2 0.316432 0.156784 0.217250
O O3 0.345291 0.221057 0.599011
O O4 0.429713 0.230955 0.136838
O O5 0.859753 0.047004 0.230955
O O6 0.000000 0.000000 0.500000
O O7 0.000000 0.000000 0.000000
O O8 0.500000 0.395407 0.500000
O O9 0.672738 0.395495 0.350888
O O10 0.662325 0.364434 0.837238
O O11 0.130735 0.193862 0.204387
O O12 0.750000 0.750000 0.000000
#
# Coordination Sequence:
#
# PCOD8098713 Si02
#       5
#     8   4   8   8   8
#     4  11  22  36  54  76 109 153 188 221 268 312
#     4  10  20  38  56  78 109 138 169 212 276 350
#     4  11  22  35  55  80 107 137 169 216 274 329
#     4  11  21  35  53  80 107 137 184 225 256 314
#     4  10  20  35  51  72 108 145 182 228 265 302
#
# _framework density 19.338395999999999
#
# number of rings (size 3 to 8) (size 9 to 14) (size 15 to 20)
#    0.000    1.333    0.000   10.667    0.000    5.333 
#    0.000    0.000    0.000    0.000    0.000    4.667 
#    0.000    0.000    0.000    0.000    0.000    0.000 
#
# Total GULP energy -223021.431577 kJ/mol
# GULP energy per Si atom -12390.079532 kJ/mol
# Density = 1.929438 g / cm^3
# Si number density = 19.338396 Si / 1000 Ang^3
#
#
#
# Elastic Constant Matrix: (Units=GPa)
#
#
# Indices 1 2 3 4 5 6 
#
# 1 76.3960 32.6497 34.8292 0.0000 15.5834 0.0000
# 2 32.6497 79.0501 27.7970 0.0000 6.5028 0.0000
# 3 34.8292 27.7970 118.4082 0.0000 0.9726 0.0000
# 4 0.0000 0.0000 0.0000 29.7301 0.0000 -5.4147
# 5 15.5834 6.5028 0.9726 0.0000 46.5247 0.0000
# 6 0.0000 0.0000 0.0000 -5.4147 0.0000 20.2145
#
#
#
# Elastic Compliance Matrix: (Units=1/GPa)
#
#
# Indices 1 2 3 4 5 6 
#
# 1 0.018479 -0.005778 -0.004036 0.000000 -0.005298 0.000000
# 2 -0.005778 0.015758 -0.001998 0.000000 -0.000225 0.000000
# 3 -0.004036 -0.001998 0.010090 0.000000 0.001420 0.000000
# 4 0.000000 0.000000 0.000000 0.035361 0.000000 0.009472
# 5 -0.005298 -0.000225 0.001420 0.000000 0.023270 0.000000
# 6 0.000000 0.000000 0.000000 0.009472 0.000000 0.052007
#
#
# Mechanical properties :
#
#
# Convention : Reuss Voigt Hill
#
# Bulk Modulus (GPa) = 48.29902 51.60069 49.94985
# Shear Modulus (GPa) = 26.95582 31.19908 29.07745
#
# Velocity S-wave (km/s) = 3.73755 4.02098 3.88185
# Velocity P-wave (km/s) = 6.60724 6.94972 6.78064
#
# Compressibility (1/GPa) = 0.02070435
#
# Stress axis : x y z
#
# Youngs Moduli (GPa) = 54.11415 63.46164 99.10972
#
# Poissons Ratio (x) = 0.36665 0.39999
# Poissons Ratio (y) = 0.31265 0.19801
# Poissons Ratio (z) = 0.21840 0.12679
#
# Static dielectric constant tensor:
#      x y z
#    x 3.345880 0.000000 0.080690 
#    y 0.000000 2.766880 0.000000 
#    z 0.080690 0.000000 4.057310 
# 
# 
# High freq. dielectric constant tensor:
#      x y z
#    x 1.731450 0.000000 -0.005720 
#    y 0.000000 1.719980 0.000000 
#    z -0.005720 0.000000 1.788460 
# 
# From -- ./inp_files/11436.got.cif
#   From: 2010.06.25/outbox.cif.g09.slc.cpg/sg12_6_cif.got.tgz:11436.got - 2010.06.28 00:19:55.
