data_PCOD8098584
_publ_section_title
;
Structure prediction by ZEFSAII (Michael W. Deem and Ramdas Pophale) SiO2 
 PCOD8098584
Probable space group: C 2/M
;
_chemical_formula_sum "Si O2"
_cell_formula_units_Z 56
_cell_length_a 21.558582
_cell_length_b 25.790394
_cell_length_c 5.273629
_cell_angle_alpha 90.000000
_cell_angle_beta 67.306516
_cell_angle_gamma 90.000000
_cell_volume 2705.158438
_symmetry_space_group_name_H-M "C 2/M"
_symmetry_group_IT_number 12
_symmetry_cell_setting 'monoclinic'
loop_
_space_group_symop_operation_xyz
x,y,z
-x,y,-z
-x,-y,-z
x,-y,z
1/2+x,1/2+y,z
1/2-x,1/2+y,-z
1/2-x,1/2-y,-z
1/2+x,1/2-y,z
loop_
_atom_site_type_symbol
_atom_site_label
_atom_site_fract_x
_atom_site_fract_y
_atom_site_fract_z
Si Si1 0.149950 0.621254 0.773893
Si Si2 0.269164 0.559542 0.591040
Si Si3 0.365973 0.263473 0.800272
Si Si4 0.422504 0.158160 0.605647
Si Si5 0.746215 0.207146 0.710274
Si Si6 0.845004 0.062058 0.970909
Si Si7 0.955252 0.146829 0.820493
O O1 0.186957 0.565602 0.723860
O O2 0.104240 0.628924 0.600791
O O3 0.219430 0.654209 0.633571
O O4 0.109870 0.634098 0.090901
O O5 0.285486 0.500000 0.569348
O O6 0.303575 0.582182 0.791445
O O7 0.302917 0.581289 0.280988
O O8 0.413697 0.220656 0.588975
O O9 0.322585 0.301332 0.687656
O O10 0.407858 0.301637 0.916240
O O11 0.309871 0.225876 0.005297
O O12 0.500000 0.144819 0.500000
O O13 0.750000 0.250000 0.500000
O O14 0.915510 0.092803 0.865203
O O15 0.859230 0.000000 0.946034
O O16 0.000000 0.153539 0.500000
O O17 0.000000 0.146259 0.000000
#
# Coordination Sequence:
#
# PCOD8098584 Si02
#       7
#     8   8   8   8   8   8   8
#     4  11  22  37  62  87 118 150 193 244 293 356
#     4  10  21  39  67  94 117 146 190 254 315 351
#     4  10  23  37  55  85 118 152 201 245 292 349
#     4  11  23  39  57  82 119 164 197 229 279 356
#     4  10  20  34  58  85 112 149 187 248 305 340
#     4  10  22  41  63  89 119 154 198 250 301 352
#     4  12  27  40  59  86 121 169 205 243 289 344
#
# _framework density 20.70119
#
# number of rings (size 3 to 8) (size 9 to 14) (size 15 to 20)
#    0.000    1.429    1.429    3.429    4.000    2.857 
#    0.000    0.000    0.000    2.571    0.000    0.000 
#    0.000    0.000    0.000    0.000    0.000    0.000 
#
# Total GULP energy -346963.187830 kJ/mol
# GULP energy per Si atom -12391.542423 kJ/mol
# Density = 2.065407 g / cm^3
# Si number density = 20.701190 Si / 1000 Ang^3
#
#
#
# Elastic Constant Matrix: (Units=GPa)
#
#
# Indices 1 2 3 4 5 6 
#
# 1 171.5731 29.9505 56.7192 0.0000 20.8794 0.0000
# 2 29.9505 38.0498 17.7234 0.0000 0.1740 0.0000
# 3 56.7192 17.7234 122.3889 0.0000 19.5372 0.0000
# 4 0.0000 0.0000 0.0000 -8.9028 0.0000 1.4739
# 5 20.8794 0.1740 19.5372 0.0000 35.4504 0.0000
# 6 0.0000 0.0000 0.0000 1.4739 0.0000 33.8720
#
#
#
# Elastic Compliance Matrix: (Units=1/GPa)
#
#
# Indices 1 2 3 4 5 6 
#
# 1 0.007915 -0.005097 -0.002401 0.000000 -0.003314 0.000000
# 2 -0.005097 0.031638 -0.002932 0.000000 0.004462 0.000000
# 3 -0.002401 -0.002932 0.010394 0.000000 -0.004300 0.000000
# 4 0.000000 0.000000 0.000000 -0.111520 0.000000 0.004853
# 5 -0.003314 0.004462 -0.004300 0.000000 0.032508 0.000000
# 6 0.000000 0.000000 0.000000 0.004853 0.000000 0.029312
#
#
# Mechanical properties :
#
#
# Convention : Reuss Voigt Hill
#
# Bulk Modulus (GPa) = 34.37804 60.08867 47.23336
# Shear Modulus (GPa) = 162.32169 27.25849 94.79009
#
# Velocity S-wave (km/s) = 8.86465 3.63265 6.77415
# Velocity P-wave (km/s) = 11.01902 6.83261 9.16797
#
# Compressibility (1/GPa) = 0.02908833
#
# Stress axis : x y z
#
# Youngs Moduli (GPa) = 126.34023 31.60712 96.20531
#
# Poissons Ratio (x) = 0.16109 0.23100
# Poissons Ratio (y) = 0.64392 0.28207
# Poissons Ratio (z) = 0.30336 0.09267
#
# Static dielectric constant tensor:
#      x y z
#    x 3.449540 0.000000 1.113960 
#    y 0.000000 3.727970 0.000000 
#    z 1.113960 0.000000 1.282550 
# 
# 
# High freq. dielectric constant tensor:
#      x y z
#    x 1.819780 0.000000 0.004990 
#    y 0.000000 1.802660 0.000000 
#    z 0.004990 0.000000 1.812910 
# 
# From -- ./inp_files/18098.got.cif
#   From: 2010.06.25/outbox.cif.g09.slc.cpg/sg12_10_cif.got.tgz:18098.got - 2010.06.28 00:19:55.
