data_PCOD8098704
_publ_section_title
;
Structure prediction by ZEFSAII (Michael W. Deem and Ramdas Pophale) SiO2 
 PCOD8098704
Probable space group: C 2/M
;
_chemical_formula_sum "Si O2"
_cell_formula_units_Z 56
_cell_length_a 24.388162
_cell_length_b 9.159926
_cell_length_c 17.728927
_cell_angle_alpha 90.000000
_cell_angle_beta 118.102522
_cell_angle_gamma 90.000000
_cell_volume 3493.609256
_symmetry_space_group_name_H-M "C 2/M"
_symmetry_group_IT_number 12
_symmetry_cell_setting 'monoclinic'
loop_
_space_group_symop_operation_xyz
x,y,z
-x,y,-z
-x,-y,-z
x,-y,z
1/2+x,1/2+y,z
1/2-x,1/2+y,-z
1/2-x,1/2-y,-z
1/2+x,1/2-y,z
loop_
_atom_site_type_symbol
_atom_site_label
_atom_site_fract_x
_atom_site_fract_y
_atom_site_fract_z
Si Si1 0.072309 0.330581 0.058183
Si Si2 0.686543 0.661607 0.541242
Si Si3 0.649080 0.325853 0.229890
Si Si4 0.166828 0.663390 0.389514
Si Si5 0.724518 0.329241 0.723830
Si Si6 0.661820 0.169806 0.984586
Si Si7 0.797908 0.168231 0.125588
O O1 0.088062 0.500000 0.085717
O O2 0.093664 0.230799 0.141332
O O3 0.106967 0.279004 0.004412
O O4 0.000000 0.304575 0.000000
O O5 0.659152 0.500000 0.509922
O O6 0.759689 0.661247 0.573098
O O7 0.651027 0.771337 0.462108
O O8 0.678645 0.708647 0.624016
O O9 0.649917 0.500000 0.233359
O O10 0.636366 0.263987 0.305523
O O11 0.713904 0.268111 0.238791
O O12 0.139230 0.500000 0.366915
O O13 0.745092 0.500000 0.733450
O O14 0.687601 0.296501 0.777329
O O15 0.654997 0.245771 0.898414
O O16 0.657782 0.000000 0.966423
O O17 0.726841 0.215992 0.064656
O O18 0.807589 0.000000 0.113413
#
# Coordination Sequence:
#
# PCOD8098704 Si02
#       7
#     8   8   8   8   8   8   8
#     4  10  20  35  51  63  82 115 151 185 222 262
#     4   8  14  23  37  57  81 109 142 178 211 244
#     4  11  20  28  42  62  85 111 145 184 221 257
#     4   9  16  26  39  54  80 114 145 174 209 258
#     4   9  16  28  43  60  86 118 149 177 209 259
#     4   9  17  29  44  63  85 109 144 182 217 258
#     4   9  16  27  44  63  87 115 144 177 214 258
#
# _framework density 16.029267999999998
#
# number of rings (size 3 to 8) (size 9 to 14) (size 15 to 20)
#    0.000    2.714    1.429    2.571    0.000    4.857 
#    0.000    0.000    0.000    0.000    0.000    0.000 
#    0.000    1.143    0.000   13.143    0.000    4.286 
#
# Total GULP energy -347085.769121 kJ/mol
# GULP energy per Si atom -12395.920326 kJ/mol
# Density = 1.599278 g / cm^3
# Si number density = 16.029268 Si / 1000 Ang^3
#
#
#
# Elastic Constant Matrix: (Units=GPa)
#
#
# Indices 1 2 3 4 5 6 
#
# 1 58.3022 28.4648 46.5774 0.0000 -15.4242 0.0000
# 2 28.4648 93.8470 64.6935 0.0000 -11.0805 0.0000
# 3 46.5774 64.6935 124.4423 0.0000 -34.9101 0.0000
# 4 0.0000 0.0000 0.0000 29.3321 0.0000 -7.0372
# 5 -15.4242 -11.0805 -34.9101 0.0000 23.3051 0.0000
# 6 0.0000 0.0000 0.0000 -7.0372 0.0000 15.1949
#
#
#
# Elastic Compliance Matrix: (Units=1/GPa)
#
#
# Indices 1 2 3 4 5 6 
#
# 1 0.025047 -0.002430 -0.006529 0.000000 0.005642 0.000000
# 2 -0.002430 0.017929 -0.011161 0.000000 -0.009803 0.000000
# 3 -0.006529 -0.011161 0.023425 0.000000 0.025462 0.000000
# 4 0.000000 0.000000 0.000000 0.038354 0.000000 0.017763
# 5 0.005642 -0.009803 0.025462 0.000000 0.080123 0.000000
# 6 0.000000 0.000000 0.000000 0.017763 0.000000 0.074038
#
#
# Mechanical properties :
#
#
# Convention : Reuss Voigt Hill
#
# Bulk Modulus (GPa) = 38.22586 61.78476 50.00531
# Shear Modulus (GPa) = 16.24033 22.69015 19.46524
#
# Velocity S-wave (km/s) = 3.18648 3.76645 3.48854
# Velocity P-wave (km/s) = 6.11862 7.58575 6.89134
#
# Compressibility (1/GPa) = 0.02616030
#
# Stress axis : x y z
#
# Youngs Moduli (GPa) = 39.92528 55.77424 42.69011
#
# Poissons Ratio (x) = 0.13555 0.27870
# Poissons Ratio (y) = 0.09703 0.47648
# Poissons Ratio (z) = 0.26065 0.62252
#
# Static dielectric constant tensor:
#      x y z
#    x 2.651970 0.000000 -0.390770 
#    y 0.000000 3.085750 0.000000 
#    z -0.390770 0.000000 3.260660 
# 
# 
# High freq. dielectric constant tensor:
#      x y z
#    x 1.554380 0.000000 -0.037600 
#    y 0.000000 1.617460 0.000000 
#    z -0.037600 0.000000 1.618360 
# 
# From -- ./inp_files/291659.got.cif
#   From: 2010.06.25/outbox.cif.g09.slc.cpg/sg12_146_cif.got.tgz:291659.got - 2010.06.28 00:19:55.
