data_PCOD8098447
_publ_section_title
;
Structure prediction by ZEFSAII (Michael W. Deem and Ramdas Pophale) SiO2 
 PCOD8098447
Probable space group: C 2/M
;
_chemical_formula_sum "Si O2"
_cell_formula_units_Z 64
_cell_length_a 19.490733
_cell_length_b 9.314396
_cell_length_c 30.180689
_cell_angle_alpha 90.000000
_cell_angle_beta 37.678112
_cell_angle_gamma 90.000000
_cell_volume 3348.982982
_symmetry_space_group_name_H-M "C 2/M"
_symmetry_group_IT_number 12
_symmetry_cell_setting 'monoclinic'
loop_
_space_group_symop_operation_xyz
x,y,z
-x,y,-z
-x,-y,-z
x,-y,z
1/2+x,1/2+y,z
1/2-x,1/2+y,-z
1/2-x,1/2-y,-z
1/2+x,1/2-y,z
loop_
_atom_site_type_symbol
_atom_site_label
_atom_site_fract_x
_atom_site_fract_y
_atom_site_fract_z
Si Si1 0.387301 0.666668 0.677195
Si Si2 0.558853 0.331262 0.515460
Si Si3 0.581947 0.668304 0.995622
Si Si4 0.337007 0.830808 0.870648
Si Si5 0.977478 0.834797 0.727516
Si Si6 0.270408 0.333960 0.384299
Si Si7 0.553206 0.331610 0.109618
Si Si8 0.196259 0.833734 0.733058
O O1 0.366824 0.500000 0.678829
O O2 0.482295 0.723935 0.595007
O O3 0.423481 0.699985 0.708257
O O4 0.270359 0.746677 0.729920
O O5 0.500000 0.284430 0.500000
O O6 0.579510 0.500000 0.507217
O O7 0.679281 0.256096 0.457992
O O8 0.559475 0.500000 0.007862
O O9 0.552791 0.727529 0.059490
O O10 0.500000 0.738233 0.000000
O O11 0.711140 0.703490 0.918192
O O12 0.423632 0.768243 0.791131
O O13 0.355180 0.756547 0.909054
O O14 0.356761 0.000000 0.865672
O O15 0.109194 0.803148 0.655571
O O16 0.958269 0.000000 0.752190
O O17 0.237917 0.500000 0.404450
O O18 0.272624 0.283674 0.332180
O O19 0.584594 0.500000 0.095256
O O20 0.433233 0.299830 0.192525
O O21 0.221665 0.000000 0.727529
#
# Coordination Sequence:
#
# PCOD8098447 Si02
#       8
#     8   8   8   8   8   8   8   8
#     4  10  22  38  57  81 113 151 186 230 287 341
#     4  10  20  35  55  81 112 146 183 229 287 338
#     4   9  20  37  58  86 118 152 189 231 281 332
#     4  11  22  36  60  89 114 146 192 240 277 327
#     4  10  22  41  59  80 115 154 187 226 287 344
#     4  10  20  36  57  81 108 145 191 232 273 333
#     4  10  20  38  62  83 114 158 191 227 282 338
#     4  10  20  34  57  85 109 144 193 234 274 330
#
# _framework density 19.110279999999999
#
# number of rings (size 3 to 8) (size 9 to 14) (size 15 to 20)
#    0.000    2.000    2.500    0.750    1.750    2.750 
#    0.000    0.625    0.000    1.875    0.000    0.000 
#    0.000    0.000    0.000    0.000    0.000    0.000 
#
# Total GULP energy -396896.593068 kJ/mol
# GULP energy per Si atom -12403.018533 kJ/mol
# Density = 1.906678 g / cm^3
# Si number density = 19.110280 Si / 1000 Ang^3
#
#
#
# Elastic Constant Matrix: (Units=GPa)
#
#
# Indices 1 2 3 4 5 6 
#
# 1 127.5504 47.1145 26.0190 -0.0004 -7.7304 0.0010
# 2 47.1145 49.8710 28.4557 -0.0013 -3.7328 0.0010
# 3 26.0190 28.4557 60.8292 -0.0009 3.8853 0.0004
# 4 -0.0004 -0.0013 -0.0009 18.1563 0.0006 -6.5195
# 5 -7.7304 -3.7328 3.8853 0.0006 27.6326 0.0002
# 6 0.0010 0.0010 0.0004 -6.5195 0.0002 27.0798
#
#
#
# Elastic Compliance Matrix: (Units=1/GPa)
#
#
# Indices 1 2 3 4 5 6 
#
# 1 0.012137 -0.011316 -0.000017 -0.000001 0.001869 0.000000
# 2 -0.011316 0.038772 -0.013551 0.000002 0.003977 0.000000
# 3 -0.000017 -0.013551 0.023111 0.000000 -0.005085 0.000000
# 4 -0.000001 0.000002 0.000000 0.060289 -0.000002 0.014515
# 5 0.001869 0.003977 -0.005085 -0.000002 0.037964 -0.000001
# 6 0.000000 0.000000 0.000000 0.014515 -0.000001 0.040422
#
#
# Mechanical properties :
#
#
# Convention : Reuss Voigt Hill
#
# Bulk Modulus (GPa) = 41.23571 49.04767 45.14169
# Shear Modulus (GPa) = 18.48098 23.68451 21.08274
#
# Velocity S-wave (km/s) = 3.11315 3.52427 3.32507
# Velocity P-wave (km/s) = 5.87766 6.50246 6.19794
#
# Compressibility (1/GPa) = 0.02425082
#
# Stress axis : x y z
#
# Youngs Moduli (GPa) = 82.39378 25.79151 43.27002
#
# Poissons Ratio (x) = 0.29187 0.00074
# Poissons Ratio (y) = 0.93240 0.58636
# Poissons Ratio (z) = 0.00140 0.34951
#
# Static dielectric constant tensor:
#      x y z
#    x 3.645510 0.000000 0.019520 
#    y 0.000000 3.282440 0.000000 
#    z 0.019520 0.000000 3.497430 
# 
# 
# High freq. dielectric constant tensor:
#      x y z
#    x 1.751200 0.000000 -0.002650 
#    y 0.000000 1.721450 0.000000 
#    z -0.002650 0.000000 1.750220 
# 
# From -- ./inp_files/378094.got.cif
#   From: 2010.06.25/outbox.cif.g09.slc.cpg/sg12_190_cif.got.tgz:378094.got - 2010.06.28 00:19:55.
