data_PCOD8098184
_publ_section_title
;
Structure prediction by ZEFSAII (Michael W. Deem and Ramdas Pophale) SiO2 
 PCOD8098184
Probable space group: C 2/M
;
_chemical_formula_sum "Si O2"
_cell_formula_units_Z 64
_cell_length_a 33.656235
_cell_length_b 18.027623
_cell_length_c 9.100913
_cell_angle_alpha 90.000000
_cell_angle_beta 36.723469
_cell_angle_gamma 90.000000
_cell_volume 3301.842729
_symmetry_space_group_name_H-M "C 2/M"
_symmetry_group_IT_number 12
_symmetry_cell_setting 'monoclinic'
loop_
_space_group_symop_operation_xyz
x,y,z
-x,y,-z
-x,-y,-z
x,-y,z
1/2+x,1/2+y,z
1/2-x,1/2+y,-z
1/2-x,1/2-y,-z
1/2+x,1/2-y,z
loop_
_atom_site_type_symbol
_atom_site_label
_atom_site_fract_x
_atom_site_fract_y
_atom_site_fract_z
Si Si1 0.100826 0.333510 0.493217
Si Si2 0.464869 0.340401 0.747690
Si Si3 0.059274 0.812637 0.727404
Si Si4 0.869076 0.912136 0.255362
Si Si5 0.467067 0.914379 0.865871
Si Si6 0.338482 0.915522 0.445004
Si Si7 0.735108 0.166397 0.577863
Si Si8 0.602016 0.183894 0.144941
O O1 0.109739 0.254647 0.549074
O O2 0.157011 0.385219 0.401108
O O3 0.110474 0.321808 0.293007
O O4 0.030047 0.370101 0.738647
O O5 0.500000 0.375695 0.500000
O O6 0.528310 0.336083 0.664949
O O7 0.430200 0.261602 0.812371
O O8 0.409013 0.392379 0.987249
O O9 0.094048 0.880656 0.709222
O O10 0.000000 0.779656 0.000000
O O11 0.796517 0.876185 0.468665
O O12 0.863663 0.000000 0.287329
O O13 0.445979 0.881096 0.770621
O O14 0.486044 0.000000 0.788064
O O15 0.408916 0.903814 0.156426
O O16 0.281318 0.873098 0.526951
O O17 0.316360 0.000000 0.516762
O O18 0.750000 0.250000 0.500000
O O19 0.674470 0.166633 0.869377
#
# Coordination Sequence:
#
# PCOD8098184 Si02
#       8
#     8   8   8   8   8   8   8   8
#     4  12  20  33  57  88 128 161 204 257 304 363
#     4  11  20  40  66  96 130 156 201 261 318 376
#     4  10  21  35  63  91 123 159 204 256 310 366
#     4  11  25  44  67  93 123 164 211 262 311 368
#     4  10  20  34  55  86 126 167 204 248 304 365
#     4  10  22  36  55  85 122 165 209 250 299 359
#     4  11  22  43  68  85 115 162 213 252 296 369
#     4  11  22  37  60  93 124 163 206 251 308 370
#
# _framework density 19.383116999999999
#
# number of rings (size 3 to 8) (size 9 to 14) (size 15 to 20)
#    0.000    1.250    3.750    3.000    3.500    5.500 
#    0.000    3.750    0.000    0.000    0.000    0.000 
#    0.000    0.000    0.000    0.000    0.000    0.000 
#
# Total GULP energy -396704.707311 kJ/mol
# GULP energy per Si atom -12397.022103 kJ/mol
# Density = 1.933900 g / cm^3
# Si number density = 19.383117 Si / 1000 Ang^3
#
#
#
# Elastic Constant Matrix: (Units=GPa)
#
#
# Indices 1 2 3 4 5 6 
#
# 1 146.8593 66.0173 45.3928 0.0000 10.4773 0.0000
# 2 66.0173 147.0993 34.3330 0.0000 2.1884 0.0000
# 3 45.3928 34.3330 55.6882 0.0000 -3.5944 0.0000
# 4 0.0000 0.0000 0.0000 26.7798 0.0000 -5.4904
# 5 10.4773 2.1884 -3.5944 0.0000 31.2420 0.0000
# 6 0.0000 0.0000 0.0000 -5.4904 0.0000 29.3429
#
#
#
# Elastic Compliance Matrix: (Units=1/GPa)
#
#
# Indices 1 2 3 4 5 6 
#
# 1 0.010679 -0.003079 -0.007076 0.000000 -0.004180 0.000000
# 2 -0.003079 0.008868 -0.002953 0.000000 0.000072 0.000000
# 3 -0.007076 -0.002953 0.025904 0.000000 0.005560 0.000000
# 4 0.000000 0.000000 0.000000 0.038831 0.000000 0.007266
# 5 -0.004180 0.000072 0.005560 0.000000 0.034045 0.000000
# 6 0.000000 0.000000 0.000000 0.007266 0.000000 0.035439
#
#
# Mechanical properties :
#
#
# Convention : Reuss Voigt Hill
#
# Bulk Modulus (GPa) = 51.98780 71.23700 61.61240
# Shear Modulus (GPa) = 26.82494 31.06651 28.94573
#
# Velocity S-wave (km/s) = 3.72416 4.00779 3.86858
# Velocity P-wave (km/s) = 6.73587 7.63207 7.19793
#
# Compressibility (1/GPa) = 0.01923528
#
# Stress axis : x y z
#
# Youngs Moduli (GPa) = 93.64603 112.76427 38.60335
#
# Poissons Ratio (x) = 0.34717 0.27316
# Poissons Ratio (y) = 0.28831 0.11400
# Poissons Ratio (z) = 0.66264 0.33301
#
# Static dielectric constant tensor:
#      x y z
#    x 3.707990 0.000000 0.086980 
#    y 0.000000 3.572410 0.000000 
#    z 0.086980 0.000000 3.455270 
# 
# 
# High freq. dielectric constant tensor:
#      x y z
#    x 1.768300 0.000000 0.004380 
#    y 0.000000 1.754220 0.000000 
#    z 0.004380 0.000000 1.735000 
# 
# From -- ./inp_files/112819.got.cif
#   From: 2010.06.25/outbox.cif.g09.slc.cpg/sg12_57_cif.got.tgz:112819.got - 2010.06.28 00:19:55.
