data_PCOD8098255
_publ_section_title
;
Structure prediction by ZEFSAII (Michael W. Deem and Ramdas Pophale) SiO2 
 PCOD8098255
Probable space group: C 2/M
;
_chemical_formula_sum "Si O2"
_cell_formula_units_Z 48
_cell_length_a 20.567487
_cell_length_b 8.611133
_cell_length_c 13.998569
_cell_angle_alpha 90.000000
_cell_angle_beta 89.872310
_cell_angle_gamma 90.000000
_cell_volume 2479.271524
_symmetry_space_group_name_H-M "C 2/M"
_symmetry_group_IT_number 12
_symmetry_cell_setting 'monoclinic'
loop_
_space_group_symop_operation_xyz
x,y,z
-x,y,-z
-x,-y,-z
x,-y,z
1/2+x,1/2+y,z
1/2-x,1/2+y,-z
1/2-x,1/2-y,-z
1/2+x,1/2-y,z
loop_
_atom_site_type_symbol
_atom_site_label
_atom_site_fract_x
_atom_site_fract_y
_atom_site_fract_z
Si Si1 0.498055 0.821500 0.611036
Si Si2 0.432650 0.681370 0.102756
Si Si3 0.879927 0.818953 0.717519
Si Si4 0.753676 0.183592 0.605268
Si Si5 0.628690 0.818815 0.720525
Si Si6 0.428080 0.181629 0.903016
O O1 0.500000 0.783551 0.500000
O O2 0.445606 0.710631 0.659300
O O3 0.568449 0.782131 0.652102
O O4 0.478463 0.000000 0.630960
O O5 0.448463 0.500000 0.105664
O O6 0.378320 0.725837 0.180377
O O7 0.498433 0.774711 0.127113
O O8 0.406608 0.727394 0.998284
O O9 0.819200 0.757397 0.656140
O O10 0.879862 0.728009 0.817886
O O11 0.873417 0.000000 0.739958
O O12 0.750000 0.250000 0.500000
O O13 0.692800 0.243646 0.667432
O O14 0.752065 0.000000 0.596946
O O15 0.634252 0.000000 0.744620
O O16 0.423982 0.000000 0.923429
#
# Coordination Sequence:
#
# PCOD8098255 Si02
#       6
#     8   8   8   8   8   8
#     4  10  20  34  56  83 111 148 194 241 289 345
#     4  11  21  35  58  89 120 149 187 241 296 344
#     4  11  22  37  57  86 119 151 193 244 294 337
#     4  10  23  41  61  84 117 160 199 241 289 346
#     4  10  20  37  58  83 116 155 198 236 286 349
#     4  11  21  36  59  86 117 155 193 233 288 354
#
# _framework density 19.360524999999999
#
# number of rings (size 3 to 8) (size 9 to 14) (size 15 to 20)
#    0.000    1.500    1.667    5.500    0.000    3.667 
#    0.000    0.833    0.000    0.000    0.000    0.000 
#    0.000    0.000    0.000    0.000    0.000    0.000 
#
# Total GULP energy -297731.551109 kJ/mol
# GULP energy per Si atom -12405.481296 kJ/mol
# Density = 1.931646 g / cm^3
# Si number density = 19.360525 Si / 1000 Ang^3
#
#
#
# Elastic Constant Matrix: (Units=GPa)
#
#
# Indices 1 2 3 4 5 6 
#
# 1 88.7824 22.4820 54.3720 0.0000 3.2084 0.0000
# 2 22.4820 64.4625 29.3215 0.0000 0.9841 0.0000
# 3 54.3720 29.3215 143.4732 0.0000 2.4925 0.0000
# 4 0.0000 0.0000 0.0000 35.8073 0.0000 -1.2545
# 5 3.2084 0.9841 2.4925 0.0000 36.4391 0.0000
# 6 0.0000 0.0000 0.0000 -1.2545 0.0000 23.1402
#
#
#
# Elastic Compliance Matrix: (Units=1/GPa)
#
#
# Indices 1 2 3 4 5 6 
#
# 1 0.015189 -0.002946 -0.005138 0.000000 -0.000906 0.000000
# 2 -0.002946 0.017676 -0.002495 0.000000 -0.000047 0.000000
# 3 -0.005138 -0.002495 0.009429 0.000000 -0.000125 0.000000
# 4 0.000000 0.000000 0.000000 0.027980 0.000000 0.001517
# 5 -0.000906 -0.000047 -0.000125 0.000000 0.027533 0.000000
# 6 0.000000 0.000000 0.000000 0.001517 0.000000 0.043297
#
#
# Mechanical properties :
#
#
# Convention : Reuss Voigt Hill
#
# Bulk Modulus (GPa) = 47.31465 56.56325 51.93895
# Shear Modulus (GPa) = 29.53174 31.78013 30.65593
#
# Velocity S-wave (km/s) = 3.90982 4.05593 3.98354
# Velocity P-wave (km/s) = 6.69881 7.15634 6.93135
#
# Compressibility (1/GPa) = 0.02113510
#
# Stress axis : x y z
#
# Youngs Moduli (GPa) = 65.83641 56.57356 106.05222
#
# Poissons Ratio (x) = 0.16668 0.54493
# Poissons Ratio (y) = 0.19398 0.26461
# Poissons Ratio (z) = 0.33829 0.14115
#
# Static dielectric constant tensor:
#      x y z
#    x 3.538430 0.000000 0.036680 
#    y 0.000000 3.452310 0.000000 
#    z 0.036680 0.000000 3.735980 
# 
# 
# High freq. dielectric constant tensor:
#      x y z
#    x 1.734350 0.000000 0.001890 
#    y 0.000000 1.752220 0.000000 
#    z 0.001890 0.000000 1.772800 
# 
# From -- ./inp_files/221727.got.cif
#   From: 2010.06.25/outbox.cif.g09.slc.cpg/sg12_111_cif.got.tgz:221727.got - 2010.06.28 00:19:55.
