data_PCOD8098926
_publ_section_title
;
Structure prediction by ZEFSAII (Michael W. Deem and Ramdas Pophale) SiO2 
 PCOD8098926
Probable space group: C 2/M
;
_chemical_formula_sum "Si O2"
_cell_formula_units_Z 64
_cell_length_a 33.590641
_cell_length_b 10.627908
_cell_length_c 18.825455
_cell_angle_alpha 90.000000
_cell_angle_beta 26.874999
_cell_angle_gamma 90.000000
_cell_volume 3038.041759
_symmetry_space_group_name_H-M "C 2/M"
_symmetry_group_IT_number 12
_symmetry_cell_setting 'monoclinic'
loop_
_space_group_symop_operation_xyz
x,y,z
-x,y,-z
-x,-y,-z
x,-y,z
1/2+x,1/2+y,z
1/2-x,1/2+y,-z
1/2-x,1/2-y,-z
1/2+x,1/2-y,z
loop_
_atom_site_type_symbol
_atom_site_label
_atom_site_fract_x
_atom_site_fract_y
_atom_site_fract_z
Si Si1 0.742347 0.249921 0.331132
Si Si2 0.890378 0.144218 0.815211
Si Si3 0.480960 0.863530 0.206028
Si Si4 0.401720 0.144014 0.682502
Si Si5 0.080913 0.640807 0.912051
Si Si6 0.441971 0.361479 0.369013
Si Si7 0.292656 0.864774 0.472595
Si Si8 0.265603 0.642386 0.142409
O O1 0.821710 0.304315 0.253161
O O2 0.660459 0.344192 0.448204
O O3 0.708703 0.141723 0.438388
O O4 0.777750 0.210789 0.198141
O O5 0.870951 0.249857 0.787229
O O6 0.995488 0.144247 0.661391
O O7 0.861638 0.000000 0.838591
O O8 0.834749 0.189544 0.972808
O O9 0.481220 0.745380 0.256724
O O10 0.395942 0.860900 0.288885
O O11 0.483647 0.000000 0.242327
O O12 0.565261 0.853636 0.021511
O O13 0.500000 0.172337 0.500000
O O14 0.335197 0.157680 0.722501
O O15 0.395536 0.000000 0.723242
O O16 0.085046 0.500000 0.875474
O O17 0.000000 0.712588 0.000000
O O18 0.451933 0.500000 0.317565
O O19 0.250000 0.750000 0.500000
O O20 0.250757 0.000000 0.516773
O O21 0.289172 0.500000 0.121480
#
# Coordination Sequence:
#
# PCOD8098926 Si02
#       8
#     8   8   8   8   8   8   8   8
#     4  11  21  36  59  84 114 149 192 239 291 348
#     4  10  21  38  59  85 120 159 194 235 289 343
#     4   9  19  35  54  76 102 139 186 228 274 335
#     4  10  21  38  61  89 119 155 198 240 282 332
#     4  10  20  35  54  77 107 143 184 232 285 342
#     4  10  21  36  55  82 114 147 186 234 288 338
#     4  10  21  36  57  82 108 143 186 233 286 344
#     4  10  21  38  60  85 116 154 194 238 287 340
#
# _framework density 21.066202000000001
#
# number of rings (size 3 to 8) (size 9 to 14) (size 15 to 20)
#    0.000    2.000    0.000    3.375    0.000    4.750 
#    0.000    3.125    0.000    2.625    0.000    0.000 
#    0.000    0.000    0.000    0.000    0.000    0.000 
#
# Total GULP energy -396430.862080 kJ/mol
# GULP energy per Si atom -12388.464440 kJ/mol
# Density = 2.101825 g / cm^3
# Si number density = 21.066202 Si / 1000 Ang^3
#
#
#
# Elastic Constant Matrix: (Units=GPa)
#
#
# Indices 1 2 3 4 5 6 
#
# 1 67.0762 35.8038 21.7484 0.0000 -2.4135 0.0000
# 2 35.8038 131.1194 15.8305 0.0000 13.3066 0.0000
# 3 21.7484 15.8305 91.0112 0.0000 -7.9003 0.0000
# 4 0.0000 0.0000 0.0000 22.4378 0.0000 1.8661
# 5 -2.4135 13.3066 -7.9003 0.0000 38.8919 0.0000
# 6 0.0000 0.0000 0.0000 1.8661 0.0000 29.9615
#
#
#
# Elastic Compliance Matrix: (Units=1/GPa)
#
#
# Indices 1 2 3 4 5 6 
#
# 1 0.018723 -0.004916 -0.003433 0.000000 0.002146 0.000000
# 2 -0.004916 0.009439 -0.000788 0.000000 -0.003695 0.000000
# 3 -0.003433 -0.000788 0.012164 0.000000 0.002528 0.000000
# 4 0.000000 0.000000 0.000000 0.044800 0.000000 -0.002790
# 5 0.002146 -0.003695 0.002528 0.000000 0.027623 0.000000
# 6 0.000000 0.000000 0.000000 -0.002790 0.000000 0.033550
#
#
# Mechanical properties :
#
#
# Convention : Reuss Voigt Hill
#
# Bulk Modulus (GPa) = 45.34452 48.44137 46.89294
# Shear Modulus (GPa) = 29.08286 32.64650 30.86468
#
# Velocity S-wave (km/s) = 3.71960 3.94091 3.83185
# Velocity P-wave (km/s) = 6.32604 6.61456 6.47191
#
# Compressibility (1/GPa) = 0.02205338
#
# Stress axis : x y z
#
# Youngs Moduli (GPa) = 53.41139 105.94304 82.20730
#
# Poissons Ratio (x) = 0.52080 0.28219
# Poissons Ratio (y) = 0.26256 0.06477
# Poissons Ratio (z) = 0.18334 0.08347
#
# Static dielectric constant tensor:
#      x y z
#    x 3.530980 0.000000 -0.162010 
#    y 0.000000 3.831530 0.000000 
#    z -0.162010 0.000000 4.007590 
# 
# 
# High freq. dielectric constant tensor:
#      x y z
#    x 1.808230 0.000000 -0.010030 
#    y 0.000000 1.819180 0.000000 
#    z -0.010030 0.000000 1.839810 
# 
# From -- ./inp_files/296475.got.cif
#   From: 2010.06.25/outbox.cif.g09.slc.cpg/sg12_149_cif.got.tgz:296475.got - 2010.06.28 00:19:55.
