data_PCOD8098802
_publ_section_title
;
Structure prediction by ZEFSAII (Michael W. Deem and Ramdas Pophale) SiO2 
 PCOD8098802
Probable space group: C 2/M
;
_chemical_formula_sum "Si O2"
_cell_formula_units_Z 64
_cell_length_a 27.634785
_cell_length_b 8.739907
_cell_length_c 14.411233
_cell_angle_alpha 90.000000
_cell_angle_beta 104.897617
_cell_angle_gamma 90.000000
_cell_volume 3363.682676
_symmetry_space_group_name_H-M "C 2/M"
_symmetry_group_IT_number 12
_symmetry_cell_setting 'monoclinic'
loop_
_space_group_symop_operation_xyz
x,y,z
-x,y,-z
-x,-y,-z
x,-y,z
1/2+x,1/2+y,z
1/2-x,1/2+y,-z
1/2-x,1/2-y,-z
1/2+x,1/2-y,z
loop_
_atom_site_type_symbol
_atom_site_label
_atom_site_fract_x
_atom_site_fract_y
_atom_site_fract_z
Si Si1 0.037465 0.174788 0.860494
Si Si2 0.866552 0.818691 0.612489
Si Si3 0.629501 0.321554 0.783034
Si Si4 0.162686 0.821651 0.603733
Si Si5 0.067244 0.678921 0.211966
Si Si6 0.614660 0.679081 0.058177
Si Si7 0.304733 0.180231 0.027819
Si Si8 0.768662 0.321026 0.603646
O O1 0.072646 0.202044 0.788509
O O2 0.991033 0.287971 0.831656
O O3 0.018065 0.000000 0.854548
O O4 0.067964 0.215678 0.968105
O O5 0.858303 0.751947 0.503660
O O6 0.916538 0.743537 0.679353
O O7 0.819869 0.766171 0.655445
O O8 0.871312 0.000000 0.616994
O O9 0.644685 0.500000 0.797717
O O10 0.633206 0.259052 0.679138
O O11 0.667685 0.226998 0.864206
O O12 0.222198 0.790798 0.650805
O O13 0.153087 0.000000 0.588751
O O14 0.076743 0.500000 0.210595
O O15 0.101499 0.761505 0.152969
O O16 0.625807 0.500000 0.065971
O O17 0.664518 0.761202 0.046200
O O18 0.300492 0.000000 0.019791
O O19 0.250000 0.250000 0.000000
O O20 0.780075 0.500000 0.598807
O O21 0.750000 0.250000 0.500000
#
# Coordination Sequence:
#
# PCOD8098802 Si02
#       8
#     8   8   8   8   8   8   8   8
#     4   9  19  36  58  80 104 136 175 223 276 330
#     4  10  20  35  53  76 108 143 183 229 272 317
#     4   9  18  36  59  81 106 140 184 229 274 323
#     4   8  16  32  56  80 103 139 183 223 263 315
#     4  12  24  36  54  80 110 143 177 221 277 332
#     4  10  21  39  61  83 107 139 181 225 271 324
#     4  11  22  37  56  83 118 151 183 220 266 317
#     4   9  16  29  49  74 104 137 175 217 264 316
#
# _framework density 19.026765000000001
#
# number of rings (size 3 to 8) (size 9 to 14) (size 15 to 20)
#    0.000    2.250    0.000    5.250    0.000    5.000 
#    0.000    8.125    0.000    3.750    0.000    0.000 
#    0.000    0.000    0.000    0.000    0.000    0.000 
#
# Total GULP energy -396705.810793 kJ/mol
# GULP energy per Si atom -12397.056587 kJ/mol
# Density = 1.898346 g / cm^3
# Si number density = 19.026765 Si / 1000 Ang^3
#
#
#
# Elastic Constant Matrix: (Units=GPa)
#
#
# Indices 1 2 3 4 5 6 
#
# 1 99.9836 41.4249 49.2857 0.0000 -0.5176 0.0000
# 2 41.4249 90.4144 29.7448 0.0000 7.3045 0.0000
# 3 49.2857 29.7448 82.3482 0.0000 -9.5962 0.0000
# 4 0.0000 0.0000 0.0000 25.3692 0.0000 4.9504
# 5 -0.5176 7.3045 -9.5962 0.0000 29.9339 0.0000
# 6 0.0000 0.0000 0.0000 4.9504 0.0000 33.3669
#
#
#
# Elastic Compliance Matrix: (Units=1/GPa)
#
#
# Indices 1 2 3 4 5 6 
#
# 1 0.015790 -0.004523 -0.007953 0.000000 -0.001173 0.000000
# 2 -0.004523 0.014515 -0.003073 0.000000 -0.004605 0.000000
# 3 -0.007953 -0.003073 0.018787 0.000000 0.006635 0.000000
# 4 0.000000 0.000000 0.000000 0.040593 0.000000 -0.006022
# 5 -0.001173 -0.004605 0.006635 0.000000 0.036637 0.000000
# 6 0.000000 0.000000 0.000000 -0.006022 0.000000 0.030863
#
#
# Mechanical properties :
#
#
# Convention : Reuss Voigt Hill
#
# Bulk Modulus (GPa) = 55.57408 57.07297 56.32352
# Shear Modulus (GPa) = 25.73574 27.88671 26.81123
#
# Velocity S-wave (km/s) = 3.68177 3.83254 3.75791
# Velocity P-wave (km/s) = 6.88082 7.04598 6.96389
#
# Compressibility (1/GPa) = 0.01799400
#
# Stress axis : x y z
#
# Youngs Moduli (GPa) = 63.33078 68.89202 53.22928
#
# Poissons Ratio (x) = 0.31162 0.42335
# Poissons Ratio (y) = 0.28646 0.16355
# Poissons Ratio (z) = 0.50369 0.21168
#
# Static dielectric constant tensor:
#      x y z
#    x 3.804620 0.000000 -0.088640 
#    y 0.000000 3.433700 0.000000 
#    z -0.088640 0.000000 3.692970 
# 
# 
# High freq. dielectric constant tensor:
#      x y z
#    x 1.740560 0.000000 -0.001610 
#    y 0.000000 1.733560 0.000000 
#    z -0.001610 0.000000 1.730160 
# 
# From -- ./inp_files/244143.got.cif
#   From: 2010.06.25/outbox.cif.g09.slc.cpg/sg12_123_cif.got.tgz:244143.got - 2010.06.28 00:19:55.
