data_PCOD8098712
_publ_section_title
;
Structure prediction by ZEFSAII (Michael W. Deem and Ramdas Pophale) SiO2 
 PCOD8098712
Probable space group: C 2/M
;
_chemical_formula_sum "Si O2"
_cell_formula_units_Z 60
_cell_length_a 17.226895
_cell_length_b 12.322644
_cell_length_c 16.199074
_cell_angle_alpha 90.000000
_cell_angle_beta 74.034704
_cell_angle_gamma 90.000000
_cell_volume 3306.115926
_symmetry_space_group_name_H-M "C 2/M"
_symmetry_group_IT_number 12
_symmetry_cell_setting 'monoclinic'
loop_
_space_group_symop_operation_xyz
x,y,z
-x,y,-z
-x,-y,-z
x,-y,z
1/2+x,1/2+y,z
1/2-x,1/2+y,-z
1/2-x,1/2-y,-z
1/2+x,1/2-y,z
loop_
_atom_site_type_symbol
_atom_site_label
_atom_site_fract_x
_atom_site_fract_y
_atom_site_fract_z
Si Si1 0.225081 0.277336 0.599986
Si Si2 0.547837 0.874181 0.654885
Si Si3 0.000000 0.282928 0.500000
Si Si4 0.402558 0.249459 0.758279
Si Si5 0.574196 0.372257 0.088345
Si Si6 0.106698 0.127188 0.897708
Si Si7 0.248354 0.128471 0.741956
Si Si8 0.380393 0.377808 0.605910
O O1 0.250000 0.250000 0.500000
O O2 0.135126 0.320758 0.633576
O O3 0.235410 0.169856 0.652624
O O4 0.284377 0.369088 0.619892
O O5 0.510281 0.861051 0.574832
O O6 0.487892 0.813980 0.736023
O O7 0.553538 0.000000 0.676477
O O8 0.922299 0.204970 0.529934
O O9 0.383853 0.302868 0.852097
O O10 0.333249 0.164687 0.754874
O O11 0.406000 0.347055 0.691235
O O12 0.590690 0.500000 0.096385
O O13 0.478853 0.347117 0.118978
O O14 0.610279 0.329251 0.990837
O O15 0.177800 0.177602 0.821180
O O16 0.119045 0.000000 0.899877
O O17 0.246004 0.000000 0.738413
O O18 0.409114 0.500000 0.580115
#
# Coordination Sequence:
#
# PCOD8098712 Si02
#       8
#     8   8   4   8   8   8   8   8
#     4  11  22  38  53  78 100 134 188 217 265 327
#     4  11  22  37  54  74 104 139 173 218 261 314
#     4  10  20  36  52  76 100 130 178 208 262 326
#     4  10  21  33  52  80 108 143 183 207 265 329
#     4   9  16  31  55  83 111 140 178 222 264 312
#     4   8  16  31  54  81 108 140 178 220 269 313
#     4  10  21  37  54  78 111 140 177 228 267 314
#     4  10  20  35  51  72 105 135 170 224 265 304
#
# _framework density 18.148185000000002
#
# number of rings (size 3 to 8) (size 9 to 14) (size 15 to 20)
#    0.000    2.133    1.333    3.200    0.000    1.600 
#    0.000    0.667    0.000    0.000    0.000   18.667 
#    0.000    0.000    0.000    0.000    0.000    0.000 
#
# Total GULP energy -371983.620469 kJ/mol
# GULP energy per Si atom -12399.454016 kJ/mol
# Density = 1.810688 g / cm^3
# Si number density = 18.148185 Si / 1000 Ang^3
#
#
#
# Elastic Constant Matrix: (Units=GPa)
#
#
# Indices 1 2 3 4 5 6 
#
# 1 102.2861 34.8650 34.3484 0.0000 -9.9091 0.0000
# 2 34.8650 83.6332 38.6684 0.0000 5.1956 0.0000
# 3 34.3484 38.6684 112.0366 0.0000 -2.3648 0.0000
# 4 0.0000 0.0000 0.0000 21.8581 0.0000 -1.4991
# 5 -9.9091 5.1956 -2.3648 0.0000 29.2952 0.0000
# 6 0.0000 0.0000 0.0000 -1.4991 0.0000 16.6410
#
#
#
# Elastic Compliance Matrix: (Units=1/GPa)
#
#
# Indices 1 2 3 4 5 6 
#
# 1 0.012517 -0.004513 -0.002177 0.000000 0.004858 0.000000
# 2 -0.004513 0.016109 -0.004276 0.000000 -0.004729 0.000000
# 3 -0.002177 -0.004276 0.011088 0.000000 0.000917 0.000000
# 4 0.000000 0.000000 0.000000 0.046034 0.000000 0.004147
# 5 0.004858 -0.004729 0.000917 0.000000 0.036691 0.000000
# 6 0.000000 0.000000 0.000000 0.004147 0.000000 0.060466
#
#
# Mechanical properties :
#
#
# Convention : Reuss Voigt Hill
#
# Bulk Modulus (GPa) = 56.23854 57.07997 56.65925
# Shear Modulus (GPa) = 23.72303 26.23047 24.97675
#
# Velocity S-wave (km/s) = 3.61942 3.80590 3.71383
# Velocity P-wave (km/s) = 6.96583 7.12977 7.04828
#
# Compressibility (1/GPa) = 0.01778140
#
# Stress axis : x y z
#
# Youngs Moduli (GPa) = 79.89393 62.07604 90.18473
#
# Poissons Ratio (x) = 0.28016 0.19635
# Poissons Ratio (y) = 0.36057 0.38564
# Poissons Ratio (z) = 0.17394 0.26545
#
# Static dielectric constant tensor:
#      x y z
#    x 3.468070 0.000000 -0.207140 
#    y 0.000000 3.074720 0.000000 
#    z -0.207140 0.000000 3.506920 
# 
# 
# High freq. dielectric constant tensor:
#      x y z
#    x 1.709890 0.000000 -0.005040 
#    y 0.000000 1.682870 0.000000 
#    z -0.005040 0.000000 1.702860 
# 
# From -- ./inp_files/223239.got.cif
#   From: 2010.06.25/outbox.cif.g09.slc.cpg/sg12_112_cif.got.tgz:223239.got - 2010.06.28 00:19:55.
