data_PCOD8098405
_publ_section_title
;
Structure prediction by ZEFSAII (Michael W. Deem and Ramdas Pophale) SiO2 
 PCOD8098405
Probable space group: C 2/M
;
_chemical_formula_sum "Si O2"
_cell_formula_units_Z 56
_cell_length_a 22.064050
_cell_length_b 8.697765
_cell_length_c 13.840262
_cell_angle_alpha 90.000000
_cell_angle_beta 92.426893
_cell_angle_gamma 90.000000
_cell_volume 2653.673608
_symmetry_space_group_name_H-M "C 2/M"
_symmetry_group_IT_number 12
_symmetry_cell_setting 'monoclinic'
loop_
_space_group_symop_operation_xyz
x,y,z
-x,y,-z
-x,-y,-z
x,-y,z
1/2+x,1/2+y,z
1/2-x,1/2+y,-z
1/2-x,1/2-y,-z
1/2+x,1/2-y,z
loop_
_atom_site_type_symbol
_atom_site_label
_atom_site_fract_x
_atom_site_fract_y
_atom_site_fract_z
Si Si1 0.438359 0.682325 0.545856
Si Si2 0.456490 0.327965 0.085392
Si Si3 0.441015 0.324475 0.765229
Si Si4 0.776152 0.318609 0.250750
Si Si5 0.333692 0.177943 0.060332
Si Si6 0.330513 0.180461 0.846429
Si Si7 0.809428 0.182040 0.451270
O O1 0.500000 0.749047 0.500000
O O2 0.439653 0.500000 0.536898
O O3 0.440632 0.737910 0.656362
O O4 0.374210 0.743132 0.497135
O O5 0.429061 0.500000 0.072238
O O6 0.490953 0.313727 0.189688
O O7 0.404654 0.202021 0.080563
O O8 0.500000 0.291251 0.000000
O O9 0.417199 0.500000 0.768928
O O10 0.400456 0.216484 0.830639
O O11 0.785485 0.500000 0.264935
O O12 0.800642 0.248043 0.150770
O O13 0.705359 0.273686 0.239635
O O14 0.808927 0.231512 0.339725
O O15 0.318949 0.000000 0.060427
O O16 0.313484 0.243034 0.953667
O O17 0.318190 0.000000 0.836791
O O18 0.750000 0.250000 0.500000
O O19 0.805365 0.000000 0.461599
#
# Coordination Sequence:
#
# PCOD8098405 Si02
#       7
#     8   8   8   8   8   8   8
#     4   9  20  38  61  89 119 155 201 253 304 354
#     4  10  20  34  56  88 119 154 199 243 291 361
#     4  10  20  36  60  87 119 157 196 242 299 359
#     4  11  24  41  61  86 120 158 198 248 308 366
#     4  10  23  39  57  84 121 159 196 246 305 363
#     4  11  22  38  60  88 118 155 202 247 298 365
#     4  11  23  41  67  94 123 161 209 261 311 369
#
# _framework density 21.102820000000001
#
# number of rings (size 3 to 8) (size 9 to 14) (size 15 to 20)
#    0.000    1.714    1.429    2.571    2.000    3.714 
#    0.000    0.714    0.000    2.143    0.000    0.000 
#    0.000    0.000    0.000    0.000    0.000    0.000 
#
# Total GULP energy -347111.717468 kJ/mol
# GULP energy per Si atom -12396.847052 kJ/mol
# Density = 2.105479 g / cm^3
# Si number density = 21.102820 Si / 1000 Ang^3
#
#
#
# Elastic Constant Matrix: (Units=GPa)
#
#
# Indices 1 2 3 4 5 6 
#
# 1 88.4914 15.5938 42.2636 0.0000 14.0476 0.0000
# 2 15.5938 38.1495 23.9603 0.0000 1.6617 0.0000
# 3 42.2636 23.9603 147.1808 0.0000 13.6803 0.0000
# 4 0.0000 0.0000 0.0000 29.5879 0.0000 0.3051
# 5 14.0476 1.6617 13.6803 0.0000 37.5708 0.0000
# 6 0.0000 0.0000 0.0000 0.3051 0.0000 29.4438
#
#
#
# Elastic Compliance Matrix: (Units=1/GPa)
#
#
# Indices 1 2 3 4 5 6 
#
# 1 0.014038 -0.003637 -0.003070 0.000000 -0.003970 0.000000
# 2 -0.003637 0.030148 -0.004001 0.000000 0.001483 0.000000
# 3 -0.003070 -0.004001 0.008492 0.000000 -0.001767 0.000000
# 4 0.000000 0.000000 0.000000 0.033801 0.000000 -0.000350
# 5 -0.003970 0.001483 -0.001767 0.000000 0.028679 0.000000
# 6 0.000000 0.000000 0.000000 -0.000350 0.000000 0.033967
#
#
# Mechanical properties :
#
#
# Convention : Reuss Voigt Hill
#
# Bulk Modulus (GPa) = 31.98923 48.60635 40.29779
# Shear Modulus (GPa) = 27.63031 32.12076 29.87554
#
# Velocity S-wave (km/s) = 3.62238 3.90565 3.76668
# Velocity P-wave (km/s) = 5.71727 6.58953 6.16884
#
# Compressibility (1/GPa) = 0.03126052
#
# Stress axis : x y z
#
# Youngs Moduli (GPa) = 71.23590 33.16991 117.76371
#
# Poissons Ratio (x) = 0.12064 0.36153
# Poissons Ratio (y) = 0.25909 0.47122
# Poissons Ratio (z) = 0.21869 0.13273
#
# Static dielectric constant tensor:
#      x y z
#    x 3.932150 0.000000 0.064330 
#    y 0.000000 3.458150 0.000000 
#    z 0.064330 0.000000 4.114500 
# 
# 
# High freq. dielectric constant tensor:
#      x y z
#    x 1.832010 0.000000 0.007220 
#    y 0.000000 1.798150 0.000000 
#    z 0.007220 0.000000 1.842130 
# 
# From -- ./inp_files/230963.got.cif
#   From: 2010.06.25/outbox.cif.g09.slc.cpg/sg12_116_cif.got.tgz:230963.got - 2010.06.28 00:19:55.
