data_PCOD8098490
_publ_section_title
;
Structure prediction by ZEFSAII (Michael W. Deem and Ramdas Pophale) SiO2 
 PCOD8098490
Probable space group: C 2/M
;
_chemical_formula_sum "Si O2"
_cell_formula_units_Z 56
_cell_length_a 9.058219
_cell_length_b 17.031495
_cell_length_c 28.156003
_cell_angle_alpha 90.000000
_cell_angle_beta 139.906001
_cell_angle_gamma 90.000000
_cell_volume 2797.575392
_symmetry_space_group_name_H-M "C 2/M"
_symmetry_group_IT_number 12
_symmetry_cell_setting 'monoclinic'
loop_
_space_group_symop_operation_xyz
x,y,z
-x,y,-z
-x,-y,-z
x,-y,z
1/2+x,1/2+y,z
1/2-x,1/2+y,-z
1/2-x,1/2-y,-z
1/2+x,1/2-y,z
loop_
_atom_site_type_symbol
_atom_site_label
_atom_site_fract_x
_atom_site_fract_y
_atom_site_fract_z
Si Si1 0.780283 0.587881 0.119734
Si Si2 0.738428 0.371729 0.306009
Si Si3 0.780171 0.339883 0.812222
Si Si4 0.016533 0.585978 0.728938
Si Si5 0.272304 0.087436 0.416762
Si Si6 0.157476 0.197827 0.678920
Si Si7 0.490498 0.743251 0.947512
O O1 0.687824 0.500000 0.085223
O O2 0.821241 0.595853 0.185852
O O3 0.593628 0.654308 0.062176
O O4 0.013057 0.598833 0.145528
O O5 0.461712 0.379550 0.234746
O O6 0.835761 0.408434 0.282244
O O7 0.821229 0.419155 0.372482
O O8 0.843080 0.285355 0.340883
O O9 0.755578 0.293252 0.756567
O O10 0.832627 0.281145 0.868334
O O11 0.900198 0.500000 0.701921
O O12 0.819399 0.650646 0.682620
O O13 0.500000 0.113663 0.500000
O O14 0.085685 0.154428 0.381472
O O15 0.193756 0.000000 0.414397
O O16 0.500000 0.789720 0.000000
O O17 0.750000 0.750000 0.000000
#
# Coordination Sequence:
#
# PCOD8098490 Si02
#       7
#     8   8   8   8   8   8   8
#     4  10  22  40  60  84 115 153 195 242 291 349
#     4  11  21  35  62  88 118 146 194 248 281 337
#     4  10  21  39  59  88 114 154 198 232 289 355
#     4  10  20  34  57  87 116 144 187 243 293 338
#     4  10  22  40  59  82 118 161 197 232 289 357
#     4  10  20  37  61  84 116 153 193 239 287 349
#     4  12  24  39  61  86 114 159 195 242 292 358
#
# _framework density 20.017334000000002
#
# number of rings (size 3 to 8) (size 9 to 14) (size 15 to 20)
#    0.000    1.571    1.429    5.143    2.000    4.857 
#    0.000    0.714    0.000    3.429    0.000    0.000 
#    0.000    0.000    0.000    0.000    0.000    0.000 
#
# Total GULP energy -346963.160954 kJ/mol
# GULP energy per Si atom -12391.541463 kJ/mol
# Density = 1.997177 g / cm^3
# Si number density = 20.017334 Si / 1000 Ang^3
#
#
#
# Elastic Constant Matrix: (Units=GPa)
#
#
# Indices 1 2 3 4 5 6 
#
# 1 125.6260 15.6293 52.0183 0.0000 -2.5159 0.0000
# 2 15.6293 87.8223 40.8193 0.0000 8.1521 0.0000
# 3 52.0183 40.8193 114.9450 -0.0001 1.4885 0.0000
# 4 0.0000 0.0000 -0.0001 14.5324 -0.0001 2.9139
# 5 -2.5159 8.1521 1.4885 -0.0001 21.9283 0.0000
# 6 0.0000 0.0000 0.0000 2.9139 0.0000 25.1147
#
#
#
# Elastic Compliance Matrix: (Units=1/GPa)
#
#
# Indices 1 2 3 4 5 6 
#
# 1 0.009845 0.000241 -0.004558 0.000000 0.001349 0.000000
# 2 0.000241 0.014155 -0.005073 0.000000 -0.004890 0.000000
# 3 -0.004558 -0.005073 0.012558 0.000000 0.000510 0.000000
# 4 0.000000 0.000000 0.000000 0.070451 0.000000 -0.008174
# 5 0.001349 -0.004890 0.000510 0.000000 0.047541 0.000000
# 6 0.000000 0.000000 0.000000 -0.008174 0.000000 0.040766
#
#
# Mechanical properties :
#
#
# Convention : Reuss Voigt Hill
#
# Bulk Modulus (GPa) = 56.24893 60.59190 58.42041
# Shear Modulus (GPa) = 22.72507 26.97682 24.85094
#
# Velocity S-wave (km/s) = 3.37303 3.67505 3.52727
# Velocity P-wave (km/s) = 6.58262 6.95294 6.77031
#
# Compressibility (1/GPa) = 0.01777812
#
# Stress axis : x y z
#
# Youngs Moduli (GPa) = 101.57822 70.64425 79.63317
#
# Poissons Ratio (x) = -0.01706 0.36300
# Poissons Ratio (y) = -0.02453 0.40397
# Poissons Ratio (z) = 0.46304 0.35837
#
# Static dielectric constant tensor:
#      x y z
#    x 3.708450 0.000000 0.045310 
#    y 0.000000 3.763180 0.000000 
#    z 0.045310 0.000000 3.186920 
# 
# 
# High freq. dielectric constant tensor:
#      x y z
#    x 1.792010 0.000000 -0.006330 
#    y 0.000000 1.778700 0.000000 
#    z -0.006330 0.000000 1.768030 
# 
# From -- ./inp_files/257180.got.cif
#   From: 2010.06.25/outbox.cif.g09.slc.cpg/sg12_129_cif.got.tgz:257180.got - 2010.06.28 00:19:55.
