data_PCOD8098827
_publ_section_title
;
Structure prediction by ZEFSAII (Michael W. Deem and Ramdas Pophale) SiO2 
 PCOD8098827
Probable space group: C 2/M
;
_chemical_formula_sum "Si O2"
_cell_formula_units_Z 52
_cell_length_a 28.595393
_cell_length_b 19.583093
_cell_length_c 15.098694
_cell_angle_alpha 90.000000
_cell_angle_beta 161.137201
_cell_angle_gamma 90.000000
_cell_volume 2733.547191
_symmetry_space_group_name_H-M "C 2/M"
_symmetry_group_IT_number 12
_symmetry_cell_setting 'monoclinic'
loop_
_space_group_symop_operation_xyz
x,y,z
-x,y,-z
-x,-y,-z
x,-y,z
1/2+x,1/2+y,z
1/2-x,1/2+y,-z
1/2-x,1/2-y,-z
1/2+x,1/2-y,z
loop_
_atom_site_type_symbol
_atom_site_label
_atom_site_fract_x
_atom_site_fract_y
_atom_site_fract_z
Si Si1 0.892201 0.712763 0.568651
Si Si2 0.439328 0.706040 0.987423
Si Si3 0.278788 0.672384 0.066085
Si Si4 0.071965 0.161801 0.490792
Si Si5 0.136096 0.572503 0.567484
Si Si6 0.031024 0.921529 0.847358
Si Si7 0.000000 0.401654 0.500000
O O1 0.909852 0.762236 0.516094
O O2 0.931814 0.635717 0.608433
O O3 0.002322 0.735874 0.841857
O O4 0.732372 0.713973 0.322458
O O5 0.489338 0.629605 0.105797
O O6 0.500000 0.721639 0.000000
O O7 0.418316 0.650902 0.261260
O O8 0.301414 0.652068 0.210039
O O9 0.250000 0.750000 0.000000
O O10 0.135598 0.641054 0.772459
O O11 0.078766 0.103978 0.426472
O O12 0.124364 0.500000 0.492814
O O13 0.052375 0.556536 0.508806
O O14 0.304332 0.587258 0.890649
O O15 0.993562 0.000000 0.805939
#
# Coordination Sequence:
#
# PCOD8098827 Si02
#       7
#     8   8   8   8   8   8   4
#     4  10  21  36  60  82 111 144 181 226 275 330
#     4  10  21  37  61  89 111 137 175 228 285 335
#     4  11  21  32  51  80 115 147 189 233 267 313
#     4  10  21  36  53  79 112 150 188 226 271 316
#     4  10  20  35  53  79 112 149 188 226 271 318
#     4   9  19  38  58  79 111 146 185 225 271 333
#     4  12  21  32  54  78 112 148 193 232 265 310
#
# _framework density 19.022901000000001
#
# number of rings (size 3 to 8) (size 9 to 14) (size 15 to 20)
#    0.000    1.846    1.538    3.462    6.462    0.308 
#    0.000    3.077    0.000    0.462    0.000    0.000 
#    0.000    0.000    0.000    0.000    0.000    0.000 
#
# Total GULP energy -322192.160882 kJ/mol
# GULP energy per Si atom -12392.006188 kJ/mol
# Density = 1.897960 g / cm^3
# Si number density = 19.022901 Si / 1000 Ang^3
#
#
#
# Elastic Constant Matrix: (Units=GPa)
#
#
# Indices 1 2 3 4 5 6 
#
# 1 81.5161 20.6758 7.8632 0.0000 4.7791 0.0000
# 2 20.6758 131.8512 20.7446 0.0000 -10.7567 0.0000
# 3 7.8632 20.7446 55.3492 0.0000 3.1576 0.0000
# 4 0.0000 0.0000 0.0000 20.9223 0.0000 4.9726
# 5 4.7791 -10.7567 3.1576 0.0000 15.4505 0.0000
# 6 0.0000 0.0000 0.0000 4.9726 0.0000 -13.2049
#
#
#
# Elastic Compliance Matrix: (Units=1/GPa)
#
#
# Indices 1 2 3 4 5 6 
#
# 1 0.013283 -0.002444 -0.000647 0.000000 -0.005678 0.000000
# 2 -0.002444 0.009165 -0.003536 0.000000 0.007860 0.000000
# 3 -0.000647 -0.003536 0.019845 0.000000 -0.006317 0.000000
# 4 0.000000 0.000000 0.000000 0.043869 0.000000 0.016520
# 5 -0.005678 0.007860 -0.006317 0.000000 0.073242 0.000000
# 6 0.000000 0.000000 0.000000 0.016520 0.000000 -0.069508
#
#
# Mechanical properties :
#
#
# Convention : Reuss Voigt Hill
#
# Bulk Modulus (GPa) = 34.43795 40.80929 37.62362
# Shear Modulus (GPa) = 44.31442 19.26245 31.78843
#
# Velocity S-wave (km/s) = 4.83176 3.18558 4.09230
# Velocity P-wave (km/s) = 7.01930 5.91860 6.49232
#
# Compressibility (1/GPa) = 0.02903774
#
# Stress axis : x y z
#
# Youngs Moduli (GPa) = 75.28532 109.10881 50.39118
#
# Poissons Ratio (x) = 0.26670 0.03260
# Poissons Ratio (y) = 0.18402 0.17819
# Poissons Ratio (z) = 0.04871 0.38583
#
# Static dielectric constant tensor:
#      x y z
#    x 3.393680 0.000000 0.006210 
#    y 0.000000 3.431810 0.000000 
#    z 0.006210 0.000000 3.525100 
# 
# 
# High freq. dielectric constant tensor:
#      x y z
#    x 1.724890 0.000000 0.000960 
#    y 0.000000 1.739050 0.000000 
#    z 0.000960 0.000000 1.735770 
# 
# From -- ./inp_files/247236.got.cif
#   From: 2010.06.25/outbox.cif.g09.slc.cpg/sg12_124_cif.got.tgz:247236.got - 2010.06.28 00:19:55.
