data_PCOD8098955
_publ_section_title
;
Structure prediction by ZEFSAII (Michael W. Deem and Ramdas Pophale) SiO2 
 PCOD8098955
Probable space group: C 2/M
;
_chemical_formula_sum "Si O2"
_cell_formula_units_Z 64
_cell_length_a 24.662386
_cell_length_b 13.800071
_cell_length_c 9.379569
_cell_angle_alpha 90.000000
_cell_angle_beta 82.745266
_cell_angle_gamma 90.000000
_cell_volume 3166.711993
_symmetry_space_group_name_H-M "C 2/M"
_symmetry_group_IT_number 12
_symmetry_cell_setting 'monoclinic'
loop_
_space_group_symop_operation_xyz
x,y,z
-x,y,-z
-x,-y,-z
x,-y,z
1/2+x,1/2+y,z
1/2-x,1/2+y,-z
1/2-x,1/2-y,-z
1/2+x,1/2-y,z
loop_
_atom_site_type_symbol
_atom_site_label
_atom_site_fract_x
_atom_site_fract_y
_atom_site_fract_z
Si Si1 0.473761 0.784379 0.860955
Si Si2 0.682407 0.890988 0.184191
Si Si3 0.358632 0.279897 0.972315
Si Si4 0.577309 0.890234 0.380912
Si Si5 0.455771 0.715859 0.408739
Si Si6 0.286244 0.284348 0.249930
Si Si7 0.654845 0.390262 0.539071
Si Si8 0.790082 0.890916 0.770661
O O1 0.423539 0.712343 0.920748
O O2 0.452578 0.867869 0.760533
O O3 0.520023 0.726347 0.758344
O O4 0.500000 0.825789 0.000000
O O5 0.661762 0.827424 0.059942
O O6 0.642311 0.877787 0.333881
O O7 0.742837 0.861130 0.206956
O O8 0.682658 0.000000 0.127901
O O9 0.323471 0.358481 0.897713
O O10 0.342930 0.293379 0.142602
O O11 0.560254 0.820158 0.515779
O O12 0.562702 0.000000 0.430570
O O13 0.500000 0.667591 0.500000
O O14 0.406443 0.642430 0.411620
O O15 0.302265 0.316188 0.403332
O O16 0.261960 0.176154 0.248572
O O17 0.662718 0.500000 0.594101
O O18 0.665486 0.384474 0.368434
O O19 0.767949 0.000000 0.798926
#
# Coordination Sequence:
#
# PCOD8098955 Si02
#       8
#     8   8   8   8   8   8   8   8
#     4  10  20  35  54  78 111 146 182 229 278 314
#     4   9  17  32  55  82 110 142 179 218 265 324
#     4  10  21  36  55  80 110 147 187 225 265 319
#     4   9  19  35  57  83 109 142 184 223 265 326
#     4  10  20  37  60  78 105 146 186 228 269 323
#     4  11  21  35  57  82 114 146 176 219 273 329
#     4  11  23  38  57  84 112 139 179 230 280 325
#     4  10  21  37  58  83 113 146 181 221 267 327
#
# _framework density 20.210238
#
# number of rings (size 3 to 8) (size 9 to 14) (size 15 to 20)
#    0.000    2.000    0.000    6.000    0.000    5.250 
#    0.000    2.500    0.000    6.000    0.000    0.000 
#    0.000    0.000    0.000    0.000    0.000    0.000 
#
# Total GULP energy -396676.207261 kJ/mol
# GULP energy per Si atom -12396.131477 kJ/mol
# Density = 2.016424 g / cm^3
# Si number density = 20.210238 Si / 1000 Ang^3
#
#
#
# Elastic Constant Matrix: (Units=GPa)
#
#
# Indices 1 2 3 4 5 6 
#
# 1 91.7233 35.2665 28.3271 0.0000 -19.1835 0.0000
# 2 35.2665 110.7259 30.4443 0.0000 0.9824 0.0000
# 3 28.3271 30.4443 74.4407 0.0000 -11.3027 0.0000
# 4 0.0000 0.0000 0.0000 7.9904 0.0000 -7.3963
# 5 -19.1835 0.9824 -11.3027 0.0000 31.9148 0.0000
# 6 0.0000 0.0000 0.0000 -7.3963 0.0000 19.4564
#
#
#
# Elastic Compliance Matrix: (Units=1/GPa)
#
#
# Indices 1 2 3 4 5 6 
#
# 1 0.015056 -0.004095 -0.002813 0.000000 0.008180 0.000000
# 2 -0.004095 0.011398 -0.003731 0.000000 -0.004133 0.000000
# 3 -0.002813 -0.003731 0.016688 0.000000 0.004334 0.000000
# 4 0.000000 0.000000 0.000000 0.193099 0.000000 0.073406
# 5 0.008180 -0.004133 0.004334 0.000000 0.037912 0.000000
# 6 0.000000 0.000000 0.000000 0.073406 0.000000 0.079302
#
#
# Mechanical properties :
#
#
# Convention : Reuss Voigt Hill
#
# Bulk Modulus (GPa) = 45.73461 51.66285 48.69873
# Shear Modulus (GPa) = 13.08831 24.06246 18.57538
#
# Velocity S-wave (km/s) = 2.54758 3.45426 3.03497
# Velocity P-wave (km/s) = 5.59751 6.44418 6.03571
#
# Compressibility (1/GPa) = 0.02186528
#
# Stress axis : x y z
#
# Youngs Moduli (GPa) = 66.41800 87.73503 59.92413
#
# Poissons Ratio (x) = 0.35924 0.16855
# Poissons Ratio (y) = 0.27196 0.22357
# Poissons Ratio (z) = 0.18682 0.32733
#
# Static dielectric constant tensor:
#      x y z
#    x 3.866570 0.000000 -0.175940 
#    y 0.000000 3.589160 0.000000 
#    z -0.175940 0.000000 3.634820 
# 
# 
# High freq. dielectric constant tensor:
#      x y z
#    x 1.796590 0.000000 -0.018430 
#    y 0.000000 1.771550 0.000000 
#    z -0.018430 0.000000 1.786250 
# 
# From -- ./inp_files/96875.got.cif
#   From: 2010.06.25/outbox.cif.g09.slc.cpg/sg12_49_cif.got.tgz:96875.got - 2010.06.28 00:19:55.
