data_PCOD8098022
_publ_section_title
;
Structure prediction by ZEFSAII (Michael W. Deem and Ramdas Pophale) SiO2 
 PCOD8098022
Probable space group: C 2/M
;
_chemical_formula_sum "Si O2"
_cell_formula_units_Z 56
_cell_length_a 16.236661
_cell_length_b 14.038862
_cell_length_c 30.014760
_cell_angle_alpha 90.000000
_cell_angle_beta 24.500596
_cell_angle_gamma 90.000000
_cell_volume 2837.268098
_symmetry_space_group_name_H-M "C 2/M"
_symmetry_group_IT_number 12
_symmetry_cell_setting 'monoclinic'
loop_
_space_group_symop_operation_xyz
x,y,z
-x,y,-z
-x,-y,-z
x,-y,z
1/2+x,1/2+y,z
1/2-x,1/2+y,-z
1/2-x,1/2-y,-z
1/2+x,1/2-y,z
loop_
_atom_site_type_symbol
_atom_site_label
_atom_site_fract_x
_atom_site_fract_y
_atom_site_fract_z
Si Si1 0.550306 0.804621 0.607912
Si Si2 0.561323 0.604074 0.922090
Si Si3 0.502947 0.266479 0.793412
Si Si4 0.119024 0.270683 0.832395
Si Si5 0.114876 0.388621 0.400325
Si Si6 0.014577 0.603406 0.714215
Si Si7 0.116078 0.606156 0.988178
O O1 0.750000 0.750000 0.500000
O O2 0.360175 0.737426 0.714044
O O3 0.496653 0.866140 0.590854
O O4 0.618441 0.866990 0.616855
O O5 0.456353 0.500000 0.966028
O O6 0.512036 0.676937 0.906660
O O7 0.791939 0.587607 0.809092
O O8 0.500000 0.648456 0.000000
O O9 0.533004 0.215878 0.825757
O O10 0.666621 0.346353 0.705737
O O11 0.531860 0.183581 0.743141
O O12 0.291152 0.317429 0.896143
O O13 0.046535 0.362379 0.895121
O O14 0.140226 0.500000 0.392278
O O15 0.000000 0.347304 0.500000
O O16 0.100297 0.500000 0.688321
O O17 0.195599 0.500000 0.961685
O O18 0.000000 0.600696 0.000000
#
# Coordination Sequence:
#
# PCOD8098022 Si02
#       7
#     8   8   8   8   8   8   8
#     4  10  20  37  61  84 112 149 187 235 293 352
#     4   9  17  31  54  81 107 137 178 230 285 341
#     4  11  22  37  58  82 113 152 190 236 289 340
#     4  10  21  36  56  81 111 145 187 235 287 341
#     4  10  21  37  59  87 115 145 189 241 289 341
#     4  10  20  34  55  82 111 144 184 229 281 341
#     4  11  23  38  55  78 112 153 194 233 280 344
#
# _framework density 19.737296000000001
#
# number of rings (size 3 to 8) (size 9 to 14) (size 15 to 20)
#    0.000    1.857    0.000    5.143    0.000    4.571 
#    0.000    4.286    0.000    9.000    0.000    0.000 
#    0.000    0.000    0.000    0.000    0.000    0.000 
#
# Total GULP energy -347013.541140 kJ/mol
# GULP energy per Si atom -12393.340755 kJ/mol
# Density = 1.969237 g / cm^3
# Si number density = 19.737296 Si / 1000 Ang^3
#
#
#
# Elastic Constant Matrix: (Units=GPa)
#
#
# Indices 1 2 3 4 5 6 
#
# 1 103.7761 54.9630 39.7074 -0.0153 25.0243 -0.0138
# 2 54.9630 107.1434 51.8106 0.0231 8.7557 0.0152
# 3 39.7074 51.8106 110.8837 0.0964 18.6075 0.0651
# 4 -0.0153 0.0231 0.0964 78.0268 0.0370 39.4751
# 5 25.0243 8.7557 18.6075 0.0370 38.2995 0.0294
# 6 -0.0138 0.0152 0.0651 39.4751 0.0294 46.1777
#
#
#
# Elastic Compliance Matrix: (Units=1/GPa)
#
#
# Indices 1 2 3 4 5 6 
#
# 1 0.015621 -0.006852 -0.001026 0.000006 -0.008142 0.000008
# 2 -0.006852 0.015063 -0.005180 0.000000 0.003550 -0.000002
# 3 -0.001026 -0.005180 0.012516 -0.000009 -0.004226 -0.000006
# 4 0.000006 0.000000 -0.000009 0.022583 -0.000006 -0.019305
# 5 -0.008142 0.003550 -0.004226 -0.000006 0.032671 -0.000013
# 6 0.000008 -0.000002 -0.000006 -0.019305 -0.000013 0.038158
#
#
# Mechanical properties :
#
#
# Convention : Reuss Voigt Hill
#
# Bulk Modulus (GPa) = 58.53754 68.30722 63.42238
# Shear Modulus (GPa) = 29.68724 44.18896 36.93810
#
# Velocity S-wave (km/s) = 3.88250 4.73679 4.33076
# Velocity P-wave (km/s) = 7.05841 8.03738 7.56375
#
# Compressibility (1/GPa) = 0.01708306
#
# Stress axis : x y z
#
# Youngs Moduli (GPa) = 64.01684 66.38752 79.90028
#
# Poissons Ratio (x) = 0.45487 0.08199
# Poissons Ratio (y) = 0.43863 0.41391
# Poissons Ratio (z) = 0.06569 0.34391
#
# Static dielectric constant tensor:
#      x y z
#    x 3.499940 0.000040 0.192980 
#    y 0.000040 4.204450 0.000030 
#    z 0.192980 0.000030 3.724890 
# 
# 
# High freq. dielectric constant tensor:
#      x y z
#    x 1.765390 0.000000 0.021590 
#    y 0.000000 1.768030 0.000000 
#    z 0.021590 0.000000 1.774630 
# 
# From -- ./inp_files/224878.got.cif
#   From: 2010.06.25/outbox.cif.g09.slc.cpg/sg12_113_cif.got.tgz:224878.got - 2010.06.28 00:19:55.
