data_PCOD8098481
_publ_section_title
;
Structure prediction by ZEFSAII (Michael W. Deem and Ramdas Pophale) SiO2 
 PCOD8098481
Probable space group: C 2/M
;
_chemical_formula_sum "Si O2"
_cell_formula_units_Z 60
_cell_length_a 21.926900
_cell_length_b 9.109382
_cell_length_c 19.553849
_cell_angle_alpha 90.000000
_cell_angle_beta 133.241055
_cell_angle_gamma 90.000000
_cell_volume 2845.213151
_symmetry_space_group_name_H-M "C 2/M"
_symmetry_group_IT_number 12
_symmetry_cell_setting 'monoclinic'
loop_
_space_group_symop_operation_xyz
x,y,z
-x,y,-z
-x,-y,-z
x,-y,z
1/2+x,1/2+y,z
1/2-x,1/2+y,-z
1/2-x,1/2-y,-z
1/2+x,1/2-y,z
loop_
_atom_site_type_symbol
_atom_site_label
_atom_site_fract_x
_atom_site_fract_y
_atom_site_fract_z
Si Si1 0.000000 0.238884 0.000000
Si Si2 0.971693 0.330155 0.403442
Si Si3 0.935137 0.163942 0.807233
Si Si4 0.838467 0.664922 0.946138
Si Si5 0.657374 0.325371 0.780695
Si Si6 0.294788 0.170707 0.636813
Si Si7 0.583933 0.176065 0.857467
Si Si8 0.357111 0.831805 0.534140
O O1 0.970053 0.146138 0.911516
O O2 0.918758 0.333531 0.958078
O O3 0.945115 0.500000 0.381564
O O4 0.891291 0.232746 0.322950
O O5 0.000000 0.281312 0.500000
O O6 0.046147 0.298252 0.407119
O O7 0.843310 0.239328 0.733572
O O8 0.990847 0.268971 0.802429
O O9 0.931239 0.000000 0.773441
O O10 0.814873 0.500000 0.944335
O O11 0.753789 0.732655 0.848709
O O12 0.858768 0.735220 0.035647
O O13 0.648882 0.500000 0.778344
O O14 0.616925 0.250898 0.815339
O O15 0.342190 0.202033 0.602002
O O16 0.200213 0.229673 0.558043
O O17 0.292513 0.000000 0.655010
O O18 0.581674 0.000000 0.847994
O O19 0.334823 0.000000 0.499501
#
# Coordination Sequence:
#
# PCOD8098481 Si02
#       8
#     4   8   8   8   8   8   8   8
#     4  10  22  40  58  80 115 160 199 234 277 334
#     4  10  22  40  59  80 110 152 196 236 284 342
#     4  11  22  37  57  84 118 154 194 239 286 335
#     4   9  20  37  59  87 118 152 190 234 284 340
#     4  11  22  37  59  88 117 147 189 241 293 341
#     4  10  20  34  57  87 114 146 188 232 285 343
#     4  10  20  37  60  86 116 152 192 234 285 342
#     4   9  19  37  58  81 112 144 183 236 286 337
#
# _framework density 21.088049999999999
#
# number of rings (size 3 to 8) (size 9 to 14) (size 15 to 20)
#    0.000    2.000    0.000    3.200    0.000    5.067 
#    0.000   10.000    0.000    0.000    0.000    0.000 
#    0.000    0.000    0.000    0.000    0.000    0.000 
#
# Total GULP energy -371897.657786 kJ/mol
# GULP energy per Si atom -12396.588593 kJ/mol
# Density = 2.104005 g / cm^3
# Si number density = 21.088050 Si / 1000 Ang^3
#
#
#
# Elastic Constant Matrix: (Units=GPa)
#
#
# Indices 1 2 3 4 5 6 
#
# 1 53.7979 17.6977 35.8699 0.0000 -2.1218 0.0000
# 2 17.6977 108.2979 62.5147 0.0000 7.1604 0.0000
# 3 35.8699 62.5147 139.5883 0.0000 18.6072 0.0000
# 4 0.0000 0.0000 0.0000 32.9081 0.0000 0.2140
# 5 -2.1218 7.1604 18.6072 0.0000 26.7441 0.0000
# 6 0.0000 0.0000 0.0000 0.2140 0.0000 20.7013
#
#
#
# Elastic Compliance Matrix: (Units=1/GPa)
#
#
# Indices 1 2 3 4 5 6 
#
# 1 0.023477 -0.000380 -0.006750 0.000000 0.006661 0.000000
# 2 -0.000380 0.012468 -0.005552 0.000000 0.000495 0.000000
# 3 -0.006750 -0.005552 0.012409 0.000000 -0.007683 0.000000
# 4 0.000000 0.000000 0.000000 0.030390 0.000000 -0.000314
# 5 0.006661 0.000495 -0.007683 0.000000 0.043133 0.000000
# 6 0.000000 0.000000 0.000000 -0.000314 0.000000 0.048309
#
#
# Mechanical properties :
#
#
# Convention : Reuss Voigt Hill
#
# Bulk Modulus (GPa) = 43.49980 59.31653 51.40817
# Shear Modulus (GPa) = 24.60455 28.44415 26.52435
#
# Velocity S-wave (km/s) = 3.41948 3.67662 3.55038
# Velocity P-wave (km/s) = 6.02187 6.79798 6.42166
#
# Compressibility (1/GPa) = 0.02298861
#
# Stress axis : x y z
#
# Youngs Moduli (GPa) = 42.59528 80.20427 80.58525
#
# Poissons Ratio (x) = 0.03050 0.54399
# Poissons Ratio (y) = 0.01620 0.44742
# Poissons Ratio (z) = 0.28754 0.44530
#
# Static dielectric constant tensor:
#      x y z
#    x 3.711200 0.000000 0.178710 
#    y 0.000000 3.627770 0.000000 
#    z 0.178710 0.000000 4.088900 
# 
# 
# High freq. dielectric constant tensor:
#      x y z
#    x 1.813030 0.000000 0.008340 
#    y 0.000000 1.813960 0.000000 
#    z 0.008340 0.000000 1.842750 
# 
# From -- ./inp_files/320518.got.cif
#   From: 2010.06.25/outbox.cif.g09.slc.cpg/sg12_161_cif.got.tgz:320518.got - 2010.06.28 00:19:55.
