data_PCOD8098804
_publ_section_title
;
Structure prediction by ZEFSAII (Michael W. Deem and Ramdas Pophale) SiO2 
 PCOD8098804
Probable space group: C 2/M
;
_chemical_formula_sum "Si O2"
_cell_formula_units_Z 64
_cell_length_a 29.518403
_cell_length_b 9.609447
_cell_length_c 11.862600
_cell_angle_alpha 90.000000
_cell_angle_beta 91.377357
_cell_angle_gamma 90.000000
_cell_volume 3363.919852
_symmetry_space_group_name_H-M "C 2/M"
_symmetry_group_IT_number 12
_symmetry_cell_setting 'monoclinic'
loop_
_space_group_symop_operation_xyz
x,y,z
-x,y,-z
-x,-y,-z
x,-y,z
1/2+x,1/2+y,z
1/2-x,1/2+y,-z
1/2-x,1/2-y,-z
1/2+x,1/2-y,z
loop_
_atom_site_type_symbol
_atom_site_label
_atom_site_fract_x
_atom_site_fract_y
_atom_site_fract_z
Si Si1 0.368626 0.161338 0.480890
Si Si2 0.974660 0.835738 0.171650
Si Si3 0.647854 0.845185 0.111603
Si Si4 0.200098 0.659313 0.331827
Si Si5 0.955723 0.835311 0.422922
Si Si6 0.716187 0.843956 0.930346
Si Si7 0.215327 0.336897 0.675802
Si Si8 0.934317 0.835698 0.938866
O O1 0.345353 0.189747 0.599957
O O2 0.412920 0.256664 0.473575
O O3 0.331429 0.205505 0.386087
O O4 0.382860 0.000000 0.467834
O O5 0.023456 0.782137 0.132734
O O6 0.962437 0.777624 0.295037
O O7 0.976565 0.000000 0.179987
O O8 0.939136 0.791301 0.071328
O O9 0.687953 0.807724 0.201422
O O10 0.608472 0.734372 0.121086
O O11 0.629155 0.000000 0.137430
O O12 0.667412 0.838992 0.986893
O O13 0.215491 0.500000 0.350798
O O14 0.241827 0.755224 0.374100
O O15 0.000000 0.800234 0.500000
O O16 0.945938 0.000000 0.423820
O O17 0.709339 0.789372 0.804063
O O18 0.736050 0.000000 0.931140
O O19 0.750000 0.750000 0.000000
O O20 0.224895 0.500000 0.660526
O O21 0.928814 0.000000 0.929321
#
# Coordination Sequence:
#
# PCOD8098804 Si02
#       8
#     8   8   8   8   8   8   8   8
#     4  10  23  40  58  82 111 145 184 225 276 327
#     4   8  17  36  56  79 109 138 175 224 274 317
#     4  10  21  34  51  79 113 142 174 220 271 320
#     4  10  21  38  57  79 112 149 183 225 274 324
#     4  10  22  39  59  83 111 143 182 228 273 322
#     4  10  20  35  53  76 109 143 176 217 266 314
#     4  10  21  37  58  83 110 143 185 231 270 320
#     4   9  18  34  58  80 104 141 180 220 265 321
#
# _framework density 19.025424000000001
#
# number of rings (size 3 to 8) (size 9 to 14) (size 15 to 20)
#    0.000    2.375    1.250    1.125    3.500    2.250 
#    0.000    1.875    0.000    0.000    0.000    0.000 
#    0.000    0.000    0.000    0.000    0.000    0.000 
#
# Total GULP energy -396716.659233 kJ/mol
# GULP energy per Si atom -12397.395601 kJ/mol
# Density = 1.898212 g / cm^3
# Si number density = 19.025424 Si / 1000 Ang^3
#
#
#
# Elastic Constant Matrix: (Units=GPa)
#
#
# Indices 1 2 3 4 5 6 
#
# 1 116.9435 57.1301 38.3651 0.0000 6.5297 0.0000
# 2 57.1301 60.3587 27.5041 0.0000 7.0921 0.0000
# 3 38.3651 27.5041 93.8218 0.0000 -5.9258 0.0000
# 4 0.0000 0.0000 0.0000 20.5503 0.0000 -1.4315
# 5 6.5297 7.0921 -5.9258 0.0000 27.0204 0.0000
# 6 0.0000 0.0000 0.0000 -1.4315 0.0000 34.0286
#
#
#
# Elastic Compliance Matrix: (Units=1/GPa)
#
#
# Indices 1 2 3 4 5 6 
#
# 1 0.016409 -0.014264 -0.002578 0.000000 -0.000787 0.000000
# 2 -0.014264 0.032655 -0.004121 0.000000 -0.006028 0.000000
# 3 -0.002578 -0.004121 0.013211 0.000000 0.004602 0.000000
# 4 0.000000 0.000000 0.000000 0.048804 0.000000 0.002053
# 5 -0.000787 -0.006028 0.004602 0.000000 0.039791 0.000000
# 6 0.000000 0.000000 0.000000 0.002053 0.000000 0.029473
#
#
# Mechanical properties :
#
#
# Convention : Reuss Voigt Hill
#
# Bulk Modulus (GPa) = 49.14154 57.45808 53.29981
# Shear Modulus (GPa) = 21.82897 26.19485 24.01191
#
# Velocity S-wave (km/s) = 3.39094 3.71460 3.55645
# Velocity P-wave (km/s) = 6.42003 6.97595 6.70376
#
# Compressibility (1/GPa) = 0.02034938
#
# Stress axis : x y z
#
# Youngs Moduli (GPa) = 60.94049 30.62315 75.69243
#
# Poissons Ratio (x) = 0.43682 0.19514
# Poissons Ratio (y) = 0.86928 0.31190
# Poissons Ratio (z) = 0.15711 0.12619
#
# Static dielectric constant tensor:
#      x y z
#    x 3.312120 0.000000 -0.118730 
#    y 0.000000 3.267370 0.000000 
#    z -0.118730 0.000000 3.904040 
# 
# 
# High freq. dielectric constant tensor:
#      x y z
#    x 1.731390 0.000000 -0.003740 
#    y 0.000000 1.719480 0.000000 
#    z -0.003740 0.000000 1.756040 
# 
# From -- ./inp_files/182122.got.cif
#   From: 2010.06.25/outbox.cif.g09.slc.cpg/sg12_92_cif.got.tgz:182122.got - 2010.06.28 00:19:55.
