data_PCOD8098139
_publ_section_title
;
Structure prediction by ZEFSAII (Michael W. Deem and Ramdas Pophale) SiO2 
 PCOD8098139
Probable space group: C 2/M
;
_chemical_formula_sum "Si O2"
_cell_formula_units_Z 64
_cell_length_a 14.470022
_cell_length_b 9.237369
_cell_length_c 28.739915
_cell_angle_alpha 90.000000
_cell_angle_beta 54.867596
_cell_angle_gamma 90.000000
_cell_volume 3141.687766
_symmetry_space_group_name_H-M "C 2/M"
_symmetry_group_IT_number 12
_symmetry_cell_setting 'monoclinic'
loop_
_space_group_symop_operation_xyz
x,y,z
-x,y,-z
-x,-y,-z
x,-y,z
1/2+x,1/2+y,z
1/2-x,1/2+y,-z
1/2-x,1/2-y,-z
1/2+x,1/2-y,z
loop_
_atom_site_type_symbol
_atom_site_label
_atom_site_fract_x
_atom_site_fract_y
_atom_site_fract_z
Si Si1 0.142562 0.172494 0.738504
Si Si2 0.091374 0.664980 0.939484
Si Si3 0.968769 0.326184 0.143467
Si Si4 0.421722 0.834460 0.330354
Si Si5 0.220301 0.848930 0.561728
Si Si6 0.301922 0.669115 0.940763
Si Si7 0.396037 0.163654 0.648427
Si Si8 0.062976 0.784286 0.526272
O O1 0.106035 0.254350 0.795286
O O2 0.068461 0.231855 0.717250
O O3 0.270061 0.222908 0.690935
O O4 0.128343 0.000000 0.748472
O O5 0.051007 0.500000 0.946613
O O6 0.087625 0.727312 0.888522
O O7 0.216022 0.679874 0.922968
O O8 0.000000 0.743893 0.000000
O O9 0.974509 0.500000 0.148159
O O10 0.092361 0.257107 0.108898
O O11 0.325026 0.784035 0.394662
O O12 0.542790 0.820797 0.319738
O O13 0.394830 0.000000 0.324083
O O14 0.157492 0.868920 0.529558
O O15 0.357145 0.844278 0.516461
O O16 0.196734 0.000000 0.595681
O O17 0.328054 0.500000 0.944921
O O18 0.250000 0.750000 0.000000
O O19 0.460386 0.248699 0.589892
O O20 0.392602 0.000000 0.632468
O O21 0.000000 0.861168 0.500000
#
# Coordination Sequence:
#
# PCOD8098139 Si02
#       8
#     8   8   8   8   8   8   8   8
#     4  11  23  41  63  87 115 150 199 251 296 349
#     4   9  18  36  61  88 123 163 196 234 288 344
#     4  11  23  41  62  88 122 160 200 244 295 351
#     4  10  21  40  62  84 115 155 195 242 302 360
#     4  10  21  36  56  85 117 150 194 246 297 357
#     4  11  21  37  62  92 124 160 200 239 286 343
#     4   9  20  38  59  83 114 154 198 245 295 354
#     4  10  20  34  55  84 118 154 193 240 300 359
#
# _framework density 20.371217000000001
#
# number of rings (size 3 to 8) (size 9 to 14) (size 15 to 20)
#    0.000    1.875    1.250    2.625    0.000    6.250 
#    0.000   14.375    0.000    0.000    0.000    0.000 
#    0.000    0.000    0.000    0.000    0.000    0.000 
#
# Total GULP energy -396465.251901 kJ/mol
# GULP energy per Si atom -12389.539122 kJ/mol
# Density = 2.032485 g / cm^3
# Si number density = 20.371217 Si / 1000 Ang^3
#
#
#
# Elastic Constant Matrix: (Units=GPa)
#
#
# Indices 1 2 3 4 5 6 
#
# 1 99.7719 36.0866 48.8034 0.0000 11.4313 0.0000
# 2 36.0866 106.4919 39.7681 0.0000 2.8129 0.0000
# 3 48.8034 39.7681 105.5197 0.0000 11.1954 0.0000
# 4 0.0000 0.0000 0.0000 19.7177 0.0000 -4.7314
# 5 11.4313 2.8129 11.1954 0.0000 35.9374 0.0000
# 6 0.0000 0.0000 0.0000 -4.7314 0.0000 10.4542
#
#
#
# Elastic Compliance Matrix: (Units=1/GPa)
#
#
# Indices 1 2 3 4 5 6 
#
# 1 0.013783 -0.002705 -0.005081 0.000000 -0.002590 0.000000
# 2 -0.002705 0.011466 -0.003171 0.000000 0.000951 0.000000
# 3 -0.005081 -0.003171 0.013262 0.000000 -0.002267 0.000000
# 4 0.000000 0.000000 0.000000 0.056895 0.000000 0.025750
# 5 -0.002590 0.000951 -0.002267 0.000000 0.029282 0.000000
# 6 0.000000 0.000000 0.000000 0.025750 0.000000 0.107310
#
#
# Mechanical properties :
#
#
# Convention : Reuss Voigt Hill
#
# Bulk Modulus (GPa) = 60.24723 62.34442 61.29583
# Shear Modulus (GPa) = 19.27200 25.69688 22.48444
#
# Velocity S-wave (km/s) = 3.07911 3.55552 3.32586
# Velocity P-wave (km/s) = 6.50232 6.89393 6.70098
#
# Compressibility (1/GPa) = 0.01659827
#
# Stress axis : x y z
#
# Youngs Moduli (GPa) = 72.55260 87.21349 75.40128
#
# Poissons Ratio (x) = 0.23591 0.38308
# Poissons Ratio (y) = 0.19625 0.23911
# Poissons Ratio (z) = 0.36861 0.27657
#
# Static dielectric constant tensor:
#      x y z
#    x 3.909170 0.000000 0.184390 
#    y 0.000000 3.623120 0.000000 
#    z 0.184390 0.000000 3.463420 
# 
# 
# High freq. dielectric constant tensor:
#      x y z
#    x 1.809960 0.000000 0.005250 
#    y 0.000000 1.782320 0.000000 
#    z 0.005250 0.000000 1.791400 
# 
# From -- ./inp_files/375478.got.cif
#   From: 2010.06.25/outbox.cif.g09.slc.cpg/sg12_188_cif.got.tgz:375478.got - 2010.06.28 00:19:55.
