data_PCOD8098182
_publ_section_title
;
Structure prediction by ZEFSAII (Michael W. Deem and Ramdas Pophale) SiO2 
 PCOD8098182
Probable space group: C 2/M
;
_chemical_formula_sum "Si O2"
_cell_formula_units_Z 40
_cell_length_a 15.174798
_cell_length_b 8.526287
_cell_length_c 15.357892
_cell_angle_alpha 90.000000
_cell_angle_beta 104.280953
_cell_angle_gamma 90.000000
_cell_volume 1925.670944
_symmetry_space_group_name_H-M "C 2/M"
_symmetry_group_IT_number 12
_symmetry_cell_setting 'monoclinic'
loop_
_space_group_symop_operation_xyz
x,y,z
-x,y,-z
-x,-y,-z
x,-y,z
1/2+x,1/2+y,z
1/2-x,1/2+y,-z
1/2-x,1/2-y,-z
1/2+x,1/2-y,z
loop_
_atom_site_type_symbol
_atom_site_label
_atom_site_fract_x
_atom_site_fract_y
_atom_site_fract_z
Si Si1 0.459694 0.187307 0.713770
Si Si2 0.654808 0.683416 0.722383
Si Si3 0.498964 0.828310 0.092590
Si Si4 0.223351 0.185221 0.400474
Si Si5 0.793696 0.671499 0.093761
O O1 0.557682 0.229768 0.697703
O O2 0.449130 0.249371 0.812406
O O3 0.381843 0.271783 0.640261
O O4 0.448002 0.000000 0.707830
O O5 0.635784 0.500000 0.717297
O O6 0.710918 0.731986 0.651945
O O7 0.717017 0.725798 0.821628
O O8 0.398521 0.849578 0.101681
O O9 0.543042 0.000000 0.084996
O O10 0.500000 0.733028 0.000000
O O11 0.250000 0.250000 0.500000
O O12 0.237069 0.000000 0.399038
O O13 0.749085 0.500000 0.098017
O O14 0.750000 0.750000 0.000000
#
# Coordination Sequence:
#
# PCOD8098182 Si02
#       5
#     8   8   8   8   8
#     4  10  21  40  65  94 130 168 210 262 321 380
#     4  11  23  42  65  91 128 172 214 263 319 376
#     4   8  16  31  53  83 118 159 202 245 301 367
#     4  12  26  45  68  97 127 162 214 267 324 387
#     4  10  20  34  55  86 123 164 209 259 314 374
#
# _framework density 20.771982000000001
#
# number of rings (size 3 to 8) (size 9 to 14) (size 15 to 20)
#    0.000    1.800    0.000    6.000    2.800    0.800 
#    0.000    4.000    0.000    3.600    0.000    0.000 
#    0.000    0.000    0.000    0.000    0.000    0.000 
#
# Total GULP energy -247855.810572 kJ/mol
# GULP energy per Si atom -12392.790529 kJ/mol
# Density = 2.072470 g / cm^3
# Si number density = 20.771982 Si / 1000 Ang^3
#
#
#
# Elastic Constant Matrix: (Units=GPa)
#
#
# Indices 1 2 3 4 5 6 
#
# 1 63.8842 5.9998 46.6014 0.0000 -3.6541 0.0000
# 2 5.9998 91.6739 29.3159 0.0000 1.2073 0.0000
# 3 46.6014 29.3159 175.8094 0.0000 0.0169 0.0000
# 4 0.0000 0.0000 0.0000 31.8504 0.0000 0.3782
# 5 -3.6541 1.2073 0.0169 0.0000 38.7982 0.0000
# 6 0.0000 0.0000 0.0000 0.3782 0.0000 29.4449
#
#
#
# Elastic Compliance Matrix: (Units=1/GPa)
#
#
# Indices 1 2 3 4 5 6 
#
# 1 0.019548 0.000373 -0.005244 0.000000 0.001832 0.000000
# 2 0.000373 0.011535 -0.002022 0.000000 -0.000323 0.000000
# 3 -0.005244 -0.002022 0.007415 0.000000 -0.000434 0.000000
# 4 0.000000 0.000000 0.000000 0.031402 0.000000 -0.000403
# 5 0.001832 -0.000323 -0.000434 0.000000 0.025957 0.000000
# 6 0.000000 0.000000 0.000000 -0.000403 0.000000 0.033967
#
#
# Mechanical properties :
#
#
# Convention : Reuss Voigt Hill
#
# Bulk Modulus (GPa) = 40.46540 55.02243 47.74392
# Shear Modulus (GPa) = 32.92775 36.64872 34.78824
#
# Velocity S-wave (km/s) = 3.98578 4.20496 4.09683
# Velocity P-wave (km/s) = 6.38004 7.07968 6.73894
#
# Compressibility (1/GPa) = 0.02471247
#
# Stress axis : x y z
#
# Youngs Moduli (GPa) = 51.15500 86.69447 134.85640
#
# Poissons Ratio (x) = -0.03238 0.70720
# Poissons Ratio (y) = -0.01911 0.27273
# Poissons Ratio (z) = 0.26826 0.17533
#
# Static dielectric constant tensor:
#      x y z
#    x 3.705960 0.000000 0.181570 
#    y 0.000000 3.780760 0.000000 
#    z 0.181570 0.000000 4.588280 
# 
# 
# High freq. dielectric constant tensor:
#      x y z
#    x 1.806640 0.000000 -0.001080 
#    y 0.000000 1.804950 0.000000 
#    z -0.001080 0.000000 1.829270 
# 
# From -- ./inp_files/211447.got.cif
#   From: 2010.06.25/outbox.cif.g09.slc.cpg/sg12_106_cif.got.tgz:211447.got - 2010.06.28 00:19:55.
