data_PCOD8098515
_publ_section_title
;
Structure prediction by ZEFSAII (Michael W. Deem and Ramdas Pophale) SiO2 
 PCOD8098515
Probable space group: C 2/M
;
_chemical_formula_sum "Si O2"
_cell_formula_units_Z 48
_cell_length_a 14.892734
_cell_length_b 8.593030
_cell_length_c 26.424475
_cell_angle_alpha 90.000000
_cell_angle_beta 46.010620
_cell_angle_gamma 90.000000
_cell_volume 2432.982247
_symmetry_space_group_name_H-M "C 2/M"
_symmetry_group_IT_number 12
_symmetry_cell_setting 'monoclinic'
loop_
_space_group_symop_operation_xyz
x,y,z
-x,y,-z
-x,-y,-z
x,-y,z
1/2+x,1/2+y,z
1/2-x,1/2+y,-z
1/2-x,1/2-y,-z
1/2+x,1/2-y,z
loop_
_atom_site_type_symbol
_atom_site_label
_atom_site_fract_x
_atom_site_fract_y
_atom_site_fract_z
Si Si1 0.129948 0.181373 0.923350
Si Si2 0.181066 0.182949 0.075612
Si Si3 0.940306 0.683134 0.420125
Si Si4 0.414756 0.182314 0.166832
Si Si5 0.277682 0.684140 0.566589
Si Si6 0.200044 0.182531 0.328581
O O1 0.238771 0.282933 0.905854
O O2 0.124475 0.220319 0.866679
O O3 0.159151 0.000000 0.919949
O O4 0.000000 0.228501 0.000000
O O5 0.049483 0.267192 0.133868
O O6 0.160644 0.000000 0.076438
O O7 0.250000 0.250000 0.000000
O O8 0.934617 0.500000 0.426242
O O9 0.847057 0.744661 0.412850
O O10 0.900037 0.753280 0.490000
O O11 0.078899 0.737179 0.351761
O O12 0.318751 0.225813 0.248496
O O13 0.414360 0.000000 0.153908
O O14 0.283277 0.500000 0.564315
O O15 0.275862 0.748413 0.624457
O O16 0.175701 0.000000 0.339198
#
# Coordination Sequence:
#
# PCOD8098515 Si02
#       6
#     8   8   8   8   8   8
#     4  11  23  40  64  90 117 153 196 243 298 358
#     4  12  24  40  64  91 119 153 195 245 299 355
#     4  10  20  34  57  88 116 150 198 246 288 337
#     4  11  24  41  61  89 122 158 201 249 301 360
#     4   9  19  37  58  81 115 157 195 236 289 348
#     4  10  22  39  58  82 117 158 195 234 292 355
#
# _framework density 19.728874000000001
#
# number of rings (size 3 to 8) (size 9 to 14) (size 15 to 20)
#    0.000    1.500    1.667    3.500    0.000    6.667 
#    0.000    1.667    0.000    0.000    0.000    0.000 
#    0.000    0.000    0.000    0.000    0.000    0.000 
#
# Total GULP energy -297740.765137 kJ/mol
# GULP energy per Si atom -12405.865214 kJ/mol
# Density = 1.968397 g / cm^3
# Si number density = 19.728874 Si / 1000 Ang^3
#
#
#
# Elastic Constant Matrix: (Units=GPa)
#
#
# Indices 1 2 3 4 5 6 
#
# 1 100.4278 10.8500 46.7772 -0.0001 -8.9373 -0.0001
# 2 10.8500 34.5064 24.0279 -0.0002 -3.8345 -0.0003
# 3 46.7772 24.0279 114.6575 0.0000 -13.1647 0.0001
# 4 -0.0001 -0.0002 0.0000 24.9327 0.0000 -3.3819
# 5 -8.9373 -3.8345 -13.1647 0.0000 33.9631 0.0000
# 6 -0.0001 -0.0003 0.0001 -3.3819 0.0000 33.8038
#
#
#
# Elastic Compliance Matrix: (Units=1/GPa)
#
#
# Indices 1 2 3 4 5 6 
#
# 1 0.012357 -0.000390 -0.004805 0.000000 0.001345 0.000000
# 2 -0.000390 0.033985 -0.006838 0.000000 0.001084 0.000000
# 3 -0.004805 -0.006838 0.012435 0.000000 0.002783 0.000000
# 4 0.000000 0.000000 0.000000 0.040660 0.000000 0.004068
# 5 0.001345 0.001084 0.002783 0.000000 0.030999 0.000000
# 6 0.000000 0.000000 0.000000 0.004068 0.000000 0.029989
#
#
# Mechanical properties :
#
#
# Convention : Reuss Voigt Hill
#
# Bulk Modulus (GPa) = 28.81046 45.87799 37.34422
# Shear Modulus (GPa) = 25.50204 29.73569 27.61886
#
# Velocity S-wave (km/s) = 3.59921 3.88650 3.74561
# Velocity P-wave (km/s) = 5.64866 6.59125 6.13807
#
# Compressibility (1/GPa) = 0.03470962
#
# Stress axis : x y z
#
# Youngs Moduli (GPa) = 80.92262 29.42475 80.41994
#
# Poissons Ratio (x) = 0.01148 0.38645
# Poissons Ratio (y) = 0.03156 0.54995
# Poissons Ratio (z) = 0.38886 0.20122
#
# Static dielectric constant tensor:
#      x y z
#    x 4.288050 0.000000 0.358690 
#    y 0.000000 3.596560 0.000000 
#    z 0.358690 0.000000 3.869310 
# 
# 
# High freq. dielectric constant tensor:
#      x y z
#    x 1.782340 0.000000 -0.004250 
#    y 0.000000 1.770700 0.000000 
#    z -0.004250 0.000000 1.765870 
# 
# From -- ./inp_files/267673.got.cif
#   From: 2010.06.25/outbox.cif.g09.slc.cpg/sg12_134_cif.got.tgz:267673.got - 2010.06.28 00:19:55.
