data_PCOD8098460
_publ_section_title
;
Structure prediction by ZEFSAII (Michael W. Deem and Ramdas Pophale) SiO2 
 PCOD8098460
Probable space group: C 2/M
;
_chemical_formula_sum "Si O2"
_cell_formula_units_Z 48
_cell_length_a 15.480614
_cell_length_b 9.206686
_cell_length_c 17.368424
_cell_angle_alpha 90.000000
_cell_angle_beta 91.641119
_cell_angle_gamma 90.000000
_cell_volume 2474.421897
_symmetry_space_group_name_H-M "C 2/M"
_symmetry_group_IT_number 12
_symmetry_cell_setting 'monoclinic'
loop_
_space_group_symop_operation_xyz
x,y,z
-x,y,-z
-x,-y,-z
x,-y,z
1/2+x,1/2+y,z
1/2-x,1/2+y,-z
1/2-x,1/2-y,-z
1/2+x,1/2-y,z
loop_
_atom_site_type_symbol
_atom_site_label
_atom_site_fract_x
_atom_site_fract_y
_atom_site_fract_z
Si Si1 0.399212 0.661235 0.505053
Si Si2 0.647859 0.843259 0.641324
Si Si3 0.325694 0.827931 0.813915
Si Si4 0.652485 0.660659 0.333586
Si Si5 0.990838 0.671565 0.914078
Si Si6 0.144029 0.326412 0.808682
O O1 0.500000 0.657142 0.500000
O O2 0.358640 0.500000 0.504516
O O3 0.359688 0.739309 0.430967
O O4 0.377099 0.735163 0.586488
O O5 0.746713 0.864208 0.663331
O O6 0.609390 0.783822 0.721425
O O7 0.606315 0.000000 0.619087
O O8 0.369310 0.769950 0.736044
O O9 0.395788 0.786501 0.880789
O O10 0.234593 0.752036 0.831793
O O11 0.311114 0.000000 0.806580
O O12 0.608385 0.500000 0.321706
O O13 0.000739 0.500000 0.915631
O O14 0.069747 0.732087 0.864056
O O15 0.000000 0.737272 0.000000
O O16 0.158569 0.500000 0.814408
#
# Coordination Sequence:
#
# PCOD8098460 Si02
#       6
#     8   8   8   8   8   8
#     4  10  21  33  47  73 105 137 173 216 265 311
#     4   9  18  32  51  72  97 136 180 217 256 311
#     4  10  20  34  57  86 109 138 186 230 264 316
#     4   9  19  36  53  71 103 143 176 213 269 321
#     4   9  19  36  58  83 112 146 180 218 269 329
#     4   9  19  37  58  80 111 148 180 218 275 328
#
# _framework density 19.398468999999999
#
# number of rings (size 3 to 8) (size 9 to 14) (size 15 to 20)
#    0.000    2.667    0.000    2.000    2.333    4.333 
#    0.000    1.667    0.000    3.500    0.000    0.000 
#    0.000    0.000    0.000    0.000    0.000    0.000 
#
# Total GULP energy -297393.961002 kJ/mol
# GULP energy per Si atom -12391.415042 kJ/mol
# Density = 1.935432 g / cm^3
# Si number density = 19.398469 Si / 1000 Ang^3
#
#
#
# Elastic Constant Matrix: (Units=GPa)
#
#
# Indices 1 2 3 4 5 6 
#
# 1 51.6893 17.6029 24.4505 0.0000 -6.0307 0.0000
# 2 17.6029 54.2251 25.6412 0.0000 7.3396 0.0000
# 3 24.4505 25.6412 116.3787 0.0000 -8.5844 0.0000
# 4 0.0000 0.0000 0.0000 -27.4930 0.0000 -104.5658
# 5 -6.0307 7.3396 -8.5844 0.0000 36.6000 0.0000
# 6 0.0000 0.0000 0.0000 -104.5658 0.0000 -193.1330
#
#
#
# Elastic Compliance Matrix: (Units=1/GPa)
#
#
# Indices 1 2 3 4 5 6 
#
# 1 0.023682 -0.006817 -0.003139 0.000000 0.004533 0.000000
# 2 -0.006817 0.023604 -0.004274 0.000000 -0.006859 0.000000
# 3 -0.003139 -0.004274 0.010399 0.000000 0.002779 0.000000
# 4 0.000000 0.000000 0.000000 0.034340 0.000000 -0.018592
# 5 0.004533 -0.006859 0.002779 0.000000 0.030097 0.000000
# 6 0.000000 0.000000 0.000000 -0.018592 0.000000 0.004888
#
#
# Mechanical properties :
#
#
# Convention : Reuss Voigt Hill
#
# Bulk Modulus (GPa) = 34.21837 39.74247 36.98042
# Shear Modulus (GPa) = 30.26429 -26.49863 1.88283
#
# Velocity S-wave (km/s) = 3.95414 -3.69998 0.98626
# Velocity P-wave (km/s) = 6.20685 1.50957 4.51685
#
# Compressibility (1/GPa) = 0.02922407
#
# Stress axis : x y z
#
# Youngs Moduli (GPa) = 42.22691 42.36531 96.16420
#
# Poissons Ratio (x) = 0.28880 0.30187
# Poissons Ratio (y) = 0.28785 0.41104
# Poissons Ratio (z) = 0.13255 0.18109
#
# Static dielectric constant tensor:
#      x y z
#    x 3.422490 0.000000 -0.233860 
#    y 0.000000 3.566100 0.000000 
#    z -0.233860 0.000000 3.456490 
# 
# 
# High freq. dielectric constant tensor:
#      x y z
#    x 1.749120 0.000000 -0.011150 
#    y 0.000000 1.729900 0.000000 
#    z -0.011150 0.000000 1.763430 
# 
# From -- ./inp_files/267718.got.cif
#   From: 2010.06.25/outbox.cif.g09.slc.cpg/sg12_134_cif.got.tgz:267718.got - 2010.06.28 00:19:55.
