data_PCOD8098492
_publ_section_title
;
Structure prediction by ZEFSAII (Michael W. Deem and Ramdas Pophale) SiO2 
 PCOD8098492
Probable space group: C 2/M
;
_chemical_formula_sum "Si O2"
_cell_formula_units_Z 48
_cell_length_a 17.716758
_cell_length_b 8.578254
_cell_length_c 15.188711
_cell_angle_alpha 90.000000
_cell_angle_beta 86.582580
_cell_angle_gamma 90.000000
_cell_volume 2304.257988
_symmetry_space_group_name_H-M "C 2/M"
_symmetry_group_IT_number 12
_symmetry_cell_setting 'monoclinic'
loop_
_space_group_symop_operation_xyz
x,y,z
-x,y,-z
-x,-y,-z
x,-y,z
1/2+x,1/2+y,z
1/2-x,1/2+y,-z
1/2-x,1/2-y,-z
1/2+x,1/2-y,z
loop_
_atom_site_type_symbol
_atom_site_label
_atom_site_fract_x
_atom_site_fract_y
_atom_site_fract_z
Si Si1 0.183330 0.680489 0.321982
Si Si2 0.839018 0.318926 0.365216
Si Si3 0.915064 0.818234 0.526046
Si Si4 0.105982 0.182973 0.166084
Si Si5 0.088207 0.171992 0.974980
Si Si6 0.556367 0.180162 0.804620
O O1 0.204773 0.500000 0.328307
O O2 0.252595 0.785538 0.348490
O O3 0.111482 0.720321 0.387735
O O4 0.162790 0.720285 0.222967
O O5 0.848168 0.500000 0.388373
O O6 0.861776 0.216065 0.446941
O O7 0.890821 0.270571 0.279593
O O8 0.000000 0.763352 0.500000
O O9 0.911383 0.000000 0.549641
O O10 0.125806 0.231978 0.063687
O O11 0.019162 0.218634 0.196138
O O12 0.118934 0.000000 0.179564
O O13 0.119148 0.000000 0.948518
O O14 0.103040 0.286308 0.891721
O O15 0.000000 0.161266 0.000000
O O16 0.533808 0.000000 0.803090
#
# Coordination Sequence:
#
# PCOD8098492 Si02
#       6
#     8   8   8   8   8   8
#     4  12  25  40  60  85 115 151 190 234 284 337
#     4  11  24  41  59  83 118 154 189 232 282 336
#     4  11  24  42  65  90 115 147 186 229 279 336
#     4  10  20  36  58  84 116 152 191 236 285 337
#     4   8  16  31  53  81 113 150 189 234 285 333
#     4  10  20  34  57  87 116 149 191 239 284 331
#
# _framework density 20.831002000000002
#
# number of rings (size 3 to 8) (size 9 to 14) (size 15 to 20)
#    0.000    1.667    0.000    6.000    0.000   10.333 
#    0.000    0.833    0.000    0.000    0.000    0.000 
#    0.000    0.000    0.000    0.000    0.000    0.000 
#
# Total GULP energy -297676.169551 kJ/mol
# GULP energy per Si atom -12403.173731 kJ/mol
# Density = 2.078359 g / cm^3
# Si number density = 20.831002 Si / 1000 Ang^3
#
#
#
# Elastic Constant Matrix: (Units=GPa)
#
#
# Indices 1 2 3 4 5 6 
#
# 1 52.3473 0.3404 2.8399 0.0000 18.3776 0.0000
# 2 0.3404 60.3759 16.2856 0.0000 -1.9497 0.0000
# 3 2.8399 16.2856 91.5822 0.0000 25.6886 0.0000
# 4 0.0000 0.0000 0.0000 35.7524 0.0000 3.2535
# 5 18.3776 -1.9497 25.6886 0.0000 28.3043 0.0000
# 6 0.0000 0.0000 0.0000 3.2535 0.0000 25.7559
#
#
#
# Elastic Compliance Matrix: (Units=1/GPa)
#
#
# Indices 1 2 3 4 5 6 
#
# 1 0.026947 -0.002559 0.006140 0.000000 -0.023245 0.000000
# 2 -0.002559 0.018272 -0.005351 0.000000 0.007777 0.000000
# 3 0.006140 -0.005351 0.017308 0.000000 -0.020064 0.000000
# 4 0.000000 0.000000 0.000000 0.028295 0.000000 -0.003574
# 5 -0.023245 0.007777 -0.020064 0.000000 0.069168 0.000000
# 6 0.000000 0.000000 0.000000 -0.003574 0.000000 0.039278
#
#
# Mechanical properties :
#
#
# Convention : Reuss Voigt Hill
#
# Bulk Modulus (GPa) = 16.95288 27.02635 21.98962
# Shear Modulus (GPa) = 22.47480 30.28516 26.37998
#
# Velocity S-wave (km/s) = 3.28824 3.81708 3.56249
# Velocity P-wave (km/s) = 4.75107 5.69465 5.24413
#
# Compressibility (1/GPa) = 0.05898701
#
# Stress axis : x y z
#
# Youngs Moduli (GPa) = 37.10928 54.72899 57.77623
#
# Poissons Ratio (x) = 0.14003 -0.35472
# Poissons Ratio (y) = 0.09495 0.30917
# Poissons Ratio (z) = -0.22783 0.29286
#
# Static dielectric constant tensor:
#      x y z
#    x 3.497800 0.000000 0.116360 
#    y 0.000000 3.674860 0.000000 
#    z 0.116360 0.000000 4.235990 
# 
# 
# High freq. dielectric constant tensor:
#      x y z
#    x 1.791460 0.000000 0.009210 
#    y 0.000000 1.817050 0.000000 
#    z 0.009210 0.000000 1.833910 
# 
# From -- ./inp_files/221672.got.cif
#   From: 2010.06.25/outbox.cif.g09.slc.cpg/sg12_111_cif.got.tgz:221672.got - 2010.06.28 00:19:55.
