data_PCOD8098947
_publ_section_title
;
Structure prediction by ZEFSAII (Michael W. Deem and Ramdas Pophale) SiO2 
 PCOD8098947
Probable space group: C 2/M
;
_chemical_formula_sum "Si O2"
_cell_formula_units_Z 64
_cell_length_a 8.635731
_cell_length_b 28.332797
_cell_length_c 14.803331
_cell_angle_alpha 90.000000
_cell_angle_beta 73.041189
_cell_angle_gamma 90.000000
_cell_volume 3464.492695
_symmetry_space_group_name_H-M "C 2/M"
_symmetry_group_IT_number 12
_symmetry_cell_setting 'monoclinic'
loop_
_space_group_symop_operation_xyz
x,y,z
-x,y,-z
-x,-y,-z
x,-y,z
1/2+x,1/2+y,z
1/2-x,1/2+y,-z
1/2-x,1/2-y,-z
1/2+x,1/2-y,z
loop_
_atom_site_type_symbol
_atom_site_label
_atom_site_fract_x
_atom_site_fract_y
_atom_site_fract_z
Si Si1 0.762379 0.636014 0.107715
Si Si2 0.484006 0.879108 0.397645
Si Si3 0.683948 0.801515 0.266055
Si Si4 0.450005 0.301515 0.733945
Si Si5 0.200066 0.947959 0.234886
Si Si6 0.065046 0.552041 0.234886
Si Si7 0.370095 0.863985 0.892285
Si Si8 0.881651 0.879107 0.602355
O O1 0.656186 0.678279 0.165582
O O2 0.685111 0.585618 0.149575
O O3 0.941029 0.641084 0.117941
O O4 0.760882 0.639397 1.000000
O O5 0.500000 0.888903 0.500000
O O6 0.580629 0.832505 0.353270
O O7 0.561517 0.924350 0.334364
O O8 0.299157 0.871624 0.401685
O O9 0.609811 0.750000 0.280373
O O10 0.866166 0.799781 0.267666
O O11 0.678230 0.821720 0.165581
O O12 0.433900 0.332504 0.646729
O O13 0.385928 0.953292 0.228143
O O14 0.104118 0.924349 0.334362
O O15 0.126716 0.000000 0.226838
O O16 0.146445 0.500000 0.226836
O O17 0.165313 0.585619 0.149577
O O18 0.000000 0.888902 0.500000
#
# Coordination Sequence:
#
# PCOD8098947 Si02
#       8
#     8   8   8   8   8   8   8   8
#     4   9  18  33  53  78 108 140 175 215 258 306
#     4  10  20  35  54  78 107 138 174 214 257 307
#     4  11  22  37  56  77 103 135 172 215 262 311
#     4  11  22  37  56  77 103 135 172 215 262 311
#     4   8  15  29  50  77 108 140 174 213 255 301
#     4   8  15  29  50  77 108 140 174 213 255 301
#     4   9  18  33  53  78 108 140 175 215 258 306
#     4  10  20  35  54  78 107 138 174 214 257 307
#
# _framework density 18.473122
#
# number of rings (size 3 to 8) (size 9 to 14) (size 15 to 20)
#    0.000    2.500    0.000    4.500    0.000    2.500 
#    0.000    5.000    0.000   18.000    0.000    7.000 
#    0.000    0.000    0.000    0.000    0.000    0.000 
#
# Total GULP energy -396765.388766 kJ/mol
# GULP energy per Si atom -12398.918399 kJ/mol
# Density = 1.843108 g / cm^3
# Si number density = 18.473122 Si / 1000 Ang^3
#
#
#
# Elastic Constant Matrix: (Units=GPa)
#
#
# Indices 1 2 3 4 5 6 
#
# 1 67.4510 6.4074 13.0652 0.0000 -0.3601 0.0000
# 2 6.4074 65.7964 -23.9756 0.0000 1.9582 0.0000
# 3 13.0652 -23.9756 66.4065 0.0000 0.4277 0.0000
# 4 0.0000 0.0000 0.0000 34.2875 0.0000 -1.0762
# 5 -0.3601 1.9582 0.4277 0.0000 29.9348 0.0000
# 6 0.0000 0.0000 0.0000 -1.0762 0.0000 17.6134
#
#
#
# Elastic Compliance Matrix: (Units=1/GPa)
#
#
# Indices 1 2 3 4 5 6 
#
# 1 0.015951 -0.003122 -0.004269 0.000000 0.000457 0.000000
# 2 -0.003122 0.018158 0.007179 0.000000 -0.001328 0.000000
# 3 -0.004269 0.007179 0.018495 0.000000 -0.000785 0.000000
# 4 0.000000 0.000000 0.000000 0.029221 0.000000 0.001786
# 5 0.000457 -0.001328 -0.000785 0.000000 0.033509 0.000000
# 6 0.000000 0.000000 0.000000 0.001786 0.000000 0.056884
#
#
# Mechanical properties :
#
#
# Convention : Reuss Voigt Hill
#
# Bulk Modulus (GPa) = 19.16450 21.18308 20.17379
# Shear Modulus (GPa) = 26.31059 29.97762 28.14410
#
# Velocity S-wave (km/s) = 3.77804 4.03273 3.90746
# Velocity P-wave (km/s) = 5.42478 5.75984 5.59482
#
# Compressibility (1/GPa) = 0.05217981
#
# Stress axis : x y z
#
# Youngs Moduli (GPa) = 62.69018 55.07272 54.06729
#
# Poissons Ratio (x) = 0.17196 0.23079
# Poissons Ratio (y) = 0.19575 -0.38813
# Poissons Ratio (z) = 0.26760 -0.39535
#
# Static dielectric constant tensor:
#      x y z
#    x 3.221930 0.000000 -0.016100 
#    y 0.000000 3.666790 0.000000 
#    z -0.016100 0.000000 3.472020 
# 
# 
# High freq. dielectric constant tensor:
#      x y z
#    x 1.699330 0.000000 -0.001360 
#    y 0.000000 1.723320 0.000000 
#    z -0.001360 0.000000 1.720440 
# 
# From -- ./inp_files/199836.got.cif
#   From: 2010.06.25/outbox.cif.g09.slc.cpg/sg12_100_cif.got.tgz:199836.got - 2010.06.28 00:19:55.
