data_PCOD8098564
_publ_section_title
;
Structure prediction by ZEFSAII (Michael W. Deem and Ramdas Pophale) SiO2 
 PCOD8098564
Probable space group: C 2/M
;
_chemical_formula_sum "Si O2"
_cell_formula_units_Z 64
_cell_length_a 19.003544
_cell_length_b 13.879678
_cell_length_c 14.225056
_cell_angle_alpha 90.000000
_cell_angle_beta 128.114013
_cell_angle_gamma 90.000000
_cell_volume 2952.048882
_symmetry_space_group_name_H-M "C 2/M"
_symmetry_group_IT_number 12
_symmetry_cell_setting 'monoclinic'
loop_
_space_group_symop_operation_xyz
x,y,z
-x,y,-z
-x,-y,-z
x,-y,z
1/2+x,1/2+y,z
1/2-x,1/2+y,-z
1/2-x,1/2-y,-z
1/2+x,1/2-y,z
loop_
_atom_site_type_symbol
_atom_site_label
_atom_site_fract_x
_atom_site_fract_y
_atom_site_fract_z
Si Si1 0.498641 0.283306 0.608840
Si Si2 0.803851 0.760273 0.416358
Si Si3 0.520791 0.892791 0.747961
Si Si4 0.238860 0.272117 0.161493
Si Si5 0.924787 0.612434 0.003804
Si Si6 0.875124 0.890373 0.166275
Si Si7 0.090273 0.889473 0.016689
Si Si8 0.811515 0.394157 0.563920
O O1 0.500000 0.276244 0.500000
O O2 0.393674 0.293851 0.544640
O O3 0.543903 0.185064 0.686984
O O4 0.548561 0.376135 0.691698
O O5 0.807186 0.761037 0.305612
O O6 0.786375 0.652895 0.442113
O O7 0.726340 0.832712 0.381384
O O8 0.564133 0.851202 0.879782
O O9 0.415476 0.901465 0.671770
O O10 0.559560 0.000000 0.754799
O O11 0.298437 0.308013 0.120836
O O12 0.179689 0.174525 0.107413
O O13 0.169725 0.359194 0.118373
O O14 0.937320 0.500000 0.014119
O O15 0.000000 0.660930 0.000000
O O16 0.836761 0.000000 0.144022
O O17 0.924946 0.877477 0.107470
O O18 0.113167 0.000000 0.062196
O O19 0.000000 0.857563 0.000000
O O20 0.768302 0.500000 0.527251
#
# Coordination Sequence:
#
# PCOD8098564 Si02
#       8
#     8   8   8   8   8   8   8   8
#     4  11  22  42  59  83 120 163 211 258 307 375
#     4  10  22  36  58  91 120 159 215 252 311 385
#     4   9  19  36  60  87 118 154 198 251 311 374
#     4  12  22  39  63  93 130 167 207 268 321 375
#     4  10  20  34  57  92 126 162 204 251 315 381
#     4  11  25  44  66  94 128 170 218 269 324 384
#     4  10  24  45  69  98 131 171 217 260 318 392
#     4   9  19  37  59  86 123 157 198 260 312 365
#
# _framework density 21.679857999999999
#
# number of rings (size 3 to 8) (size 9 to 14) (size 15 to 20)
#    0.000    1.750    1.250    2.625    0.000    6.500 
#    0.000    3.125    0.000    0.000    0.000    0.000 
#    0.000    0.000    0.000    0.000    0.000    0.000 
#
# Total GULP energy -396450.851516 kJ/mol
# GULP energy per Si atom -12389.089110 kJ/mol
# Density = 2.163051 g / cm^3
# Si number density = 21.679858 Si / 1000 Ang^3
#
#
#
# Elastic Constant Matrix: (Units=GPa)
#
#
# Indices 1 2 3 4 5 6 
#
# 1 86.9215 39.6015 24.3981 0.0000 -0.0021 0.0000
# 2 39.6015 100.4024 38.4307 0.0000 -0.9648 0.0000
# 3 24.3981 38.4307 105.2577 0.0000 -7.1373 0.0000
# 4 0.0000 0.0000 0.0000 23.3607 0.0000 8.3541
# 5 -0.0021 -0.9648 -7.1373 0.0000 26.0123 0.0000
# 6 0.0000 0.0000 0.0000 8.3541 0.0000 29.6932
#
#
#
# Elastic Compliance Matrix: (Units=1/GPa)
#
#
# Indices 1 2 3 4 5 6 
#
# 1 0.014222 -0.005043 -0.001496 0.000000 -0.000596 0.000000
# 2 -0.005043 0.013380 -0.003753 0.000000 -0.000534 0.000000
# 3 -0.001496 -0.003753 0.011420 0.000000 0.002994 0.000000
# 4 0.000000 0.000000 0.000000 0.047596 0.000000 -0.013391
# 5 -0.000596 -0.000534 0.002994 0.000000 0.039245 0.000000
# 6 0.000000 0.000000 0.000000 -0.013391 0.000000 0.037445
#
#
# Mechanical properties :
#
#
# Convention : Reuss Voigt Hill
#
# Bulk Modulus (GPa) = 54.22930 55.27135 54.75033
# Shear Modulus (GPa) = 26.31060 28.48997 27.40029
#
# Velocity S-wave (km/s) = 3.48745 3.62901 3.55894
# Velocity P-wave (km/s) = 6.42529 6.56577 6.49591
#
# Compressibility (1/GPa) = 0.01844022
#
# Stress axis : x y z
#
# Youngs Moduli (GPa) = 70.31380 74.73768 87.56303
#
# Poissons Ratio (x) = 0.37688 0.13098
# Poissons Ratio (y) = 0.35457 0.32858
# Poissons Ratio (z) = 0.10518 0.28046
#
# Static dielectric constant tensor:
#      x y z
#    x 4.109290 0.000000 0.125710 
#    y 0.000000 4.082120 0.000000 
#    z 0.125710 0.000000 4.076910 
# 
# 
# High freq. dielectric constant tensor:
#      x y z
#    x 1.850810 0.000000 0.001100 
#    y 0.000000 1.854350 0.000000 
#    z 0.001100 0.000000 1.847490 
# 
# From -- ./inp_files/225739.got.cif
#   From: 2010.06.25/outbox.cif.g09.slc.cpg/sg12_113_cif.got.tgz:225739.got - 2010.06.28 00:19:55.
