data_PCOD8098120
_publ_section_title
;
Structure prediction by ZEFSAII (Michael W. Deem and Ramdas Pophale) SiO2 
 PCOD8098120
Probable space group: C 2/M
;
_chemical_formula_sum "Si O2"
_cell_formula_units_Z 56
_cell_length_a 20.152498
_cell_length_b 8.890683
_cell_length_c 28.616480
_cell_angle_alpha 90.000000
_cell_angle_beta 147.832248
_cell_angle_gamma 90.000000
_cell_volume 2729.720682
_symmetry_space_group_name_H-M "C 2/M"
_symmetry_group_IT_number 12
_symmetry_cell_setting 'monoclinic'
loop_
_space_group_symop_operation_xyz
x,y,z
-x,y,-z
-x,-y,-z
x,-y,z
1/2+x,1/2+y,z
1/2-x,1/2+y,-z
1/2-x,1/2-y,-z
1/2+x,1/2-y,z
loop_
_atom_site_type_symbol
_atom_site_label
_atom_site_fract_x
_atom_site_fract_y
_atom_site_fract_z
Si Si1 0.220688 0.173658 0.555203
Si Si2 0.437386 0.173303 0.613529
Si Si3 0.052167 0.174772 0.881192
Si Si4 0.139524 0.323076 0.595791
Si Si5 0.730545 0.825543 0.918355
Si Si6 0.217252 0.324377 0.804457
Si Si7 0.695750 0.822429 0.232798
O O1 0.348655 0.204941 0.604560
O O2 0.102913 0.226244 0.454298
O O3 0.229662 0.269117 0.607916
O O4 0.203104 0.000000 0.557500
O O5 0.574364 0.219936 0.710692
O O6 0.429075 0.000000 0.592659
O O7 0.118234 0.229133 0.873104
O O8 0.926565 0.266909 0.813425
O O9 0.019106 0.000000 0.856870
O O10 0.141731 0.207315 0.978454
O O11 0.149730 0.500000 0.608958
O O12 0.181884 0.245442 0.669131
O O13 0.000000 0.271652 0.500000
O O14 0.752599 0.776638 0.878068
O O15 0.691779 0.000000 0.898584
O O16 0.241368 0.500000 0.810542
O O17 0.305152 0.233155 0.821381
O O18 0.700845 0.000000 0.237677
#
# Coordination Sequence:
#
# PCOD8098120 Si02
#       7
#     8   8   8   8   8   8   8
#     4  10  20  34  55  84 114 152 198 246 297 352
#     4   9  19  35  55  81 116 155 194 241 297 357
#     4  10  21  40  64  93 125 159 202 249 304 366
#     4  11  24  41  60  83 116 158 201 248 305 363
#     4   9  20  39  66  94 123 160 200 250 306 363
#     4  10  21  39  61  86 119 159 200 246 304 362
#     4  12  26  41  60  88 123 161 206 255 302 358
#
# _framework density 20.514918999999999
#
# number of rings (size 3 to 8) (size 9 to 14) (size 15 to 20)
#    0.000    1.857    0.000    3.429    2.000    7.429 
#    0.000    2.857    0.000    0.000    0.000    0.000 
#    0.000    0.000    0.000    0.000    0.000    0.000 
#
# Total GULP energy -347372.256155 kJ/mol
# GULP energy per Si atom -12406.152006 kJ/mol
# Density = 2.046823 g / cm^3
# Si number density = 20.514919 Si / 1000 Ang^3
#
#
#
# Elastic Constant Matrix: (Units=GPa)
#
#
# Indices 1 2 3 4 5 6 
#
# 1 104.3898 50.5241 38.0581 0.0000 -17.2619 0.0000
# 2 50.5241 98.3119 40.1620 0.0000 -2.3505 0.0001
# 3 38.0581 40.1620 70.6943 0.0002 -3.1959 0.0000
# 4 0.0000 0.0000 0.0002 27.4769 0.0000 -2.1370
# 5 -17.2619 -2.3505 -3.1959 0.0000 31.4924 0.0000
# 6 0.0000 0.0001 0.0000 -2.1370 0.0000 39.1173
#
#
#
# Elastic Compliance Matrix: (Units=1/GPa)
#
#
# Indices 1 2 3 4 5 6 
#
# 1 0.015306 -0.005807 -0.004603 0.000000 0.007489 0.000000
# 2 -0.005807 0.015450 -0.005770 0.000000 -0.002615 0.000000
# 3 -0.004603 -0.005770 0.019859 0.000000 -0.000938 0.000000
# 4 0.000000 0.000000 0.000000 0.036550 0.000000 0.001997
# 5 0.007489 -0.002615 -0.000938 0.000000 0.035568 0.000000
# 6 0.000000 0.000000 0.000000 0.001997 0.000000 0.025673
#
#
# Mechanical properties :
#
#
# Convention : Reuss Voigt Hill
#
# Bulk Modulus (GPa) = 54.77316 58.98713 56.88014
# Shear Modulus (GPa) = 26.75932 29.26077 28.01005
#
# Velocity S-wave (km/s) = 3.61554 3.78076 3.69907
# Velocity P-wave (km/s) = 6.64731 6.91914 6.78459
#
# Compressibility (1/GPa) = 0.01825712
#
# Stress axis : x y z
#
# Youngs Moduli (GPa) = 65.33186 64.72310 50.35604
#
# Poissons Ratio (x) = 0.37584 0.23177
# Poissons Ratio (y) = 0.37938 0.29053
# Poissons Ratio (z) = 0.30070 0.37343
#
# Static dielectric constant tensor:
#      x y z
#    x 3.828230 0.000000 -0.102300 
#    y 0.000000 3.648650 0.000000 
#    z -0.102300 0.000000 3.703910 
# 
# 
# High freq. dielectric constant tensor:
#      x y z
#    x 1.812910 0.000000 -0.003690 
#    y 0.000000 1.798790 0.000000 
#    z -0.003690 0.000000 1.798470 
# 
# From -- ./inp_files/380739.got.cif
#   From: 2010.06.25/outbox.cif.g09.slc.cpg/sg12_191_cif.got.tgz:380739.got - 2010.06.28 00:19:55.
