data_PCOD8098991
_publ_section_title
;
Structure prediction by ZEFSAII (Michael W. Deem and Ramdas Pophale) SiO2 
 PCOD8098991
Probable space group: C 2/M
;
_chemical_formula_sum "Si O2"
_cell_formula_units_Z 56
_cell_length_a 21.419515
_cell_length_b 8.573964
_cell_length_c 18.469692
_cell_angle_alpha 90.000000
_cell_angle_beta 56.638051
_cell_angle_gamma 90.000000
_cell_volume 2833.011408
_symmetry_space_group_name_H-M "C 2/M"
_symmetry_group_IT_number 12
_symmetry_cell_setting 'monoclinic'
loop_
_space_group_symop_operation_xyz
x,y,z
-x,y,-z
-x,-y,-z
x,-y,z
1/2+x,1/2+y,z
1/2-x,1/2+y,-z
1/2-x,1/2-y,-z
1/2+x,1/2-y,z
loop_
_atom_site_type_symbol
_atom_site_label
_atom_site_fract_x
_atom_site_fract_y
_atom_site_fract_z
Si Si1 0.419595 0.185422 0.026547
Si Si2 0.779885 0.680549 0.375892
Si Si3 0.132121 0.177082 0.554719
Si Si4 0.488601 0.180518 0.589245
Si Si5 0.137773 0.183681 0.230664
Si Si6 0.166119 0.684288 0.060925
Si Si7 0.786927 0.314902 0.209836
O O1 0.361566 0.244983 0.123778
O O2 0.424321 0.000000 0.022086
O O3 0.500000 0.255115 0.000000
O O4 0.388977 0.244915 0.968180
O O5 0.804043 0.500000 0.367058
O O6 0.834488 0.785824 0.388359
O O7 0.694403 0.702793 0.453873
O O8 0.786811 0.749025 0.291209
O O9 0.065676 0.296271 0.582380
O O10 0.102260 0.000000 0.572972
O O11 0.500000 0.243070 0.500000
O O12 0.425602 0.277503 0.670697
O O13 0.465807 0.000000 0.603886
O O14 0.125587 0.265542 0.161021
O O15 0.215650 0.249394 0.212039
O O16 0.139744 0.000000 0.216365
O O17 0.173437 0.500000 0.051783
O O18 0.250000 0.750000 0.000000
O O19 0.782084 0.500000 0.214602
#
# Coordination Sequence:
#
# PCOD8098991 Si02
#       7
#     8   8   8   8   8   8   8
#     4   9  18  33  55  84 116 150 194 245 294 351
#     4   9  18  33  56  80 108 149 197 242 286 347
#     4  10  20  35  54  80 113 152 193 237 295 353
#     4  11  24  40  58  84 118 153 194 246 299 352
#     4  11  22  38  61  88 118 155 200 246 297 362
#     4  11  21  37  61  89 120 157 202 251 306 362
#     4   9  17  32  54  81 110 148 196 240 289 350
#
# _framework density 19.766950999999999
#
# number of rings (size 3 to 8) (size 9 to 14) (size 15 to 20)
#    0.000    2.000    1.429    2.571    0.000    4.000 
#    0.000    4.286    0.000    1.714    0.000    0.000 
#    0.000    0.000    0.000    0.000    0.000    0.000 
#
# Total GULP energy -347213.367648 kJ/mol
# GULP energy per Si atom -12400.477416 kJ/mol
# Density = 1.972196 g / cm^3
# Si number density = 19.766951 Si / 1000 Ang^3
#
#
#
# Elastic Constant Matrix: (Units=GPa)
#
#
# Indices 1 2 3 4 5 6 
#
# 1 140.8697 24.8615 81.1255 -0.0002 -1.0055 -0.0002
# 2 24.8615 38.8198 19.6996 -0.0008 3.4557 0.0003
# 3 81.1255 19.6996 155.2315 0.0001 18.9376 0.0000
# 4 -0.0002 -0.0008 0.0001 24.7314 0.0000 2.2833
# 5 -1.0055 3.4557 18.9376 0.0000 31.9668 -0.0001
# 6 -0.0002 0.0003 0.0000 2.2833 -0.0001 23.2101
#
#
#
# Elastic Compliance Matrix: (Units=1/GPa)
#
#
# Indices 1 2 3 4 5 6 
#
# 1 0.011325 -0.004667 -0.005854 0.000000 0.004329 0.000000
# 2 -0.004667 0.029485 -0.000966 0.000001 -0.002762 -0.000001
# 3 -0.005854 -0.000966 0.010384 0.000000 -0.006232 0.000000
# 4 0.000000 0.000001 0.000000 0.040805 0.000000 -0.004014
# 5 0.004329 -0.002762 -0.006232 0.000000 0.035409 0.000000
# 6 0.000000 -0.000001 0.000000 -0.004014 0.000000 0.043480
#
#
# Mechanical properties :
#
#
# Convention : Reuss Voigt Hill
#
# Bulk Modulus (GPa) = 35.43625 65.14380 50.29003
# Shear Modulus (GPa) = 24.59801 29.93061 27.26431
#
# Velocity S-wave (km/s) = 3.53143 3.89546 3.71791
# Velocity P-wave (km/s) = 5.88166 7.29796 6.62775
#
# Compressibility (1/GPa) = 0.02821969
#
# Stress axis : x y z
#
# Youngs Moduli (GPa) = 88.30196 33.91548 96.29984
#
# Poissons Ratio (x) = 0.15829 0.56376
# Poissons Ratio (y) = 0.41213 0.09299
# Poissons Ratio (z) = 0.51694 0.03275
#
# Static dielectric constant tensor:
#      x y z
#    x 3.745170 0.000000 0.105970 
#    y 0.000000 3.285660 0.000000 
#    z 0.105970 0.000000 3.756580 
# 
# 
# High freq. dielectric constant tensor:
#      x y z
#    x 1.776950 0.000000 0.007440 
#    y 0.000000 1.744420 0.000000 
#    z 0.007440 0.000000 1.779940 
# 
# From -- ./inp_files/281043.got.cif
#   From: 2010.06.25/outbox.cif.g09.slc.cpg/sg12_141_cif.got.tgz:281043.got - 2010.06.28 00:19:55.
