data_PCOD8098838
_publ_section_title
;
Structure prediction by ZEFSAII (Michael W. Deem and Ramdas Pophale) SiO2 
 PCOD8098838
Probable space group: C 2/M
;
_chemical_formula_sum "Si O2"
_cell_formula_units_Z 56
_cell_length_a 30.868382
_cell_length_b 9.273828
_cell_length_c 11.761617
_cell_angle_alpha 90.000000
_cell_angle_beta 123.354010
_cell_angle_gamma 90.000000
_cell_volume 2812.398991
_symmetry_space_group_name_H-M "C 2/M"
_symmetry_group_IT_number 12
_symmetry_cell_setting 'monoclinic'
loop_
_space_group_symop_operation_xyz
x,y,z
-x,y,-z
-x,-y,-z
x,-y,z
1/2+x,1/2+y,z
1/2-x,1/2+y,-z
1/2-x,1/2-y,-z
1/2+x,1/2-y,z
loop_
_atom_site_type_symbol
_atom_site_label
_atom_site_fract_x
_atom_site_fract_y
_atom_site_fract_z
Si Si1 0.741283 0.669723 0.869460
Si Si2 0.442922 0.834957 0.387979
Si Si3 0.872829 0.334315 0.671717
Si Si4 0.423170 0.335029 0.140684
Si Si5 0.524012 0.335582 0.149316
Si Si6 0.842939 0.666547 0.876805
Si Si7 0.344125 0.163786 0.385616
O O1 0.736294 0.500000 0.885263
O O2 0.788203 0.707193 0.852705
O O3 0.689123 0.725838 0.736063
O O4 0.750000 0.750000 0.000000
O O5 0.500000 0.772975 0.500000
O O6 0.415933 0.745400 0.248923
O O7 0.404865 0.820617 0.440784
O O8 0.448212 0.000000 0.354727
O O9 0.889709 0.500000 0.692728
O O10 0.925181 0.245823 0.739942
O O11 0.839867 0.299524 0.737542
O O12 0.838350 0.297385 0.510883
O O13 0.405585 0.500000 0.129702
O O14 0.482958 0.323016 0.191497
O O15 0.387799 0.263966 0.993587
O O16 0.539689 0.500000 0.146701
O O17 0.500000 0.266682 0.000000
O O18 0.856847 0.500000 0.919850
O O19 0.325257 0.000000 0.333961
#
# Coordination Sequence:
#
# PCOD8098838 Si02
#       7
#     8   8   8   8   8   8   8
#     4  11  24  42  63  87 115 150 192 239 292 344
#     4  10  21  38  59  83 115 152 191 235 283 337
#     4  10  21  38  61  87 115 152 197 237 282 345
#     4  11  22  35  56  85 117 152 192 237 287 341
#     4  10  20  35  53  81 122 157 188 233 286 337
#     4  10  22  39  59  85 115 147 191 242 285 336
#     4  10  22  40  61  87 118 151 190 239 289 340
#
# _framework density 19.911825
#
# number of rings (size 3 to 8) (size 9 to 14) (size 15 to 20)
#    0.000    1.714    1.429    2.571    0.000    9.143 
#    0.000    0.000    0.000    0.000    0.000    0.000 
#    0.000    0.000    0.000    0.000    0.000    0.000 
#
# Total GULP energy -347301.119957 kJ/mol
# GULP energy per Si atom -12403.611427 kJ/mol
# Density = 1.986651 g / cm^3
# Si number density = 19.911825 Si / 1000 Ang^3
#
#
#
# Elastic Constant Matrix: (Units=GPa)
#
#
# Indices 1 2 3 4 5 6 
#
# 1 103.6964 45.3709 51.7304 0.0000 -5.6250 0.0000
# 2 45.3709 85.3186 57.6841 0.0000 -2.0263 0.0000
# 3 51.7304 57.6841 130.1984 0.0000 -12.4504 0.0000
# 4 0.0000 0.0000 0.0000 27.5762 0.0000 4.7106
# 5 -5.6250 -2.0263 -12.4504 0.0000 36.2769 0.0000
# 6 0.0000 0.0000 0.0000 4.7106 0.0000 25.8802
#
#
#
# Elastic Compliance Matrix: (Units=1/GPa)
#
#
# Indices 1 2 3 4 5 6 
#
# 1 0.013406 -0.005081 -0.003002 0.000000 0.000765 0.000000
# 2 -0.005081 0.018757 -0.006479 0.000000 -0.001964 0.000000
# 3 -0.003002 -0.006479 0.012061 0.000000 0.003312 0.000000
# 4 0.000000 0.000000 0.000000 0.037427 0.000000 -0.006812
# 5 0.000765 -0.001964 0.003312 0.000000 0.028711 0.000000
# 6 0.000000 0.000000 0.000000 -0.006812 0.000000 0.039880
#
#
# Mechanical properties :
#
#
# Convention : Reuss Voigt Hill
#
# Bulk Modulus (GPa) = 66.23149 69.86492 68.04821
# Shear Modulus (GPa) = 27.11523 28.90852 28.01188
#
# Velocity S-wave (km/s) = 3.69421 3.81442 3.75480
# Velocity P-wave (km/s) = 7.17850 7.38668 7.28333
#
# Compressibility (1/GPa) = 0.01509856
#
# Stress axis : x y z
#
# Youngs Moduli (GPa) = 74.59448 53.31437 82.91428
#
# Poissons Ratio (x) = 0.27089 0.24892
# Poissons Ratio (y) = 0.37902 0.53721
# Poissons Ratio (z) = 0.22394 0.34543
#
# Static dielectric constant tensor:
#      x y z
#    x 3.698810 0.000000 -0.227310 
#    y 0.000000 3.609460 0.000000 
#    z -0.227310 0.000000 3.601880 
# 
# 
# High freq. dielectric constant tensor:
#      x y z
#    x 1.781120 0.000000 -0.013120 
#    y 0.000000 1.774060 0.000000 
#    z -0.013120 0.000000 1.777380 
# 
# From -- ./inp_files/180826.got.cif
#   From: 2010.06.25/outbox.cif.g09.slc.cpg/sg12_91_cif.got.tgz:180826.got - 2010.06.28 00:19:55.
