data_PCOD8098518
_publ_section_title
;
Structure prediction by ZEFSAII (Michael W. Deem and Ramdas Pophale) SiO2 
 PCOD8098518
Probable space group: C 2/M
;
_chemical_formula_sum "Si O2"
_cell_formula_units_Z 64
_cell_length_a 22.723075
_cell_length_b 9.064104
_cell_length_c 16.088336
_cell_angle_alpha 90.000000
_cell_angle_beta 93.920637
_cell_angle_gamma 90.000000
_cell_volume 3305.868285
_symmetry_space_group_name_H-M "C 2/M"
_symmetry_group_IT_number 12
_symmetry_cell_setting 'monoclinic'
loop_
_space_group_symop_operation_xyz
x,y,z
-x,y,-z
-x,-y,-z
x,-y,z
1/2+x,1/2+y,z
1/2-x,1/2+y,-z
1/2-x,1/2-y,-z
1/2+x,1/2-y,z
loop_
_atom_site_type_symbol
_atom_site_label
_atom_site_fract_x
_atom_site_fract_y
_atom_site_fract_z
Si Si1 0.757663 0.325638 0.089625
Si Si2 0.917260 0.830212 0.667578
Si Si3 0.830958 0.669153 0.555320
Si Si4 0.721821 0.830446 0.622293
Si Si5 0.167160 0.173146 0.771674
Si Si6 0.135253 0.830719 0.160335
Si Si7 0.466930 0.329435 0.231429
Si Si8 0.473694 0.832825 0.907411
O O1 0.766952 0.500000 0.078464
O O2 0.813946 0.255958 0.141876
O O3 0.701665 0.288702 0.142465
O O4 0.750000 0.250000 0.000000
O O5 0.895202 0.726095 0.590460
O O6 0.876447 0.796666 0.744025
O O7 0.985371 0.787750 0.692840
O O8 0.911862 0.000000 0.639633
O O9 0.820574 0.500000 0.581323
O O10 0.784134 0.775152 0.594754
O O11 0.826728 0.684441 0.455338
O O12 0.703894 0.731643 0.697790
O O13 0.728785 0.000000 0.652048
O O14 0.098830 0.208051 0.745266
O O15 0.178639 0.000000 0.784244
O O16 0.090831 0.738979 0.098989
O O17 0.122055 0.000000 0.139341
O O18 0.474527 0.500000 0.209411
O O19 0.480046 0.242073 0.149315
O O20 0.466171 0.000000 0.878341
O O21 0.500000 0.816240 0.000000
#
# Coordination Sequence:
#
# PCOD8098518 Si02
#       8
#     8   8   8   8   8   8   8   8
#     4  11  24  40  58  83 114 150 189 231 282 337
#     4   9  17  34  58  82 109 144 187 234 282 332
#     4  10  20  34  57  88 118 147 188 236 280 334
#     4  10  21  37  57  85 118 154 188 227 285 341
#     4  11  23  40  61  84 112 149 193 235 281 338
#     4   9  20  37  55  76 105 144 185 223 272 334
#     4   9  21  39  57  79 108 148 191 228 277 342
#     4  10  21  34  53  82 108 135 179 234 283 326
#
# _framework density 19.359511999999999
#
# number of rings (size 3 to 8) (size 9 to 14) (size 15 to 20)
#    0.000    2.125    0.000    3.375    1.750    7.500 
#    0.000    0.625    0.000    3.750    0.000    0.000 
#    0.000    0.000    0.000    0.000    0.000    0.000 
#
# Total GULP energy -396866.127388 kJ/mol
# GULP energy per Si atom -12402.066481 kJ/mol
# Density = 1.931545 g / cm^3
# Si number density = 19.359512 Si / 1000 Ang^3
#
#
#
# Elastic Constant Matrix: (Units=GPa)
#
#
# Indices 1 2 3 4 5 6 
#
# 1 76.1888 37.6639 34.0751 0.0000 19.5395 0.0000
# 2 37.6639 91.8153 41.8629 0.0000 15.1932 0.0000
# 3 34.0751 41.8629 76.0343 0.0000 14.9362 0.0000
# 4 0.0000 0.0000 0.0000 32.1618 0.0000 10.2281
# 5 19.5395 15.1932 14.9362 0.0000 20.6812 0.0000
# 6 0.0000 0.0000 0.0000 10.2281 0.0000 22.6866
#
#
#
# Elastic Compliance Matrix: (Units=1/GPa)
#
#
# Indices 1 2 3 4 5 6 
#
# 1 0.020529 -0.004309 -0.004241 0.000000 -0.013167 0.000000
# 2 -0.004309 0.016049 -0.006280 0.000000 -0.003184 0.000000
# 3 -0.004241 -0.006280 0.019597 0.000000 -0.005533 0.000000
# 4 0.000000 0.000000 0.000000 0.036297 0.000000 -0.016364
# 5 -0.013167 -0.003184 -0.005533 0.000000 0.067128 0.000000
# 6 0.000000 0.000000 0.000000 -0.016364 0.000000 0.051457
#
#
# Mechanical properties :
#
#
# Convention : Reuss Voigt Hill
#
# Bulk Modulus (GPa) = 37.71364 52.36023 45.03693
# Shear Modulus (GPa) = 20.03560 23.80168 21.91864
#
# Velocity S-wave (km/s) = 3.22051 3.51016 3.36845
# Velocity P-wave (km/s) = 5.77511 6.59798 6.20021
#
# Compressibility (1/GPa) = 0.02651561
#
# Stress axis : x y z
#
# Youngs Moduli (GPa) = 48.71129 62.30891 51.02781
#
# Poissons Ratio (x) = 0.26847 0.21643
# Poissons Ratio (y) = 0.20988 0.32045
# Poissons Ratio (z) = 0.20660 0.39129
#
# Static dielectric constant tensor:
#      x y z
#    x 3.773930 0.000000 0.207710 
#    y 0.000000 3.613340 0.000000 
#    z 0.207710 0.000000 3.471070 
# 
# 
# High freq. dielectric constant tensor:
#      x y z
#    x 1.751820 0.000000 0.018820 
#    y 0.000000 1.761910 0.000000 
#    z 0.018820 0.000000 1.745420 
# 
# From -- ./inp_files/238654.got.cif
#   From: 2010.06.25/outbox.cif.g09.slc.cpg/sg12_120_cif.got.tgz:238654.got - 2010.06.28 00:19:55.
