data_PCOD8098808
_publ_section_title
;
Structure prediction by ZEFSAII (Michael W. Deem and Ramdas Pophale) SiO2 
 PCOD8098808
Probable space group: C 2/M
;
_chemical_formula_sum "Si O2"
_cell_formula_units_Z 56
_cell_length_a 18.515556
_cell_length_b 9.425929
_cell_length_c 20.718829
_cell_angle_alpha 90.000000
_cell_angle_beta 124.268606
_cell_angle_gamma 90.000000
_cell_volume 2988.271722
_symmetry_space_group_name_H-M "C 2/M"
_symmetry_group_IT_number 12
_symmetry_cell_setting 'monoclinic'
loop_
_space_group_symop_operation_xyz
x,y,z
-x,y,-z
-x,-y,-z
x,-y,z
1/2+x,1/2+y,z
1/2-x,1/2+y,-z
1/2-x,1/2-y,-z
1/2+x,1/2-y,z
loop_
_atom_site_type_symbol
_atom_site_label
_atom_site_fract_x
_atom_site_fract_y
_atom_site_fract_z
Si Si1 0.156279 0.668310 0.730243
Si Si2 0.833986 0.341677 0.534734
Si Si3 0.340269 0.668257 0.870756
Si Si4 0.167782 0.833429 0.987136
Si Si5 0.909794 0.660889 0.435746
Si Si6 0.480696 0.333248 0.837310
Si Si7 0.020007 0.667108 0.291105
O O1 0.165283 0.500000 0.731687
O O2 0.247962 0.733463 0.800180
O O3 0.136813 0.732908 0.649228
O O4 0.078321 0.712325 0.739162
O O5 0.812560 0.500000 0.546926
O O6 0.750000 0.250000 0.500000
O O7 0.848177 0.336046 0.465804
O O8 0.916245 0.286703 0.618012
O O9 0.338385 0.500000 0.867346
O O10 0.419633 0.721887 0.865448
O O11 0.353408 0.718483 0.950888
O O12 0.081631 0.798398 0.902625
O O13 0.190420 0.000000 0.997157
O O14 0.250000 0.750000 0.000000
O O15 0.933872 0.500000 0.426273
O O16 0.000000 0.740285 0.500000
O O17 0.466468 0.500000 0.818841
O O18 0.451657 0.251053 0.758461
O O19 0.025592 0.500000 0.280210
#
# Coordination Sequence:
#
# PCOD8098808 Si02
#       7
#     8   8   8   8   8   8   8
#     4   9  16  28  50  76 100 131 175 218 257 303
#     4  10  21  34  52  77 107 140 175 219 267 312
#     4   9  18  32  52  78 105 136 174 216 260 308
#     4  10  20  36  57  81 109 139 174 215 260 311
#     4   9  15  28  49  74 100 129 172 221 257 296
#     4  10  21  35  54  80 109 139 172 214 263 313
#     4  10  20  35  53  77 108 140 174 217 266 312
#
# _framework density 18.739929
#
# number of rings (size 3 to 8) (size 9 to 14) (size 15 to 20)
#    0.000    2.429    1.429    1.286    2.000    4.000 
#    0.000    0.714    0.000    3.857    0.000    0.000 
#    0.000    0.000    0.000    0.000    0.000    0.000 
#
# Total GULP energy -347088.357407 kJ/mol
# GULP energy per Si atom -12396.012765 kJ/mol
# Density = 1.869728 g / cm^3
# Si number density = 18.739929 Si / 1000 Ang^3
#
#
#
# Elastic Constant Matrix: (Units=GPa)
#
#
# Indices 1 2 3 4 5 6 
#
# 1 119.0218 34.8999 36.7735 0.0000 -0.4305 0.0000
# 2 34.8999 29.7629 25.4494 0.0000 -1.1619 0.0000
# 3 36.7735 25.4494 100.7578 0.0000 -11.5650 0.0000
# 4 0.0000 0.0000 0.0000 21.3481 0.0000 -0.2596
# 5 -0.4305 -1.1619 -11.5650 0.0000 39.6812 0.0000
# 6 0.0000 0.0000 0.0000 -0.2596 0.0000 27.0791
#
#
#
# Elastic Compliance Matrix: (Units=1/GPa)
#
#
# Indices 1 2 3 4 5 6 
#
# 1 0.012920 -0.014133 -0.001218 0.000000 -0.000629 0.000000
# 2 -0.014133 0.058463 -0.009756 0.000000 -0.001285 0.000000
# 3 -0.001218 -0.009756 0.013242 0.000000 0.003561 0.000000
# 4 0.000000 0.000000 0.000000 0.046848 0.000000 0.000449
# 5 -0.000629 -0.001285 0.003561 0.000000 0.026194 0.000000
# 6 0.000000 0.000000 0.000000 0.000449 0.000000 0.036933
#
#
# Mechanical properties :
#
#
# Convention : Reuss Voigt Hill
#
# Bulk Modulus (GPa) = 29.06008 49.30979 39.18493
# Shear Modulus (GPa) = 19.50955 27.78298 23.64627
#
# Velocity S-wave (km/s) = 3.23006 3.85457 3.55605
# Velocity P-wave (km/s) = 5.42695 6.79560 6.14947
#
# Compressibility (1/GPa) = 0.03441147
#
# Stress axis : x y z
#
# Youngs Moduli (GPa) = 77.39973 17.10481 75.51681
#
# Poissons Ratio (x) = 0.24174 0.09196
# Poissons Ratio (y) = 1.09390 0.73674
# Poissons Ratio (z) = 0.09426 0.16687
#
# Static dielectric constant tensor:
#      x y z
#    x 3.498360 0.000000 0.127820 
#    y 0.000000 2.937190 0.000000 
#    z 0.127820 0.000000 3.585800 
# 
# 
# High freq. dielectric constant tensor:
#      x y z
#    x 1.737590 0.000000 0.000050 
#    y 0.000000 1.664960 0.000000 
#    z 0.000050 0.000000 1.748020 
# 
# From -- ./inp_files/268600.got.cif
#   From: 2010.06.25/outbox.cif.g09.slc.cpg/sg12_135_cif.got.tgz:268600.got - 2010.06.28 00:19:55.
