data_PCOD8098891
_publ_section_title
;
Structure prediction by ZEFSAII (Michael W. Deem and Ramdas Pophale) SiO2 
 PCOD8098891
Probable space group: C 2/M
;
_chemical_formula_sum "Si O2"
_cell_formula_units_Z 64
_cell_length_a 14.161097
_cell_length_b 8.783233
_cell_length_c 32.136886
_cell_angle_alpha 90.000000
_cell_angle_beta 61.754729
_cell_angle_gamma 90.000000
_cell_volume 3521.246236
_symmetry_space_group_name_H-M "C 2/M"
_symmetry_group_IT_number 12
_symmetry_cell_setting 'monoclinic'
loop_
_space_group_symop_operation_xyz
x,y,z
-x,y,-z
-x,-y,-z
x,-y,z
1/2+x,1/2+y,z
1/2-x,1/2+y,-z
1/2-x,1/2-y,-z
1/2+x,1/2-y,z
loop_
_atom_site_type_symbol
_atom_site_label
_atom_site_fract_x
_atom_site_fract_y
_atom_site_fract_z
Si Si1 0.470097 0.679958 0.380007
Si Si2 0.961752 0.320685 0.552447
Si Si3 0.294408 0.179142 0.196958
Si Si4 0.941908 0.176892 0.055379
Si Si5 0.770222 0.820566 0.368786
Si Si6 0.477673 0.180107 0.881025
Si Si7 0.777733 0.179488 0.877471
Si Si8 0.299663 0.319437 0.698304
O O1 0.465973 0.500000 0.384807
O O2 0.463931 0.747915 0.427537
O O3 0.369492 0.742191 0.374894
O O4 0.578248 0.735050 0.334332
O O5 0.977187 0.500000 0.551546
O O6 0.838354 0.272758 0.584854
O O7 0.000000 0.256580 0.500000
O O8 0.417347 0.233454 0.166645
O O9 0.227078 0.226392 0.170177
O O10 0.241142 0.251061 0.249381
O O11 0.292055 0.000000 0.202143
O O12 0.021590 0.236525 0.074635
O O13 0.832531 0.272922 0.077502
O O14 0.915412 0.000000 0.068162
O O15 0.000000 0.205449 0.000000
O O16 0.775962 0.744360 0.322314
O O17 0.777691 0.000000 0.360999
O O18 0.374011 0.227773 0.877273
O O19 0.478422 0.000000 0.888569
O O20 0.795201 0.000000 0.879888
O O21 0.291858 0.500000 0.699536
#
# Coordination Sequence:
#
# PCOD8098891 Si02
#       8
#     8   8   8   8   8   8   8   8
#     4   9  18  31  48  69  94 124 156 196 241 286
#     4   9  18  32  48  66  92 125 158 196 242 290
#     4   8  17  33  51  72  99 130 163 202 245 292
#     4  10  21  37  56  78 104 135 172 212 254 302
#     4   9  18  32  47  68  97 124 157 200 244 290
#     4  10  20  35  54  76 104 136 170 209 252 299
#     4  10  20  35  55  78 105 136 170 210 255 300
#     4   9  17  32  51  70  95 127 162 197 239 289
#
# _framework density 18.175384000000001
#
# number of rings (size 3 to 8) (size 9 to 14) (size 15 to 20)
#    0.000    2.750    0.000    1.875    0.000    3.750 
#    0.000    5.000    0.000    0.000    0.000    0.000 
#    0.000    0.000    0.000    0.000    0.000    0.000 
#
# Total GULP energy -396802.650926 kJ/mol
# GULP energy per Si atom -12400.082841 kJ/mol
# Density = 1.813402 g / cm^3
# Si number density = 18.175384 Si / 1000 Ang^3
#
#
#
# Elastic Constant Matrix: (Units=GPa)
#
#
# Indices 1 2 3 4 5 6 
#
# 1 134.5191 14.9218 60.9427 0.0000 18.2486 0.0000
# 2 14.9218 26.2019 30.2769 0.0000 4.8273 0.0000
# 3 60.9427 30.2769 150.2933 0.0000 18.8337 0.0000
# 4 0.0000 0.0000 0.0000 24.3614 0.0000 4.9736
# 5 18.2486 4.8273 18.8337 0.0000 17.8413 0.0000
# 6 0.0000 0.0000 0.0000 4.9736 0.0000 26.5518
#
#
#
# Elastic Compliance Matrix: (Units=1/GPa)
#
#
# Indices 1 2 3 4 5 6 
#
# 1 0.009771 -0.000945 -0.002940 0.000000 -0.006634 0.000000
# 2 -0.000945 0.050008 -0.009354 0.000000 -0.002690 0.000000
# 3 -0.002940 -0.009354 0.010414 0.000000 -0.005455 0.000000
# 4 0.000000 0.000000 0.000000 0.042681 0.000000 -0.007995
# 5 -0.006634 -0.002690 -0.005455 0.000000 0.069322 0.000000
# 6 0.000000 0.000000 0.000000 -0.007995 0.000000 0.039160
#
#
# Mechanical properties :
#
#
# Convention : Reuss Voigt Hill
#
# Bulk Modulus (GPa) = 22.87574 58.14410 40.50992
# Shear Modulus (GPa) = 19.05464 27.40910 23.23187
#
# Velocity S-wave (km/s) = 3.24138 3.88755 3.57908
# Velocity P-wave (km/s) = 5.15966 7.22570 6.27825
#
# Compressibility (1/GPa) = 0.04371444
#
# Stress axis : x y z
#
# Youngs Moduli (GPa) = 102.34621 19.99700 96.02579
#
# Poissons Ratio (x) = 0.01889 0.28235
# Poissons Ratio (y) = 0.09667 0.89823
# Poissons Ratio (z) = 0.30093 0.18705
#
# Static dielectric constant tensor:
#      x y z
#    x 3.429910 0.000000 0.014330 
#    y 0.000000 3.205390 0.000000 
#    z 0.014330 0.000000 3.616660 
# 
# 
# High freq. dielectric constant tensor:
#      x y z
#    x 1.706730 0.000000 0.005190 
#    y 0.000000 1.692730 0.000000 
#    z 0.005190 0.000000 1.707300 
# 
# From -- ./inp_files/375037.got.cif
#   From: 2010.06.25/outbox.cif.g09.slc.cpg/sg12_188_cif.got.tgz:375037.got - 2010.06.28 00:19:55.
