data_PCOD8098109
_publ_section_title
;
Structure prediction by ZEFSAII (Michael W. Deem and Ramdas Pophale) SiO2 
 PCOD8098109
Probable space group: C 2/M
;
_chemical_formula_sum "Si O2"
_cell_formula_units_Z 64
_cell_length_a 18.572477
_cell_length_b 9.082370
_cell_length_c 29.260322
_cell_angle_alpha 90.000000
_cell_angle_beta 137.136154
_cell_angle_gamma 90.000000
_cell_volume 3357.546948
_symmetry_space_group_name_H-M "C 2/M"
_symmetry_group_IT_number 12
_symmetry_cell_setting 'monoclinic'
loop_
_space_group_symop_operation_xyz
x,y,z
-x,y,-z
-x,-y,-z
x,-y,z
1/2+x,1/2+y,z
1/2-x,1/2+y,-z
1/2-x,1/2-y,-z
1/2+x,1/2-y,z
loop_
_atom_site_type_symbol
_atom_site_label
_atom_site_fract_x
_atom_site_fract_y
_atom_site_fract_z
Si Si1 0.820321 0.672446 0.632825
Si Si2 0.945437 0.330687 0.601964
Si Si3 0.391193 0.330408 0.926531
Si Si4 0.893306 0.669612 0.474166
Si Si5 0.015271 0.674299 0.213238
Si Si6 0.681949 0.330677 0.840956
Si Si7 0.845408 0.830748 0.278186
Si Si8 0.364862 0.329702 0.808371
O O1 0.800974 0.500000 0.626982
O O2 0.861877 0.718377 0.601863
O O3 0.709151 0.748190 0.592997
O O4 0.906247 0.725634 0.709813
O O5 0.980318 0.500000 0.626432
O O6 0.893073 0.308327 0.528453
O O7 0.046763 0.226899 0.650197
O O8 0.365993 0.500000 0.926255
O O9 0.299056 0.230427 0.904841
O O10 0.399885 0.305535 0.876610
O O11 0.500000 0.278501 0.000000
O O12 0.881952 0.500000 0.455100
O O13 0.000000 0.733320 0.500000
O O14 0.009652 0.500000 0.207262
O O15 0.051395 0.740898 0.182272
O O16 0.898629 0.735947 0.166988
O O17 0.677374 0.500000 0.854019
O O18 0.649841 0.309671 0.773630
O O19 0.750868 0.735718 0.255359
O O20 0.828301 0.000000 0.284160
O O21 0.364278 0.500000 0.794052
#
# Coordination Sequence:
#
# PCOD8098109 Si02
#       8
#     8   8   8   8   8   8   8   8
#     4  10  22  38  57  79 106 146 190 233 282 338
#     4  10  20  37  57  78 108 146 188 229 283 343
#     4   9  19  38  63  88 116 153 192 229 275 331
#     4  10  23  39  55  79 109 142 185 237 290 345
#     4  11  22  37  57  84 118 150 189 237 285 335
#     4  10  20  35  57  87 118 149 188 231 278 331
#     4  10  20  34  55  84 112 144 187 231 277 334
#     4  10  21  36  57  84 117 151 185 230 281 331
#
# _framework density 19.061534999999999
#
# number of rings (size 3 to 8) (size 9 to 14) (size 15 to 20)
#    0.000    2.000    1.250    1.875    1.750    4.000 
#    0.000    0.625    0.000    0.000    0.000    0.000 
#    0.000    0.000    0.000    0.000    0.000    0.000 
#
# Total GULP energy -396951.820422 kJ/mol
# GULP energy per Si atom -12404.744388 kJ/mol
# Density = 1.901815 g / cm^3
# Si number density = 19.061535 Si / 1000 Ang^3
#
#
#
# Elastic Constant Matrix: (Units=GPa)
#
#
# Indices 1 2 3 4 5 6 
#
# 1 118.8586 54.0113 41.6453 0.0000 21.8163 0.0000
# 2 54.0113 91.0390 46.2944 0.0000 16.7526 0.0000
# 3 41.6453 46.2944 90.2669 0.0000 25.6508 0.0000
# 4 0.0000 0.0000 0.0000 29.1640 0.0000 7.1476
# 5 21.8163 16.7526 25.6508 0.0000 24.6358 0.0000
# 6 0.0000 0.0000 0.0000 7.1476 0.0000 35.8027
#
#
#
# Elastic Compliance Matrix: (Units=1/GPa)
#
#
# Indices 1 2 3 4 5 6 
#
# 1 0.012524 -0.005755 -0.001118 0.000000 -0.006013 0.000000
# 2 -0.005755 0.017671 -0.006307 0.000000 -0.000353 0.000000
# 3 -0.001118 -0.006307 0.018929 0.000000 -0.014431 0.000000
# 4 0.000000 0.000000 0.000000 0.036053 0.000000 -0.007198
# 5 -0.006013 -0.000353 -0.014431 0.000000 0.061182 0.000000
# 6 0.000000 0.000000 0.000000 -0.007198 0.000000 0.029368
#
#
# Mechanical properties :
#
#
# Convention : Reuss Voigt Hill
#
# Bulk Modulus (GPa) = 43.92908 64.89626 54.41267
# Shear Modulus (GPa) = 23.84645 28.46807 26.15726
#
# Velocity S-wave (km/s) = 3.54082 3.86875 3.70841
# Velocity P-wave (km/s) = 6.30971 7.35363 6.85158
#
# Compressibility (1/GPa) = 0.02276397
#
# Stress axis : x y z
#
# Youngs Moduli (GPa) = 79.84670 56.58970 52.82821
#
# Poissons Ratio (x) = 0.32569 0.05904
# Poissons Ratio (y) = 0.45955 0.33320
# Poissons Ratio (z) = 0.08923 0.35693
#
# Static dielectric constant tensor:
#      x y z
#    x 3.586630 0.000000 0.034450 
#    y 0.000000 3.485650 0.000000 
#    z 0.034450 0.000000 3.334200 
# 
# 
# High freq. dielectric constant tensor:
#      x y z
#    x 1.746340 0.000000 0.008820 
#    y 0.000000 1.743700 0.000000 
#    z 0.008820 0.000000 1.729610 
# 
# From -- ./inp_files/378276.got.cif
#   From: 2010.06.25/outbox.cif.g09.slc.cpg/sg12_190_cif.got.tgz:378276.got - 2010.06.28 00:19:55.
