data_PCOD8098981
_publ_section_title
;
Structure prediction by ZEFSAII (Michael W. Deem and Ramdas Pophale) SiO2 
 PCOD8098981
Probable space group: C 2/M
;
_chemical_formula_sum "Si O2"
_cell_formula_units_Z 56
_cell_length_a 18.377693
_cell_length_b 31.768848
_cell_length_c 8.587088
_cell_angle_alpha 90.000000
_cell_angle_beta 32.297305
_cell_angle_gamma 90.000000
_cell_volume 2678.759848
_symmetry_space_group_name_H-M "C 2/M"
_symmetry_group_IT_number 12
_symmetry_cell_setting 'monoclinic'
loop_
_space_group_symop_operation_xyz
x,y,z
-x,y,-z
-x,-y,-z
x,-y,z
1/2+x,1/2+y,z
1/2-x,1/2+y,-z
1/2-x,1/2-y,-z
1/2+x,1/2-y,z
loop_
_atom_site_type_symbol
_atom_site_label
_atom_site_fract_x
_atom_site_fract_y
_atom_site_fract_z
Si Si1 0.964589 0.954080 0.726137
Si Si2 0.648237 0.596330 0.805977
Si Si3 0.100094 0.727728 0.598711
Si Si4 0.634400 0.877919 0.052818
Si Si5 0.335821 0.853603 0.659354
Si Si6 0.254941 0.952947 0.337772
Si Si7 0.316104 0.794597 0.213637
O O1 0.098022 0.959400 0.586513
O O2 0.000000 0.930018 0.500000
O O3 0.902726 0.000000 0.795693
O O4 0.856444 0.930347 0.026509
O O5 0.717748 0.638729 0.744360
O O6 0.754074 0.571860 0.503085
O O7 0.500000 0.606550 0.000000
O O8 0.135555 0.696521 0.391399
O O9 0.170725 0.772671 0.439438
O O10 0.158443 0.705708 0.648577
O O11 0.936384 0.731841 0.909516
O O12 0.472033 0.877296 0.356601
O O13 0.702945 0.868619 0.096673
O O14 0.673066 0.924600 0.924081
O O15 0.690598 0.842918 0.830137
O O16 0.322769 0.000000 0.226563
#
# Coordination Sequence:
#
# PCOD8098981 Si02
#       7
#     8   8   8   8   8   8   8
#     4   9  17  31  52  76 107 144 182 229 285 337
#     4  10  20  35  54  80 109 147 186 238 280 336
#     4   9  18  35  57  85 115 150 189 233 283 347
#     4  10  21  38  60  79 114 154 188 233 286 343
#     4  10  21  38  57  82 113 151 190 232 287 340
#     4  10  20  35  55  81 111 146 192 239 284 338
#     4   9  18  35  58  84 114 152 188 231 288 343
#
# _framework density 20.905194999999999
#
# number of rings (size 3 to 8) (size 9 to 14) (size 15 to 20)
#    0.000    2.429    0.000    2.143    0.000    4.000 
#   10.286    4.286    0.000    0.000    0.000    0.000 
#    0.000    0.000    0.000    0.000    0.000    0.000 
#
# Total GULP energy -347003.853600 kJ/mol
# GULP energy per Si atom -12392.994771 kJ/mol
# Density = 2.085761 g / cm^3
# Si number density = 20.905195 Si / 1000 Ang^3
#
#
#
# Elastic Constant Matrix: (Units=GPa)
#
#
# Indices 1 2 3 4 5 6 
#
# 1 69.8548 15.5744 15.9880 0.0000 11.4613 0.0000
# 2 15.5744 85.4079 37.3061 0.0000 2.5867 0.0000
# 3 15.9880 37.3061 70.0415 0.0000 17.6767 0.0000
# 4 0.0000 0.0000 0.0000 23.3477 0.0000 5.9712
# 5 11.4613 2.5867 17.6767 0.0000 36.5629 0.0000
# 6 0.0000 0.0000 0.0000 5.9712 0.0000 23.9058
#
#
#
# Elastic Compliance Matrix: (Units=1/GPa)
#
#
# Indices 1 2 3 4 5 6 
#
# 1 0.015792 -0.002129 -0.001435 0.000000 -0.004106 0.000000
# 2 -0.002129 0.015891 -0.008956 0.000000 0.003873 0.000000
# 3 -0.001435 -0.008956 0.021756 0.000000 -0.009435 0.000000
# 4 0.000000 0.000000 0.000000 0.045754 0.000000 -0.011428
# 5 -0.004106 0.003873 -0.009435 0.000000 0.032925 0.000000
# 6 0.000000 0.000000 0.000000 -0.011428 0.000000 0.044685
#
#
# Mechanical properties :
#
#
# Convention : Reuss Voigt Hill
#
# Bulk Modulus (GPa) = 35.20978 40.33790 37.77384
# Shear Modulus (GPa) = 23.66219 27.19234 25.42727
#
# Velocity S-wave (km/s) = 3.36799 3.61050 3.49135
# Velocity P-wave (km/s) = 5.65718 6.05957 5.86183
#
# Compressibility (1/GPa) = 0.02840120
#
# Stress axis : x y z
#
# Youngs Moduli (GPa) = 63.32293 62.92802 45.96472
#
# Poissons Ratio (x) = 0.13396 0.06594
# Poissons Ratio (y) = 0.13480 0.41164
# Poissons Ratio (z) = 0.09085 0.56355
#
# Static dielectric constant tensor:
#      x y z
#    x 3.683800 0.000000 0.147480 
#    y 0.000000 3.697740 0.000000 
#    z 0.147480 0.000000 3.760110 
# 
# 
# High freq. dielectric constant tensor:
#      x y z
#    x 1.808050 0.000000 0.017220 
#    y 0.000000 1.803970 0.000000 
#    z 0.017220 0.000000 1.813880 
# 
# From -- ./inp_files/91557.got.cif
#   From: 2010.06.25/outbox.cif.g09.slc.cpg/sg12_46_cif.got.tgz:91557.got - 2010.06.28 00:19:55.
