data_PCOD8098822
_publ_section_title
;
Structure prediction by ZEFSAII (Michael W. Deem and Ramdas Pophale) SiO2 
 PCOD8098822
Probable space group: C 2/M
;
_chemical_formula_sum "Si O2"
_cell_formula_units_Z 56
_cell_length_a 21.837826
_cell_length_b 9.484550
_cell_length_c 15.030785
_cell_angle_alpha 90.000000
_cell_angle_beta 115.152724
_cell_angle_gamma 90.000000
_cell_volume 2818.005363
_symmetry_space_group_name_H-M "C 2/M"
_symmetry_group_IT_number 12
_symmetry_cell_setting 'monoclinic'
loop_
_space_group_symop_operation_xyz
x,y,z
-x,y,-z
-x,-y,-z
x,-y,z
1/2+x,1/2+y,z
1/2-x,1/2+y,-z
1/2-x,1/2-y,-z
1/2+x,1/2-y,z
loop_
_atom_site_type_symbol
_atom_site_label
_atom_site_fract_x
_atom_site_fract_y
_atom_site_fract_z
Si Si1 0.993152 0.156986 0.092974
Si Si2 0.179558 0.334222 0.460329
Si Si3 0.898509 0.334917 0.765871
Si Si4 0.154659 0.839082 0.750649
Si Si5 0.802382 0.660412 0.861842
Si Si6 0.078935 0.334137 0.559304
Si Si7 0.660761 0.342780 0.953933
O O1 0.915453 0.149935 0.063999
O O2 0.030473 0.252974 0.189422
O O3 0.025358 0.000000 0.114433
O O4 0.000000 0.226768 0.000000
O O5 0.196286 0.500000 0.476835
O O6 0.250000 0.250000 0.500000
O O7 0.141447 0.293904 0.346791
O O8 0.127896 0.288688 0.507603
O O9 0.913034 0.500000 0.777979
O O10 0.857965 0.280979 0.827846
O O11 0.231881 0.830666 0.763447
O O12 0.104946 0.742879 0.663346
O O13 0.159779 0.780229 0.854199
O O14 0.127303 0.000000 0.731366
O O15 0.818609 0.500000 0.898214
O O16 0.797897 0.745974 0.951635
O O17 0.084095 0.500000 0.578069
O O18 0.000000 0.290143 0.500000
O O19 0.693183 0.500000 0.973844
#
# Coordination Sequence:
#
# PCOD8098822 Si02
#       7
#     8   8   8   8   8   8   8
#     4  10  20  35  53  78 113 149 185 230 279 333
#     4  10  22  41  63  89 119 153 196 246 297 350
#     4  10  21  35  56  83 111 145 186 231 282 339
#     4  10  22  39  59  83 113 149 191 237 284 339
#     4  10  20  35  55  83 115 146 184 230 279 336
#     4  10  23  42  62  87 119 154 197 247 297 350
#     4  10  21  36  55  81 114 149 188 230 277 336
#
# _framework density 19.872211
#
# number of rings (size 3 to 8) (size 9 to 14) (size 15 to 20)
#    0.000    2.000    1.429    1.286    2.000    4.571 
#    0.000    0.000    0.000    0.000    0.000    0.000 
#    0.000    0.000    0.000    0.000    0.000    0.000 
#
# Total GULP energy -347108.155173 kJ/mol
# GULP energy per Si atom -12396.719828 kJ/mol
# Density = 1.982698 g / cm^3
# Si number density = 19.872211 Si / 1000 Ang^3
#
#
#
# Elastic Constant Matrix: (Units=GPa)
#
#
# Indices 1 2 3 4 5 6 
#
# 1 83.6931 24.7025 38.5220 0.0000 1.8241 0.0000
# 2 24.7025 55.8171 61.5908 0.0000 7.1091 0.0000
# 3 38.5220 61.5908 138.0082 0.0000 7.6599 0.0000
# 4 0.0000 0.0000 0.0000 38.7877 0.0000 2.9506
# 5 1.8241 7.1091 7.6599 0.0000 32.0692 0.0000
# 6 0.0000 0.0000 0.0000 2.9506 0.0000 26.3887
#
#
#
# Elastic Compliance Matrix: (Units=1/GPa)
#
#
# Indices 1 2 3 4 5 6 
#
# 1 0.014105 -0.003816 -0.002267 0.000000 0.000585 0.000000
# 2 -0.003816 0.036875 -0.015151 0.000000 -0.004339 0.000000
# 3 -0.002267 -0.015151 0.014641 0.000000 -0.000009 0.000000
# 4 0.000000 0.000000 0.000000 0.026003 0.000000 -0.002907
# 5 0.000585 -0.004339 -0.000009 0.000000 0.032113 0.000000
# 6 0.000000 0.000000 0.000000 -0.002907 0.000000 0.038220
#
#
# Mechanical properties :
#
#
# Convention : Reuss Voigt Hill
#
# Bulk Modulus (GPa) = 43.18844 58.57209 50.88027
# Shear Modulus (GPa) = 23.56921 29.62933 26.59927
#
# Velocity S-wave (km/s) = 3.44763 3.86553 3.66254
# Velocity P-wave (km/s) = 6.13420 7.03288 6.59886
#
# Compressibility (1/GPa) = 0.02315435
#
# Stress axis : x y z
#
# Youngs Moduli (GPa) = 70.89568 27.11878 68.30273
#
# Poissons Ratio (x) = 0.10348 0.15482
# Poissons Ratio (y) = 0.27052 1.03484
# Poissons Ratio (z) = 0.16070 0.41087
#
# Static dielectric constant tensor:
#      x y z
#    x 4.038840 0.000000 -0.101250 
#    y 0.000000 3.629770 0.000000 
#    z -0.101250 0.000000 3.560870 
# 
# 
# High freq. dielectric constant tensor:
#      x y z
#    x 1.789570 0.000000 -0.001010 
#    y 0.000000 1.761860 0.000000 
#    z -0.001010 0.000000 1.775120 
# 
# From -- ./inp_files/238986.got.cif
#   From: 2010.06.25/outbox.cif.g09.slc.cpg/sg12_120_cif.got.tgz:238986.got - 2010.06.28 00:19:55.
