data_PCOD8098671
_publ_section_title
;
Structure prediction by ZEFSAII (Michael W. Deem and Ramdas Pophale) SiO2 
 PCOD8098671
Probable space group: C 2/M
;
_chemical_formula_sum "Si O2"
_cell_formula_units_Z 40
_cell_length_a 8.991790
_cell_length_b 24.671590
_cell_length_c 16.361017
_cell_angle_alpha 90.000000
_cell_angle_beta 32.471023
_cell_angle_gamma 90.000000
_cell_volume 1948.611016
_symmetry_space_group_name_H-M "C 2/M"
_symmetry_group_IT_number 12
_symmetry_cell_setting 'monoclinic'
loop_
_space_group_symop_operation_xyz
x,y,z
-x,y,-z
-x,-y,-z
x,-y,z
1/2+x,1/2+y,z
1/2-x,1/2+y,-z
1/2-x,1/2-y,-z
1/2+x,1/2-y,z
loop_
_atom_site_type_symbol
_atom_site_label
_atom_site_fract_x
_atom_site_fract_y
_atom_site_fract_z
Si Si1 0.531190 0.907708 0.613253
Si Si2 0.633715 0.865460 0.857463
Si Si3 0.397763 0.304801 0.456494
Si Si4 0.689103 0.938229 0.117044
Si Si5 0.406434 0.559753 0.300258
O O1 0.656400 0.848403 0.562135
O O2 0.509352 0.934691 0.711984
O O3 0.234823 0.903447 0.704683
O O4 0.726672 0.944780 0.466367
O O5 0.406126 0.891672 0.902252
O O6 0.836401 0.821294 0.721909
O O7 0.797656 0.916896 0.815546
O O8 0.500000 0.837042 0.000000
O O9 0.500000 0.298430 0.500000
O O10 0.250000 0.250000 0.500000
O O11 0.668845 0.000000 0.091687
O O12 0.000000 0.924015 0.000000
O O13 0.444933 0.500000 0.245325
#
# Coordination Sequence:
#
# PCOD8098671 Si02
#       5
#     8   8   8   8   8
#     4  10  20  38  60  91 127 166 217 263 310 375
#     4  11  24  42  63  97 133 164 211 263 316 374
#     4  11  25  46  71  93 119 162 215 272 331 381
#     4  11  22  37  61  92 135 179 212 251 308 377
#     4  10  20  34  61  93 131 174 211 250 305 375
#
# _framework density 20.527442000000001
#
# number of rings (size 3 to 8) (size 9 to 14) (size 15 to 20)
#    0.000    1.400    2.000    4.200    5.600    3.200 
#    0.000    5.000    0.000    0.000    0.000    0.000 
#    0.000    0.000    0.000    0.000    0.000    0.000 
#
# Total GULP energy -247932.338604 kJ/mol
# GULP energy per Si atom -12396.616930 kJ/mol
# Density = 2.048072 g / cm^3
# Si number density = 20.527442 Si / 1000 Ang^3
#
#
#
# Elastic Constant Matrix: (Units=GPa)
#
#
# Indices 1 2 3 4 5 6 
#
# 1 134.7800 58.4427 57.4941 0.0001 4.3288 -0.0002
# 2 58.4427 132.1616 48.3145 0.0012 -10.9686 -0.0010
# 3 57.4941 48.3145 105.4296 -0.0078 11.0437 0.0089
# 4 0.0001 0.0012 -0.0078 109.2977 0.0019 -93.5185
# 5 4.3288 -10.9686 11.0437 0.0019 47.4562 -0.0019
# 6 -0.0002 -0.0010 0.0089 -93.5185 -0.0019 111.8925
#
#
#
# Elastic Compliance Matrix: (Units=1/GPa)
#
#
# Indices 1 2 3 4 5 6 
#
# 1 0.010654 -0.003213 -0.004262 0.000000 -0.000723 0.000000
# 2 -0.003213 0.010541 -0.003448 0.000000 0.003532 0.000000
# 3 -0.004262 -0.003448 0.013768 0.000000 -0.003612 -0.000001
# 4 0.000000 0.000000 0.000000 0.032117 0.000000 0.026843
# 5 -0.000723 0.003532 -0.003612 0.000000 0.022795 0.000000
# 6 0.000000 0.000000 -0.000001 0.026843 0.000000 0.031372
#
#
# Mechanical properties :
#
#
# Convention : Reuss Voigt Hill
#
# Bulk Modulus (GPa) = 76.24154 77.87488 77.05821
# Shear Modulus (GPa) = 33.90612 67.60395 50.75503
#
# Velocity S-wave (km/s) = 4.06858 5.74499 4.97786
# Velocity P-wave (km/s) = 7.70019 9.05682 8.40592
#
# Compressibility (1/GPa) = 0.01311621
#
# Stress axis : x y z
#
# Youngs Moduli (GPa) = 93.86156 94.86629 72.63405
#
# Poissons Ratio (x) = 0.30483 0.30955
# Poissons Ratio (y) = 0.30160 0.25046
# Poissons Ratio (z) = 0.40001 0.32713
#
# Static dielectric constant tensor:
#      x y z
#    x 3.988560 0.000000 0.057810 
#    y 0.000000 3.459320 0.000000 
#    z 0.057810 0.000000 3.987530 
# 
# 
# High freq. dielectric constant tensor:
#      x y z
#    x 1.820420 0.000000 0.002920 
#    y 0.000000 1.772950 0.000000 
#    z 0.002920 0.000000 1.812360 
# 
# From -- ./inp_files/259333.got.cif
#   From: 2010.06.25/outbox.cif.g09.slc.cpg/sg12_130_cif.got.tgz:259333.got - 2010.06.28 00:19:55.
