data_PCOD8098784
_publ_section_title
;
Structure prediction by ZEFSAII (Michael W. Deem and Ramdas Pophale) SiO2 
 PCOD8098784
Probable space group: C 2/M
;
_chemical_formula_sum "Si O2"
_cell_formula_units_Z 56
_cell_length_a 19.987794
_cell_length_b 9.323709
_cell_length_c 19.496967
_cell_angle_alpha 90.000000
_cell_angle_beta 120.749842
_cell_angle_gamma 90.000000
_cell_volume 3122.625729
_symmetry_space_group_name_H-M "C 2/M"
_symmetry_group_IT_number 12
_symmetry_cell_setting 'monoclinic'
loop_
_space_group_symop_operation_xyz
x,y,z
-x,y,-z
-x,-y,-z
x,-y,z
1/2+x,1/2+y,z
1/2-x,1/2+y,-z
1/2-x,1/2-y,-z
1/2+x,1/2-y,z
loop_
_atom_site_type_symbol
_atom_site_label
_atom_site_fract_x
_atom_site_fract_y
_atom_site_fract_z
Si Si1 0.522653 0.833137 0.816241
Si Si2 0.921622 0.833059 0.498162
Si Si3 0.662659 0.330157 0.674620
Si Si4 0.063956 0.666100 0.089306
Si Si5 0.719987 0.335134 0.176735
Si Si6 0.503982 0.330409 0.670519
Si Si7 0.803626 0.663032 0.078503
O O1 0.466965 0.803418 0.850886
O O2 0.488963 0.748017 0.734028
O O3 0.608745 0.776715 0.880254
O O4 0.526651 0.000000 0.798762
O O5 0.852419 0.775334 0.412372
O O6 0.934625 0.773898 0.582486
O O7 0.000000 0.798681 0.500000
O O8 0.908320 0.000000 0.498000
O O9 0.678826 0.500000 0.685472
O O10 0.739128 0.246685 0.739013
O O11 0.588573 0.292219 0.683548
O O12 0.086726 0.500000 0.091437
O O13 0.138585 0.763058 0.115205
O O14 0.000000 0.711621 0.000000
O O15 0.706088 0.500000 0.189928
O O16 0.776034 0.320609 0.141484
O O17 0.497695 0.500000 0.678620
O O18 0.800743 0.500000 0.051553
O O19 0.750000 0.750000 0.000000
#
# Coordination Sequence:
#
# PCOD8098784 Si02
#       7
#     8   8   8   8   8   8   8
#     4  10  20  35  53  75 105 135 168 215 262 310
#     4   7  12  24  44  73 106 136 170 209 246 293
#     4   9  16  29  51  77 106 141 176 207 247 307
#     4  10  22  40  59  74  96 138 184 217 254 314
#     4  11  22  35  53  78 109 136 166 218 268 307
#     4   9  16  28  50  79 107 137 172 211 254 303
#     4  10  21  35  52  75 102 132 166 210 262 308
#
# _framework density 17.933626
#
# number of rings (size 3 to 8) (size 9 to 14) (size 15 to 20)
#    0.000    2.571    1.429    3.000    0.000    3.714 
#    0.000    0.714    0.000    3.429    0.000    0.000 
#    0.000    0.000    0.000    0.000    0.000    0.000 
#
# Total GULP energy -347006.381976 kJ/mol
# GULP energy per Si atom -12393.085071 kJ/mol
# Density = 1.789281 g / cm^3
# Si number density = 17.933626 Si / 1000 Ang^3
#
#
#
# Elastic Constant Matrix: (Units=GPa)
#
#
# Indices 1 2 3 4 5 6 
#
# 1 30.5343 17.0856 0.5117 0.0000 6.0533 0.0000
# 2 17.0856 56.4895 43.0334 0.0000 5.9434 0.0000
# 3 0.5117 43.0334 126.8284 0.0000 6.1045 0.0000
# 4 0.0000 0.0000 0.0000 24.4841 0.0000 -0.8121
# 5 6.0533 5.9434 6.1045 0.0000 25.0419 0.0000
# 6 0.0000 0.0000 0.0000 -0.8121 0.0000 24.1434
#
#
#
# Elastic Compliance Matrix: (Units=1/GPa)
#
#
# Indices 1 2 3 4 5 6 
#
# 1 0.043694 -0.016901 0.005943 0.000000 -0.007999 0.000000
# 2 -0.016901 0.030761 -0.010336 0.000000 -0.000696 0.000000
# 3 0.005943 -0.010336 0.011453 0.000000 -0.001776 0.000000
# 4 0.000000 0.000000 0.000000 0.040888 0.000000 0.001375
# 5 -0.007999 -0.000696 -0.001776 0.000000 0.042465 0.000000
# 6 0.000000 0.000000 0.000000 0.001375 0.000000 0.041466
#
#
# Mechanical properties :
#
#
# Convention : Reuss Voigt Hill
#
# Bulk Modulus (GPa) = 23.08377 37.23484 30.15931
# Shear Modulus (GPa) = 18.67383 24.94863 21.81123
#
# Velocity S-wave (km/s) = 3.23038 3.73388 3.49122
# Velocity P-wave (km/s) = 5.17818 6.27669 5.75371
#
# Compressibility (1/GPa) = 0.04332048
#
# Stress axis : x y z
#
# Youngs Moduli (GPa) = 22.88664 32.50842 87.31251
#
# Poissons Ratio (x) = 0.54944 -0.51894
# Poissons Ratio (y) = 0.38682 0.90244
# Poissons Ratio (z) = -0.13603 0.33600
#
# Static dielectric constant tensor:
#      x y z
#    x 3.046490 0.000000 0.016620 
#    y 0.000000 3.138930 0.000000 
#    z 0.016620 0.000000 3.704810 
# 
# 
# High freq. dielectric constant tensor:
#      x y z
#    x 1.661310 0.000000 0.002750 
#    y 0.000000 1.673850 0.000000 
#    z 0.002750 0.000000 1.717020 
# 
# From -- ./inp_files/281658.got.cif
#   From: 2010.06.25/outbox.cif.g09.slc.cpg/sg12_141_cif.got.tgz:281658.got - 2010.06.28 00:19:55.
