data_PCOD8098890
_publ_section_title
;
Structure prediction by ZEFSAII (Michael W. Deem and Ramdas Pophale) SiO2 
 PCOD8098890
Probable space group: C 2/M
;
_chemical_formula_sum "Si O2"
_cell_formula_units_Z 40
_cell_length_a 14.476586
_cell_length_b 8.760475
_cell_length_c 21.793003
_cell_angle_alpha 90.000000
_cell_angle_beta 131.075470
_cell_angle_gamma 90.000000
_cell_volume 2083.496672
_symmetry_space_group_name_H-M "C 2/M"
_symmetry_group_IT_number 12
_symmetry_cell_setting 'monoclinic'
loop_
_space_group_symop_operation_xyz
x,y,z
-x,y,-z
-x,-y,-z
x,-y,z
1/2+x,1/2+y,z
1/2-x,1/2+y,-z
1/2-x,1/2-y,-z
1/2+x,1/2-y,z
loop_
_atom_site_type_symbol
_atom_site_label
_atom_site_fract_x
_atom_site_fract_y
_atom_site_fract_z
Si Si1 0.987228 0.676327 0.407041
Si Si2 0.866260 0.821328 0.121472
Si Si3 0.182668 0.179435 0.571171
Si Si4 0.112216 0.180375 0.008203
Si Si5 0.460480 0.175796 0.707027
O O1 0.969159 0.500000 0.417326
O O2 0.886262 0.780186 0.395831
O O3 0.971277 0.699625 0.327720
O O4 0.122132 0.729300 0.488097
O O5 0.903548 0.766575 0.069292
O O6 0.976152 0.778177 0.214200
O O7 0.844152 0.000000 0.112902
O O8 0.741028 0.743070 0.089873
O O9 0.321819 0.232780 0.639176
O O10 0.172976 0.000000 0.553724
O O11 0.115759 0.000000 0.015864
O O12 0.000000 0.246622 0.000000
O O13 0.465262 0.000000 0.729951
#
# Coordination Sequence:
#
# PCOD8098890 Si02
#       5
#     8   8   8   8   8
#     4  10  20  35  54  76 103 140 181 218 261 312
#     4  10  21  35  55  83 108 134 173 217 258 307
#     4  10  20  35  54  77 105 139 178 221 265 306
#     4   9  19  38  60  79 105 140 172 207 258 316
#     4  10  22  37  53  75 108 144 174 213 264 312
#
# _framework density 19.198495999999999
#
# number of rings (size 3 to 8) (size 9 to 14) (size 15 to 20)
#    0.000    2.200    0.000    3.600    0.000    6.000 
#    0.000    6.000    0.000    0.000    0.000    0.000 
#    0.000    0.000    0.000    0.000    0.000    0.000 
#
# Total GULP energy -248043.609955 kJ/mol
# GULP energy per Si atom -12402.180498 kJ/mol
# Density = 1.915480 g / cm^3
# Si number density = 19.198496 Si / 1000 Ang^3
#
#
#
# Elastic Constant Matrix: (Units=GPa)
#
#
# Indices 1 2 3 4 5 6 
#
# 1 87.8600 14.3948 32.6145 0.0000 5.0176 0.0000
# 2 14.3948 32.9238 20.3963 0.0000 -0.7748 0.0000
# 3 32.6145 20.3963 81.5901 0.0000 -6.2789 0.0000
# 4 0.0000 0.0000 0.0000 36.5845 0.0000 0.4211
# 5 5.0176 -0.7748 -6.2789 0.0000 23.1317 0.0000
# 6 0.0000 0.0000 0.0000 0.4211 0.0000 23.8474
#
#
#
# Elastic Compliance Matrix: (Units=1/GPa)
#
#
# Indices 1 2 3 4 5 6 
#
# 1 0.014077 -0.003027 -0.005222 0.000000 -0.004573 0.000000
# 2 -0.003027 0.036626 -0.007967 0.000000 -0.000279 0.000000
# 3 -0.005222 -0.007967 0.016752 0.000000 0.005413 0.000000
# 4 0.000000 0.000000 0.000000 0.027340 0.000000 -0.000483
# 5 -0.004573 -0.000279 0.005413 0.000000 0.045683 0.000000
# 6 0.000000 0.000000 0.000000 -0.000483 0.000000 0.041942
#
#
# Mechanical properties :
#
#
# Convention : Reuss Voigt Hill
#
# Bulk Modulus (GPa) = 28.55367 37.46501 33.00934
# Shear Modulus (GPa) = 22.07237 25.71061 23.89149
#
# Velocity S-wave (km/s) = 3.39439 3.66348 3.53150
# Velocity P-wave (km/s) = 5.50161 6.11978 5.81891
#
# Compressibility (1/GPa) = 0.03502176
#
# Stress axis : x y z
#
# Youngs Moduli (GPa) = 71.03554 27.30305 59.69329
#
# Poissons Ratio (x) = 0.08265 0.31174
# Poissons Ratio (y) = 0.21504 0.47560
# Poissons Ratio (z) = 0.37098 0.21753
#
# Static dielectric constant tensor:
#      x y z
#    x 3.633890 0.000000 0.009240 
#    y 0.000000 3.424170 0.000000 
#    z 0.009240 0.000000 3.434110 
# 
# 
# High freq. dielectric constant tensor:
#      x y z
#    x 1.751670 0.000000 0.000550 
#    y 0.000000 1.747050 0.000000 
#    z 0.000550 0.000000 1.741950 
# 
# From -- ./inp_files/308166.got.cif
#   From: 2010.06.25/outbox.cif.g09.slc.cpg/sg12_155_cif.got.tgz:308166.got - 2010.06.28 00:19:55.
