data_PCOD8098168
_publ_section_title
;
Structure prediction by ZEFSAII (Michael W. Deem and Ramdas Pophale) SiO2 
 PCOD8098168
Probable space group: C 2/M
;
_chemical_formula_sum "Si O2"
_cell_formula_units_Z 60
_cell_length_a 25.693714
_cell_length_b 22.632255
_cell_length_c 14.364691
_cell_angle_alpha 90.000000
_cell_angle_beta 19.801034
_cell_angle_gamma 90.000000
_cell_volume 2829.675193
_symmetry_space_group_name_H-M "C 2/M"
_symmetry_group_IT_number 12
_symmetry_cell_setting 'monoclinic'
loop_
_space_group_symop_operation_xyz
x,y,z
-x,y,-z
-x,-y,-z
x,-y,z
1/2+x,1/2+y,z
1/2-x,1/2+y,-z
1/2-x,1/2-y,-z
1/2+x,1/2-y,z
loop_
_atom_site_type_symbol
_atom_site_label
_atom_site_fract_x
_atom_site_fract_y
_atom_site_fract_z
Si Si1 0.798807 0.640440 0.560788
Si Si2 0.168447 0.256223 0.734946
Si Si3 0.753586 0.066819 0.175188
Si Si4 0.174664 0.810638 0.361989
Si Si5 0.559433 0.210941 0.219115
Si Si6 0.000000 0.641188 0.500000
Si Si7 0.893244 0.065684 0.469028
Si Si8 0.666776 0.066390 0.679115
O O1 0.670316 0.692039 0.781986
O O2 0.754245 0.589530 0.706590
O O3 0.803147 0.613769 0.451189
O O4 0.960497 0.670952 0.314785
O O5 0.250000 0.250000 0.500000
O O6 0.244471 0.304511 0.673828
O O7 0.000000 0.279520 0.000000
O O8 0.641721 0.102631 0.296499
O O9 0.695313 0.000000 0.272757
O O10 0.926976 0.072298 0.850194
O O11 0.151482 0.881212 0.384741
O O12 0.013318 0.775673 0.641041
O O13 0.273625 0.782888 0.110453
O O14 0.573708 0.180468 0.294824
O O15 0.800311 0.073049 0.530159
O O16 0.857621 0.000000 0.571748
O O17 0.669567 0.000000 0.632941
O O18 0.500000 0.080268 0.000000
#
# Coordination Sequence:
#
# PCOD8098168 Si02
#       8
#     8   8   8   8   8   4   8   8
#     4  10  21  34  58  88 127 163 219 260 319 385
#     4  11  23  35  56  88 128 177 214 255 313 373
#     4  10  22  41  66  92 124 167 214 277 337 394
#     4  11  23  41  64  93 136 166 216 269 319 390
#     4  10  24  41  66  97 123 170 210 272 335 389
#     4  10  23  46  68  94 127 156 220 268 348 406
#     4  10  23  40  63  92 130 175 213 261 321 385
#     4  10  20  34  55  85 126 174 216 255 301 369
#
# _framework density 21.203845000000001
#
# number of rings (size 3 to 8) (size 9 to 14) (size 15 to 20)
#    0.000    1.733    0.000    3.800    9.333    1.600 
#    0.000    5.333    0.000    1.600    0.000    0.000 
#    0.000    0.000    0.000    0.000    0.000    0.000 
#
# Total GULP energy -371979.064725 kJ/mol
# GULP energy per Si atom -12399.302158 kJ/mol
# Density = 2.115558 g / cm^3
# Si number density = 21.203845 Si / 1000 Ang^3
#
#
#
# Elastic Constant Matrix: (Units=GPa)
#
#
# Indices 1 2 3 4 5 6 
#
# 1 81.2798 35.9614 33.5149 0.0023 -2.1479 -0.0015
# 2 35.9614 154.4806 49.5569 0.0018 5.4942 -0.0042
# 3 33.5149 49.5569 97.4703 0.0269 3.7482 -0.0150
# 4 0.0023 0.0018 0.0269 31.3915 -0.0037 5.3077
# 5 -2.1479 5.4942 3.7482 -0.0037 30.9068 0.0041
# 6 -0.0015 -0.0042 -0.0150 5.3077 0.0041 18.3629
#
#
#
# Elastic Compliance Matrix: (Units=1/GPa)
#
#
# Indices 1 2 3 4 5 6 
#
# 1 0.015043 -0.002256 -0.004101 0.000003 0.001944 -0.000004
# 2 -0.002256 0.008098 -0.003296 0.000003 -0.001197 -0.000002
# 3 -0.004101 -0.003296 0.013396 -0.000014 -0.001324 0.000014
# 4 0.000003 0.000003 -0.000014 0.033493 0.000007 -0.009681
# 5 0.001944 -0.001197 -0.001324 0.000007 0.032864 -0.000011
# 6 -0.000004 -0.000002 0.000014 -0.009681 -0.000011 0.057256
#
#
# Mechanical properties :
#
#
# Convention : Reuss Voigt Hill
#
# Bulk Modulus (GPa) = 58.02561 63.47746 60.75154
# Shear Modulus (GPa) = 26.99810 30.41207 28.70508
#
# Velocity S-wave (km/s) = 3.57215 3.79129 3.68335
# Velocity P-wave (km/s) = 6.66624 7.01191 6.84126
#
# Compressibility (1/GPa) = 0.01723377
#
# Stress axis : x y z
#
# Youngs Moduli (GPa) = 66.47465 123.48392 74.64869
#
# Poissons Ratio (x) = 0.27853 0.30610
# Poissons Ratio (y) = 0.14994 0.24603
# Poissons Ratio (z) = 0.27258 0.40698
#
# Static dielectric constant tensor:
#      x y z
#    x 3.675700 -0.000100 -0.188730 
#    y -0.000100 4.244890 0.000060 
#    z -0.188730 0.000060 3.633070 
# 
# 
# High freq. dielectric constant tensor:
#      x y z
#    x 1.821220 0.000000 -0.009380 
#    y 0.000000 1.852380 0.000010 
#    z -0.009380 0.000010 1.824650 
# 
# From -- ./inp_files/247260.got.cif
#   From: 2010.06.25/outbox.cif.g09.slc.cpg/sg12_124_cif.got.tgz:247260.got - 2010.06.28 00:19:55.
