data_PCOD8098762
_publ_section_title
;
Structure prediction by ZEFSAII (Michael W. Deem and Ramdas Pophale) SiO2 
 PCOD8098762
Probable space group: C 2/M
;
_chemical_formula_sum "Si O2"
_cell_formula_units_Z 64
_cell_length_a 27.734129
_cell_length_b 9.202011
_cell_length_c 13.570407
_cell_angle_alpha 90.000000
_cell_angle_beta 96.555149
_cell_angle_gamma 90.000000
_cell_volume 3440.658760
_symmetry_space_group_name_H-M "C 2/M"
_symmetry_group_IT_number 12
_symmetry_cell_setting 'monoclinic'
loop_
_space_group_symop_operation_xyz
x,y,z
-x,y,-z
-x,-y,-z
x,-y,z
1/2+x,1/2+y,z
1/2-x,1/2+y,-z
1/2-x,1/2-y,-z
1/2+x,1/2-y,z
loop_
_atom_site_type_symbol
_atom_site_label
_atom_site_fract_x
_atom_site_fract_y
_atom_site_fract_z
Si Si1 0.081347 0.170987 0.693964
Si Si2 0.609690 0.670309 0.479340
Si Si3 0.660629 0.168395 0.051955
Si Si4 0.831796 0.667788 0.648768
Si Si5 0.662536 0.170193 0.825650
Si Si6 0.753870 0.665887 0.780695
Si Si7 0.473580 0.667762 0.684707
Si Si8 0.397737 0.331361 0.819353
O O1 0.102269 0.205308 0.591365
O O2 0.113028 0.253871 0.781688
O O3 0.026964 0.237510 0.689429
O O4 0.082688 0.000000 0.717581
O O5 0.617447 0.500000 0.461148
O O6 0.658316 0.755955 0.454648
O O7 0.563324 0.730853 0.406456
O O8 0.707556 0.213993 0.126689
O O9 0.612795 0.257294 0.077300
O O10 0.648649 0.000000 0.064761
O O11 0.671327 0.207169 0.941923
O O12 0.847565 0.500000 0.647821
O O13 0.776579 0.681254 0.675798
O O14 0.864007 0.753139 0.733603
O O15 0.707406 0.231437 0.773771
O O16 0.658365 0.000000 0.805112
O O17 0.737462 0.500000 0.795666
O O18 0.479822 0.500000 0.659580
O O19 0.452745 0.689291 0.791383
O O20 0.384076 0.500000 0.822637
#
# Coordination Sequence:
#
# PCOD8098762 Si02
#       8
#     8   8   8   8   8   8   8   8
#     4  10  20  35  53  72 101 138 171 208 251 293
#     4   9  17  31  54  80 101 128 170 211 247 292
#     4   9  19  35  53  75 103 132 163 204 254 302
#     4   9  17  30  50  77 107 132 157 200 255 303
#     4  11  23  36  50  72 103 135 168 208 252 299
#     4   9  18  34  55  76  97 127 167 205 248 301
#     4   8  15  30  53  79 102 127 165 210 250 289
#     4   9  16  28  51  80 103 126 164 209 248 292
#
# _framework density 18.601088000000001
#
# number of rings (size 3 to 8) (size 9 to 14) (size 15 to 20)
#    0.000    2.750    0.000    3.375    0.000    5.500 
#    0.000    4.375    0.000    7.500    0.000    0.000 
#    0.000    0.000    0.000    0.000    0.000    0.000 
#
# Total GULP energy -396619.761804 kJ/mol
# GULP energy per Si atom -12394.367556 kJ/mol
# Density = 1.855875 g / cm^3
# Si number density = 18.601088 Si / 1000 Ang^3
#
#
#
# Elastic Constant Matrix: (Units=GPa)
#
#
# Indices 1 2 3 4 5 6 
#
# 1 56.9273 33.3344 28.2768 0.0000 -14.3356 0.0000
# 2 33.3344 68.1600 24.5228 0.0000 -12.9647 0.0000
# 3 28.2768 24.5228 28.7627 0.0000 -6.6594 0.0000
# 4 0.0000 0.0000 0.0000 28.5397 0.0000 -5.1822
# 5 -14.3356 -12.9647 -6.6594 0.0000 27.0524 0.0000
# 6 0.0000 0.0000 0.0000 -5.1822 0.0000 26.0867
#
#
#
# Elastic Compliance Matrix: (Units=1/GPa)
#
#
# Indices 1 2 3 4 5 6 
#
# 1 0.038963 -0.006039 -0.030802 0.000000 0.010171 0.000000
# 2 -0.006039 0.023074 -0.012637 0.000000 0.004747 0.000000
# 3 -0.030802 -0.012637 0.074911 0.000000 -0.003938 0.000000
# 4 0.000000 0.000000 0.000000 0.036350 0.000000 0.007221
# 5 0.010171 0.004747 -0.003938 0.000000 0.043661 0.000000
# 6 0.000000 0.000000 0.000000 0.007221 0.000000 0.039768
#
#
# Mechanical properties :
#
#
# Convention : Reuss Voigt Hill
#
# Bulk Modulus (GPa) = 26.32010 36.23536 31.27773
# Shear Modulus (GPa) = 13.57414 20.85014 17.21214
#
# Velocity S-wave (km/s) = 2.70432 3.35163 3.04522
# Velocity P-wave (km/s) = 4.89199 5.87371 5.40518
#
# Compressibility (1/GPa) = 0.03799377
#
# Stress axis : x y z
#
# Youngs Moduli (GPa) = 25.66508 43.33827 13.34919
#
# Poissons Ratio (x) = 0.26172 0.41118
# Poissons Ratio (y) = 0.15499 0.16869
# Poissons Ratio (z) = 0.79053 0.54766
#
# Static dielectric constant tensor:
#      x y z
#    x 3.729220 0.000000 -0.477090 
#    y 0.000000 3.429390 0.000000 
#    z -0.477090 0.000000 3.535930 
# 
# 
# High freq. dielectric constant tensor:
#      x y z
#    x 1.717630 0.000000 -0.028830 
#    y 0.000000 1.711150 0.000000 
#    z -0.028830 0.000000 1.704960 
# 
# From -- ./inp_files/244072.got.cif
#   From: 2010.06.25/outbox.cif.g09.slc.cpg/sg12_123_cif.got.tgz:244072.got - 2010.06.28 00:19:55.
