data_PCOD8098240
_publ_section_title
;
Structure prediction by ZEFSAII (Michael W. Deem and Ramdas Pophale) SiO2 
 PCOD8098240
Probable space group: C 2/M
;
_chemical_formula_sum "Si O2"
_cell_formula_units_Z 56
_cell_length_a 20.442902
_cell_length_b 9.145977
_cell_length_c 14.639590
_cell_angle_alpha 90.000000
_cell_angle_beta 87.401521
_cell_angle_gamma 90.000000
_cell_volume 2734.354274
_symmetry_space_group_name_H-M "C 2/M"
_symmetry_group_IT_number 12
_symmetry_cell_setting 'monoclinic'
loop_
_space_group_symop_operation_xyz
x,y,z
-x,y,-z
-x,-y,-z
x,-y,z
1/2+x,1/2+y,z
1/2-x,1/2+y,-z
1/2-x,1/2-y,-z
1/2+x,1/2-y,z
loop_
_atom_site_type_symbol
_atom_site_label
_atom_site_fract_x
_atom_site_fract_y
_atom_site_fract_z
Si Si1 0.375340 0.171184 0.914011
Si Si2 0.239134 0.173424 0.171863
Si Si3 0.883450 0.327755 0.119679
Si Si4 0.848342 0.665403 0.463339
Si Si5 0.028681 0.828215 0.596928
Si Si6 0.209524 0.834910 0.376269
Si Si7 0.993018 0.673549 0.774863
O O1 0.307822 0.254964 0.899813
O O2 0.431411 0.219796 0.840237
O O3 0.360657 0.000000 0.907839
O O4 0.398884 0.214006 0.014004
O O5 0.312739 0.235118 0.154266
O O6 0.212427 0.220549 0.272619
O O7 0.238314 0.000000 0.159302
O O8 0.882788 0.500000 0.132228
O O9 0.941257 0.265638 0.180010
O O10 0.873978 0.500000 0.471269
O O11 0.899026 0.760109 0.401702
O O12 0.839742 0.731350 0.565311
O O13 0.781633 0.672430 0.412461
O O14 0.984662 0.753955 0.678241
O O15 0.000000 0.788358 0.500000
O O16 0.031804 0.000000 0.613816
O O17 0.182098 0.000000 0.384479
O O18 0.995729 0.500000 0.759927
#
# Coordination Sequence:
#
# PCOD8098240 Si02
#       7
#     8   8   8   8   8   8   8
#     4  10  21  36  58  89 120 149 189 242 291 337
#     4  10  20  34  56  82 116 157 191 227 282 348
#     4   9  18  37  62  86 115 153 194 236 287 341
#     4  10  20  36  59  83 109 145 195 242 281 335
#     4  11  25  41  57  80 115 154 189 233 292 351
#     4   9  19  35  55  82 115 152 188 231 287 342
#     4  10  21  39  63  87 112 149 198 244 287 341
#
# _framework density 20.480153999999999
#
# number of rings (size 3 to 8) (size 9 to 14) (size 15 to 20)
#    0.000    2.143    0.000    2.571    2.000    6.857 
#    0.000    2.857    0.000    1.714    0.000    0.000 
#    0.000    0.000    0.000    0.000    0.000    0.000 
#
# Total GULP energy -347276.249956 kJ/mol
# GULP energy per Si atom -12402.723213 kJ/mol
# Density = 2.043354 g / cm^3
# Si number density = 20.480154 Si / 1000 Ang^3
#
#
#
# Elastic Constant Matrix: (Units=GPa)
#
#
# Indices 1 2 3 4 5 6 
#
# 1 77.9603 24.6601 24.9065 0.0000 -4.4745 0.0000
# 2 24.6601 54.1099 35.9598 0.0000 -1.9046 0.0000
# 3 24.9065 35.9598 109.4662 0.0000 -4.1019 0.0000
# 4 0.0000 0.0000 0.0000 25.6540 0.0000 2.5323
# 5 -4.4745 -1.9046 -4.1019 0.0000 27.9941 0.0000
# 6 0.0000 0.0000 0.0000 2.5323 0.0000 24.7829
#
#
#
# Elastic Compliance Matrix: (Units=1/GPa)
#
#
# Indices 1 2 3 4 5 6 
#
# 1 0.015273 -0.005926 -0.001460 0.000000 0.001824 0.000000
# 2 -0.005926 0.025948 -0.007184 0.000000 -0.000235 0.000000
# 3 -0.001460 -0.007184 0.011866 0.000000 0.001017 0.000000
# 4 0.000000 0.000000 0.000000 0.039377 0.000000 -0.004024
# 5 0.001824 -0.000235 0.001017 0.000000 0.036146 0.000000
# 6 0.000000 0.000000 0.000000 -0.004024 0.000000 0.040762
#
#
# Mechanical properties :
#
#
# Convention : Reuss Voigt Hill
#
# Bulk Modulus (GPa) = 41.76137 45.84328 43.80233
# Shear Modulus (GPa) = 24.21381 26.08687 25.15034
#
# Velocity S-wave (km/s) = 3.44220 3.57285 3.50813
# Velocity P-wave (km/s) = 6.01944 6.28118 6.15170
#
# Compressibility (1/GPa) = 0.02394557
#
# Stress axis : x y z
#
# Youngs Moduli (GPa) = 65.47671 38.53881 84.27740
#
# Poissons Ratio (x) = 0.22838 0.12304
# Poissons Ratio (y) = 0.38801 0.60548
# Poissons Ratio (z) = 0.09559 0.27688
#
# Static dielectric constant tensor:
#      x y z
#    x 3.756840 0.000000 -0.088830 
#    y 0.000000 3.486080 0.000000 
#    z -0.088830 0.000000 3.859080 
# 
# 
# High freq. dielectric constant tensor:
#      x y z
#    x 1.805800 0.000000 -0.006260 
#    y 0.000000 1.773900 0.000000 
#    z -0.006260 0.000000 1.813690 
# 
# From -- ./inp_files/230838.got.cif
#   From: 2010.06.25/outbox.cif.g09.slc.cpg/sg12_116_cif.got.tgz:230838.got - 2010.06.28 00:19:55.
