data_PCOD8098456
_publ_section_title
;
Structure prediction by ZEFSAII (Michael W. Deem and Ramdas Pophale) SiO2 
 PCOD8098456
Probable space group: C 2/M
;
_chemical_formula_sum "Si O2"
_cell_formula_units_Z 56
_cell_length_a 19.532258
_cell_length_b 13.028190
_cell_length_c 13.862935
_cell_angle_alpha 90.000000
_cell_angle_beta 114.305785
_cell_angle_gamma 90.000000
_cell_volume 3215.011323
_symmetry_space_group_name_H-M "C 2/M"
_symmetry_group_IT_number 12
_symmetry_cell_setting 'monoclinic'
loop_
_space_group_symop_operation_xyz
x,y,z
-x,y,-z
-x,-y,-z
x,-y,z
1/2+x,1/2+y,z
1/2-x,1/2+y,-z
1/2-x,1/2-y,-z
1/2+x,1/2-y,z
loop_
_atom_site_type_symbol
_atom_site_label
_atom_site_fract_x
_atom_site_fract_y
_atom_site_fract_z
Si Si1 0.801156 0.380818 0.275797
Si Si2 0.448109 0.760907 0.744250
Si Si3 0.454220 0.380666 0.070858
Si Si4 0.341594 0.878700 0.803194
Si Si5 0.215295 0.767592 0.376708
Si Si6 0.800189 0.227389 0.937780
Si Si7 0.029836 0.378791 0.622648
O O1 0.806601 0.500000 0.264633
O O2 0.763916 0.357810 0.357464
O O3 0.749639 0.337674 0.162827
O O4 0.885378 0.336424 0.319340
O O5 0.507423 0.679761 0.819019
O O6 0.424467 0.843068 0.814275
O O7 0.372644 0.700022 0.666457
O O8 0.480388 0.821470 0.672646
O O9 0.452142 0.500000 0.097530
O O10 0.500000 0.361775 0.000000
O O11 0.370404 0.340535 0.009813
O O12 0.280555 0.834395 0.689956
O O13 0.326905 0.832163 0.901084
O O14 0.334991 0.000000 0.806162
O O15 0.250000 0.750000 0.500000
O O16 0.750000 0.250000 0.000000
O O17 0.023399 0.500000 0.637488
O O18 0.000000 0.349743 0.500000
#
# Coordination Sequence:
#
# PCOD8098456 Si02
#       7
#     8   8   8   8   8   8   8
#     4  10  20  35  53  81 111 141 188 234 272 328
#     4  10  20  36  57  82 117 143 189 235 280 331
#     4  11  21  38  60  83 110 149 193 235 284 337
#     4   9  20  36  55  81 114 145 184 228 281 338
#     4   9  19  34  55  80 112 151 184 224 278 333
#     4  11  22  38  57  79 114 147 191 232 285 332
#     4  10  20  34  57  85 114 149 184 227 285 337
#
# _framework density 17.418291
#
# number of rings (size 3 to 8) (size 9 to 14) (size 15 to 20)
#    0.857    1.143    1.429    2.571    0.000    3.429 
#    0.000    2.143    0.000    0.429    0.000    0.000 
#    0.000    0.000    0.000    0.000    0.000    0.000 
#
# Total GULP energy -347067.931235 kJ/mol
# GULP energy per Si atom -12395.283258 kJ/mol
# Density = 1.737865 g / cm^3
# Si number density = 17.418291 Si / 1000 Ang^3
#
#
#
# Elastic Constant Matrix: (Units=GPa)
#
#
# Indices 1 2 3 4 5 6 
#
# 1 140.2515 40.2439 55.1395 0.0000 -8.3146 0.0000
# 2 40.2439 82.6198 38.3945 0.0000 -7.5989 0.0000
# 3 55.1395 38.3945 109.8514 0.0000 -8.4311 0.0000
# 4 0.0000 0.0000 0.0000 23.1510 0.0000 -2.3748
# 5 -8.3146 -7.5989 -8.4311 0.0000 35.0201 0.0000
# 6 0.0000 0.0000 0.0000 -2.3748 0.0000 23.5644
#
#
#
# Elastic Compliance Matrix: (Units=1/GPa)
#
#
# Indices 1 2 3 4 5 6 
#
# 1 0.009433 -0.002809 -0.003696 0.000000 0.000740 0.000000
# 2 -0.002809 0.015420 -0.003845 0.000000 0.001753 0.000000
# 3 -0.003696 -0.003845 0.012400 0.000000 0.001273 0.000000
# 4 0.000000 0.000000 0.000000 0.043646 0.000000 0.004399
# 5 0.000740 0.001753 0.001273 0.000000 0.029418 0.000000
# 6 0.000000 0.000000 0.000000 0.004399 0.000000 0.042880
#
#
# Mechanical properties :
#
#
# Convention : Reuss Voigt Hill
#
# Bulk Modulus (GPa) = 60.41316 66.69759 63.55538
# Shear Modulus (GPa) = 27.86830 29.61009 28.73920
#
# Velocity S-wave (km/s) = 4.00427 4.12751 4.06636
# Velocity P-wave (km/s) = 7.49253 7.81600 7.65597
#
# Compressibility (1/GPa) = 0.01655268
#
# Stress axis : x y z
#
# Youngs Moduli (GPa) = 106.00892 64.85103 80.64418
#
# Poissons Ratio (x) = 0.18217 0.29809
# Poissons Ratio (y) = 0.29778 0.31007
# Poissons Ratio (z) = 0.39184 0.24935
#
# Static dielectric constant tensor:
#      x y z
#    x 3.586800 0.000000 0.039740 
#    y 0.000000 3.067540 0.000000 
#    z 0.039740 0.000000 3.232760 
# 
# 
# High freq. dielectric constant tensor:
#      x y z
#    x 1.683770 0.000000 0.002320 
#    y 0.000000 1.656850 0.000000 
#    z 0.002320 0.000000 1.676730 
# 
# From -- ./inp_files/156723.got.cif
#   From: 2010.06.25/outbox.cif.g09.slc.cpg/sg12_79_cif.got.tgz:156723.got - 2010.06.28 00:19:55.
