data_PCOD8098077
_publ_section_title
;
Structure prediction by ZEFSAII (Michael W. Deem and Ramdas Pophale) SiO2 
 PCOD8098077
Probable space group: C 2/M
;
_chemical_formula_sum "Si O2"
_cell_formula_units_Z 56
_cell_length_a 20.514362
_cell_length_b 9.036401
_cell_length_c 30.102167
_cell_angle_alpha 90.000000
_cell_angle_beta 33.093064
_cell_angle_gamma 90.000000
_cell_volume 3046.802812
_symmetry_space_group_name_H-M "C 2/M"
_symmetry_group_IT_number 12
_symmetry_cell_setting 'monoclinic'
loop_
_space_group_symop_operation_xyz
x,y,z
-x,y,-z
-x,-y,-z
x,-y,z
1/2+x,1/2+y,z
1/2-x,1/2+y,-z
1/2-x,1/2-y,-z
1/2+x,1/2-y,z
loop_
_atom_site_type_symbol
_atom_site_label
_atom_site_fract_x
_atom_site_fract_y
_atom_site_fract_z
Si Si1 0.828419 0.830302 0.828933
Si Si2 0.912270 0.825571 0.165940
Si Si3 0.308363 0.172326 0.402019
Si Si4 0.066229 0.171834 0.745335
Si Si5 0.338149 0.825391 0.730772
Si Si6 0.935008 0.328119 0.992909
Si Si7 0.569988 0.327965 0.586095
O O1 0.842412 0.723145 0.779344
O O2 0.933459 0.796942 0.803542
O O3 0.831295 0.000000 0.810493
O O4 0.705417 0.795951 0.924262
O O5 0.927912 0.773124 0.207508
O O6 0.784249 0.770019 0.221446
O O7 0.017505 0.754990 0.077290
O O8 0.924114 0.000000 0.154640
O O9 0.336074 0.233392 0.337367
O O10 0.389467 0.261026 0.390197
O O11 0.168676 0.200263 0.491869
O O12 0.340552 0.000000 0.387498
O O13 0.100982 0.000000 0.721397
O O14 0.447234 0.750387 0.641460
O O15 0.352436 0.000000 0.719389
O O16 0.964691 0.500000 0.970356
O O17 0.000000 0.266322 0.000000
O O18 0.546620 0.500000 0.607442
#
# Coordination Sequence:
#
# PCOD8098077 Si02
#       7
#     8   8   8   8   8   8   8
#     4  10  20  35  57  81 108 144 187 230 277 330
#     4  10  23  39  55  80 114 150 186 229 280 329
#     4  10  20  34  55  85 114 142 183 229 272 324
#     4  10  21  38  57  79 113 153 186 222 278 335
#     4  11  21  34  55  83 111 142 189 235 271 323
#     4  10  20  35  56  83 111 142 186 234 280 331
#     4  10  20  34  55  83 114 145 180 227 278 327
#
# _framework density 18.379923999999999
#
# number of rings (size 3 to 8) (size 9 to 14) (size 15 to 20)
#    0.000    1.857    2.857    1.286    0.000    4.286 
#    0.000    0.714    0.000    4.286    0.000    0.000 
#    0.000    0.000    0.000    0.000    0.000    0.000 
#
# Total GULP energy -347317.119344 kJ/mol
# GULP energy per Si atom -12404.182834 kJ/mol
# Density = 1.833809 g / cm^3
# Si number density = 18.379924 Si / 1000 Ang^3
#
#
#
# Elastic Constant Matrix: (Units=GPa)
#
#
# Indices 1 2 3 4 5 6 
#
# 1 97.4575 34.0800 61.3591 -0.0014 3.9703 0.0060
# 2 34.0800 66.4830 52.0841 -0.0013 0.0538 -0.0010
# 3 61.3591 52.0841 145.5545 0.0010 1.5888 0.0023
# 4 -0.0014 -0.0013 0.0010 37.2096 0.0004 3.1928
# 5 3.9703 0.0538 1.5888 0.0004 31.0029 -0.0006
# 6 0.0060 -0.0010 0.0023 3.1928 -0.0006 21.4522
#
#
#
# Elastic Compliance Matrix: (Units=1/GPa)
#
#
# Indices 1 2 3 4 5 6 
#
# 1 0.014676 -0.003736 -0.004832 0.000001 -0.001625 -0.000004
# 2 -0.003736 0.021855 -0.006254 0.000001 0.000761 0.000003
# 3 -0.004832 -0.006254 0.011144 -0.000001 0.000059 0.000000
# 4 0.000001 0.000001 -0.000001 0.027222 -0.000001 -0.004052
# 5 -0.001625 0.000761 0.000059 -0.000001 0.032459 0.000002
# 6 -0.000004 0.000003 0.000000 -0.004052 0.000002 0.047218
#
#
# Mechanical properties :
#
#
# Convention : Reuss Voigt Hill
#
# Bulk Modulus (GPa) = 55.45835 67.17130 61.31483
# Shear Modulus (GPa) = 26.28397 28.73106 27.50752
#
# Velocity S-wave (km/s) = 3.78569 3.95799 3.87280
# Velocity P-wave (km/s) = 7.02477 7.58373 7.30959
#
# Compressibility (1/GPa) = 0.01803155
#
# Stress axis : x y z
#
# Youngs Moduli (GPa) = 68.13924 45.75515 89.73104
#
# Poissons Ratio (x) = 0.17095 0.43358
# Poissons Ratio (y) = 0.25458 0.56117
# Poissons Ratio (z) = 0.32925 0.28615
#
# Static dielectric constant tensor:
#      x y z
#    x 3.296210 -0.000010 -0.146930 
#    y -0.000010 3.351390 0.000000 
#    z -0.146930 0.000000 3.584810 
# 
# 
# High freq. dielectric constant tensor:
#      x y z
#    x 1.693130 0.000000 -0.009330 
#    y 0.000000 1.713590 0.000000 
#    z -0.009330 0.000000 1.728100 
# 
# From -- ./inp_files/380597.got.cif
#   From: 2010.06.25/outbox.cif.g09.slc.cpg/sg12_191_cif.got.tgz:380597.got - 2010.06.28 00:19:55.
