data_PCOD8098453
_publ_section_title
;
Structure prediction by ZEFSAII (Michael W. Deem and Ramdas Pophale) SiO2 
 PCOD8098453
Probable space group: C 2/M
;
_chemical_formula_sum "Si O2"
_cell_formula_units_Z 64
_cell_length_a 14.253595
_cell_length_b 25.751375
_cell_length_c 12.894847
_cell_angle_alpha 90.000000
_cell_angle_beta 137.487879
_cell_angle_gamma 90.000000
_cell_volume 3198.339935
_symmetry_space_group_name_H-M "C 2/M"
_symmetry_group_IT_number 12
_symmetry_cell_setting 'monoclinic'
loop_
_space_group_symop_operation_xyz
x,y,z
-x,y,-z
-x,-y,-z
x,-y,z
1/2+x,1/2+y,z
1/2-x,1/2+y,-z
1/2-x,1/2-y,-z
1/2+x,1/2-y,z
loop_
_atom_site_type_symbol
_atom_site_label
_atom_site_fract_x
_atom_site_fract_y
_atom_site_fract_z
Si Si1 0.425808 0.558810 0.835195
Si Si2 0.861816 0.365098 0.133133
Si Si3 0.625681 0.058746 0.670610
Si Si4 0.085035 0.767319 0.221771
Si Si5 0.665636 0.847741 0.308526
Si Si6 0.208231 0.153705 0.805743
Si Si7 0.287061 0.730447 0.887621
Si Si8 0.422669 0.364787 0.647031
O O1 0.478651 0.500000 0.857972
O O2 0.260719 0.560342 0.709346
O O3 0.465158 0.594195 0.769884
O O4 0.500000 0.580603 0.000000
O O5 0.839876 0.410650 0.197020
O O6 0.819643 0.310663 0.151443
O O7 0.019133 0.369304 0.224214
O O8 0.767485 0.374523 0.955961
O O9 0.500000 0.083322 0.500000
O O10 0.586994 0.000000 0.671037
O O11 0.161725 0.714475 0.317826
O O12 0.161697 0.789912 0.182271
O O13 0.101337 0.808198 0.325359
O O14 0.921568 0.758111 0.068298
O O15 0.699044 0.862892 0.216805
O O16 0.780534 0.876892 0.471703
O O17 0.205938 0.215763 0.814502
O O18 0.047812 0.136308 0.665422
#
# Coordination Sequence:
#
# PCOD8098453 Si02
#       8
#     8   8   8   8   8   8   8   8
#     4  10  22  40  62  91 118 142 183 239 295 352
#     4  12  20  36  62  83 107 154 201 227 278 349
#     4  10  22  40  61  89 121 145 176 236 306 355
#     4  10  20  35  55  84 118 147 188 236 283 341
#     4  11  24  37  52  83 119 152 194 239 276 325
#     4  11  22  38  56  78 115 158 196 233 272 328
#     4  10  20  34  57  85 113 149 191 235 282 337
#     4  12  22  36  60  83 113 153 191 233 291 341
#
# _framework density 20.010380999999999
#
# number of rings (size 3 to 8) (size 9 to 14) (size 15 to 20)
#    0.000    1.250    2.500    4.500    1.750    0.000 
#    0.000    2.500    0.000    4.500    0.000    0.000 
#    0.000    0.000    0.000    0.000    0.000    0.000 
#
# Total GULP energy -396817.241621 kJ/mol
# GULP energy per Si atom -12400.538801 kJ/mol
# Density = 1.996484 g / cm^3
# Si number density = 20.010381 Si / 1000 Ang^3
#
#
#
# Elastic Constant Matrix: (Units=GPa)
#
#
# Indices 1 2 3 4 5 6 
#
# 1 106.5922 25.1298 19.5894 0.0000 10.3198 0.0000
# 2 25.1298 52.2829 20.4316 0.0000 -8.7481 0.0000
# 3 19.5894 20.4316 81.7825 0.0000 10.6460 0.0000
# 4 0.0000 0.0000 0.0000 27.4217 0.0000 -2.1522
# 5 10.3198 -8.7481 10.6460 0.0000 36.9382 0.0000
# 6 0.0000 0.0000 0.0000 -2.1522 0.0000 17.1681
#
#
#
# Elastic Compliance Matrix: (Units=1/GPa)
#
#
# Indices 1 2 3 4 5 6 
#
# 1 0.011321 -0.005913 -0.000665 0.000000 -0.004371 0.000000
# 2 -0.005913 0.026067 -0.006353 0.000000 0.009656 0.000000
# 3 -0.000665 -0.006353 0.014697 0.000000 -0.005555 0.000000
# 4 0.000000 0.000000 0.000000 0.036830 0.000000 0.004617
# 5 -0.004371 0.009656 -0.005555 0.000000 0.032181 0.000000
# 6 0.000000 0.000000 0.000000 0.004617 0.000000 0.058826
#
#
# Mechanical properties :
#
#
# Convention : Reuss Voigt Hill
#
# Bulk Modulus (GPa) = 38.13493 41.21769 39.67631
# Shear Modulus (GPa) = 23.30712 28.00604 25.65658
#
# Velocity S-wave (km/s) = 3.41655 3.74515 3.58462
# Velocity P-wave (km/s) = 5.88750 6.27251 6.08305
#
# Compressibility (1/GPa) = 0.02622268
#
# Stress axis : x y z
#
# Youngs Moduli (GPa) = 88.33091 38.36241 68.04026
#
# Poissons Ratio (x) = 0.22683 0.04528
# Poissons Ratio (y) = 0.52229 0.43226
# Poissons Ratio (z) = 0.05878 0.24372
#
# Static dielectric constant tensor:
#      x y z
#    x 3.806520 0.000000 0.027250 
#    y 0.000000 3.400740 0.000000 
#    z 0.027250 0.000000 3.661220 
# 
# 
# High freq. dielectric constant tensor:
#      x y z
#    x 1.797520 0.000000 0.006510 
#    y 0.000000 1.746570 0.000000 
#    z 0.006510 0.000000 1.781190 
# 
# From -- ./inp_files/149794.got.cif
#   From: 2010.06.25/outbox.cif.g09.slc.cpg/sg12_75_cif.got.tgz:149794.got - 2010.06.28 00:19:55.
