data_PCOD8098381
_publ_section_title
;
Structure prediction by ZEFSAII (Michael W. Deem and Ramdas Pophale) SiO2 
 PCOD8098381
Probable space group: C 2/M
;
_chemical_formula_sum "Si O2"
_cell_formula_units_Z 48
_cell_length_a 24.483592
_cell_length_b 8.840469
_cell_length_c 11.274136
_cell_angle_alpha 90.000000
_cell_angle_beta 70.208852
_cell_angle_gamma 90.000000
_cell_volume 2296.108737
_symmetry_space_group_name_H-M "C 2/M"
_symmetry_group_IT_number 12
_symmetry_cell_setting 'monoclinic'
loop_
_space_group_symop_operation_xyz
x,y,z
-x,y,-z
-x,-y,-z
x,-y,z
1/2+x,1/2+y,z
1/2-x,1/2+y,-z
1/2-x,1/2-y,-z
1/2+x,1/2-y,z
loop_
_atom_site_type_symbol
_atom_site_label
_atom_site_fract_x
_atom_site_fract_y
_atom_site_fract_z
Si Si1 0.567397 0.678376 0.188363
Si Si2 0.864179 0.822382 0.093855
Si Si3 0.161736 0.174550 0.506085
Si Si4 0.035334 0.331449 0.853947
Si Si5 0.718439 0.825270 0.688634
Si Si6 0.433616 0.177414 0.570044
O O1 0.558725 0.500000 0.193277
O O2 0.504607 0.755233 0.216467
O O3 0.591407 0.735592 0.296257
O O4 0.612736 0.727539 0.052414
O O5 0.908586 0.771672 0.165053
O O6 0.803557 0.736847 0.167118
O O7 0.854721 0.000000 0.107481
O O8 0.212445 0.198637 0.370807
O O9 0.185383 0.228134 0.614335
O O10 0.105322 0.271586 0.512552
O O11 0.143690 0.000000 0.528253
O O12 0.053411 0.500000 0.797882
O O13 0.000000 0.341948 0.000000
O O14 0.701964 0.000000 0.684721
O O15 0.500000 0.225524 0.500000
O O16 0.427492 0.000000 0.595275
#
# Coordination Sequence:
#
# PCOD8098381 Si02
#       6
#     8   8   8   8   8   8
#     4  10  21  37  56  82 117 154 196 242 289 347
#     4  10  20  34  56  86 117 152 194 241 293 345
#     4  10  22  41  63  88 118 154 197 244 292 345
#     4   9  17  30  50  77 112 151 189 234 285 336
#     4  10  21  38  63  91 119 152 194 244 294 346
#     4  11  25  42  61  85 117 157 198 241 292 352
#
# _framework density 20.904934000000001
#
# number of rings (size 3 to 8) (size 9 to 14) (size 15 to 20)
#    0.000    2.000    0.000    3.000    2.333    7.333 
#    0.000    0.833    0.000    0.000    0.000    0.000 
#    0.000    0.000    0.000    0.000    0.000    0.000 
#
# Total GULP energy -297644.111278 kJ/mol
# GULP energy per Si atom -12401.837970 kJ/mol
# Density = 2.085735 g / cm^3
# Si number density = 20.904934 Si / 1000 Ang^3
#
#
#
# Elastic Constant Matrix: (Units=GPa)
#
#
# Indices 1 2 3 4 5 6 
#
# 1 73.9856 28.5268 18.6530 0.0000 -7.7976 0.0000
# 2 28.5268 81.8509 34.7006 0.0000 -14.3080 0.0000
# 3 18.6530 34.7006 67.1993 0.0000 -14.8633 0.0000
# 4 0.0000 0.0000 0.0000 34.2304 0.0000 -0.3795
# 5 -7.7976 -14.3080 -14.8633 0.0000 32.1927 0.0000
# 6 0.0000 0.0000 0.0000 -0.3795 0.0000 33.4926
#
#
#
# Elastic Compliance Matrix: (Units=1/GPa)
#
#
# Indices 1 2 3 4 5 6 
#
# 1 0.015843 -0.004583 -0.001819 0.000000 0.000961 0.000000
# 2 -0.004583 0.017349 -0.006935 0.000000 0.003399 0.000000
# 3 -0.001819 -0.006935 0.020256 0.000000 0.005830 0.000000
# 4 0.000000 0.000000 0.000000 0.029217 0.000000 0.000331
# 5 0.000961 0.003399 0.005830 0.000000 0.035498 0.000000
# 6 0.000000 0.000000 0.000000 0.000331 0.000000 0.029861
#
#
# Mechanical properties :
#
#
# Convention : Reuss Voigt Hill
#
# Bulk Modulus (GPa) = 37.34722 42.97742 40.16232
# Shear Modulus (GPa) = 27.22993 29.39349 28.31171
#
# Velocity S-wave (km/s) = 3.61301 3.75381 3.68408
# Velocity P-wave (km/s) = 5.94216 6.27624 6.11148
#
# Compressibility (1/GPa) = 0.02677575
#
# Stress axis : x y z
#
# Youngs Moduli (GPa) = 63.11991 57.64161 49.36726
#
# Poissons Ratio (x) = 0.26415 0.08978
# Poissons Ratio (y) = 0.28925 0.34235
# Poissons Ratio (z) = 0.11480 0.39973
#
# Static dielectric constant tensor:
#      x y z
#    x 3.666300 0.000000 -0.271900 
#    y 0.000000 3.801570 0.000000 
#    z -0.271900 0.000000 3.890840 
# 
# 
# High freq. dielectric constant tensor:
#      x y z
#    x 1.793910 0.000000 -0.016710 
#    y 0.000000 1.829970 0.000000 
#    z -0.016710 0.000000 1.822670 
# 
# From -- ./inp_files/172933.got.cif
#   From: 2010.06.25/outbox.cif.g09.slc.cpg/sg12_87_cif.got.tgz:172933.got - 2010.06.28 00:19:55.
