data_PCOD8098600
_publ_section_title
;
Structure prediction by ZEFSAII (Michael W. Deem and Ramdas Pophale) SiO2 
 PCOD8098600
Probable space group: C 2/M
;
_chemical_formula_sum "Si O2"
_cell_formula_units_Z 64
_cell_length_a 18.016853
_cell_length_b 14.237743
_cell_length_c 16.245755
_cell_angle_alpha 90.000000
_cell_angle_beta 51.754161
_cell_angle_gamma 90.000000
_cell_volume 3272.877924
_symmetry_space_group_name_H-M "C 2/M"
_symmetry_group_IT_number 12
_symmetry_cell_setting 'monoclinic'
loop_
_space_group_symop_operation_xyz
x,y,z
-x,y,-z
-x,-y,-z
x,-y,z
1/2+x,1/2+y,z
1/2-x,1/2+y,-z
1/2-x,1/2-y,-z
1/2+x,1/2-y,z
loop_
_atom_site_type_symbol
_atom_site_label
_atom_site_fract_x
_atom_site_fract_y
_atom_site_fract_z
Si Si1 0.013565 0.106664 0.395487
Si Si2 0.311598 0.394172 0.830745
Si Si3 0.875349 0.390063 0.711069
Si Si4 0.305893 0.722335 0.123858
Si Si5 0.438400 0.782281 0.365174
Si Si6 0.619636 0.307502 0.753341
Si Si7 0.075444 0.893577 0.081248
Si Si8 0.812924 0.607713 0.572741
O O1 0.946156 0.175254 0.391059
O O2 0.000000 0.129975 0.500000
O O3 0.123076 0.122958 0.294797
O O4 0.983308 0.000000 0.395271
O O5 0.271397 0.500000 0.859640
O O6 0.223788 0.323590 0.891114
O O7 0.375201 0.373277 0.866158
O O8 0.880916 0.500000 0.727405
O O9 0.781993 0.349257 0.817853
O O10 0.871929 0.371394 0.615577
O O11 0.965311 0.339182 0.688108
O O12 0.345256 0.741698 0.187584
O O13 0.387431 0.679043 0.011767
O O14 0.412741 0.775766 0.286200
O O15 0.353174 0.830953 0.471180
O O16 0.535660 0.379055 0.831106
O O17 0.703170 0.369486 0.657820
O O18 0.093234 0.000000 0.038925
O O19 0.824905 0.500000 0.539662
#
# Coordination Sequence:
#
# PCOD8098600 Si02
#       8
#     8   8   8   8   8   8   8   8
#     4  10  20  34  58  88 116 153 198 239 286 342
#     4  10  21  40  64  90 119 151 197 251 295 342
#     4  10  20  36  60  89 120 154 197 250 298 346
#     4  11  22  39  61  90 120 154 195 242 301 359
#     4  12  21  37  58  86 119 161 197 237 292 351
#     4  11  24  38  57  85 125 162 194 244 293 349
#     4  11  22  40  66  90 114 149 198 252 303 350
#     4  10  22  38  58  86 120 160 202 243 296 350
#
# _framework density 19.554653999999999
#
# number of rings (size 3 to 8) (size 9 to 14) (size 15 to 20)
#    0.000    1.375    2.500    3.375    1.750    3.500 
#    0.000    1.250    0.000    2.250    0.000    0.000 
#    0.000    0.000    0.000    0.000    0.000    0.000 
#
# Total GULP energy -396946.321165 kJ/mol
# GULP energy per Si atom -12404.572536 kJ/mol
# Density = 1.951015 g / cm^3
# Si number density = 19.554654 Si / 1000 Ang^3
#
#
#
# Elastic Constant Matrix: (Units=GPa)
#
#
# Indices 1 2 3 4 5 6 
#
# 1 115.8497 61.4646 46.0100 0.0000 -3.5704 0.0000
# 2 61.4646 118.7259 46.7377 0.0000 -3.8584 0.0000
# 3 46.0100 46.7377 107.9097 0.0000 -7.6407 0.0000
# 4 0.0000 0.0000 0.0000 30.4252 0.0000 -0.8957
# 5 -3.5704 -3.8584 -7.6407 0.0000 22.9593 0.0000
# 6 0.0000 0.0000 0.0000 -0.8957 0.0000 24.9028
#
#
#
# Elastic Compliance Matrix: (Units=1/GPa)
#
#
# Indices 1 2 3 4 5 6 
#
# 1 0.012704 -0.005358 -0.003093 0.000000 0.000046 0.000000
# 2 -0.005358 0.012415 -0.003076 0.000000 0.000229 0.000000
# 3 -0.003093 -0.003076 0.012133 0.000000 0.003040 0.000000
# 4 0.000000 0.000000 0.000000 0.032902 0.000000 0.001183
# 5 0.000046 0.000229 0.003040 0.000000 0.044613 0.000000
# 6 0.000000 0.000000 0.000000 0.001183 0.000000 0.040199
#
#
# Mechanical properties :
#
#
# Convention : Reuss Voigt Hill
#
# Bulk Modulus (GPa) = 70.43152 72.32332 71.37742
# Shear Modulus (GPa) = 27.35914 28.20900 27.78407
#
# Velocity S-wave (km/s) = 3.74453 3.80224 3.77349
# Velocity P-wave (km/s) = 7.40211 7.50610 7.45429
#
# Compressibility (1/GPa) = 0.01419819
#
# Stress axis : x y z
#
# Youngs Moduli (GPa) = 78.71301 80.54669 82.41663
#
# Poissons Ratio (x) = 0.43157 0.25491
# Poissons Ratio (y) = 0.42175 0.25355
# Poissons Ratio (z) = 0.24345 0.24780
#
# Static dielectric constant tensor:
#      x y z
#    x 3.549540 0.000000 0.060540 
#    y 0.000000 3.595850 0.000000 
#    z 0.060540 0.000000 3.628060 
# 
# 
# High freq. dielectric constant tensor:
#      x y z
#    x 1.754660 0.000000 0.000830 
#    y 0.000000 1.763270 0.000000 
#    z 0.000830 0.000000 1.765720 
# 
# From -- ./inp_files/225660.got.cif
#   From: 2010.06.25/outbox.cif.g09.slc.cpg/sg12_113_cif.got.tgz:225660.got - 2010.06.28 00:19:55.
