data_PCOD8098037
_publ_section_title
;
Structure prediction by ZEFSAII (Michael W. Deem and Ramdas Pophale) SiO2 
 PCOD8098037
Probable space group: C 2/M
;
_chemical_formula_sum "Si O2"
_cell_formula_units_Z 56
_cell_length_a 20.690089
_cell_length_b 8.967023
_cell_length_c 14.699048
_cell_angle_alpha 90.000000
_cell_angle_beta 86.129548
_cell_angle_gamma 90.000000
_cell_volume 2720.872493
_symmetry_space_group_name_H-M "C 2/M"
_symmetry_group_IT_number 12
_symmetry_cell_setting 'monoclinic'
loop_
_space_group_symop_operation_xyz
x,y,z
-x,y,-z
-x,-y,-z
x,-y,z
1/2+x,1/2+y,z
1/2-x,1/2+y,-z
1/2-x,1/2-y,-z
1/2+x,1/2-y,z
loop_
_atom_site_type_symbol
_atom_site_label
_atom_site_fract_x
_atom_site_fract_y
_atom_site_fract_z
Si Si1 0.346723 0.830488 0.945286
Si Si2 0.742891 0.829538 0.672275
Si Si3 0.270449 0.832959 0.122659
Si Si4 0.881328 0.322652 0.418683
Si Si5 0.003466 0.677190 0.719845
Si Si6 0.622875 0.176534 0.376278
Si Si7 0.024531 0.824797 0.095438
O O1 0.281573 0.792259 0.897429
O O2 0.400498 0.717999 0.904321
O O3 0.367118 0.000000 0.919894
O O4 0.334436 0.809200 0.054622
O O5 0.709847 0.815778 0.774513
O O6 0.689088 0.764139 0.608224
O O7 0.808931 0.738002 0.664523
O O8 0.759841 0.000000 0.646828
O O9 0.242670 0.000000 0.106229
O O10 0.881973 0.500000 0.413045
O O11 0.892105 0.265760 0.520294
O O12 0.939317 0.260994 0.350326
O O13 0.005912 0.500000 0.727413
O O14 0.934824 0.730955 0.684057
O O15 0.013841 0.746394 0.818729
O O16 0.627514 0.000000 0.375531
O O17 0.014906 0.000000 0.105751
O O18 0.000000 0.765432 0.000000
#
# Coordination Sequence:
#
# PCOD8098037 Si02
#       7
#     8   8   8   8   8   8   8
#     4  10  20  35  57  82 108 145 193 235 277 332
#     4  10  20  34  55  82 113 152 189 227 281 336
#     4   9  19  34  54  81 113 147 185 232 283 333
#     4   9  19  36  59  85 116 149 188 236 284 334
#     4  10  21  38  63  87 110 147 195 239 281 337
#     4  10  20  36  58  87 117 148 187 234 285 335
#     4  11  25  41  56  79 115 151 184 231 291 342
#
# _framework density 20.581634000000001
#
# number of rings (size 3 to 8) (size 9 to 14) (size 15 to 20)
#    0.000    2.143    0.000    2.571    2.000    6.857 
#    0.000    1.429    0.000    1.714    0.000    0.000 
#    0.000    0.000    0.000    0.000    0.000    0.000 
#
# Total GULP energy -347207.726130 kJ/mol
# GULP energy per Si atom -12400.275933 kJ/mol
# Density = 2.053479 g / cm^3
# Si number density = 20.581634 Si / 1000 Ang^3
#
#
#
# Elastic Constant Matrix: (Units=GPa)
#
#
# Indices 1 2 3 4 5 6 
#
# 1 78.2988 15.7363 23.3093 0.0000 -4.3280 0.0000
# 2 15.7363 33.4955 26.9035 0.0000 0.5142 0.0000
# 3 23.3093 26.9035 127.7012 0.0000 -4.0228 0.0000
# 4 0.0000 0.0000 0.0000 23.8591 0.0000 1.4166
# 5 -4.3280 0.5142 -4.0228 0.0000 33.7389 0.0000
# 6 0.0000 0.0000 0.0000 1.4166 0.0000 23.4977
#
#
#
# Elastic Compliance Matrix: (Units=1/GPa)
#
#
# Indices 1 2 3 4 5 6 
#
# 1 0.014425 -0.005698 -0.001377 0.000000 0.001773 0.000000
# 2 -0.005698 0.038258 -0.007088 0.000000 -0.002159 0.000000
# 3 -0.001377 -0.007088 0.009609 0.000000 0.001077 0.000000
# 4 0.000000 0.000000 0.000000 0.042063 0.000000 -0.002536
# 5 0.001773 -0.002159 0.001077 0.000000 0.030028 0.000000
# 6 0.000000 0.000000 0.000000 -0.002536 0.000000 0.042710
#
#
# Mechanical properties :
#
#
# Convention : Reuss Voigt Hill
#
# Bulk Modulus (GPa) = 29.44096 41.26593 35.35344
# Shear Modulus (GPa) = 23.06899 27.78890 25.42894
#
# Velocity S-wave (km/s) = 3.35155 3.67847 3.51880
# Velocity P-wave (km/s) = 5.41412 6.17534 5.80722
#
# Compressibility (1/GPa) = 0.03396629
#
# Stress axis : x y z
#
# Youngs Moduli (GPa) = 69.32587 26.13835 104.06662
#
# Poissons Ratio (x) = 0.14894 0.14326
# Poissons Ratio (y) = 0.39504 0.73761
# Poissons Ratio (z) = 0.09543 0.18527
#
# Static dielectric constant tensor:
#      x y z
#    x 3.629420 0.000000 -0.031800 
#    y 0.000000 3.417950 0.000000 
#    z -0.031800 0.000000 4.029950 
# 
# 
# High freq. dielectric constant tensor:
#      x y z
#    x 1.799440 0.000000 -0.006040 
#    y 0.000000 1.775730 0.000000 
#    z -0.006040 0.000000 1.822970 
# 
# From -- ./inp_files/231011.got.cif
#   From: 2010.06.25/outbox.cif.g09.slc.cpg/sg12_116_cif.got.tgz:231011.got - 2010.06.28 00:19:55.
