data_PCOD8098365
_publ_section_title
;
Structure prediction by ZEFSAII (Michael W. Deem and Ramdas Pophale) SiO2 
 PCOD8098365
Probable space group: C 2/M
;
_chemical_formula_sum "Si O2"
_cell_formula_units_Z 64
_cell_length_a 20.955496
_cell_length_b 15.655278
_cell_length_c 9.019297
_cell_angle_alpha 90.000000
_cell_angle_beta 90.600416
_cell_angle_gamma 90.000000
_cell_volume 2958.745229
_symmetry_space_group_name_H-M "C 2/M"
_symmetry_group_IT_number 12
_symmetry_cell_setting 'monoclinic'
loop_
_space_group_symop_operation_xyz
x,y,z
-x,y,-z
-x,-y,-z
x,-y,z
1/2+x,1/2+y,z
1/2-x,1/2+y,-z
1/2-x,1/2-y,-z
1/2+x,1/2-y,z
loop_
_atom_site_type_symbol
_atom_site_label
_atom_site_fract_x
_atom_site_fract_y
_atom_site_fract_z
Si Si1 0.937072 0.652256 0.066642
Si Si2 0.198428 0.900697 0.085435
Si Si3 0.697065 0.599989 0.414056
Si Si4 0.819502 0.601797 0.582660
Si Si5 0.556694 0.399805 0.393253
Si Si6 0.060517 0.399246 0.603092
Si Si7 0.937150 0.840200 0.930811
Si Si8 0.685706 0.097449 0.092029
O O1 0.943305 0.653444 0.244393
O O2 0.932392 0.745461 0.995104
O O3 0.874369 0.600826 0.018620
O O4 0.000000 0.606542 0.000000
O O5 0.203047 0.859532 0.249531
O O6 0.213269 0.000000 0.097256
O O7 0.127393 0.887421 0.018976
O O8 0.252464 0.857748 0.982325
O O9 0.709747 0.500000 0.402574
O O10 0.751890 0.638661 0.520894
O O11 0.625376 0.617135 0.474361
O O12 0.821766 0.500000 0.584960
O O13 0.876967 0.634479 0.481242
O O14 0.828645 0.640295 0.748524
O O15 0.500000 0.370711 0.500000
O O16 0.550762 0.500000 0.349702
O O17 0.553918 0.342430 0.246122
O O18 0.063544 0.500000 0.639369
O O19 0.000000 0.377362 0.500000
O O20 0.000000 0.886111 0.000000
O O21 0.703523 0.000000 0.124026
#
# Coordination Sequence:
#
# PCOD8098365 Si02
#       8
#     8   8   8   8   8   8   8   8
#     4  11  23  38  55  79 115 156 192 228 285 352
#     4   9  18  34  58  83 107 142 188 240 291 336
#     4   8  14  27  48  76 108 138 172 221 281 335
#     4   9  17  30  50  78 108 135 173 229 286 335
#     4   9  18  34  59  86 110 144 192 244 291 333
#     4  10  20  35  58  84 108 142 191 244 291 334
#     4  10  22  38  54  80 116 155 195 232 286 352
#     4  10  20  34  56  86 114 144 189 242 291 340
#
# _framework density 21.630793000000001
#
# number of rings (size 3 to 8) (size 9 to 14) (size 15 to 20)
#    0.000    2.500    0.000    3.000    0.000    6.500 
#    0.000    7.500    0.000    3.750    0.000    0.000 
#    0.000    0.000    0.000    0.000    0.000    0.000 
#
# Total GULP energy -396612.866559 kJ/mol
# GULP energy per Si atom -12394.152080 kJ/mol
# Density = 2.158156 g / cm^3
# Si number density = 21.630793 Si / 1000 Ang^3
#
#
#
# Elastic Constant Matrix: (Units=GPa)
#
#
# Indices 1 2 3 4 5 6 
#
# 1 211.7923 4.5095 95.8661 0.0000 -10.7816 0.0000
# 2 4.5095 28.2788 26.2005 0.0000 -4.1688 0.0000
# 3 95.8661 26.2005 160.5446 0.0000 -10.6746 0.0000
# 4 0.0000 0.0000 0.0000 21.7481 0.0000 -0.0410
# 5 -10.7816 -4.1688 -10.6746 0.0000 48.2989 0.0000
# 6 0.0000 0.0000 0.0000 -0.0410 0.0000 9.2020
#
#
#
# Elastic Compliance Matrix: (Units=1/GPa)
#
#
# Indices 1 2 3 4 5 6 
#
# 1 0.006723 0.003199 -0.004484 0.000000 0.000786 0.000000
# 2 0.003199 0.043399 -0.008826 0.000000 0.002509 0.000000
# 3 -0.004484 -0.008826 0.010382 0.000000 0.000532 0.000000
# 4 0.000000 0.000000 0.000000 0.045981 0.000000 0.000205
# 5 0.000786 0.002509 0.000532 0.000000 0.021214 0.000000
# 6 0.000000 0.000000 0.000000 0.000205 0.000000 0.108673
#
#
# Mechanical properties :
#
#
# Convention : Reuss Voigt Hill
#
# Bulk Modulus (GPa) = 24.82525 72.64089 48.73307
# Shear Modulus (GPa) = 18.51686 34.11909 26.31798
#
# Velocity S-wave (km/s) = 2.92899 3.97588 3.49189
# Velocity P-wave (km/s) = 4.78961 7.39810 6.23187
#
# Compressibility (1/GPa) = 0.04028157
#
# Stress axis : x y z
#
# Youngs Moduli (GPa) = 148.73485 23.04188 96.31742
#
# Poissons Ratio (x) = -0.07370 0.43193
# Poissons Ratio (y) = -0.47574 0.85008
# Poissons Ratio (z) = 0.66700 0.20336
#
# Static dielectric constant tensor:
#      x y z
#    x 4.435590 0.000000 -0.057930 
#    y 0.000000 3.309180 0.000000 
#    z -0.057930 0.000000 4.060950 
# 
# 
# High freq. dielectric constant tensor:
#      x y z
#    x 1.873070 0.000000 -0.002420 
#    y 0.000000 1.802510 0.000000 
#    z -0.002420 0.000000 1.847080 
# 
# From -- ./inp_files/87937.got.cif
#   From: 2010.06.25/outbox.cif.g09.slc.cpg/sg12_44_cif.got.tgz:87937.got - 2010.06.28 00:19:55.
