data_PCOD8098680
_publ_section_title
;
Structure prediction by ZEFSAII (Michael W. Deem and Ramdas Pophale) SiO2 
 PCOD8098680
Probable space group: C 2/M
;
_chemical_formula_sum "Si O2"
_cell_formula_units_Z 40
_cell_length_a 28.024838
_cell_length_b 7.639303
_cell_length_c 11.368605
_cell_angle_alpha 90.000000
_cell_angle_beta 129.714266
_cell_angle_gamma 90.000000
_cell_volume 1872.259992
_symmetry_space_group_name_H-M "C 2/M"
_symmetry_group_IT_number 12
_symmetry_cell_setting 'monoclinic'
loop_
_space_group_symop_operation_xyz
x,y,z
-x,y,-z
-x,-y,-z
x,-y,z
1/2+x,1/2+y,z
1/2-x,1/2+y,-z
1/2-x,1/2-y,-z
1/2+x,1/2-y,z
loop_
_atom_site_type_symbol
_atom_site_label
_atom_site_fract_x
_atom_site_fract_y
_atom_site_fract_z
Si Si1 0.365325 0.197426 0.937912
Si Si2 0.120245 0.293564 0.557257
Si Si3 0.022931 0.000000 0.396922
Si Si4 0.821407 0.295419 0.113679
Si Si5 0.245106 0.298372 0.625719
Si Si6 0.953374 0.000000 0.036854
O O1 0.296768 0.187575 0.774519
O O2 0.392556 0.000000 0.978859
O O3 0.356970 0.275183 0.055864
O O4 0.412389 0.326689 0.947215
O O5 0.102395 0.500000 0.528905
O O6 0.143897 0.218793 0.719108
O O7 0.175338 0.252035 0.553511
O O8 0.060682 0.178517 0.432093
O O9 0.000000 0.000000 0.500000
O O10 0.976529 0.000000 0.210338
O O11 0.827628 0.500000 0.129081
O O12 0.750000 0.250000 0.000000
O O13 0.259351 0.500000 0.674335
O O14 0.250000 0.250000 0.500000
O O15 0.000000 0.000000 0.000000
#
# Coordination Sequence:
#
# PCOD8098680 Si02
#       6
#     8   8   4   8   8   4
#     4  11  24  43  69 101 134 175 225 283 345 408
#     4  10  24  42  66 104 136 172 226 285 343 406
#     4  12  28  48  74  96 136 196 240 280 330 410
#     4  10  20  34  62 101 137 168 204 271 351 410
#     4  11  23  39  66 102 140 173 215 283 354 412
#     4  12  30  50  70  96 138 194 238 282 332 410
#
# _framework density 21.364556
#
# number of rings (size 3 to 8) (size 9 to 14) (size 15 to 20)
#    0.000    1.200    3.000    1.800    8.400    1.600 
#    0.000    0.000    0.000    0.000    0.000    0.000 
#    0.000    0.000    0.000    0.000    0.000    0.000 
#
# Total GULP energy -247875.122439 kJ/mol
# GULP energy per Si atom -12393.756122 kJ/mol
# Density = 2.131593 g / cm^3
# Si number density = 21.364556 Si / 1000 Ang^3
#
#
#
# Elastic Constant Matrix: (Units=GPa)
#
#
# Indices 1 2 3 4 5 6 
#
# 1 133.6524 62.3342 20.2376 0.0000 -8.9256 0.0000
# 2 62.3342 102.1027 26.5091 0.0000 12.5561 0.0000
# 3 20.2376 26.5091 71.6523 0.0000 -5.0989 0.0000
# 4 0.0000 0.0000 0.0000 30.7876 0.0000 4.1959
# 5 -8.9256 12.5561 -5.0989 0.0000 41.3905 0.0000
# 6 0.0000 0.0000 0.0000 4.1959 0.0000 32.6815
#
#
#
# Elastic Compliance Matrix: (Units=1/GPa)
#
#
# Indices 1 2 3 4 5 6 
#
# 1 0.011276 -0.007432 -0.000103 0.000000 0.004674 0.000000
# 2 -0.007432 0.016365 -0.004462 0.000000 -0.007117 0.000000
# 3 -0.000103 -0.004462 0.015870 0.000000 0.003286 0.000000
# 4 0.000000 0.000000 0.000000 0.033059 0.000000 -0.004244
# 5 0.004674 -0.007117 0.003286 0.000000 0.027732 0.000000
# 6 0.000000 0.000000 0.000000 -0.004244 0.000000 0.031143
#
#
# Mechanical properties :
#
#
# Convention : Reuss Voigt Hill
#
# Bulk Modulus (GPa) = 51.23533 58.39656 54.81595
# Shear Modulus (GPa) = 30.13064 34.19369 32.16217
#
# Velocity S-wave (km/s) = 3.75948 4.00495 3.88416
# Velocity P-wave (km/s) = 6.54817 6.98419 6.76969
#
# Compressibility (1/GPa) = 0.01951778
#
# Stress axis : x y z
#
# Youngs Moduli (GPa) = 88.68376 61.10585 63.01253
#
# Poissons Ratio (x) = 0.45415 0.00646
# Poissons Ratio (y) = 0.65911 0.28115
# Poissons Ratio (z) = 0.00910 0.27264
#
# Static dielectric constant tensor:
#      x y z
#    x 4.011570 0.000000 -0.258020 
#    y 0.000000 2.975030 0.000000 
#    z -0.258020 0.000000 4.168340 
# 
# 
# High freq. dielectric constant tensor:
#      x y z
#    x 1.840890 0.000000 -0.010360 
#    y 0.000000 1.848570 0.000000 
#    z -0.010360 0.000000 1.836740 
# 
# From -- ./inp_files/180312.got.cif
#   From: 2010.06.25/outbox.cif.g09.slc.cpg/sg12_91_cif.got.tgz:180312.got - 2010.06.28 00:19:55.
