data_PCOD8098685
_publ_section_title
;
Structure prediction by ZEFSAII (Michael W. Deem and Ramdas Pophale) SiO2 
 PCOD8098685
Probable space group: C 2/M
;
_chemical_formula_sum "Si O2"
_cell_formula_units_Z 56
_cell_length_a 9.744902
_cell_length_b 27.173179
_cell_length_c 12.043479
_cell_angle_alpha 90.000000
_cell_angle_beta 62.292528
_cell_angle_gamma 90.000000
_cell_volume 2823.426826
_symmetry_space_group_name_H-M "C 2/M"
_symmetry_group_IT_number 12
_symmetry_cell_setting 'monoclinic'
loop_
_space_group_symop_operation_xyz
x,y,z
-x,y,-z
-x,-y,-z
x,-y,z
1/2+x,1/2+y,z
1/2-x,1/2+y,-z
1/2-x,1/2-y,-z
1/2+x,1/2-y,z
loop_
_atom_site_type_symbol
_atom_site_label
_atom_site_fract_x
_atom_site_fract_y
_atom_site_fract_z
Si Si1 0.912559 0.344548 0.232459
Si Si2 0.788547 0.396034 0.837926
Si Si3 0.320027 0.000000 0.076150
Si Si4 0.077348 0.843515 0.748327
Si Si5 0.321349 0.500000 0.104912
Si Si6 0.722141 0.396362 0.123471
Si Si7 0.571681 0.748994 0.090530
Si Si8 0.668474 0.699925 0.491347
O O1 0.839711 0.360224 0.142158
O O2 0.773464 0.330115 0.365808
O O3 0.025160 0.387144 0.241640
O O4 0.022329 0.298406 0.170261
O O5 0.702275 0.354789 0.797002
O O6 0.731539 0.449641 0.812280
O O7 0.742653 0.389741 0.984010
O O8 0.255428 0.048970 0.158135
O O9 0.500000 0.000000 0.000000
O O10 0.279064 0.000000 0.964929
O O11 0.160653 0.835826 0.599901
O O12 0.956801 0.888027 0.780351
O O13 0.976181 0.795334 0.811731
O O14 0.500000 0.500000 0.000000
O O15 0.500000 0.740046 0.000000
O O16 0.750000 0.750000 0.000000
O O17 0.500000 0.710968 0.500000
O O18 0.750000 0.750000 0.500000
#
# Coordination Sequence:
#
# PCOD8098685 Si02
#       8
#     8   8   4   8   4   8   8   8
#     4  12  24  41  64  90 133 171 214 271 312 384
#     4  11  23  38  66 100 128 169 211 264 337 384
#     4  10  20  34  62  93 128 170 208 255 323 398
#     4  12  24  41  63  89 130 169 217 265 314 387
#     4  10  20  38  62  97 138 168 212 261 321 406
#     4  11  21  40  62  96 132 164 207 265 328 389
#     4  12  24  35  56  91 125 157 194 252 325 381
#     4  12  28  48  67  88 125 178 235 263 313 380
#
# _framework density 19.834053000000001
#
# number of rings (size 3 to 8) (size 9 to 14) (size 15 to 20)
#    0.000    0.571    2.857    8.571    2.000    0.000 
#    0.000    0.000    0.000    5.143    0.000    0.000 
#    0.000    0.000    0.000    0.000    0.000    0.000 
#
# Total GULP energy -347141.676726 kJ/mol
# GULP energy per Si atom -12397.917026 kJ/mol
# Density = 1.978891 g / cm^3
# Si number density = 19.834053 Si / 1000 Ang^3
#
#
#
# Elastic Constant Matrix: (Units=GPa)
#
#
# Indices 1 2 3 4 5 6 
#
# 1 149.8328 46.2023 48.3315 0.0000 -7.4346 0.0000
# 2 46.2023 107.7668 56.8500 0.0000 -2.3482 0.0000
# 3 48.3315 56.8500 110.7465 0.0000 -7.7723 0.0000
# 4 0.0000 0.0000 0.0000 15.3741 0.0000 -12.2589
# 5 -7.4346 -2.3482 -7.7723 0.0000 28.8975 0.0000
# 6 0.0000 0.0000 0.0000 -12.2589 0.0000 31.8330
#
#
#
# Elastic Compliance Matrix: (Units=1/GPa)
#
#
# Indices 1 2 3 4 5 6 
#
# 1 0.008183 -0.002255 -0.002323 0.000000 0.001297 0.000000
# 2 -0.002255 0.013362 -0.005952 0.000000 -0.001095 0.000000
# 3 -0.002323 -0.005952 0.013273 0.000000 0.002489 0.000000
# 4 0.000000 0.000000 0.000000 0.093869 0.000000 0.036149
# 5 0.001297 -0.001095 0.002489 0.000000 0.035519 0.000000
# 6 0.000000 0.000000 0.000000 0.036149 0.000000 0.045335
#
#
# Mechanical properties :
#
#
# Convention : Reuss Voigt Hill
#
# Bulk Modulus (GPa) = 72.67759 74.56820 73.62289
# Shear Modulus (GPa) = 21.25975 29.68508 25.47241
#
# Velocity S-wave (km/s) = 3.27751 3.87288 3.58757
# Velocity P-wave (km/s) = 7.14459 7.59451 7.37298
#
# Compressibility (1/GPa) = 0.01375940
#
# Stress axis : x y z
#
# Youngs Moduli (GPa) = 122.20512 74.83949 75.33895
#
# Poissons Ratio (x) = 0.16874 0.17499
# Poissons Ratio (y) = 0.27553 0.44842
# Poissons Ratio (z) = 0.28385 0.44545
#
# Static dielectric constant tensor:
#      x y z
#    x 3.806650 0.000000 -0.129480 
#    y 0.000000 4.265770 0.000000 
#    z -0.129480 0.000000 3.616420 
# 
# 
# High freq. dielectric constant tensor:
#      x y z
#    x 1.801100 0.000000 -0.007720 
#    y 0.000000 1.780200 0.000000 
#    z -0.007720 0.000000 1.743080 
# 
# From -- ./inp_files/125666.got.cif
#   From: 2010.06.25/outbox.cif.g09.slc.cpg/sg12_63_cif.got.tgz:125666.got - 2010.06.28 00:19:55.
