data_PCOD8098389
_publ_section_title
;
Structure prediction by ZEFSAII (Michael W. Deem and Ramdas Pophale) SiO2 
 PCOD8098389
Probable space group: C 2/M
;
_chemical_formula_sum "Si O2"
_cell_formula_units_Z 56
_cell_length_a 25.056314
_cell_length_b 9.018184
_cell_length_c 16.936317
_cell_angle_alpha 90.000000
_cell_angle_beta 47.391970
_cell_angle_gamma 90.000000
_cell_volume 2816.659639
_symmetry_space_group_name_H-M "C 2/M"
_symmetry_group_IT_number 12
_symmetry_cell_setting 'monoclinic'
loop_
_space_group_symop_operation_xyz
x,y,z
-x,y,-z
-x,-y,-z
x,-y,z
1/2+x,1/2+y,z
1/2-x,1/2+y,-z
1/2-x,1/2-y,-z
1/2+x,1/2-y,z
loop_
_atom_site_type_symbol
_atom_site_label
_atom_site_fract_x
_atom_site_fract_y
_atom_site_fract_z
Si Si1 0.082571 0.831271 0.911744
Si Si2 0.337473 0.824732 0.306325
Si Si3 0.329647 0.670075 0.017862
Si Si4 0.199361 0.672793 0.390457
Si Si5 0.920967 0.829511 0.779200
Si Si6 0.300842 0.328874 0.776845
Si Si7 0.926773 0.671831 0.367235
O O1 0.123100 0.719197 0.813716
O O2 0.116037 0.815671 0.964025
O O3 0.089214 0.000000 0.873288
O O4 0.000000 0.780244 0.000000
O O5 0.258775 0.748670 0.387290
O O6 0.384469 0.765893 0.333104
O O7 0.326406 0.000000 0.321465
O O8 0.305127 0.500000 0.029102
O O9 0.259059 0.769930 0.102057
O O10 0.371632 0.734040 0.899590
O O11 0.218234 0.500000 0.365947
O O12 0.201366 0.737106 0.300984
O O13 0.120921 0.701318 0.507001
O O14 0.879284 0.808576 0.738258
O O15 0.997010 0.748944 0.696997
O O16 0.937511 0.000000 0.780824
O O17 0.284813 0.500000 0.773638
O O18 0.942292 0.500000 0.339171
#
# Coordination Sequence:
#
# PCOD8098389 Si02
#       7
#     8   8   8   8   8   8   8
#     4  10  20  34  56  86 121 160 197 234 286 354
#     4  11  22  38  60  89 121 152 196 249 301 352
#     4  10  20  37  60  87 120 159 200 238 291 359
#     4  11  23  41  63  87 118 159 204 245 297 362
#     4  10  23  41  62  89 121 159 200 244 298 357
#     4  11  23  39  61  91 122 155 200 251 300 347
#     4  10  24  42  61  88 120 157 200 248 301 356
#
# _framework density 19.881705
#
# number of rings (size 3 to 8) (size 9 to 14) (size 15 to 20)
#    0.000    1.571    1.429    3.000    0.000    6.000 
#    0.000    2.857    0.000    0.000    0.000    0.000 
#    0.000    0.000    0.000    0.000    0.000    0.000 
#
# Total GULP energy -347337.021290 kJ/mol
# GULP energy per Si atom -12404.893617 kJ/mol
# Density = 1.983645 g / cm^3
# Si number density = 19.881705 Si / 1000 Ang^3
#
#
#
# Elastic Constant Matrix: (Units=GPa)
#
#
# Indices 1 2 3 4 5 6 
#
# 1 96.7553 41.9321 41.9856 0.0031 -22.9977 -0.0022
# 2 41.9321 81.8417 41.3070 0.0066 -13.9965 -0.0152
# 3 41.9856 41.3070 94.5875 -0.0005 -14.3295 -0.0037
# 4 0.0031 0.0066 -0.0005 27.5845 0.0043 -7.4951
# 5 -22.9977 -13.9965 -14.3295 0.0043 26.1875 -0.0022
# 6 -0.0022 -0.0152 -0.0037 -7.4951 -0.0022 29.7463
#
#
#
# Elastic Compliance Matrix: (Units=1/GPa)
#
#
# Indices 1 2 3 4 5 6 
#
# 1 0.016348 -0.004863 -0.003655 -0.000003 0.009758 -0.000002
# 2 -0.004863 0.017757 -0.005240 -0.000002 0.002353 0.000008
# 3 -0.003655 -0.005240 0.014799 0.000001 0.002088 -0.000001
# 4 -0.000003 -0.000002 0.000001 0.038917 -0.000008 0.009806
# 5 0.009758 0.002353 0.002088 -0.000008 0.049156 0.000004
# 6 -0.000002 0.000008 -0.000001 0.009806 0.000004 0.036088
#
#
# Mechanical properties :
#
#
# Convention : Reuss Voigt Hill
#
# Bulk Modulus (GPa) = 46.75084 58.18154 52.46619
# Shear Modulus (GPa) = 24.07214 26.56765 25.31989
#
# Velocity S-wave (km/s) = 3.48338 3.65949 3.57252
# Velocity P-wave (km/s) = 6.30430 6.86900 6.59270
#
# Compressibility (1/GPa) = 0.02138999
#
# Stress axis : x y z
#
# Youngs Moduli (GPa) = 61.16958 56.31544 67.57207
#
# Poissons Ratio (x) = 0.27384 0.24696
# Poissons Ratio (y) = 0.29744 0.35406
# Poissons Ratio (z) = 0.22356 0.29508
#
# Static dielectric constant tensor:
#      x y z
#    x 3.716800 -0.000010 -0.030130 
#    y -0.000010 3.618840 0.000010 
#    z -0.030130 0.000010 3.645490 
# 
# 
# High freq. dielectric constant tensor:
#      x y z
#    x 1.787670 0.000000 -0.000770 
#    y 0.000000 1.772260 0.000000 
#    z -0.000770 0.000000 1.781340 
# 
# From -- ./inp_files/292413.got.cif
#   From: 2010.06.25/outbox.cif.g09.slc.cpg/sg12_147_cif.got.tgz:292413.got - 2010.06.28 00:19:55.
