data_PCOD8098919
_publ_section_title
;
Structure prediction by ZEFSAII (Michael W. Deem and Ramdas Pophale) SiO2 
 PCOD8098919
Probable space group: C 2/M
;
_chemical_formula_sum "Si O2"
_cell_formula_units_Z 64
_cell_length_a 21.357528
_cell_length_b 12.898846
_cell_length_c 27.778015
_cell_angle_alpha 90.000000
_cell_angle_beta 154.172462
_cell_angle_gamma 90.000000
_cell_volume 3333.914775
_symmetry_space_group_name_H-M "C 2/M"
_symmetry_group_IT_number 12
_symmetry_cell_setting 'monoclinic'
loop_
_space_group_symop_operation_xyz
x,y,z
-x,y,-z
-x,-y,-z
x,-y,z
1/2+x,1/2+y,z
1/2-x,1/2+y,-z
1/2-x,1/2-y,-z
1/2+x,1/2-y,z
loop_
_atom_site_type_symbol
_atom_site_label
_atom_site_fract_x
_atom_site_fract_y
_atom_site_fract_z
Si Si1 0.663663 0.708854 0.217483
Si Si2 0.309721 0.883248 0.999807
Si Si3 0.979784 0.789709 0.174206
Si Si4 0.093295 0.719959 0.023266
Si Si5 0.790844 0.289302 0.602853
Si Si6 0.833689 0.879881 0.387429
Si Si7 0.878349 0.618063 0.565247
Si Si8 0.789569 0.382072 0.215228
O O1 0.606895 0.660090 0.228848
O O2 0.746399 0.815980 0.286586
O O3 0.767088 0.635924 0.257257
O O4 0.518078 0.721139 0.087220
O O5 0.144944 0.871827 0.902341
O O6 0.316662 0.859234 0.947308
O O7 0.359376 0.000000 0.043617
O O8 0.415617 0.812077 0.103812
O O9 0.051471 0.753237 0.273585
O O10 0.196128 0.805016 0.118338
O O11 0.000000 0.660792 0.000000
O O12 0.723195 0.357239 0.598526
O O13 0.805936 0.361413 0.566757
O O14 0.688950 0.191532 0.521788
O O15 0.000000 0.848089 0.500000
O O16 0.810992 0.000000 0.359153
O O17 0.847162 0.500000 0.528549
O O18 0.046882 0.640385 0.684784
O O19 0.746670 0.500000 0.172981
#
# Coordination Sequence:
#
# PCOD8098919 Si02
#       8
#     8   8   8   8   8   8   8   8
#     4   9  19  34  53  79 108 134 172 218 256 304
#     4  10  20  35  54  77 107 138 172 217 263 307
#     4   9  20  36  53  78 106 137 176 213 257 315
#     4   9  19  34  52  78 107 136 175 214 254 308
#     4  10  20  36  56  76 107 139 172 217 260 311
#     4  10  20  35  57  81 105 137 175 215 261 310
#     4  10  21  35  54  79 104 136 176 216 261 310
#     4  10  20  36  56  77 106 141 176 215 258 305
#
# _framework density 19.196650000000002
#
# number of rings (size 3 to 8) (size 9 to 14) (size 15 to 20)
#    0.000    2.375    0.000    1.875    0.000    8.500 
#    0.000   11.250    0.000   12.000    0.000    0.000 
#    0.000    0.000    0.000    0.000    0.000    0.000 
#
# Total GULP energy -396665.070777 kJ/mol
# GULP energy per Si atom -12395.783462 kJ/mol
# Density = 1.915296 g / cm^3
# Si number density = 19.196650 Si / 1000 Ang^3
#
#
#
# Elastic Constant Matrix: (Units=GPa)
#
#
# Indices 1 2 3 4 5 6 
#
# 1 84.0767 36.1035 23.2218 -0.0007 9.7800 -0.0007
# 2 36.1035 87.5950 42.6040 -0.0077 4.8143 -0.0007
# 3 23.2218 42.6040 87.2629 -0.0118 3.5318 -0.0010
# 4 -0.0007 -0.0077 -0.0118 20.4291 -0.0021 -5.2949
# 5 9.7800 4.8143 3.5318 -0.0021 28.4092 0.0003
# 6 -0.0007 -0.0007 -0.0010 -5.2949 0.0003 25.0157
#
#
#
# Elastic Compliance Matrix: (Units=1/GPa)
#
#
# Indices 1 2 3 4 5 6 
#
# 1 0.015013 -0.005376 -0.001204 -0.000003 -0.004108 0.000000
# 2 -0.005376 0.016973 -0.006849 0.000002 -0.000174 0.000001
# 3 -0.001204 -0.006849 0.015136 0.000007 -0.000307 0.000002
# 4 -0.000003 0.000002 0.000007 0.051791 0.000003 0.010962
# 5 -0.004108 -0.000174 -0.000307 0.000003 0.036682 0.000000
# 6 0.000000 0.000001 0.000002 0.010962 0.000000 0.042295
#
#
# Mechanical properties :
#
#
# Convention : Reuss Voigt Hill
#
# Bulk Modulus (GPa) = 49.34981 51.42146 50.38563
# Shear Modulus (GPa) = 23.64038 25.23781 24.43910
#
# Velocity S-wave (km/s) = 3.51306 3.62981 3.57191
# Velocity P-wave (km/s) = 6.49760 6.66425 6.58145
#
# Compressibility (1/GPa) = 0.02026350
#
# Stress axis : x y z
#
# Youngs Moduli (GPa) = 66.60917 58.91788 66.06691
#
# Poissons Ratio (x) = 0.31677 0.07954
# Poissons Ratio (y) = 0.35812 0.45248
# Poissons Ratio (z) = 0.08020 0.40351
#
# Static dielectric constant tensor:
#      x y z
#    x 4.058990 0.000000 0.062000 
#    y 0.000000 3.246170 -0.000010 
#    z 0.062000 -0.000010 3.495020 
# 
# 
# High freq. dielectric constant tensor:
#      x y z
#    x 1.765370 0.000000 0.008240 
#    y 0.000000 1.722420 0.000000 
#    z 0.008240 0.000000 1.749220 
# 
# From -- ./inp_files/366041.got.cif
#   From: 2010.06.25/outbox.cif.g09.slc.cpg/sg12_184_cif.got.tgz:366041.got - 2010.06.28 00:19:55.
