data_PCOD8098538
_publ_section_title
;
Structure prediction by ZEFSAII (Michael W. Deem and Ramdas Pophale) SiO2 
 PCOD8098538
Probable space group: C 2/M
;
_chemical_formula_sum "Si O2"
_cell_formula_units_Z 36
_cell_length_a 18.567006
_cell_length_b 21.743810
_cell_length_c 5.311320
_cell_angle_alpha 90.000000
_cell_angle_beta 64.542606
_cell_angle_gamma 90.000000
_cell_volume 1936.074788
_symmetry_space_group_name_H-M "C 2/M"
_symmetry_group_IT_number 12
_symmetry_cell_setting 'monoclinic'
loop_
_space_group_symop_operation_xyz
x,y,z
-x,y,-z
-x,-y,-z
x,-y,z
1/2+x,1/2+y,z
1/2-x,1/2+y,-z
1/2-x,1/2-y,-z
1/2+x,1/2-y,z
loop_
_atom_site_type_symbol
_atom_site_label
_atom_site_fract_x
_atom_site_fract_y
_atom_site_fract_z
Si Si1 0.582585 0.772777 0.497771
Si Si2 0.640803 0.334824 0.095347
Si Si3 0.000000 0.187967 0.000000
Si Si4 0.791462 0.625617 0.624748
Si Si5 0.758809 0.929681 0.811160
O O1 0.500000 0.795862 0.500000
O O2 0.634612 0.733292 0.221560
O O3 0.564436 0.730238 0.763033
O O4 0.631597 0.831571 0.513678
O O5 0.554007 0.352951 0.107835
O O6 0.662476 0.386501 0.273395
O O7 0.710573 0.333729 0.778847
O O8 0.787201 0.586125 0.376594
O O9 0.799399 0.581618 0.859826
O O10 0.786870 0.000000 0.760591
#
# Coordination Sequence:
#
# PCOD8098538 Si02
#       5
#     8   8   4   8   8
#     4  10  21  36  56  92 122 149 183 239 296 352
#     4   9  21  35  59  85 123 149 191 232 293 341
#     4  10  20  34  57  88 127 148 184 234 294 354
#     4  10  22  37  64  84 116 153 194 236 291 339
#     4  10  22  39  60  85 114 154 200 240 277 334
#
# _framework density 18.594322999999999
#
# number of rings (size 3 to 8) (size 9 to 14) (size 15 to 20)
#    1.333    0.889    0.000    2.667    6.222    1.778 
#    0.000    0.556    0.000   11.333    0.000    0.000 
#    0.000    0.000    0.000    0.000    0.000    0.000 
#
# Total GULP energy -223047.061701 kJ/mol
# GULP energy per Si atom -12391.503428 kJ/mol
# Density = 1.855200 g / cm^3
# Si number density = 18.594323 Si / 1000 Ang^3
#
#
#
# Elastic Constant Matrix: (Units=GPa)
#
#
# Indices 1 2 3 4 5 6 
#
# 1 102.2498 67.0785 39.9747 0.0000 9.7479 0.0000
# 2 67.0785 88.7496 23.1647 0.0000 2.3892 0.0000
# 3 39.9747 23.1647 84.9875 0.0000 17.2473 0.0000
# 4 0.0000 0.0000 0.0000 11.3695 0.0000 6.8881
# 5 9.7479 2.3892 17.2473 0.0000 33.6880 0.0000
# 6 0.0000 0.0000 0.0000 6.8881 0.0000 16.9299
#
#
#
# Elastic Compliance Matrix: (Units=1/GPa)
#
#
# Indices 1 2 3 4 5 6 
#
# 1 0.022314 -0.015275 -0.005850 0.000000 -0.002379 0.000000
# 2 -0.015275 0.022613 0.000502 0.000000 0.002559 0.000000
# 3 -0.005850 0.000502 0.015673 0.000000 -0.006367 0.000000
# 4 0.000000 0.000000 0.000000 0.116727 0.000000 -0.047492
# 5 -0.002379 0.002559 -0.006367 0.000000 0.033451 0.000000
# 6 0.000000 0.000000 0.000000 -0.047492 0.000000 0.078390
#
#
# Mechanical properties :
#
#
# Convention : Reuss Voigt Hill
#
# Bulk Modulus (GPa) = 51.66592 59.60250 55.63421
# Shear Modulus (GPa) = 14.84278 22.11541 18.47909
#
# Velocity S-wave (km/s) = 2.82838 3.45246 3.15588
# Velocity P-wave (km/s) = 6.20585 6.92938 6.57757
#
# Compressibility (1/GPa) = 0.01935512
#
# Stress axis : x y z
#
# Youngs Moduli (GPa) = 44.81459 44.22320 63.80287
#
# Poissons Ratio (x) = 0.67549 0.37322
# Poissons Ratio (y) = 0.68452 -0.03201
# Poissons Ratio (z) = 0.26215 -0.02219
#
# Static dielectric constant tensor:
#      x y z
#    x 3.388340 0.000000 0.197830 
#    y 0.000000 3.005140 0.000000 
#    z 0.197830 0.000000 3.389170 
# 
# 
# High freq. dielectric constant tensor:
#      x y z
#    x 1.722040 0.000000 0.019190 
#    y 0.000000 1.684080 0.000000 
#    z 0.019190 0.000000 1.722590 
# 
# From -- ./inp_files/15714.got.cif
#   From: 2010.06.25/outbox.cif.g09.slc.cpg/sg12_8_cif.got.tgz:15714.got - 2010.06.28 00:19:55.
