data_PCOD8098191
_publ_section_title
;
Structure prediction by ZEFSAII (Michael W. Deem and Ramdas Pophale) SiO2 
 PCOD8098191
Probable space group: C 2/M
;
_chemical_formula_sum "Si O2"
_cell_formula_units_Z 32
_cell_length_a 8.347240
_cell_length_b 24.204224
_cell_length_c 8.877897
_cell_angle_alpha 90.000000
_cell_angle_beta 64.250637
_cell_angle_gamma 90.000000
_cell_volume 1615.570107
_symmetry_space_group_name_H-M "C 2/M"
_symmetry_group_IT_number 12
_symmetry_cell_setting 'monoclinic'
loop_
_space_group_symop_operation_xyz
x,y,z
-x,y,-z
-x,-y,-z
x,-y,z
1/2+x,1/2+y,z
1/2-x,1/2+y,-z
1/2-x,1/2-y,-z
1/2+x,1/2-y,z
loop_
_atom_site_type_symbol
_atom_site_label
_atom_site_fract_x
_atom_site_fract_y
_atom_site_fract_z
Si Si1 0.035295 0.898595 0.659588
Si Si2 0.320913 0.811452 0.480003
Si Si3 0.356378 0.500000 0.189500
Si Si4 0.478902 0.000000 0.186766
Si Si5 0.852044 0.614997 0.186938
O O1 0.842706 0.884836 0.811842
O O2 0.000000 0.914294 0.500000
O O3 0.165058 0.846465 0.622358
O O4 0.126960 0.947457 0.711478
O O5 0.500000 0.814488 0.500000
O O6 0.250000 0.750000 0.500000
O O7 0.364798 0.834288 0.296392
O O8 0.164087 0.500000 0.195389
O O9 0.500000 0.500000 0.000000
O O10 0.374597 0.056637 0.269326
O O11 0.500000 0.000000 0.000000
O O12 0.000000 0.623211 0.000000
#
# Coordination Sequence:
#
# PCOD8098191 Si02
#       5
#     8   8   4   4   8
#     4  10  22  39  60  87 122 158 194 243 299 353
#     4  11  23  42  62  85 116 155 198 244 295 351
#     4  12  21  34  58  91 123 159 198 240 292 353
#     4  10  20  34  55  87 123 153 189 242 293 343
#     4  10  20  39  62  88 119 154 193 244 293 346
#
# _framework density 19.807248999999999
#
# number of rings (size 3 to 8) (size 9 to 14) (size 15 to 20)
#    0.000    1.500    0.000    7.875    0.000    3.000 
#    0.000   12.500    0.000    0.000    0.000    0.000 
#    0.000    0.000    0.000    0.000    0.000    0.000 
#
# Total GULP energy -198385.920855 kJ/mol
# GULP energy per Si atom -12399.120053 kJ/mol
# Density = 1.976217 g / cm^3
# Si number density = 19.807249 Si / 1000 Ang^3
#
#
#
# Elastic Constant Matrix: (Units=GPa)
#
#
# Indices 1 2 3 4 5 6 
#
# 1 206.6488 83.5334 50.2148 0.0000 -16.6871 0.0000
# 2 83.5334 190.4530 66.6998 0.0000 -3.0570 0.0000
# 3 50.2148 66.6998 82.9724 0.0000 -21.7711 0.0000
# 4 0.0000 0.0000 0.0000 27.0842 0.0000 -6.3917
# 5 -16.6871 -3.0570 -21.7711 0.0000 41.0464 0.0000
# 6 0.0000 0.0000 0.0000 -6.3917 0.0000 39.1070
#
#
#
# Elastic Compliance Matrix: (Units=1/GPa)
#
#
# Indices 1 2 3 4 5 6 
#
# 1 0.006222 -0.002120 -0.001672 0.000000 0.001485 0.000000
# 2 -0.002120 0.008360 -0.006389 0.000000 -0.003628 0.000000
# 3 -0.001672 -0.006389 0.020791 0.000000 0.009872 0.000000
# 4 0.000000 0.000000 0.000000 0.038403 0.000000 0.006277
# 5 0.001485 -0.003628 0.009872 0.000000 0.029932 0.000000
# 6 0.000000 0.000000 0.000000 0.006277 0.000000 0.026597
#
#
# Mechanical properties :
#
#
# Convention : Reuss Voigt Hill
#
# Bulk Modulus (GPa) = 66.62078 97.88560 82.25319
# Shear Modulus (GPa) = 32.11917 40.08929 36.10423
#
# Velocity S-wave (km/s) = 4.03126 4.50374 4.27403
# Velocity P-wave (km/s) = 7.44148 8.75050 8.12240
#
# Compressibility (1/GPa) = 0.01501033
#
# Stress axis : x y z
#
# Youngs Moduli (GPa) = 160.71587 119.62076 48.09840
#
# Poissons Ratio (x) = 0.25355 0.08043
# Poissons Ratio (y) = 0.34066 0.30732
# Poissons Ratio (z) = 0.26874 0.76430
#
# Static dielectric constant tensor:
#      x y z
#    x 3.992060 0.000000 -0.196230 
#    y 0.000000 3.914320 0.000000 
#    z -0.196230 0.000000 3.530370 
# 
# 
# High freq. dielectric constant tensor:
#      x y z
#    x 1.797840 0.000000 -0.014700 
#    y 0.000000 1.775150 0.000000 
#    z -0.014700 0.000000 1.761410 
# 
# From -- ./inp_files/38748.got.cif
#   From: 2010.06.25/outbox.cif.g09.slc.cpg/sg12_20_cif.got.tgz:38748.got - 2010.06.28 00:19:55.
