data_PCOD8098273
_publ_section_title
;
Structure prediction by ZEFSAII (Michael W. Deem and Ramdas Pophale) SiO2 
 PCOD8098273
Probable space group: C 2/M
;
_chemical_formula_sum "Si O2"
_cell_formula_units_Z 64
_cell_length_a 30.119920
_cell_length_b 9.247693
_cell_length_c 24.056654
_cell_angle_alpha 90.000000
_cell_angle_beta 29.466175
_cell_angle_gamma 90.000000
_cell_volume 3296.156207
_symmetry_space_group_name_H-M "C 2/M"
_symmetry_group_IT_number 12
_symmetry_cell_setting 'monoclinic'
loop_
_space_group_symop_operation_xyz
x,y,z
-x,y,-z
-x,-y,-z
x,-y,z
1/2+x,1/2+y,z
1/2-x,1/2+y,-z
1/2-x,1/2-y,-z
1/2+x,1/2-y,z
loop_
_atom_site_type_symbol
_atom_site_label
_atom_site_fract_x
_atom_site_fract_y
_atom_site_fract_z
Si Si1 0.820164 0.834698 0.278277
Si Si2 0.505329 0.829617 0.232707
Si Si3 0.347099 0.833590 0.612807
Si Si4 0.144637 0.668747 0.989970
Si Si5 0.010561 0.342575 0.924434
Si Si6 0.323763 0.829517 0.761572
Si Si7 0.001433 0.329567 0.635011
Si Si8 0.315813 0.831621 0.389033
O O1 0.755062 0.814164 0.296757
O O2 0.921745 0.790865 0.153754
O O3 0.786052 0.723553 0.361437
O O4 0.817795 0.000000 0.302102
O O5 0.593327 0.777210 0.102206
O O6 0.498059 0.761794 0.302932
O O7 0.418611 0.786194 0.290485
O O8 0.510604 0.000000 0.233567
O O9 0.348847 0.765943 0.672949
O O10 0.418940 0.762465 0.491067
O O11 0.375363 0.000000 0.587472
O O12 0.168571 0.500000 0.968060
O O13 0.082304 0.700672 0.004277
O O14 0.236079 0.756848 0.883482
O O15 0.043864 0.500000 0.862172
O O16 0.000000 0.371610 0.000000
O O17 0.405812 0.791278 0.712531
O O18 0.305414 0.000000 0.777706
O O19 0.017775 0.500000 0.621866
O O20 0.250000 0.750000 0.500000
O O21 0.299207 0.000000 0.413414
#
# Coordination Sequence:
#
# PCOD8098273 Si02
#       8
#     8   8   8   8   8   8   8   8
#     4  11  21  33  53  81 111 144 181 221 273 325
#     4   9  18  34  55  77 107 144 181 220 270 334
#     4   9  18  33  53  81 114 141 175 225 281 334
#     4  10  20  36  54  75 108 149 182 218 273 333
#     4  10  20  35  54  76 106 147 189 224 267 329
#     4  10  20  34  56  84 107 135 182 236 276 316
#     4   9  17  32  56  81 104 138 182 226 276 331
#     4  11  21  36  56  80 112 146 185 226 270 328
#
# _framework density 19.416557000000001
#
# number of rings (size 3 to 8) (size 9 to 14) (size 15 to 20)
#    0.000    2.125    1.250    2.625    0.000    4.750 
#    0.000    0.625    0.000    6.000    0.000    0.000 
#    0.000    0.000    0.000    0.000    0.000    0.000 
#
# Total GULP energy -396605.642620 kJ/mol
# GULP energy per Si atom -12393.926332 kJ/mol
# Density = 1.937236 g / cm^3
# Si number density = 19.416557 Si / 1000 Ang^3
#
#
#
# Elastic Constant Matrix: (Units=GPa)
#
#
# Indices 1 2 3 4 5 6 
#
# 1 78.2960 30.1425 18.8031 -0.0052 12.4904 0.0010
# 2 30.1425 50.4521 35.1069 0.0011 -7.5300 -0.0042
# 3 18.8031 35.1069 106.2364 -0.0051 4.9117 -0.0012
# 4 -0.0052 0.0011 -0.0051 30.0813 0.0000 -2.6109
# 5 12.4904 -7.5300 4.9117 0.0000 35.0360 -0.0002
# 6 0.0010 -0.0042 -0.0012 -2.6109 -0.0002 17.0981
#
#
#
# Elastic Compliance Matrix: (Units=1/GPa)
#
#
# Indices 1 2 3 4 5 6 
#
# 1 0.019567 -0.014488 0.001803 0.000004 -0.010342 -0.000004
# 2 -0.014488 0.038167 -0.010736 -0.000005 0.014873 0.000009
# 3 0.001803 -0.010736 0.012861 0.000003 -0.004753 -0.000002
# 4 0.000004 -0.000005 0.000003 0.033690 -0.000003 0.005144
# 5 -0.010342 0.014873 -0.004753 -0.000003 0.036092 0.000004
# 6 -0.000004 0.000009 -0.000002 0.005144 0.000004 0.059271
#
#
# Mechanical properties :
#
#
# Convention : Reuss Voigt Hill
#
# Bulk Modulus (GPa) = 42.10087 44.78771 43.44429
# Shear Modulus (GPa) = 19.65349 26.50523 23.07936
#
# Velocity S-wave (km/s) = 3.18496 3.69871 3.45141
# Velocity P-wave (km/s) = 5.93762 6.43098 6.18922
#
# Compressibility (1/GPa) = 0.02375248
#
# Stress axis : x y z
#
# Youngs Moduli (GPa) = 51.10775 26.20073 77.75151
#
# Poissons Ratio (x) = 0.37959 -0.14016
# Poissons Ratio (y) = 0.74044 0.83474
# Poissons Ratio (z) = -0.09213 0.28129
#
# Static dielectric constant tensor:
#      x y z
#    x 3.647860 0.000000 0.128580 
#    y 0.000000 3.207470 0.000000 
#    z 0.128580 0.000000 3.542450 
# 
# 
# High freq. dielectric constant tensor:
#      x y z
#    x 1.766580 0.000000 0.009460 
#    y 0.000000 1.710270 0.000000 
#    z 0.009460 0.000000 1.765350 
# 
# From -- ./inp_files/353409.got.cif
#   From: 2010.06.25/outbox.cif.g09.slc.cpg/sg12_177_cif.got.tgz:353409.got - 2010.06.28 00:19:55.
