data_PCOD8098615
_publ_section_title
;
Structure prediction by ZEFSAII (Michael W. Deem and Ramdas Pophale) SiO2 
 PCOD8098615
Probable space group: C 2/M
;
_chemical_formula_sum "Si O2"
_cell_formula_units_Z 48
_cell_length_a 11.738472
_cell_length_b 16.496396
_cell_length_c 12.280805
_cell_angle_alpha 90.000000
_cell_angle_beta 102.300134
_cell_angle_gamma 90.000000
_cell_volume 2323.496795
_symmetry_space_group_name_H-M "C 2/M"
_symmetry_group_IT_number 12
_symmetry_cell_setting 'monoclinic'
loop_
_space_group_symop_operation_xyz
x,y,z
-x,y,-z
-x,-y,-z
x,-y,z
1/2+x,1/2+y,z
1/2-x,1/2+y,-z
1/2-x,1/2-y,-z
1/2+x,1/2-y,z
loop_
_atom_site_type_symbol
_atom_site_label
_atom_site_fract_x
_atom_site_fract_y
_atom_site_fract_z
Si Si1 0.308603 0.903740 0.164723
Si Si2 0.694327 0.329717 0.352703
Si Si3 0.760467 0.643122 0.600882
Si Si4 0.739078 0.404160 0.916074
Si Si5 0.446296 0.594603 0.292920
Si Si6 0.565790 0.908613 0.199883
O O1 0.245899 0.865993 0.254246
O O2 0.439324 0.866659 0.182949
O O3 0.308028 0.000000 0.178803
O O4 0.239024 0.876562 0.041575
O O5 0.757978 0.368667 0.470535
O O6 0.716805 0.234789 0.358027
O O7 0.557283 0.348146 0.329191
O O8 0.638524 0.610071 0.622556
O O9 0.868320 0.591884 0.670315
O O10 0.752150 0.500000 0.908151
O O11 0.619134 0.378752 0.832337
O O12 0.850910 0.366331 0.874164
O O13 0.483255 0.500000 0.297232
O O14 0.540193 0.000000 0.158569
#
# Coordination Sequence:
#
# PCOD8098615 Si02
#       6
#     8   8   8   8   8   8
#     4  10  20  34  58  90 119 147 185 237 291 344
#     4  11  24  37  56  84 118 152 189 243 299 341
#     4  10  23  40  57  79 114 157 195 237 292 346
#     4   8  16  34  60  87 114 149 190 232 283 341
#     4  10  21  40  65  86 111 155 204 240 280 351
#     4   9  18  35  60  84 111 150 193 232 276 345
#
# _framework density 20.658517
#
# number of rings (size 3 to 8) (size 9 to 14) (size 15 to 20)
#    0.000    2.333    0.000    3.000    2.333    6.667 
#    0.000    7.500    7.333    0.000    0.000    0.000 
#    0.000    0.000    0.000    0.000    0.000    0.000 
#
# Total GULP energy -297517.408004 kJ/mol
# GULP energy per Si atom -12396.558667 kJ/mol
# Density = 2.061150 g / cm^3
# Si number density = 20.658517 Si / 1000 Ang^3
#
#
#
# Elastic Constant Matrix: (Units=GPa)
#
#
# Indices 1 2 3 4 5 6 
#
# 1 42.4728 11.9667 21.4942 0.0000 8.3893 0.0000
# 2 11.9667 32.0044 18.9157 0.0000 1.2003 0.0000
# 3 21.4942 18.9157 130.2997 0.0000 -11.0417 0.0000
# 4 0.0000 0.0000 0.0000 41.8689 0.0000 3.4569
# 5 8.3893 1.2003 -11.0417 0.0000 27.0763 0.0000
# 6 0.0000 0.0000 0.0000 3.4569 0.0000 18.5187
#
#
#
# Elastic Compliance Matrix: (Units=1/GPa)
#
#
# Indices 1 2 3 4 5 6 
#
# 1 0.030429 -0.008145 -0.004770 0.000000 -0.011012 0.000000
# 2 -0.008145 0.036713 -0.004050 0.000000 -0.000756 0.000000
# 3 -0.004770 -0.004050 0.009519 0.000000 0.005539 0.000000
# 4 0.000000 0.000000 0.000000 0.024258 0.000000 -0.004528
# 5 -0.011012 -0.000756 0.005539 0.000000 0.042637 0.000000
# 6 0.000000 0.000000 0.000000 -0.004528 0.000000 0.054845
#
#
# Mechanical properties :
#
#
# Convention : Reuss Voigt Hill
#
# Bulk Modulus (GPa) = 23.40281 34.39223 28.89752
# Shear Modulus (GPa) = 20.27782 27.65280 23.96531
#
# Velocity S-wave (km/s) = 3.13640 3.66261 3.40967
# Velocity P-wave (km/s) = 4.94662 5.87966 5.43321
#
# Compressibility (1/GPa) = 0.04272991
#
# Stress axis : x y z
#
# Youngs Moduli (GPa) = 32.86385 27.23809 105.05432
#
# Poissons Ratio (x) = 0.22186 0.50114
# Poissons Ratio (y) = 0.26768 0.42548
# Poissons Ratio (z) = 0.15677 0.11032
#
# Static dielectric constant tensor:
#      x y z
#    x 3.750260 0.000000 0.123920 
#    y 0.000000 3.529370 0.000000 
#    z 0.123920 0.000000 4.018810 
# 
# 
# High freq. dielectric constant tensor:
#      x y z
#    x 1.805690 0.000000 0.008630 
#    y 0.000000 1.779840 0.000000 
#    z 0.008630 0.000000 1.822090 
# 
# From -- ./inp_files/131206.got.cif
#   From: 2010.06.25/outbox.cif.g09.slc.cpg/sg12_66_cif.got.tgz:131206.got - 2010.06.28 00:19:55.
