data_PCOD8098079
_publ_section_title
;
Structure prediction by ZEFSAII (Michael W. Deem and Ramdas Pophale) SiO2 
 PCOD8098079
Probable space group: C 2/M
;
_chemical_formula_sum "Si O2"
_cell_formula_units_Z 64
_cell_length_a 15.491764
_cell_length_b 9.117185
_cell_length_c 30.761561
_cell_angle_alpha 90.000000
_cell_angle_beta 129.083056
_cell_angle_gamma 90.000000
_cell_volume 3372.578334
_symmetry_space_group_name_H-M "C 2/M"
_symmetry_group_IT_number 12
_symmetry_cell_setting 'monoclinic'
loop_
_space_group_symop_operation_xyz
x,y,z
-x,y,-z
-x,-y,-z
x,-y,z
1/2+x,1/2+y,z
1/2-x,1/2+y,-z
1/2-x,1/2-y,-z
1/2+x,1/2-y,z
loop_
_atom_site_type_symbol
_atom_site_label
_atom_site_fract_x
_atom_site_fract_y
_atom_site_fract_z
Si Si1 0.474267 0.666064 0.942576
Si Si2 0.676511 0.826220 0.241312
Si Si3 0.916586 0.829775 0.553501
Si Si4 0.673127 0.672318 0.631298
Si Si5 0.254369 0.332688 0.822976
Si Si6 0.070973 0.673843 0.828213
Si Si7 0.269793 0.171562 0.438361
Si Si8 0.851425 0.672391 0.055159
O O1 0.517020 0.500000 0.947197
O O2 0.344265 0.679306 0.890304
O O3 0.534806 0.783456 0.931834
O O4 0.500000 0.709840 0.000000
O O5 0.759012 0.773444 0.305273
O O6 0.718967 0.768161 0.209033
O O7 0.553882 0.761308 0.212578
O O8 0.673911 0.000000 0.237287
O O9 0.849509 0.795715 0.576751
O O10 0.868894 0.734542 0.499091
O O11 0.045037 0.785498 0.599643
O O12 0.903275 0.000000 0.536597
O O13 0.686547 0.500000 0.627529
O O14 0.726465 0.753071 0.607146
O O15 0.245567 0.500000 0.803851
O O16 0.137897 0.276791 0.806530
O O17 0.063795 0.500000 0.827947
O O18 0.137705 0.728197 0.891884
O O19 0.289880 0.000000 0.438855
O O20 0.833186 0.500000 0.046355
O O21 0.750000 0.750000 0.000000
#
# Coordination Sequence:
#
# PCOD8098079 Si02
#       8
#     8   8   8   8   8   8   8   8
#     4  10  20  35  55  80 112 144 179 224 279 339
#     4  10  21  39  58  79 109 146 189 231 274 327
#     4   9  19  36  55  79 114 151 184 223 281 336
#     4  10  21  36  56  79 109 150 188 226 277 335
#     4  10  20  36  58  80 106 142 182 223 276 331
#     4   9  19  37  58  78 107 145 178 220 278 332
#     4  10  20  34  55  83 114 146 185 233 276 323
#     4  11  21  35  56  81 112 144 180 225 277 335
#
# _framework density 18.976580999999999
#
# number of rings (size 3 to 8) (size 9 to 14) (size 15 to 20)
#    0.000    2.125    1.250    1.875    0.000    6.250 
#    0.000    3.125    0.000    0.000    0.000    0.000 
#    0.000    0.000    0.000    0.000    0.000    0.000 
#
# Total GULP energy -396813.392692 kJ/mol
# GULP energy per Si atom -12400.418522 kJ/mol
# Density = 1.893339 g / cm^3
# Si number density = 18.976581 Si / 1000 Ang^3
#
#
#
# Elastic Constant Matrix: (Units=GPa)
#
#
# Indices 1 2 3 4 5 6 
#
# 1 138.0605 31.6792 73.5910 0.0000 -2.1139 0.0000
# 2 31.6792 42.4423 36.7964 0.0000 -2.2944 0.0000
# 3 73.5910 36.7964 132.0077 0.0000 -5.0361 0.0000
# 4 0.0000 0.0000 0.0000 24.9723 0.0000 -4.7351
# 5 -2.1139 -2.2944 -5.0361 0.0000 28.0579 0.0000
# 6 0.0000 0.0000 0.0000 -4.7351 0.0000 33.3651
#
#
#
# Elastic Compliance Matrix: (Units=1/GPa)
#
#
# Indices 1 2 3 4 5 6 
#
# 1 0.010738 -0.003736 -0.004960 0.000000 -0.000387 0.000000
# 2 -0.003736 0.032397 -0.006905 0.000000 0.001128 0.000000
# 3 -0.004960 -0.006905 0.012313 0.000000 0.001272 0.000000
# 4 0.000000 0.000000 0.000000 0.041152 0.000000 0.005840
# 5 -0.000387 0.001128 0.001272 0.000000 0.035932 0.000000
# 6 0.000000 0.000000 0.000000 0.005840 0.000000 0.030800
#
#
# Mechanical properties :
#
#
# Convention : Reuss Voigt Hill
#
# Bulk Modulus (GPa) = 41.24062 66.29375 53.76718
# Shear Modulus (GPa) = 24.67717 28.64198 26.65957
#
# Velocity S-wave (km/s) = 3.61002 3.88923 3.75222
# Velocity P-wave (km/s) = 6.25747 7.42822 6.86784
#
# Compressibility (1/GPa) = 0.02424794
#
# Stress axis : x y z
#
# Youngs Moduli (GPa) = 93.12541 30.86683 81.21260
#
# Poissons Ratio (x) = 0.11532 0.40278
# Poissons Ratio (y) = 0.34792 0.56075
# Poissons Ratio (z) = 0.46187 0.21313
#
# Static dielectric constant tensor:
#      x y z
#    x 3.875250 0.000000 0.330910 
#    y 0.000000 3.427380 0.000000 
#    z 0.330910 0.000000 3.782390 
# 
# 
# High freq. dielectric constant tensor:
#      x y z
#    x 1.749610 0.000000 0.002820 
#    y 0.000000 1.720590 0.000000 
#    z 0.002820 0.000000 1.737210 
# 
# From -- ./inp_files/375642.got.cif
#   From: 2010.06.25/outbox.cif.g09.slc.cpg/sg12_188_cif.got.tgz:375642.got - 2010.06.28 00:19:55.
