data_PCOD8098859
_publ_section_title
;
Structure prediction by ZEFSAII (Michael W. Deem and Ramdas Pophale) SiO2 
 PCOD8098859
Probable space group: C 2/M
;
_chemical_formula_sum "Si O2"
_cell_formula_units_Z 56
_cell_length_a 19.892170
_cell_length_b 8.941133
_cell_length_c 30.683500
_cell_angle_alpha 90.000000
_cell_angle_beta 144.014928
_cell_angle_gamma 90.000000
_cell_volume 3206.583224
_symmetry_space_group_name_H-M "C 2/M"
_symmetry_group_IT_number 12
_symmetry_cell_setting 'monoclinic'
loop_
_space_group_symop_operation_xyz
x,y,z
-x,y,-z
-x,-y,-z
x,-y,z
1/2+x,1/2+y,z
1/2-x,1/2+y,-z
1/2-x,1/2-y,-z
1/2+x,1/2-y,z
loop_
_atom_site_type_symbol
_atom_site_label
_atom_site_fract_x
_atom_site_fract_y
_atom_site_fract_z
Si Si1 0.220593 0.178151 0.214234
Si Si2 0.370114 0.323592 0.052954
Si Si3 0.376202 0.676845 0.660312
Si Si4 0.920968 0.824977 0.778892
Si Si5 0.521361 0.823994 0.660444
Si Si6 0.977787 0.325930 0.937881
Si Si7 0.179582 0.672958 0.499929
O O1 0.173800 0.233571 0.236624
O O2 0.350112 0.235383 0.277514
O O3 0.145601 0.255059 0.137373
O O4 0.208675 0.000000 0.203303
O O5 0.356038 0.500000 0.039068
O O6 0.453062 0.286140 0.137141
O O7 0.421829 0.255738 0.035995
O O8 0.250000 0.250000 0.000000
O O9 0.397539 0.500000 0.671122
O O10 0.401841 0.748114 0.721255
O O11 0.463161 0.746649 0.671250
O O12 0.241580 0.715566 0.578264
O O13 0.904313 0.000000 0.764983
O O14 0.453923 0.785852 0.579178
O O15 0.521377 0.000000 0.669321
O O16 0.978053 0.500000 0.925676
O O17 0.000000 0.298926 0.000000
O O18 0.196428 0.500000 0.500890
O O19 0.250000 0.750000 0.500000
#
# Coordination Sequence:
#
# PCOD8098859 Si02
#       7
#     8   8   8   8   8   8   8
#     4   9  18  33  50  67  93 127 156 188 235 286
#     4  10  20  35  54  74  99 129 160 197 241 288
#     4   9  16  28  47  68  90 120 157 191 228 275
#     4   8  16  31  48  66  91 122 153 188 230 274
#     4   9  17  29  45  68  95 120 152 193 233 272
#     4  10  21  36  53  73  97 125 160 202 243 284
#     4   8  14  25  42  64  90 119 150 187 229 272
#
# _framework density 17.464072000000002
#
# number of rings (size 3 to 8) (size 9 to 14) (size 15 to 20)
#    0.000    3.000    0.000    1.714    0.000    2.857 
#    0.000    8.571    0.000    4.286    0.000    0.000 
#    0.000   16.000    0.000    0.000    0.000    0.000 
#
# Total GULP energy -346895.648649 kJ/mol
# GULP energy per Si atom -12389.130309 kJ/mol
# Density = 1.742432 g / cm^3
# Si number density = 17.464072 Si / 1000 Ang^3
#
#
#
# Elastic Constant Matrix: (Units=GPa)
#
#
# Indices 1 2 3 4 5 6 
#
# 1 98.1026 38.1804 95.4411 0.0000 3.3855 -0.0001
# 2 38.1804 46.6674 50.4393 0.0000 1.3804 -0.0003
# 3 95.4411 50.4393 166.7801 0.0000 5.7150 0.0000
# 4 0.0000 0.0000 0.0000 22.2764 0.0000 1.6827
# 5 3.3855 1.3804 5.7150 0.0000 32.9110 0.0000
# 6 -0.0001 -0.0003 0.0000 1.6827 0.0000 23.8309
#
#
#
# Elastic Compliance Matrix: (Units=1/GPa)
#
#
# Indices 1 2 3 4 5 6 
#
# 1 0.024557 -0.007285 -0.011844 0.000000 -0.000164 0.000000
# 2 -0.007285 0.033999 -0.006127 0.000000 0.000387 0.000000
# 3 -0.011844 -0.006127 0.014663 0.000000 -0.001071 0.000000
# 4 0.000000 0.000000 0.000000 0.045131 0.000000 -0.003187
# 5 -0.000164 0.000387 -0.001071 0.000000 0.030572 0.000000
# 6 0.000000 0.000000 0.000000 -0.003187 0.000000 0.042187
#
#
# Mechanical properties :
#
#
# Convention : Reuss Voigt Hill
#
# Bulk Modulus (GPa) = 44.03770 75.51906 59.77838
# Shear Modulus (GPa) = 20.06500 24.30294 22.18397
#
# Velocity S-wave (km/s) = 3.39326 3.73446 3.56794
# Velocity P-wave (km/s) = 6.37364 7.86964 7.16081
#
# Compressibility (1/GPa) = 0.02270781
#
# Stress axis : x y z
#
# Youngs Moduli (GPa) = 40.72139 29.41292 68.19670
#
# Poissons Ratio (x) = 0.21427 0.80774
# Poissons Ratio (y) = 0.29665 0.41782
# Poissons Ratio (z) = 0.48231 0.18020
#
# Static dielectric constant tensor:
#      x y z
#    x 3.191540 0.000000 -0.042910 
#    y 0.000000 3.749960 0.000000 
#    z -0.042910 0.000000 3.894470 
# 
# 
# High freq. dielectric constant tensor:
#      x y z
#    x 1.652920 0.000000 -0.000730 
#    y 0.000000 1.662580 0.000000 
#    z -0.000730 0.000000 1.693880 
# 
# From -- ./inp_files/345468.got.cif
#   From: 2010.06.25/outbox.cif.g09.slc.cpg/sg12_173_cif.got.tgz:345468.got - 2010.06.28 00:19:55.
