data_PCOD8098900
_publ_section_title
;
Structure prediction by ZEFSAII (Michael W. Deem and Ramdas Pophale) SiO2 
 PCOD8098900
Probable space group: C 2/M
;
_chemical_formula_sum "Si O2"
_cell_formula_units_Z 64
_cell_length_a 22.874046
_cell_length_b 8.882132
_cell_length_c 20.890623
_cell_angle_alpha 90.000000
_cell_angle_beta 52.870498
_cell_angle_gamma 90.000000
_cell_volume 3383.909856
_symmetry_space_group_name_H-M "C 2/M"
_symmetry_group_IT_number 12
_symmetry_cell_setting 'monoclinic'
loop_
_space_group_symop_operation_xyz
x,y,z
-x,y,-z
-x,-y,-z
x,-y,z
1/2+x,1/2+y,z
1/2-x,1/2+y,-z
1/2-x,1/2-y,-z
1/2+x,1/2-y,z
loop_
_atom_site_type_symbol
_atom_site_label
_atom_site_fract_x
_atom_site_fract_y
_atom_site_fract_z
Si Si1 0.486905 0.673549 0.181066
Si Si2 0.205299 0.176280 0.268204
Si Si3 0.765875 0.174836 0.894860
Si Si4 0.545564 0.678430 0.409370
Si Si5 0.674599 0.320713 0.728409
Si Si6 0.191862 0.322419 0.584209
Si Si7 0.042926 0.174357 0.655658
Si Si8 0.141829 0.821267 0.045183
O O1 0.484941 0.500000 0.164662
O O2 0.409268 0.741473 0.207768
O O3 0.498317 0.695277 0.249695
O O4 0.558348 0.744583 0.099006
O O5 0.198739 0.210627 0.197151
O O6 0.130450 0.232847 0.352436
O O7 0.275109 0.269379 0.246360
O O8 0.218364 0.000000 0.272441
O O9 0.821635 0.233135 0.912292
O O10 0.749922 0.000000 0.913568
O O11 0.687393 0.257489 0.955094
O O12 0.500000 0.745852 0.500000
O O13 0.545100 0.500000 0.413606
O O14 0.508763 0.730626 0.367496
O O15 0.674977 0.500000 0.720846
O O16 0.707327 0.247717 0.643194
O O17 0.201722 0.500000 0.581412
O O18 0.250000 0.250000 0.500000
O O19 0.113046 0.280781 0.608225
O O20 0.066738 0.000000 0.630806
O O21 0.140540 0.000000 0.042276
#
# Coordination Sequence:
#
# PCOD8098900 Si02
#       8
#     8   8   8   8   8   8   8   8
#     4   8  15  30  52  75  99 132 174 218 263 308
#     4  10  20  35  54  76 109 147 178 214 267 328
#     4   9  18  31  49  78 109 137 170 215 270 320
#     4   9  18  31  51  79 104 134 176 215 256 315
#     4  10  21  37  55  78 105 139 180 222 267 317
#     4  11  22  36  55  78 104 136 176 221 268 314
#     4   9  17  32  53  77 105 134 171 218 263 313
#     4   9  16  30  54  78 102 135 178 223 262 313
#
# _framework density 18.913032999999999
#
# number of rings (size 3 to 8) (size 9 to 14) (size 15 to 20)
#    0.000    2.625    0.000    3.000    1.750    3.500 
#    0.000    4.375    0.000    7.500    0.000    0.000 
#    0.000    0.000    0.000    0.000    0.000    0.000 
#
# Total GULP energy -396655.820653 kJ/mol
# GULP energy per Si atom -12395.494395 kJ/mol
# Density = 1.886999 g / cm^3
# Si number density = 18.913033 Si / 1000 Ang^3
#
#
#
# Elastic Constant Matrix: (Units=GPa)
#
#
# Indices 1 2 3 4 5 6 
#
# 1 87.0778 20.2416 33.7181 0.0000 -5.5180 0.0003
# 2 20.2416 53.0561 24.5306 -0.0009 -4.7270 -0.0028
# 3 33.7181 24.5306 110.6848 0.0004 -24.0020 0.0008
# 4 0.0000 -0.0009 0.0004 24.2584 0.0002 0.0340
# 5 -5.5180 -4.7270 -24.0020 0.0002 24.9114 0.0004
# 6 0.0003 -0.0028 0.0008 0.0340 0.0004 26.1509
#
#
#
# Elastic Compliance Matrix: (Units=1/GPa)
#
#
# Indices 1 2 3 4 5 6 
#
# 1 0.013653 -0.003647 -0.003596 0.000000 -0.001133 0.000000
# 2 -0.003647 0.021982 -0.003832 0.000001 -0.000329 0.000003
# 3 -0.003596 -0.003832 0.013462 0.000000 0.011447 -0.000001
# 4 0.000000 0.000001 0.000000 0.041223 -0.000001 -0.000054
# 5 -0.001133 -0.000329 0.011447 -0.000001 0.050858 -0.000001
# 6 0.000000 0.000003 -0.000001 -0.000054 -0.000001 0.038240
#
#
# Mechanical properties :
#
#
# Convention : Reuss Voigt Hill
#
# Bulk Modulus (GPa) = 37.11221 45.31102 41.21162
# Shear Modulus (GPa) = 23.74748 26.55269 25.15009
#
# Velocity S-wave (km/s) = 3.54731 3.75098 3.65056
# Velocity P-wave (km/s) = 6.03681 6.53983 6.29335
#
# Compressibility (1/GPa) = 0.02694531
#
# Stress axis : x y z
#
# Youngs Moduli (GPa) = 73.24663 45.49227 74.28453
#
# Poissons Ratio (x) = 0.16590 0.26716
# Poissons Ratio (y) = 0.26711 0.28467
# Poissons Ratio (z) = 0.26343 0.17433
#
# Static dielectric constant tensor:
#      x y z
#    x 3.419750 0.000000 -0.121770 
#    y 0.000000 3.090300 0.000000 
#    z -0.121770 0.000000 3.592570 
# 
# 
# High freq. dielectric constant tensor:
#      x y z
#    x 1.732710 0.000000 -0.013080 
#    y 0.000000 1.700710 0.000000 
#    z -0.013080 0.000000 1.738550 
# 
# From -- ./inp_files/319934.got.cif
#   From: 2010.06.25/outbox.cif.g09.slc.cpg/sg12_160_cif.got.tgz:319934.got - 2010.06.28 00:19:55.
