data_PCOD8098183
_publ_section_title
;
Structure prediction by ZEFSAII (Michael W. Deem and Ramdas Pophale) SiO2 
 PCOD8098183
Probable space group: C 2/M
;
_chemical_formula_sum "Si O2"
_cell_formula_units_Z 48
_cell_length_a 8.795847
_cell_length_b 21.758274
_cell_length_c 24.574124
_cell_angle_alpha 90.000000
_cell_angle_beta 151.027110
_cell_angle_gamma 90.000000
_cell_volume 2278.140271
_symmetry_space_group_name_H-M "C 2/M"
_symmetry_group_IT_number 12
_symmetry_cell_setting 'monoclinic'
loop_
_space_group_symop_operation_xyz
x,y,z
-x,y,-z
-x,-y,-z
x,-y,z
1/2+x,1/2+y,z
1/2-x,1/2+y,-z
1/2-x,1/2-y,-z
1/2+x,1/2-y,z
loop_
_atom_site_type_symbol
_atom_site_label
_atom_site_fract_x
_atom_site_fract_y
_atom_site_fract_z
Si Si1 0.084687 0.430503 0.761754
Si Si2 0.744790 0.805284 0.621717
Si Si3 0.561118 0.181989 0.687256
Si Si4 0.329508 0.931069 0.001283
Si Si5 0.411181 0.137686 0.814650
Si Si6 0.176550 0.236534 0.916093
O O1 0.967216 0.500000 0.713394
O O2 0.946014 0.385354 0.671143
O O3 0.947436 0.409585 0.776865
O O4 0.458023 0.428540 0.878768
O O5 0.500000 0.827921 0.500000
O O6 0.577119 0.812589 0.627397
O O7 0.830398 0.733805 0.639103
O O8 0.046927 0.848821 0.712783
O O9 0.903662 0.187603 0.821980
O O10 0.430757 0.887709 0.081870
O O11 0.440680 0.000000 0.050121
O O12 0.500000 0.908492 0.000000
O O13 0.586596 0.201595 0.854438
O O14 0.500000 0.205442 0.000000
O O15 0.250000 0.250000 0.000000
#
# Coordination Sequence:
#
# PCOD8098183 Si02
#       6
#     8   8   8   8   8   8
#     4  11  23  39  61  90 127 169 207 247 302 376
#     4  11  24  42  67  92 118 157 206 267 324 371
#     4  11  22  39  62  91 123 158 203 252 313 378
#     4  10  20  34  55  86 125 167 205 242 293 366
#     4  11  21  36  58  87 121 162 208 252 308 368
#     4  11  20  31  52  85 122 152 185 238 300 365
#
# _framework density 21.069818000000001
#
# number of rings (size 3 to 8) (size 9 to 14) (size 15 to 20)
#    0.000    1.167    0.000    9.500    0.000    2.667 
#    0.000    0.833    0.000    8.000    0.000    0.000 
#    0.000    0.000    0.000    0.000    0.000    0.000 
#
# Total GULP energy -297573.542685 kJ/mol
# GULP energy per Si atom -12398.897612 kJ/mol
# Density = 2.102186 g / cm^3
# Si number density = 21.069818 Si / 1000 Ang^3
#
#
#
# Elastic Constant Matrix: (Units=GPa)
#
#
# Indices 1 2 3 4 5 6 
#
# 1 117.1231 42.6902 0.9514 0.0099 -26.4916 -0.0052
# 2 42.6902 130.1868 1.2584 0.5965 -10.2689 -0.3119
# 3 0.9514 1.2584 41.1925 0.1537 -17.1172 -0.0830
# 4 0.0099 0.5965 0.1537 1082.8155 -0.1442 -558.1319
# 5 -26.4916 -10.2689 -17.1172 -0.1442 32.9889 0.0740
# 6 -0.0052 -0.3119 -0.0830 -558.1319 0.0740 314.9447
#
#
#
# Elastic Compliance Matrix: (Units=1/GPa)
#
#
# Indices 1 2 3 4 5 6 
#
# 1 0.012157 -0.003156 0.004416 0.000003 0.011072 0.000000
# 2 -0.003156 0.008726 -0.000150 -0.000004 0.000104 0.000001
# 3 0.004416 -0.000150 0.032679 0.000001 0.020456 0.000005
# 4 0.000003 -0.000004 0.000001 0.010670 0.000005 0.018910
# 5 0.011072 0.000104 0.020456 0.000005 0.049851 0.000003
# 6 0.000000 0.000001 0.000005 0.018910 0.000003 0.036686
#
#
# Mechanical properties :
#
#
# Convention : Reuss Voigt Hill
#
# Bulk Modulus (GPa) = 17.92696 42.03360 29.98028
# Shear Modulus (GPa) = 29.91459 302.38999 166.15229
#
# Velocity S-wave (km/s) = 3.77209 11.99290 8.88983
# Velocity P-wave (km/s) = 5.24389 14.55218 10.93765
#
# Compressibility (1/GPa) = 0.05578190
#
# Stress axis : x y z
#
# Youngs Moduli (GPa) = 82.25973 114.60327 30.60037
#
# Poissons Ratio (x) = 0.36166 -0.13514
# Poissons Ratio (y) = 0.25959 0.00461
# Poissons Ratio (z) = -0.36329 0.01725
#
# Static dielectric constant tensor:
#      x y z
#    x 3.764530 0.000010 -0.076570 
#    y 0.000010 4.287350 0.000000 
#    z -0.076570 0.000000 3.443280 
# 
# 
# High freq. dielectric constant tensor:
#      x y z
#    x 1.840080 0.000000 -0.003440 
#    y 0.000000 1.831130 0.000000 
#    z -0.003440 0.000000 1.802850 
# 
# From -- ./inp_files/121880.got.cif
#   From: 2010.06.25/outbox.cif.g09.slc.cpg/sg12_61_cif.got.tgz:121880.got - 2010.06.28 00:19:55.
