data_PCOD8098479
_publ_section_title
;
Structure prediction by ZEFSAII (Michael W. Deem and Ramdas Pophale) SiO2 
 PCOD8098479
Probable space group: C 2/M
;
_chemical_formula_sum "Si O2"
_cell_formula_units_Z 40
_cell_length_a 21.490495
_cell_length_b 12.286319
_cell_length_c 11.760700
_cell_angle_alpha 90.000000
_cell_angle_beta 41.048598
_cell_angle_gamma 90.000000
_cell_volume 2039.236937
_symmetry_space_group_name_H-M "C 2/M"
_symmetry_group_IT_number 12
_symmetry_cell_setting 'monoclinic'
loop_
_space_group_symop_operation_xyz
x,y,z
-x,y,-z
-x,-y,-z
x,-y,z
1/2+x,1/2+y,z
1/2-x,1/2+y,-z
1/2-x,1/2-y,-z
1/2+x,1/2-y,z
loop_
_atom_site_type_symbol
_atom_site_label
_atom_site_fract_x
_atom_site_fract_y
_atom_site_fract_z
Si Si1 0.347841 0.878781 0.904964
Si Si2 0.735700 0.798574 0.198362
Si Si3 0.854992 0.500000 0.223717
Si Si4 0.134259 0.000000 0.916980
Si Si5 0.510162 0.000000 0.175145
Si Si6 0.919149 0.000000 0.270582
Si Si7 0.791638 0.818977 0.544546
O O1 0.344668 0.839155 0.778816
O O2 0.300738 0.000000 0.979181
O O3 0.458005 0.892229 0.795964
O O4 0.291802 0.800140 0.064818
O O5 0.810162 0.893098 0.122439
O O6 0.681829 0.759990 0.386743
O O7 0.793076 0.393526 0.294605
O O8 0.900598 0.500000 0.289781
O O9 0.932762 0.500000 0.020809
O O10 0.122165 0.000000 0.798815
O O11 0.032384 0.000000 0.119129
O O12 0.882229 0.890787 0.383693
O O13 0.750000 0.750000 0.500000
#
# Coordination Sequence:
#
# PCOD8098479 Si02
#       7
#     8   8   4   4   4   4   8
#     4   9  19  36  59  91 115 160 215 250 294 369
#     4  11  20  36  65  86 122 163 211 247 307 363
#     4  10  20  34  57  86 123 150 196 253 312 350
#     4  11  21  40  57  94 123 160 203 258 302 375
#     4   9  17  36  57  90 113 146 205 261 283 350
#     4  10  24  38  57  90 133 156 204 251 318 368
#     4  11  21  37  57  88 120 166 194 249 311 376
#
# _framework density 19.615181
#
# number of rings (size 3 to 8) (size 9 to 14) (size 15 to 20)
#    0.600    1.200    5.000    0.000    1.400    1.600 
#    0.000    0.000    0.000   16.800    0.000    0.000 
#    0.000    0.000    0.000    0.000    0.000    0.000 
#
# Total GULP energy -247815.900123 kJ/mol
# GULP energy per Si atom -12390.795006 kJ/mol
# Density = 1.957054 g / cm^3
# Si number density = 19.615181 Si / 1000 Ang^3
#
#
#
# Elastic Constant Matrix: (Units=GPa)
#
#
# Indices 1 2 3 4 5 6 
#
# 1 120.8118 35.0067 41.2448 0.0000 20.1045 0.0000
# 2 35.0067 119.1353 42.3638 0.0000 14.5711 0.0000
# 3 41.2448 42.3638 84.4483 0.0000 13.3089 0.0000
# 4 0.0000 0.0000 0.0000 23.0061 0.0000 14.3138
# 5 20.1045 14.5711 13.3089 0.0000 32.0400 0.0000
# 6 0.0000 0.0000 0.0000 14.3138 0.0000 36.5344
#
#
#
# Elastic Compliance Matrix: (Units=1/GPa)
#
#
# Indices 1 2 3 4 5 6 
#
# 1 0.010720 -0.001201 -0.003916 0.000000 -0.004554 0.000000
# 2 -0.001201 0.010573 -0.004364 0.000000 -0.002242 0.000000
# 3 -0.003916 -0.004364 0.016311 0.000000 -0.002334 0.000000
# 4 0.000000 0.000000 0.000000 0.057478 0.000000 -0.022519
# 5 -0.004554 -0.002242 -0.002334 0.000000 0.036058 0.000000
# 6 0.000000 0.000000 0.000000 -0.022519 0.000000 0.036194
#
#
# Mechanical properties :
#
#
# Convention : Reuss Voigt Hill
#
# Bulk Modulus (GPa) = 53.63959 62.40288 58.02124
# Shear Modulus (GPa) = 25.97297 32.03478 29.00388
#
# Velocity S-wave (km/s) = 3.64280 4.04563 3.84949
# Velocity P-wave (km/s) = 6.71555 7.32840 7.02866
#
# Compressibility (1/GPa) = 0.01864295
#
# Stress axis : x y z
#
# Youngs Moduli (GPa) = 93.28506 94.58348 61.30824
#
# Poissons Ratio (x) = 0.11355 0.24006
# Poissons Ratio (y) = 0.11199 0.26756
# Poissons Ratio (z) = 0.36527 0.41277
#
# Static dielectric constant tensor:
#      x y z
#    x 3.967500 0.000000 0.235260 
#    y 0.000000 3.723020 0.000000 
#    z 0.235260 0.000000 3.321650 
# 
# 
# High freq. dielectric constant tensor:
#      x y z
#    x 1.771070 0.000000 0.026050 
#    y 0.000000 1.776210 0.000000 
#    z 0.026050 0.000000 1.737890 
# 
# From -- ./inp_files/174369.got.cif
#   From: 2010.06.25/outbox.cif.g09.slc.cpg/sg12_88_cif.got.tgz:174369.got - 2010.06.28 00:19:55.
