data_PCOD8098705
_publ_section_title
;
Structure prediction by ZEFSAII (Michael W. Deem and Ramdas Pophale) SiO2 
 PCOD8098705
Probable space group: C 2/M
;
_chemical_formula_sum "Si O2"
_cell_formula_units_Z 64
_cell_length_a 12.200460
_cell_length_b 18.528630
_cell_length_c 17.069296
_cell_angle_alpha 90.000000
_cell_angle_beta 88.017882
_cell_angle_gamma 90.000000
_cell_volume 3856.338915
_symmetry_space_group_name_H-M "C 2/M"
_symmetry_group_IT_number 12
_symmetry_cell_setting 'monoclinic'
loop_
_space_group_symop_operation_xyz
x,y,z
-x,y,-z
-x,-y,-z
x,-y,z
1/2+x,1/2+y,z
1/2-x,1/2+y,-z
1/2-x,1/2-y,-z
1/2+x,1/2-y,z
loop_
_atom_site_type_symbol
_atom_site_label
_atom_site_fract_x
_atom_site_fract_y
_atom_site_fract_z
Si Si1 0.531690 0.692640 0.914432
Si Si2 0.360892 0.584090 0.338208
Si Si3 0.896806 0.583372 0.906975
Si Si4 0.371721 0.583095 0.506839
Si Si5 0.230413 0.160013 0.807575
Si Si6 0.313789 0.319041 0.819505
Si Si7 0.119132 0.646707 0.927392
Si Si8 0.879879 0.084200 0.675971
O O1 0.628877 0.647671 0.870198
O O2 0.428331 0.693150 0.859659
O O3 0.573493 0.772815 0.927973
O O4 0.500000 0.658179 0.000000
O O5 0.330260 0.500000 0.328659
O O6 0.323074 0.613944 0.425943
O O7 0.297218 0.631648 0.277466
O O8 0.490093 0.594540 0.323614
O O9 0.868729 0.500000 0.917612
O O10 0.834579 0.614908 0.833850
O O11 0.027572 0.593650 0.892955
O O12 0.854997 0.626516 0.983903
O O13 0.500000 0.594638 0.500000
O O14 0.341681 0.500000 0.507861
O O15 0.332192 0.613234 0.592576
O O16 0.260539 0.243399 0.797135
O O17 0.231855 0.362050 0.878319
O O18 0.323894 0.367288 0.742558
O O19 0.850371 0.000000 0.689842
#
# Coordination Sequence:
#
# PCOD8098705 Si02
#       8
#     8   8   8   8   8   8   8   8
#     4  11  19  34  52  69  97 129 170 208 250 299
#     4   9  16  30  51  75 102 127 158 202 246 294
#     4  11  21  36  52  70  99 130 175 215 239 284
#     4   7  12  25  48  73  96 127 159 190 238 298
#     4  11  21  32  51  77  99 132 166 203 256 297
#     4  11  21  33  52  74 102 131 162 211 249 302
#     4  10  20  35  51  69  92 134 178 205 242 288
#     4   9  17  31  51  75 101 126 158 201 250 298
#
# _framework density 16.596052
#
# number of rings (size 3 to 8) (size 9 to 14) (size 15 to 20)
#    0.000    2.125    3.750    3.375    0.000    3.000 
#    0.000    0.625    0.000    1.875    0.000    0.875 
#    0.000    4.000    0.000    0.000    0.000    0.000 
#
# Total GULP energy -396551.864962 kJ/mol
# GULP energy per Si atom -12392.245780 kJ/mol
# Density = 1.655828 g / cm^3
# Si number density = 16.596052 Si / 1000 Ang^3
#
#
#
# Elastic Constant Matrix: (Units=GPa)
#
#
# Indices 1 2 3 4 5 6 
#
# 1 49.0469 17.9608 27.9792 0.0000 7.8694 0.0000
# 2 17.9608 55.0300 35.1298 0.0000 5.8566 0.0000
# 3 27.9792 35.1298 106.2923 0.0000 22.1082 0.0000
# 4 0.0000 0.0000 0.0000 3.5324 0.0000 4.0379
# 5 7.8694 5.8566 22.1082 0.0000 20.6174 0.0000
# 6 0.0000 0.0000 0.0000 4.0379 0.0000 11.0985
#
#
#
# Elastic Compliance Matrix: (Units=1/GPa)
#
#
# Indices 1 2 3 4 5 6 
#
# 1 0.025259 -0.005193 -0.004163 0.000000 -0.003702 0.000000
# 2 -0.005193 0.024168 -0.007214 0.000000 0.002852 0.000000
# 3 -0.004163 -0.007214 0.015614 0.000000 -0.013105 0.000000
# 4 0.000000 0.000000 0.000000 0.484662 0.000000 -0.176333
# 5 -0.003702 0.002852 -0.013105 0.000000 0.063158 0.000000
# 6 0.000000 0.000000 0.000000 -0.176333 0.000000 0.154257
#
#
# Mechanical properties :
#
#
# Convention : Reuss Voigt Hill
#
# Bulk Modulus (GPa) = 31.34591 41.38989 36.36790
# Shear Modulus (GPa) = 6.16606 15.66962 10.91784
#
# Velocity S-wave (km/s) = 1.92962 3.07608 2.56766
# Velocity P-wave (km/s) = 4.88806 6.13271 5.54542
#
# Compressibility (1/GPa) = 0.03190209
#
# Stress axis : x y z
#
# Youngs Moduli (GPa) = 39.59016 41.37622 64.04627
#
# Poissons Ratio (x) = 0.21486 0.26660
# Poissons Ratio (y) = 0.20558 0.46204
# Poissons Ratio (z) = 0.16480 0.29849
#
# Static dielectric constant tensor:
#      x y z
#    x 3.061990 0.000000 -0.023890 
#    y 0.000000 2.931370 0.000000 
#    z -0.023890 0.000000 3.522070 
# 
# 
# High freq. dielectric constant tensor:
#      x y z
#    x 1.621210 0.000000 0.007770 
#    y 0.000000 1.618130 0.000000 
#    z 0.007770 0.000000 1.650110 
# 
# From -- ./inp_files/263910.got.cif
#   From: 2010.06.25/outbox.cif.g09.slc.cpg/sg12_132_cif.got.tgz:263910.got - 2010.06.28 00:19:55.
