data_PCOD8098435
_publ_section_title
;
Structure prediction by ZEFSAII (Michael W. Deem and Ramdas Pophale) SiO2 
 PCOD8098435
Probable space group: C 2/M
;
_chemical_formula_sum "Si O2"
_cell_formula_units_Z 40
_cell_length_a 9.448916
_cell_length_b 18.214284
_cell_length_c 15.141012
_cell_angle_alpha 90.000000
_cell_angle_beta 115.644180
_cell_angle_gamma 90.000000
_cell_volume 2349.169128
_symmetry_space_group_name_H-M "C 2/M"
_symmetry_group_IT_number 12
_symmetry_cell_setting 'monoclinic'
loop_
_space_group_symop_operation_xyz
x,y,z
-x,y,-z
-x,-y,-z
x,-y,z
1/2+x,1/2+y,z
1/2-x,1/2+y,-z
1/2-x,1/2-y,-z
1/2+x,1/2-y,z
loop_
_atom_site_type_symbol
_atom_site_label
_atom_site_fract_x
_atom_site_fract_y
_atom_site_fract_z
Si Si1 0.863689 0.819454 0.033051
Si Si2 0.064431 0.195191 0.750563
Si Si3 0.591634 0.585558 0.614041
Si Si4 0.631729 0.826458 0.259259
Si Si5 0.417865 0.915295 0.070616
O O1 0.944760 0.828486 0.150160
O O2 0.750000 0.750000 0.000000
O O3 0.764042 0.892264 0.984448
O O4 0.000000 0.808208 0.000000
O O5 0.005797 0.127921 0.672179
O O6 0.245249 0.214060 0.773753
O O7 0.954470 0.265923 0.703638
O O8 0.500000 0.602469 0.500000
O O9 0.595389 0.500000 0.637878
O O10 0.770511 0.616304 0.652965
O O11 0.501362 0.868805 0.168631
O O12 0.428216 0.000000 0.099575
O O13 0.500000 0.899089 0.000000
#
# Coordination Sequence:
#
# PCOD8098435 Si02
#       5
#     8   8   8   8   8
#     4  12  22  34  55  79 115 154 189 228 283 336
#     4  10  21  34  57  85 113 144 190 236 279 335
#     4   9  20  39  62  84 111 148 189 236 290 345
#     4  10  20  34  57  83 112 145 185 235 283 335
#     4  11  21  35  54  78 111 154 197 237 279 337
#
# _framework density 17.027297000000001
#
# number of rings (size 3 to 8) (size 9 to 14) (size 15 to 20)
#    1.200    0.400    4.000    2.400    0.000    2.000 
#    0.000    0.000    0.000    0.000    0.000    2.800 
#    0.000    0.000    0.000    0.000    0.000    0.000 
#
# Total GULP energy -247902.884293 kJ/mol
# GULP energy per Si atom -12395.144215 kJ/mol
# Density = 1.698854 g / cm^3
# Si number density = 17.027297 Si / 1000 Ang^3
#
#
#
# Elastic Constant Matrix: (Units=GPa)
#
#
# Indices 1 2 3 4 5 6 
#
# 1 93.5958 52.8979 36.2790 0.0000 -6.4101 0.0000
# 2 52.8979 125.5559 68.0452 0.0000 1.8948 0.0000
# 3 36.2790 68.0452 116.6699 0.0000 5.9704 0.0000
# 4 0.0000 0.0000 0.0000 32.6091 0.0000 3.2327
# 5 -6.4101 1.8948 5.9704 0.0000 21.7046 0.0000
# 6 0.0000 0.0000 0.0000 3.2327 0.0000 32.5130
#
#
#
# Elastic Compliance Matrix: (Units=1/GPa)
#
#
# Indices 1 2 3 4 5 6 
#
# 1 0.014744 -0.005352 -0.001735 0.000000 0.005299 0.000000
# 2 -0.005352 0.013604 -0.006216 0.000000 -0.001058 0.000000
# 3 -0.001735 -0.006216 0.012916 0.000000 -0.003523 0.000000
# 4 0.000000 0.000000 0.000000 0.030972 0.000000 -0.003079
# 5 0.005299 -0.001058 -0.003523 0.000000 0.048700 0.000000
# 6 0.000000 0.000000 0.000000 -0.003079 0.000000 0.031063
#
#
# Mechanical properties :
#
#
# Convention : Reuss Voigt Hill
#
# Bulk Modulus (GPa) = 68.21414 72.25174 70.23294
# Shear Modulus (GPa) = 27.24950 29.27200 28.26075
#
# Velocity S-wave (km/s) = 4.00477 4.15073 4.07840
# Velocity P-wave (km/s) = 7.84429 8.09298 7.96961
#
# Compressibility (1/GPa) = 0.01465972
#
# Stress axis : x y z
#
# Youngs Moduli (GPa) = 67.82346 73.50767 77.42246
#
# Poissons Ratio (x) = 0.39339 0.13430
# Poissons Ratio (y) = 0.36297 0.48125
# Poissons Ratio (z) = 0.11765 0.45692
#
# Static dielectric constant tensor:
#      x y z
#    x 3.149990 0.000000 0.122430 
#    y 0.000000 3.229890 0.000000 
#    z 0.122430 0.000000 3.114130 
# 
# 
# High freq. dielectric constant tensor:
#      x y z
#    x 1.644980 0.000000 0.012960 
#    y 0.000000 1.659130 0.000000 
#    z 0.012960 0.000000 1.648520 
# 
# From -- ./inp_files/195093.got.cif
#   From: 2010.06.25/outbox.cif.g09.slc.cpg/sg12_98_cif.got.tgz:195093.got - 2010.06.28 00:19:55.
