data_PCOD8098643
_publ_section_title
;
Structure prediction by ZEFSAII (Michael W. Deem and Ramdas Pophale) SiO2 
 PCOD8098643
Probable space group: C 2/M
;
_chemical_formula_sum "Si O2"
_cell_formula_units_Z 56
_cell_length_a 22.082952
_cell_length_b 13.390353
_cell_length_c 23.228775
_cell_angle_alpha 90.000000
_cell_angle_beta 156.589572
_cell_angle_gamma 90.000000
_cell_volume 2729.042718
_symmetry_space_group_name_H-M "C 2/M"
_symmetry_group_IT_number 12
_symmetry_cell_setting 'monoclinic'
loop_
_space_group_symop_operation_xyz
x,y,z
-x,y,-z
-x,-y,-z
x,-y,z
1/2+x,1/2+y,z
1/2-x,1/2+y,-z
1/2-x,1/2-y,-z
1/2+x,1/2-y,z
loop_
_atom_site_type_symbol
_atom_site_label
_atom_site_fract_x
_atom_site_fract_y
_atom_site_fract_z
Si Si1 0.604754 0.608938 0.231577
Si Si2 0.278277 0.610805 0.986820
Si Si3 0.691959 0.889502 0.484848
Si Si4 0.052357 0.704182 0.110367
Si Si5 0.427712 0.683557 0.601205
Si Si6 0.360296 0.383874 0.417868
Si Si7 0.244662 0.684836 0.081891
O O1 0.610651 0.500000 0.206716
O O2 0.747179 0.623936 0.397380
O O3 0.600530 0.688633 0.177117
O O4 0.460940 0.616023 0.148937
O O5 0.221500 0.500000 0.918357
O O6 0.228094 0.695204 0.897577
O O7 0.213562 0.636084 0.992996
O O8 0.573791 0.798060 0.375355
O O9 0.823115 0.883315 0.551107
O O10 0.615817 0.000000 0.411633
O O11 0.199206 0.633052 0.244880
O O12 0.906360 0.656361 0.014729
O O13 0.000000 0.719046 0.000000
O O14 0.364133 0.676757 0.480956
O O15 0.601612 0.642399 0.754562
O O16 0.500000 0.346360 0.500000
O O17 0.379048 0.500000 0.448334
#
# Coordination Sequence:
#
# PCOD8098643 Si02
#       7
#     8   8   8   8   8   8   8
#     4   9  17  35  60  87 117 151 189 236 293 352
#     4   9  18  33  54  82 120 155 187 230 287 347
#     4  10  20  34  59  90 124 158 192 237 294 357
#     4  11  23  41  61  85 115 154 200 247 294 347
#     4  11  21  37  61  91 124 158 197 242 296 352
#     4  11  25  44  63  84 115 157 203 247 293 350
#     4  10  21  34  57  88 116 151 193 238 290 346
#
# _framework density 20.520015999999998
#
# number of rings (size 3 to 8) (size 9 to 14) (size 15 to 20)
#    0.000    1.857    2.857    1.286    0.000    2.286 
#    0.000    0.000    0.000    3.429    0.000    0.000 
#    0.000    0.000    0.000    0.000    0.000    0.000 
#
# Total GULP energy -347067.835827 kJ/mol
# GULP energy per Si atom -12395.279851 kJ/mol
# Density = 2.047331 g / cm^3
# Si number density = 20.520016 Si / 1000 Ang^3
#
#
#
# Elastic Constant Matrix: (Units=GPa)
#
#
# Indices 1 2 3 4 5 6 
#
# 1 94.8454 22.5849 34.9621 0.0113 2.4189 0.0035
# 2 22.5849 79.8081 -3.9953 -0.0476 6.5007 -0.0150
# 3 34.9621 -3.9953 89.5270 -0.0084 13.6045 -0.0021
# 4 0.0113 -0.0476 -0.0084 17.8979 -0.0153 -0.6153
# 5 2.4189 6.5007 13.6045 -0.0153 32.7197 -0.0036
# 6 0.0035 -0.0150 -0.0021 -0.6153 -0.0036 21.2584
#
#
#
# Elastic Compliance Matrix: (Units=1/GPa)
#
#
# Indices 1 2 3 4 5 6 
#
# 1 0.013695 -0.004358 -0.005893 -0.000021 0.002304 -0.000006
# 2 -0.004358 0.014210 0.002899 0.000039 -0.003707 0.000012
# 3 -0.005893 0.002899 0.014540 0.000013 -0.006186 0.000004
# 4 -0.000021 0.000039 0.000013 0.055928 0.000015 0.001619
# 5 0.002304 -0.003707 -0.006186 0.000015 0.033701 0.000003
# 6 -0.000006 0.000012 0.000004 0.001619 0.000003 0.047087
#
#
# Mechanical properties :
#
#
# Convention : Reuss Voigt Hill
#
# Bulk Modulus (GPa) = 36.04522 41.25375 38.64948
# Shear Modulus (GPa) = 24.61696 28.41713 26.51704
#
# Velocity S-wave (km/s) = 3.46736 3.72539 3.59869
# Velocity P-wave (km/s) = 5.79950 6.21712 6.01193
#
# Compressibility (1/GPa) = 0.02774293
#
# Stress axis : x y z
#
# Youngs Moduli (GPa) = 73.02143 70.37081 68.77376
#
# Poissons Ratio (x) = 0.30668 0.40525
# Poissons Ratio (y) = 0.31823 -0.19940
# Poissons Ratio (z) = 0.43028 -0.20403
#
# Static dielectric constant tensor:
#      x y z
#    x 3.498370 0.000000 0.132000 
#    y 0.000000 3.812770 -0.000010 
#    z 0.132000 -0.000010 3.548480 
# 
# 
# High freq. dielectric constant tensor:
#      x y z
#    x 1.783590 0.000000 0.005070 
#    y 0.000000 1.805800 0.000000 
#    z 0.005070 0.000000 1.797210 
# 
# From -- ./inp_files/349826.got.cif
#   From: 2010.06.25/outbox.cif.g09.slc.cpg/sg12_175_cif.got.tgz:349826.got - 2010.06.28 00:19:55.
