data_PCOD8098215
_publ_section_title
;
Structure prediction by ZEFSAII (Michael W. Deem and Ramdas Pophale) SiO2 
 PCOD8098215
Probable space group: C 2/M
;
_chemical_formula_sum "Si O2"
_cell_formula_units_Z 56
_cell_length_a 21.233806
_cell_length_b 9.138717
_cell_length_c 14.960999
_cell_angle_alpha 90.000000
_cell_angle_beta 87.181763
_cell_angle_gamma 90.000000
_cell_volume 2899.666741
_symmetry_space_group_name_H-M "C 2/M"
_symmetry_group_IT_number 12
_symmetry_cell_setting 'monoclinic'
loop_
_space_group_symop_operation_xyz
x,y,z
-x,y,-z
-x,-y,-z
x,-y,z
1/2+x,1/2+y,z
1/2-x,1/2+y,-z
1/2-x,1/2-y,-z
1/2+x,1/2-y,z
loop_
_atom_site_type_symbol
_atom_site_label
_atom_site_fract_x
_atom_site_fract_y
_atom_site_fract_z
Si Si1 0.292379 0.331781 0.870381
Si Si2 0.986592 0.168109 0.723093
Si Si3 0.562381 0.667853 0.548667
Si Si4 0.363918 0.167904 0.712233
Si Si5 0.173208 0.168375 0.929278
Si Si6 0.033734 0.825912 0.909687
Si Si7 0.686367 0.169500 0.475527
O O1 0.287838 0.500000 0.843510
O O2 0.337051 0.251504 0.798612
O O3 0.222962 0.264090 0.871551
O O4 0.322457 0.308977 0.965177
O O5 0.931202 0.262652 0.682794
O O6 0.047937 0.181406 0.655583
O O7 0.001336 0.230220 0.821052
O O8 0.964211 0.000000 0.730432
O O9 0.500000 0.722829 0.500000
O O10 0.576855 0.500000 0.520386
O O11 0.624078 0.763369 0.525290
O O12 0.318062 0.185632 0.630968
O O13 0.373316 0.000000 0.737649
O O14 0.105644 0.226814 0.903222
O O15 0.184800 0.000000 0.902743
O O16 0.031333 0.000000 0.914231
O O17 0.000000 0.759443 0.000000
O O18 0.750000 0.250000 0.500000
O O19 0.690413 0.000000 0.503720
#
# Coordination Sequence:
#
# PCOD8098215 Si02
#       7
#     8   8   8   8   8   8   8
#     4  10  20  34  56  81 109 149 192 234 285 344
#     4  10  20  35  59  86 111 149 194 234 283 346
#     4  10  20  37  61  88 120 155 193 241 292 354
#     4  11  23  38  57  83 113 146 188 237 289 348
#     4   9  18  34  54  79 113 150 189 236 285 336
#     4   9  17  31  53  81 112 145 185 230 275 328
#     4  11  25  42  62  87 118 154 194 246 304 360
#
# _framework density 19.312563999999998
#
# number of rings (size 3 to 8) (size 9 to 14) (size 15 to 20)
#    0.000    2.000    1.429    2.143    0.000    6.571 
#    0.000    3.571    0.000    1.714    0.000    0.000 
#    0.000    0.000    0.000    0.000    0.000    0.000 
#
# Total GULP energy -347245.333530 kJ/mol
# GULP energy per Si atom -12401.619055 kJ/mol
# Density = 1.926861 g / cm^3
# Si number density = 19.312564 Si / 1000 Ang^3
#
#
#
# Elastic Constant Matrix: (Units=GPa)
#
#
# Indices 1 2 3 4 5 6 
#
# 1 132.6805 65.6704 35.5144 0.0000 3.7768 0.0000
# 2 65.6704 107.2279 35.8347 0.0000 -6.7507 0.0000
# 3 35.5144 35.8347 71.2635 0.0000 -5.3812 0.0000
# 4 0.0000 0.0000 0.0000 26.1864 0.0000 -5.8307
# 5 3.7768 -6.7507 -5.3812 0.0000 31.6335 0.0000
# 6 0.0000 0.0000 0.0000 -5.8307 0.0000 33.2911
#
#
#
# Elastic Compliance Matrix: (Units=1/GPa)
#
#
# Indices 1 2 3 4 5 6 
#
# 1 0.011500 -0.006308 -0.002800 0.000000 -0.003195 0.000000
# 2 -0.006308 0.014736 -0.004024 0.000000 0.003213 0.000000
# 3 -0.002800 -0.004024 0.017638 0.000000 0.002476 0.000000
# 4 0.000000 0.000000 0.000000 0.039737 0.000000 0.006960
# 5 -0.003195 0.003213 0.002476 0.000000 0.033101 0.000000
# 6 0.000000 0.000000 0.000000 0.006960 0.000000 0.031257
#
#
# Mechanical properties :
#
#
# Convention : Reuss Voigt Hill
#
# Bulk Modulus (GPa) = 56.78594 65.02342 60.90468
# Shear Modulus (GPa) = 27.76185 29.83235 28.79710
#
# Velocity S-wave (km/s) = 3.79555 3.93455 3.86567
# Velocity P-wave (km/s) = 6.97680 7.37448 7.17839
#
# Compressibility (1/GPa) = 0.01760999
#
# Stress axis : x y z
#
# Youngs Moduli (GPa) = 86.95945 67.85949 56.69520
#
# Poissons Ratio (x) = 0.42807 0.15875
# Poissons Ratio (y) = 0.54856 0.22813
# Poissons Ratio (z) = 0.24349 0.27305
#
# Static dielectric constant tensor:
#      x y z
#    x 3.565190 0.000000 0.000040 
#    y 0.000000 3.446060 0.000000 
#    z 0.000040 0.000000 3.585950 
# 
# 
# High freq. dielectric constant tensor:
#      x y z
#    x 1.755130 0.000000 -0.005570 
#    y 0.000000 1.735610 0.000000 
#    z -0.005570 0.000000 1.757290 
# 
# From -- ./inp_files/230966.got.cif
#   From: 2010.06.25/outbox.cif.g09.slc.cpg/sg12_116_cif.got.tgz:230966.got - 2010.06.28 00:19:55.
