data_PCOD8098596
_publ_section_title
;
Structure prediction by ZEFSAII (Michael W. Deem and Ramdas Pophale) SiO2 
 PCOD8098596
Probable space group: C 2/M
;
_chemical_formula_sum "Si O2"
_cell_formula_units_Z 56
_cell_length_a 29.196331
_cell_length_b 12.459325
_cell_length_c 24.037934
_cell_angle_alpha 90.000000
_cell_angle_beta 161.535106
_cell_angle_gamma 90.000000
_cell_volume 2769.493056
_symmetry_space_group_name_H-M "C 2/M"
_symmetry_group_IT_number 12
_symmetry_cell_setting 'monoclinic'
loop_
_space_group_symop_operation_xyz
x,y,z
-x,y,-z
-x,-y,-z
x,-y,z
1/2+x,1/2+y,z
1/2-x,1/2+y,-z
1/2-x,1/2-y,-z
1/2+x,1/2-y,z
loop_
_atom_site_type_symbol
_atom_site_label
_atom_site_fract_x
_atom_site_fract_y
_atom_site_fract_z
Si Si1 0.290068 0.821936 0.257045
Si Si2 0.405022 0.779319 0.741460
Si Si3 0.128725 0.210159 0.817932
Si Si4 0.511749 0.120244 0.421717
Si Si5 0.213636 0.621949 0.106329
Si Si6 0.104496 0.877746 0.371173
Si Si7 0.021041 0.879374 0.086260
O O1 0.340163 0.834973 0.379183
O O2 0.394584 0.883009 0.335509
O O3 0.285204 0.695448 0.236637
O O4 0.137461 0.877719 0.068913
O O5 0.266413 0.855029 0.578474
O O6 0.433408 0.704256 0.721227
O O7 0.377260 0.701422 0.762443
O O8 0.543092 0.855471 0.906125
O O9 0.040738 0.310389 0.690933
O O10 0.207520 0.141762 0.861353
O O11 0.011930 0.135720 0.713972
O O12 0.250000 0.250000 0.000000
O O13 0.539044 0.000000 0.430952
O O14 0.237597 0.500000 0.152279
O O15 0.096689 0.000000 0.340335
O O16 0.085638 0.000000 0.161628
O O17 0.000000 0.834800 0.000000
#
# Coordination Sequence:
#
# PCOD8098596 Si02
#       7
#     8   8   8   8   8   8   8
#     4   9  19  36  57  87 118 147 195 237 290 363
#     4  10  22  40  61  88 117 156 205 240 287 362
#     4  11  23  40  57  93 121 153 201 250 292 357
#     4  10  20  36  61  86 117 152 189 244 299 347
#     4  10  20  39  63  86 120 158 196 243 294 350
#     4  11  23  41  62  84 121 161 198 247 299 347
#     4  10  20  34  58  87 118 149 185 242 299 346
#
# _framework density 20.220306999999998
#
# number of rings (size 3 to 8) (size 9 to 14) (size 15 to 20)
#    0.000    1.857    1.429    3.000    2.000    1.143 
#    0.000    7.143    0.000    2.143    0.000    0.000 
#    0.000    0.000    0.000    0.000    0.000    0.000 
#
# Total GULP energy -347206.093457 kJ/mol
# GULP energy per Si atom -12400.217623 kJ/mol
# Density = 2.017428 g / cm^3
# Si number density = 20.220307 Si / 1000 Ang^3
#
#
#
# Elastic Constant Matrix: (Units=GPa)
#
#
# Indices 1 2 3 4 5 6 
#
# 1 53.1830 20.4476 3.9447 -0.0007 -4.5018 -0.0011
# 2 20.4476 129.0651 27.9945 -0.0037 -9.4858 -0.0033
# 3 3.9447 27.9945 69.3809 -0.0028 -8.8249 -0.0036
# 4 -0.0007 -0.0037 -0.0028 20.9085 -0.0006 -3.5076
# 5 -4.5018 -9.4858 -8.8249 -0.0006 34.0534 -0.0010
# 6 -0.0011 -0.0033 -0.0036 -3.5076 -0.0010 20.4765
#
#
#
# Elastic Compliance Matrix: (Units=1/GPa)
#
#
# Indices 1 2 3 4 5 6 
#
# 1 0.020139 -0.003130 0.000357 0.000000 0.001883 0.000001
# 2 -0.003130 0.009055 -0.003317 0.000001 0.001249 0.000001
# 3 0.000357 -0.003317 0.016152 0.000002 0.003309 0.000003
# 4 0.000000 0.000001 0.000002 0.049243 0.000002 0.008435
# 5 0.001883 0.001249 0.003309 0.000002 0.030820 0.000003
# 6 0.000001 0.000001 0.000003 0.008435 0.000003 0.050282
#
#
# Mechanical properties :
#
#
# Convention : Reuss Voigt Hill
#
# Bulk Modulus (GPa) = 30.14960 39.60029 34.87495
# Shear Modulus (GPa) = 25.13509 28.37046 26.75277
#
# Velocity S-wave (km/s) = 3.52953 3.74982 3.64134
# Velocity P-wave (km/s) = 5.61721 6.19477 5.91304
#
# Compressibility (1/GPa) = 0.03316794
#
# Stress axis : x y z
#
# Youngs Moduli (GPa) = 49.65436 110.43501 61.91145
#
# Poissons Ratio (x) = 0.34563 -0.02212
# Poissons Ratio (y) = 0.15540 0.20535
# Poissons Ratio (z) = -0.01774 0.36629
#
# Static dielectric constant tensor:
#      x y z
#    x 3.629890 0.000000 -0.009950 
#    y 0.000000 3.541040 0.000000 
#    z -0.009950 0.000000 3.852060 
# 
# 
# High freq. dielectric constant tensor:
#      x y z
#    x 1.783990 0.000000 0.006280 
#    y 0.000000 1.783140 0.000000 
#    z 0.006280 0.000000 1.799180 
# 
# From -- ./inp_files/353995.got.cif
#   From: 2010.06.25/outbox.cif.g09.slc.cpg/sg12_177_cif.got.tgz:353995.got - 2010.06.28 00:19:55.
