data_PCOD8098047
_publ_section_title
;
Structure prediction by ZEFSAII (Michael W. Deem and Ramdas Pophale) SiO2 
 PCOD8098047
Probable space group: C 2/M
;
_chemical_formula_sum "Si O2"
_cell_formula_units_Z 64
_cell_length_a 22.480140
_cell_length_b 30.673997
_cell_length_c 8.808775
_cell_angle_alpha 90.000000
_cell_angle_beta 147.004279
_cell_angle_gamma 90.000000
_cell_volume 3307.834066
_symmetry_space_group_name_H-M "C 2/M"
_symmetry_group_IT_number 12
_symmetry_cell_setting 'monoclinic'
loop_
_space_group_symop_operation_xyz
x,y,z
-x,y,-z
-x,-y,-z
x,-y,z
1/2+x,1/2+y,z
1/2-x,1/2+y,-z
1/2-x,1/2-y,-z
1/2+x,1/2-y,z
loop_
_atom_site_type_symbol
_atom_site_label
_atom_site_fract_x
_atom_site_fract_y
_atom_site_fract_z
Si Si1 0.246817 0.547740 0.134401
Si Si2 0.604034 0.549292 0.819712
Si Si3 0.108114 0.345157 0.530461
Si Si4 0.862858 0.364728 0.063946
Si Si5 0.291190 0.610649 0.729883
Si Si6 0.879603 0.950662 0.702328
Si Si7 0.112045 0.269169 0.319362
Si Si8 0.283726 0.316118 0.488549
O O1 0.194925 0.500000 0.056266
O O2 0.287120 0.550243 0.048430
O O3 0.355037 0.554070 0.470893
O O4 0.154097 0.583423 0.963714
O O5 0.500000 0.562016 0.500000
O O6 0.590432 0.500000 0.861144
O O7 0.616183 0.588491 0.966282
O O8 0.145992 0.344451 0.786230
O O9 0.179677 0.378857 0.581761
O O10 0.123767 0.296182 0.501023
O O11 0.981583 0.358397 0.244580
O O12 0.767715 0.343797 0.758840
O O13 0.279076 0.574213 0.572130
O O14 0.333623 0.653568 0.729942
O O15 0.875573 0.000000 0.750557
O O16 0.000000 0.931071 0.000000
O O17 0.194051 0.285117 0.367368
O O18 0.125540 0.217365 0.383553
O O19 0.000000 0.279223 0.000000
#
# Coordination Sequence:
#
# PCOD8098047 Si02
#       8
#     8   8   8   8   8   8   8   8
#     4  10  20  36  56  84 122 159 198 247 292 343
#     4  10  20  36  58  82 122 169 203 239 292 354
#     4  10  23  37  66  83 114 157 204 244 296 365
#     4  11  20  42  60  89 114 163 203 242 301 353
#     4  11  20  36  56  91 114 154 200 246 289 351
#     4  10  20  34  55  82 116 156 199 239 289 353
#     4  10  20  41  60  90 114 147 191 243 305 367
#     4  10  22  36  64  86 118 150 190 250 302 355
#
# _framework density 19.348008
#
# number of rings (size 3 to 8) (size 9 to 14) (size 15 to 20)
#    0.000    1.750    3.750    1.125    0.000    3.000 
#    2.250    2.500    0.000    1.500    0.000    0.000 
#    0.000    0.000    0.000    0.000    0.000    0.000 
#
# Total GULP energy -396477.575795 kJ/mol
# GULP energy per Si atom -12389.924244 kJ/mol
# Density = 1.930397 g / cm^3
# Si number density = 19.348008 Si / 1000 Ang^3
#
#
#
# Elastic Constant Matrix: (Units=GPa)
#
#
# Indices 1 2 3 4 5 6 
#
# 1 83.5268 50.4720 24.5380 0.0000 -9.4438 0.0000
# 2 50.4720 137.1843 53.6527 0.0000 -4.8060 0.0000
# 3 24.5380 53.6527 74.1414 0.0000 -18.2387 0.0000
# 4 0.0000 0.0000 0.0000 31.8285 0.0000 -6.7770
# 5 -9.4438 -4.8060 -18.2387 0.0000 25.6904 0.0000
# 6 0.0000 0.0000 0.0000 -6.7770 0.0000 32.0803
#
#
#
# Elastic Compliance Matrix: (Units=1/GPa)
#
#
# Indices 1 2 3 4 5 6 
#
# 1 0.015962 -0.005721 0.000045 0.000000 0.004830 0.000000
# 2 -0.005721 0.012573 -0.008655 0.000000 -0.005896 0.000000
# 3 0.000045 -0.008655 0.023435 0.000000 0.015035 0.000000
# 4 0.000000 0.000000 0.000000 0.032898 0.000000 0.006950
# 5 0.004830 -0.005896 0.015035 0.000000 0.050271 0.000000
# 6 0.000000 0.000000 0.000000 0.006950 0.000000 0.032640
#
#
# Mechanical properties :
#
#
# Convention : Reuss Voigt Hill
#
# Bulk Modulus (GPa) = 42.90472 61.35309 52.12891
# Shear Modulus (GPa) = 24.48456 28.99916 26.74186
#
# Velocity S-wave (km/s) = 3.56122 3.87566 3.72176
# Velocity P-wave (km/s) = 6.25565 7.19769 6.74314
#
# Compressibility (1/GPa) = 0.02330746
#
# Stress axis : x y z
#
# Youngs Moduli (GPa) = 62.64871 79.53606 42.67178
#
# Poissons Ratio (x) = 0.45504 -0.00194
# Poissons Ratio (y) = 0.35843 0.36934
# Poissons Ratio (z) = -0.00285 0.68841
#
# Static dielectric constant tensor:
#      x y z
#    x 3.733470 0.000000 -0.071160 
#    y 0.000000 3.776610 0.000000 
#    z -0.071160 0.000000 3.503690 
# 
# 
# High freq. dielectric constant tensor:
#      x y z
#    x 1.753900 0.000000 -0.015380 
#    y 0.000000 1.756510 0.000000 
#    z -0.015380 0.000000 1.737580 
# 
# From -- ./inp_files/100237.got.cif
#   From: 2010.06.25/outbox.cif.g09.slc.cpg/sg12_51_cif.got.tgz:100237.got - 2010.06.28 00:19:55.
