data_PCOD8098322
_publ_section_title
;
Structure prediction by ZEFSAII (Michael W. Deem and Ramdas Pophale) SiO2 
 PCOD8098322
Probable space group: C 2/M
;
_chemical_formula_sum "Si O2"
_cell_formula_units_Z 56
_cell_length_a 25.094176
_cell_length_b 21.931823
_cell_length_c 5.333608
_cell_angle_alpha 90.000000
_cell_angle_beta 105.957787
_cell_angle_gamma 90.000000
_cell_volume 2822.292519
_symmetry_space_group_name_H-M "C 2/M"
_symmetry_group_IT_number 12
_symmetry_cell_setting 'monoclinic'
loop_
_space_group_symop_operation_xyz
x,y,z
-x,y,-z
-x,-y,-z
x,-y,z
1/2+x,1/2+y,z
1/2-x,1/2+y,-z
1/2-x,1/2-y,-z
1/2+x,1/2-y,z
loop_
_atom_site_type_symbol
_atom_site_label
_atom_site_fract_x
_atom_site_fract_y
_atom_site_fract_z
Si Si1 0.526321 0.570316 0.781516
Si Si2 0.854313 0.933505 0.901145
Si Si3 0.147911 0.363586 0.982805
Si Si4 0.700889 0.665922 0.447366
Si Si5 0.253423 0.566652 0.131380
Si Si6 0.816791 0.700219 0.453386
Si Si7 0.033813 0.569561 0.788796
O O1 0.500000 0.601995 0.500000
O O2 0.508344 0.500000 0.757074
O O3 0.500000 0.600222 0.000000
O O4 0.592959 0.578156 0.851824
O O5 0.850138 0.874472 0.720937
O O6 0.863597 0.000000 0.776085
O O7 0.794825 0.937534 0.953607
O O8 0.151351 0.316088 0.758921
O O9 0.086717 0.389025 0.899648
O O10 0.190190 0.419038 0.972586
O O11 0.159055 0.332356 0.267030
O O12 0.728662 0.624387 0.689972
O O13 0.751362 0.684370 0.325663
O O14 0.674268 0.727269 0.518503
O O15 0.254439 0.500000 0.270505
O O16 0.052237 0.500000 0.766276
O O17 0.000000 0.592560 0.500000
O O18 0.000000 0.575810 0.000000
#
# Coordination Sequence:
#
# PCOD8098322 Si02
#       7
#     8   8   8   8   8   8   8
#     4   9  19  34  52  75 104 142 184 222 269 336
#     4  10  20  34  56  84 116 150 188 242 303 355
#     4  11  21  40  59  90 119 158 197 246 293 355
#     4  10  21  36  55  83 119 155 198 241 289 360
#     4  10  21  34  56  89 124 152 183 239 310 358
#     4  10  23  36  61  82 118 158 202 238 291 348
#     4  10  21  38  63  93 124 160 202 247 298 359
#
# _framework density 19.842027000000002
#
# number of rings (size 3 to 8) (size 9 to 14) (size 15 to 20)
#    0.000    2.000    1.429    1.714    4.000    1.714 
#    0.000    1.429    0.000    3.429    0.000    0.000 
#    0.000    0.000    0.000    0.000    0.000    0.000 
#
# Total GULP energy -346897.968638 kJ/mol
# GULP energy per Si atom -12389.213166 kJ/mol
# Density = 1.979687 g / cm^3
# Si number density = 19.842027 Si / 1000 Ang^3
#
#
#
# Elastic Constant Matrix: (Units=GPa)
#
#
# Indices 1 2 3 4 5 6 
#
# 1 82.2882 42.1393 35.3613 0.0000 17.2655 0.0000
# 2 42.1393 113.0755 32.1619 0.0000 16.4231 0.0000
# 3 35.3613 32.1619 111.6759 0.0000 10.7763 0.0000
# 4 0.0000 0.0000 0.0000 15.7754 0.0000 19.3116
# 5 17.2655 16.4231 10.7763 0.0000 32.2751 0.0000
# 6 0.0000 0.0000 0.0000 19.3116 0.0000 38.4816
#
#
#
# Elastic Compliance Matrix: (Units=1/GPa)
#
#
# Indices 1 2 3 4 5 6 
#
# 1 0.017232 -0.004574 -0.003590 0.000000 -0.005692 0.000000
# 2 -0.004574 0.011404 -0.001563 0.000000 -0.002835 0.000000
# 3 -0.003590 -0.001563 0.010621 0.000000 -0.000831 0.000000
# 4 0.000000 0.000000 0.000000 0.164363 0.000000 -0.082483
# 5 -0.005692 -0.002835 -0.000831 0.000000 0.035748 0.000000
# 6 0.000000 0.000000 0.000000 -0.082483 0.000000 0.067380
#
#
# Mechanical properties :
#
#
# Convention : Reuss Voigt Hill
#
# Bulk Modulus (GPa) = 50.49268 58.48496 54.48882
# Shear Modulus (GPa) = 15.02396 30.46491 22.74444
#
# Velocity S-wave (km/s) = 2.75467 3.92263 3.38934
# Velocity P-wave (km/s) = 5.96827 7.07498 6.54506
#
# Compressibility (1/GPa) = 0.01980485
#
# Stress axis : x y z
#
# Youngs Moduli (GPa) = 58.03312 87.68630 94.15017
#
# Poissons Ratio (x) = 0.40107 0.33797
# Poissons Ratio (y) = 0.26544 0.14711
# Poissons Ratio (z) = 0.20832 0.13701
#
# Static dielectric constant tensor:
#      x y z
#    x 3.711770 0.000000 0.031500 
#    y 0.000000 4.064130 0.000000 
#    z 0.031500 0.000000 3.661930 
# 
# 
# High freq. dielectric constant tensor:
#      x y z
#    x 1.766540 0.000000 0.005070 
#    y 0.000000 1.761530 0.000000 
#    z 0.005070 0.000000 1.768720 
# 
# From -- ./inp_files/25449.got.cif
#   From: 2010.06.25/outbox.cif.g09.slc.cpg/sg12_13_cif.got.tgz:25449.got - 2010.06.28 00:19:55.
