data_PCOD8098425
_publ_section_title
;
Structure prediction by ZEFSAII (Michael W. Deem and Ramdas Pophale) SiO2 
 PCOD8098425
Probable space group: C 2/M
;
_chemical_formula_sum "Si O2"
_cell_formula_units_Z 40
_cell_length_a 11.933048
_cell_length_b 22.489108
_cell_length_c 9.072451
_cell_angle_alpha 90.000000
_cell_angle_beta 56.630485
_cell_angle_gamma 90.000000
_cell_volume 2033.329983
_symmetry_space_group_name_H-M "C 2/M"
_symmetry_group_IT_number 12
_symmetry_cell_setting 'monoclinic'
loop_
_space_group_symop_operation_xyz
x,y,z
-x,y,-z
-x,-y,-z
x,-y,z
1/2+x,1/2+y,z
1/2-x,1/2+y,-z
1/2-x,1/2-y,-z
1/2+x,1/2-y,z
loop_
_atom_site_type_symbol
_atom_site_label
_atom_site_fract_x
_atom_site_fract_y
_atom_site_fract_z
Si Si1 0.352409 0.880829 0.638318
Si Si2 0.423537 0.789716 0.825571
Si Si3 0.179069 0.829964 0.180945
Si Si4 0.281081 0.185606 0.413859
Si Si5 0.869079 0.067939 0.004819
O O1 0.500000 0.909265 0.500000
O O2 0.370633 0.819106 0.712741
O O3 0.273743 0.864725 0.545352
O O4 0.262530 0.926228 0.797179
O O5 0.429433 0.718578 0.794893
O O6 0.569408 0.813355 0.761504
O O7 0.325854 0.806331 0.029508
O O8 0.178915 0.834728 0.358912
O O9 0.143972 0.892985 0.133364
O O10 0.250000 0.250000 0.500000
O O11 0.882356 0.000000 0.943786
O O12 0.000000 0.088711 0.000000
#
# Coordination Sequence:
#
# PCOD8098425 Si02
#       5
#     8   8   8   8   8
#     4   9  19  37  57  84 119 147 183 233 290 338
#     4   9  19  33  51  82 118 148 179 220 284 353
#     4  10  20  34  57  80 112 153 185 226 281 344
#     4  11  20  31  52  88 121 141 174 231 285 350
#     4  10  23  42  60  79 108 154 204 237 270 328
#
# _framework density 19.672162
#
# number of rings (size 3 to 8) (size 9 to 14) (size 15 to 20)
#    0.000    2.200    2.000    0.600    2.800    0.400 
#    0.000    1.000    0.000   18.000    0.000    0.000 
#    0.000    0.000    0.000    0.000    0.000    0.000 
#
# Total GULP energy -247997.368290 kJ/mol
# GULP energy per Si atom -12399.868415 kJ/mol
# Density = 1.962739 g / cm^3
# Si number density = 19.672162 Si / 1000 Ang^3
#
#
#
# Elastic Constant Matrix: (Units=GPa)
#
#
# Indices 1 2 3 4 5 6 
#
# 1 81.5084 39.0263 29.9848 0.0000 25.7566 0.0000
# 2 39.0263 84.7999 18.6758 0.0000 20.0132 0.0000
# 3 29.9848 18.6758 58.6723 0.0000 17.2310 0.0000
# 4 0.0000 0.0000 0.0000 23.2116 0.0000 -0.7211
# 5 25.7566 20.0132 17.2310 0.0000 40.3449 0.0000
# 6 0.0000 0.0000 0.0000 -0.7211 0.0000 21.2525
#
#
#
# Elastic Compliance Matrix: (Units=1/GPa)
#
#
# Indices 1 2 3 4 5 6 
#
# 1 0.019572 -0.006044 -0.006048 0.000000 -0.006914 0.000000
# 2 -0.006044 0.015589 -0.000841 0.000000 -0.003515 0.000000
# 3 -0.006048 -0.000841 0.021892 0.000000 -0.005071 0.000000
# 4 0.000000 0.000000 0.000000 0.043127 0.000000 0.001463
# 5 -0.006914 -0.003515 -0.005071 0.000000 0.033110 0.000000
# 6 0.000000 0.000000 0.000000 0.001463 0.000000 0.047103
#
#
# Mechanical properties :
#
#
# Convention : Reuss Voigt Hill
#
# Bulk Modulus (GPa) = 32.06462 44.48383 38.27422
# Shear Modulus (GPa) = 23.07823 26.11471 24.59647
#
# Velocity S-wave (km/s) = 3.42883 3.64743 3.53982
# Velocity P-wave (km/s) = 5.65780 6.35610 6.01709
#
# Compressibility (1/GPa) = 0.03118702
#
# Stress axis : x y z
#
# Youngs Moduli (GPa) = 51.09289 64.14896 45.67902
#
# Poissons Ratio (x) = 0.38770 0.27628
# Poissons Ratio (y) = 0.30879 0.03841
# Poissons Ratio (z) = 0.30902 0.05395
#
# Static dielectric constant tensor:
#      x y z
#    x 3.618080 0.000000 -0.141640 
#    y 0.000000 3.161970 0.000000 
#    z -0.141640 0.000000 3.691420 
# 
# 
# High freq. dielectric constant tensor:
#      x y z
#    x 1.768190 0.000000 -0.003550 
#    y 0.000000 1.727290 0.000000 
#    z -0.003550 0.000000 1.774040 
# 
# From -- ./inp_files/48514.got.cif
#   From: 2010.06.25/outbox.cif.g09.slc.cpg/sg12_25_cif.got.tgz:48514.got - 2010.06.28 00:19:55.
