data_PCOD8098223
_publ_section_title
;
Structure prediction by ZEFSAII (Michael W. Deem and Ramdas Pophale) SiO2 
 PCOD8098223
Probable space group: C 2/M
;
_chemical_formula_sum "Si O2"
_cell_formula_units_Z 56
_cell_length_a 14.834847
_cell_length_b 8.946980
_cell_length_c 21.485438
_cell_angle_alpha 90.000000
_cell_angle_beta 88.624685
_cell_angle_gamma 90.000000
_cell_volume 2850.877927
_symmetry_space_group_name_H-M "C 2/M"
_symmetry_group_IT_number 12
_symmetry_cell_setting 'monoclinic'
loop_
_space_group_symop_operation_xyz
x,y,z
-x,y,-z
-x,-y,-z
x,-y,z
1/2+x,1/2+y,z
1/2-x,1/2+y,-z
1/2-x,1/2-y,-z
1/2+x,1/2-y,z
loop_
_atom_site_type_symbol
_atom_site_label
_atom_site_fract_x
_atom_site_fract_y
_atom_site_fract_z
Si Si1 0.342844 0.827518 0.062824
Si Si2 0.902436 0.831482 0.804287
Si Si3 0.748042 0.176053 0.408496
Si Si4 0.344988 0.828479 0.924848
Si Si5 0.895981 0.823787 0.505203
Si Si6 0.099028 0.170482 0.823801
Si Si7 0.755009 0.323354 0.731400
O O1 0.258991 0.717441 0.072022
O O2 0.412326 0.775111 0.114892
O O3 0.314443 0.000000 0.072982
O O4 0.386591 0.807312 0.993476
O O5 0.895770 0.774639 0.875136
O O6 0.850468 0.732225 0.755260
O O7 0.007639 0.823175 0.785201
O O8 0.865331 0.000000 0.801557
O O9 0.839412 0.220046 0.444113
O O10 0.657114 0.250772 0.436422
O O11 0.761093 0.235941 0.338126
O O12 0.732187 0.000000 0.411455
O O13 0.351837 0.000000 0.902855
O O14 0.000000 0.764870 0.500000
O O15 0.896846 0.000000 0.515992
O O16 0.177250 0.237049 0.778437
O O17 0.119616 0.000000 0.843812
O O18 0.754435 0.500000 0.731182
#
# Coordination Sequence:
#
# PCOD8098223 Si02
#       7
#     8   8   8   8   8   8   8
#     4  10  20  34  56  82 106 138 184 231 280 344
#     4  11  23  37  56  83 109 142 191 237 278 334
#     4   9  19  35  56  83 114 149 187 224 271 324
#     4  10  20  35  55  79 109 143 178 228 292 341
#     4   9  18  34  58  87 117 148 183 224 269 320
#     4  10  22  38  56  79 110 146 183 230 287 337
#     4  10  21  39  58  77 110 153 187 224 279 333
#
# _framework density 19.643070999999999
#
# number of rings (size 3 to 8) (size 9 to 14) (size 15 to 20)
#    0.000    2.143    1.429    1.286    0.000    5.429 
#    0.000    5.714    0.000    0.000    0.000    0.000 
#    0.000    0.000    0.000    0.000    0.000    0.000 
#
# Total GULP energy -347152.102092 kJ/mol
# GULP energy per Si atom -12398.289360 kJ/mol
# Density = 1.959836 g / cm^3
# Si number density = 19.643071 Si / 1000 Ang^3
#
#
#
# Elastic Constant Matrix: (Units=GPa)
#
#
# Indices 1 2 3 4 5 6 
#
# 1 98.1491 14.7152 39.9966 0.0000 13.1703 0.0000
# 2 14.7152 20.5953 28.6797 0.0000 -1.5856 0.0000
# 3 39.9966 28.6797 132.7358 0.0000 12.6638 0.0000
# 4 0.0000 0.0000 0.0000 28.2485 0.0000 0.8772
# 5 13.1703 -1.5856 12.6638 0.0000 13.8126 0.0000
# 6 0.0000 0.0000 0.0000 0.8772 0.0000 27.0879
#
#
#
# Elastic Compliance Matrix: (Units=1/GPa)
#
#
# Indices 1 2 3 4 5 6 
#
# 1 0.013796 -0.009912 -0.000714 0.000000 -0.013637 0.000000
# 2 -0.009912 0.084541 -0.018747 0.000000 0.036344 0.000000
# 3 -0.000714 -0.018747 0.013084 0.000000 -0.013467 0.000000
# 4 0.000000 0.000000 0.000000 0.035436 0.000000 -0.001148
# 5 -0.013637 0.036344 -0.013467 0.000000 0.101920 0.000000
# 6 0.000000 0.000000 0.000000 -0.001148 0.000000 0.036954
#
#
# Mechanical properties :
#
#
# Convention : Reuss Voigt Hill
#
# Bulk Modulus (GPa) = 18.98465 46.47369 32.72917
# Shear Modulus (GPa) = 13.81075 25.03570 19.42323
#
# Velocity S-wave (km/s) = 2.65445 3.57393 3.14794
# Velocity P-wave (km/s) = 4.36814 6.38287 5.46908
#
# Compressibility (1/GPa) = 0.05267414
#
# Stress axis : x y z
#
# Youngs Moduli (GPa) = 72.48635 11.82854 76.42677
#
# Poissons Ratio (x) = 0.11725 0.05458
# Poissons Ratio (y) = 0.71851 1.43278
# Poissons Ratio (z) = 0.05177 0.22175
#
# Static dielectric constant tensor:
#      x y z
#    x 3.507970 0.000000 0.031830 
#    y 0.000000 3.486000 0.000000 
#    z 0.031830 0.000000 3.770490 
# 
# 
# High freq. dielectric constant tensor:
#      x y z
#    x 1.760450 0.000000 0.005460 
#    y 0.000000 1.760600 0.000000 
#    z 0.005460 0.000000 1.761910 
# 
# From -- ./inp_files/309057.got.cif
#   From: 2010.06.25/outbox.cif.g09.slc.cpg/sg12_155_cif.got.tgz:309057.got - 2010.06.28 00:19:55.
