data_PCOD8098949
_publ_section_title
;
Structure prediction by ZEFSAII (Michael W. Deem and Ramdas Pophale) SiO2 
 PCOD8098949
Probable space group: C 2/M
;
_chemical_formula_sum "Si O2"
_cell_formula_units_Z 48
_cell_length_a 31.039362
_cell_length_b 8.733878
_cell_length_c 15.452345
_cell_angle_alpha 90.000000
_cell_angle_beta 38.245163
_cell_angle_gamma 90.000000
_cell_volume 2593.130365
_symmetry_space_group_name_H-M "C 2/M"
_symmetry_group_IT_number 12
_symmetry_cell_setting 'monoclinic'
loop_
_space_group_symop_operation_xyz
x,y,z
-x,y,-z
-x,-y,-z
x,-y,z
1/2+x,1/2+y,z
1/2-x,1/2+y,-z
1/2-x,1/2-y,-z
1/2+x,1/2-y,z
loop_
_atom_site_type_symbol
_atom_site_label
_atom_site_fract_x
_atom_site_fract_y
_atom_site_fract_z
Si Si1 0.743615 0.320135 0.241366
Si Si2 0.093099 0.180968 0.410275
Si Si3 0.211087 0.678725 0.641438
Si Si4 0.074687 0.822059 0.913039
Si Si5 0.380065 0.322226 0.965837
Si Si6 0.545071 0.180498 0.312156
O O1 0.757160 0.500000 0.207820
O O2 0.667623 0.270703 0.329938
O O3 0.750970 0.270603 0.329775
O O4 0.799706 0.229484 0.095257
O O5 0.088658 0.236417 0.318594
O O6 0.034596 0.262421 0.560856
O O7 0.081350 0.000000 0.433230
O O8 0.213204 0.500000 0.626122
O O9 0.250000 0.750000 0.500000
O O10 0.131470 0.732623 0.767493
O O11 0.084060 0.000000 0.877463
O O12 0.083141 0.788069 0.001056
O O13 0.000000 0.761569 0.000000
O O14 0.383938 0.500000 0.934277
O O15 0.421152 0.221637 0.832114
O O16 0.547237 0.000000 0.324236
#
# Coordination Sequence:
#
# PCOD8098949 Si02
#       6
#     8   8   8   8   8   8
#     4   9  20  37  56  78 105 137 173 218 263 305
#     4  10  20  37  58  78 103 136 176 217 260 309
#     4  10  20  35  54  78 108 139 174 214 259 309
#     4   9  19  36  56  78 105 137 175 218 261 305
#     4  10  20  35  56  79 105 139 176 214 258 310
#     4  11  22  36  54  78 109 139 171 214 261 309
#
# _framework density 18.510446000000002
#
# number of rings (size 3 to 8) (size 9 to 14) (size 15 to 20)
#    0.000    2.167    0.000    4.000    0.000    5.000 
#    0.000    6.667    0.000    0.000    0.000    0.000 
#    0.000    0.000    0.000    0.000    0.000    0.000 
#
# Total GULP energy -297691.946392 kJ/mol
# GULP energy per Si atom -12403.831100 kJ/mol
# Density = 1.846832 g / cm^3
# Si number density = 18.510446 Si / 1000 Ang^3
#
#
#
# Elastic Constant Matrix: (Units=GPa)
#
#
# Indices 1 2 3 4 5 6 
#
# 1 106.7352 25.3591 70.0192 -0.0001 -28.5421 0.0000
# 2 25.3591 51.4843 40.4947 -0.0013 -3.4447 0.0002
# 3 70.0192 40.4947 140.0756 -0.0007 -1.5583 0.0001
# 4 -0.0001 -0.0013 -0.0007 39.7860 0.0001 -0.5628
# 5 -28.5421 -3.4447 -1.5583 0.0001 31.5418 0.0000
# 6 0.0000 0.0002 0.0001 -0.5628 0.0000 25.4287
#
#
#
# Elastic Compliance Matrix: (Units=1/GPa)
#
#
# Indices 1 2 3 4 5 6 
#
# 1 0.021219 -0.001333 -0.010015 0.000000 0.018560 0.000000
# 2 -0.001333 0.025404 -0.006664 0.000001 0.001239 0.000000
# 3 -0.010015 -0.006664 0.013970 0.000000 -0.009100 0.000000
# 4 0.000000 0.000001 0.000000 0.025142 0.000000 0.000556
# 5 0.018560 0.001239 -0.009100 0.000000 0.048185 0.000000
# 6 0.000000 0.000000 0.000000 0.000556 0.000000 0.039338
#
#
# Mechanical properties :
#
#
# Convention : Reuss Voigt Hill
#
# Bulk Modulus (GPa) = 40.69975 63.33790 52.01883
# Shear Modulus (GPa) = 22.99146 30.17944 26.58545
#
# Velocity S-wave (km/s) = 3.52814 4.04220 3.79389
# Velocity P-wave (km/s) = 6.21548 7.48849 6.88149
#
# Compressibility (1/GPa) = 0.02457017
#
# Stress axis : x y z
#
# Youngs Moduli (GPa) = 47.12856 39.36317 71.57982
#
# Poissons Ratio (x) = 0.05245 0.71685
# Poissons Ratio (y) = 0.06280 0.47703
# Poissons Ratio (z) = 0.47198 0.26233
#
# Static dielectric constant tensor:
#      x y z
#    x 3.467240 0.000000 -0.077610 
#    y 0.000000 3.448550 0.000000 
#    z -0.077610 0.000000 3.456260 
# 
# 
# High freq. dielectric constant tensor:
#      x y z
#    x 1.716350 0.000000 -0.003360 
#    y 0.000000 1.726690 0.000000 
#    z -0.003360 0.000000 1.724590 
# 
# From -- ./inp_files/229885.got.cif
#   From: 2010.06.25/outbox.cif.g09.slc.cpg/sg12_115_cif.got.tgz:229885.got - 2010.06.28 00:19:55.
