data_PCOD8098059
_publ_section_title
;
Structure prediction by ZEFSAII (Michael W. Deem and Ramdas Pophale) SiO2 
 PCOD8098059
Probable space group: C 2/M
;
_chemical_formula_sum "Si O2"
_cell_formula_units_Z 56
_cell_length_a 23.257020
_cell_length_b 8.972032
_cell_length_c 18.745642
_cell_angle_alpha 90.000000
_cell_angle_beta 127.966543
_cell_angle_gamma 90.000000
_cell_volume 3083.722983
_symmetry_space_group_name_H-M "C 2/M"
_symmetry_group_IT_number 12
_symmetry_cell_setting 'monoclinic'
loop_
_space_group_symop_operation_xyz
x,y,z
-x,y,-z
-x,-y,-z
x,-y,z
1/2+x,1/2+y,z
1/2-x,1/2+y,-z
1/2-x,1/2-y,-z
1/2+x,1/2-y,z
loop_
_atom_site_type_symbol
_atom_site_label
_atom_site_fract_x
_atom_site_fract_y
_atom_site_fract_z
Si Si1 0.455095 0.173561 0.319569
Si Si2 0.896226 0.175734 0.526831
Si Si3 0.987503 0.336080 0.192980
Si Si4 0.666591 0.174585 0.660901
Si Si5 0.311382 0.823734 0.747932
Si Si6 0.039275 0.171943 0.104004
Si Si7 0.849760 0.664446 0.624212
O O1 0.520868 0.273608 0.398754
O O2 0.437550 0.211316 0.222729
O O3 0.382792 0.210329 0.308317
O O4 0.477996 0.000000 0.344993
O O5 0.868190 0.248377 0.433682
O O6 0.843711 0.223119 0.552985
O O7 0.892504 0.000000 0.516319
O O8 0.964941 0.500000 0.147199
O O9 0.983572 0.220257 0.124703
O O10 0.068097 0.342090 0.286016
O O11 0.745683 0.242988 0.738700
O O12 0.673313 0.000000 0.651586
O O13 0.387231 0.767312 0.838155
O O14 0.302580 0.783382 0.656739
O O15 0.307684 0.000000 0.756680
O O16 0.059364 0.000000 0.129732
O O17 0.000000 0.203435 0.000000
O O18 0.824945 0.500000 0.579848
#
# Coordination Sequence:
#
# PCOD8098059 Si02
#       7
#     8   8   8   8   8   8   8
#     4   9  19  35  52  71  98 135 175 210 248 294
#     4  11  21  31  48  74 100 130 174 221 253 284
#     4   8  15  30  52  76 100 127 164 206 245 289
#     4  11  22  35  51  69  98 139 173 207 253 299
#     4  10  21  36  53  75 102 130 165 207 251 300
#     4  10  20  34  55  83 109 130 156 193 241 301
#     4   8  16  32  50  68  96 132 166 205 253 300
#
# _framework density 18.159866000000001
#
# number of rings (size 3 to 8) (size 9 to 14) (size 15 to 20)
#    0.000    2.429    0.000    4.714    0.000   10.286 
#    0.000    0.000    0.000    0.857    0.000    0.000 
#    0.000    0.000    0.000    0.000    0.000    0.000 
#
# Total GULP energy -347116.361456 kJ/mol
# GULP energy per Si atom -12397.012909 kJ/mol
# Density = 1.811853 g / cm^3
# Si number density = 18.159866 Si / 1000 Ang^3
#
#
#
# Elastic Constant Matrix: (Units=GPa)
#
#
# Indices 1 2 3 4 5 6 
#
# 1 93.0219 50.3958 41.4197 0.0000 -10.9567 0.0000
# 2 50.3958 112.2106 52.3657 0.0000 -6.2121 0.0000
# 3 41.4197 52.3657 78.3701 0.0000 -17.7152 0.0000
# 4 0.0000 0.0000 0.0000 25.1698 0.0000 -1.2742
# 5 -10.9567 -6.2121 -17.7152 0.0000 18.8187 0.0000
# 6 0.0000 0.0000 0.0000 -1.2742 0.0000 23.0233
#
#
#
# Elastic Compliance Matrix: (Units=1/GPa)
#
#
# Indices 1 2 3 4 5 6 
#
# 1 0.015695 -0.004876 -0.004237 0.000000 0.003540 0.000000
# 2 -0.004876 0.014833 -0.008726 0.000000 -0.006157 0.000000
# 3 -0.004237 -0.008726 0.024925 0.000000 0.018116 0.000000
# 4 0.000000 0.000000 0.000000 0.039842 0.000000 0.002205
# 5 0.003540 -0.006157 0.018116 0.000000 0.070221 0.000000
# 6 0.000000 0.000000 0.000000 0.002205 0.000000 0.043556
#
#
# Mechanical properties :
#
#
# Convention : Reuss Voigt Hill
#
# Bulk Modulus (GPa) = 50.56736 63.55168 57.05952
# Shear Modulus (GPa) = 19.89327 22.69711 21.29519
#
# Velocity S-wave (km/s) = 3.31335 3.53916 3.42811
# Velocity P-wave (km/s) = 6.52256 7.19531 6.86718
#
# Compressibility (1/GPa) = 0.01977560
#
# Stress axis : x y z
#
# Youngs Moduli (GPa) = 63.71367 67.41782 40.12057
#
# Poissons Ratio (x) = 0.32871 0.16999
# Poissons Ratio (y) = 0.31065 0.35009
# Poissons Ratio (z) = 0.26996 0.58828
#
# Static dielectric constant tensor:
#      x y z
#    x 3.863100 0.000000 -0.426820 
#    y 0.000000 3.418880 0.000000 
#    z -0.426820 0.000000 3.155360 
# 
# 
# High freq. dielectric constant tensor:
#      x y z
#    x 1.704120 0.000000 -0.020790 
#    y 0.000000 1.709440 0.000000 
#    z -0.020790 0.000000 1.671900 
# 
# From -- ./inp_files/287883.got.cif
#   From: 2010.06.25/outbox.cif.g09.slc.cpg/sg12_144_cif.got.tgz:287883.got - 2010.06.28 00:19:55.
