data_PCOD8098764
_publ_section_title
;
Structure prediction by ZEFSAII (Michael W. Deem and Ramdas Pophale) SiO2 
 PCOD8098764
Probable space group: C 2/M
;
_chemical_formula_sum "Si O2"
_cell_formula_units_Z 56
_cell_length_a 14.258636
_cell_length_b 9.299931
_cell_length_c 26.587518
_cell_angle_alpha 90.000000
_cell_angle_beta 124.210851
_cell_angle_gamma 90.000000
_cell_volume 2915.596488
_symmetry_space_group_name_H-M "C 2/M"
_symmetry_group_IT_number 12
_symmetry_cell_setting 'monoclinic'
loop_
_space_group_symop_operation_xyz
x,y,z
-x,y,-z
-x,-y,-z
x,-y,z
1/2+x,1/2+y,z
1/2-x,1/2+y,-z
1/2-x,1/2-y,-z
1/2+x,1/2-y,z
loop_
_atom_site_type_symbol
_atom_site_label
_atom_site_fract_x
_atom_site_fract_y
_atom_site_fract_z
Si Si1 0.650976 0.829757 0.998840
Si Si2 0.599799 0.170155 0.094703
Si Si3 0.233868 0.667466 0.330745
Si Si4 0.511904 0.837488 0.700170
Si Si5 0.310368 0.164914 0.442330
Si Si6 0.612095 0.163900 0.431942
Si Si7 0.771476 0.829510 0.229389
O O1 0.530541 0.779385 0.938886
O O2 0.667993 0.000000 0.998680
O O3 0.750000 0.750000 0.000000
O O4 0.653067 0.780211 0.057707
O O5 0.674742 0.232378 0.163066
O O6 0.600576 0.000000 0.096004
O O7 0.261301 0.500000 0.341503
O O8 0.107145 0.703939 0.310361
O O9 0.324578 0.744500 0.395319
O O10 0.244700 0.725580 0.277406
O O11 0.501193 0.817548 0.636047
O O12 0.607616 0.733441 0.751120
O O13 0.545679 0.000000 0.724274
O O14 0.412010 0.182987 0.514951
O O15 0.200129 0.217125 0.439582
O O16 0.296024 0.000000 0.421938
O O17 0.659024 0.000000 0.436624
O O18 0.777662 0.000000 0.228005
#
# Coordination Sequence:
#
# PCOD8098764 Si02
#       7
#     8   8   8   8   8   8   8
#     4   9  17  33  57  81 104 132 165 201 241 285
#     4   8  17  34  53  74 104 138 166 195 240 294
#     4   9  19  34  49  67  97 133 164 200 251 303
#     4   9  18  33  50  70  98 129 162 205 255 299
#     4   9  15  25  46  71  91 119 163 209 250 296
#     4   8  15  28  45  66  94 126 158 200 257 308
#     4  10  20  35  53  72  98 135 173 202 234 288
#
# _framework density 19.207048
#
# number of rings (size 3 to 8) (size 9 to 14) (size 15 to 20)
#    0.000    3.143    0.000    2.143    0.000    4.571 
#    0.000    5.000    0.000    4.286    0.000    0.000 
#    0.000    0.000    0.000    0.000    0.000    0.000 
#
# Total GULP energy -346949.601592 kJ/mol
# GULP energy per Si atom -12391.057200 kJ/mol
# Density = 1.916333 g / cm^3
# Si number density = 19.207048 Si / 1000 Ang^3
#
#
#
# Elastic Constant Matrix: (Units=GPa)
#
#
# Indices 1 2 3 4 5 6 
#
# 1 61.5439 18.0340 26.9964 0.0000 0.2725 0.0000
# 2 18.0340 38.3159 25.8214 0.0000 1.6960 0.0000
# 3 26.9964 25.8214 114.2670 0.0000 4.4156 0.0000
# 4 0.0000 0.0000 0.0000 23.5802 0.0000 3.6241
# 5 0.2725 1.6960 4.4156 0.0000 25.1687 0.0000
# 6 0.0000 0.0000 0.0000 3.6241 0.0000 25.1383
#
#
#
# Elastic Compliance Matrix: (Units=1/GPa)
#
#
# Indices 1 2 3 4 5 6 
#
# 1 0.019709 -0.007258 -0.003047 0.000000 0.000810 0.000000
# 2 -0.007258 0.033479 -0.005806 0.000000 -0.001159 0.000000
# 3 -0.003047 -0.005806 0.010840 0.000000 -0.001478 0.000000
# 4 0.000000 0.000000 0.000000 0.043369 0.000000 -0.006252
# 5 0.000810 -0.001159 -0.001478 0.000000 0.040060 0.000000
# 6 0.000000 0.000000 0.000000 -0.006252 0.000000 0.040681
#
#
# Mechanical properties :
#
#
# Convention : Reuss Voigt Hill
#
# Bulk Modulus (GPa) = 31.44163 39.53668 35.48915
# Shear Modulus (GPa) = 21.64841 24.32911 22.98876
#
# Velocity S-wave (km/s) = 3.36088 3.56290 3.46337
# Velocity P-wave (km/s) = 5.60946 6.12820 5.87456
#
# Compressibility (1/GPa) = 0.03180497
#
# Stress axis : x y z
#
# Youngs Moduli (GPa) = 50.73919 29.86954 92.24710
#
# Poissons Ratio (x) = 0.21680 0.28111
# Poissons Ratio (y) = 0.36828 0.53556
# Poissons Ratio (z) = 0.15462 0.17341
#
# Static dielectric constant tensor:
#      x y z
#    x 3.177780 0.000000 -0.040580 
#    y 0.000000 3.254270 0.000000 
#    z -0.040580 0.000000 4.143010 
# 
# 
# High freq. dielectric constant tensor:
#      x y z
#    x 1.724150 0.000000 -0.004090 
#    y 0.000000 1.724440 0.000000 
#    z -0.004090 0.000000 1.757530 
# 
# From -- ./inp_files/339006.got.cif
#   From: 2010.06.25/outbox.cif.g09.slc.cpg/sg12_170_cif.got.tgz:339006.got - 2010.06.28 00:19:55.
