data_PCOD8098313
_publ_section_title
;
Structure prediction by ZEFSAII (Michael W. Deem and Ramdas Pophale) SiO2 
 PCOD8098313
Probable space group: C 2/M
;
_chemical_formula_sum "Si O2"
_cell_formula_units_Z 64
_cell_length_a 20.070552
_cell_length_b 9.081981
_cell_length_c 16.966536
_cell_angle_alpha 90.000000
_cell_angle_beta 91.486593
_cell_angle_gamma 90.000000
_cell_volume 3091.625572
_symmetry_space_group_name_H-M "C 2/M"
_symmetry_group_IT_number 12
_symmetry_cell_setting 'monoclinic'
loop_
_space_group_symop_operation_xyz
x,y,z
-x,y,-z
-x,-y,-z
x,-y,z
1/2+x,1/2+y,z
1/2-x,1/2+y,-z
1/2-x,1/2-y,-z
1/2+x,1/2-y,z
loop_
_atom_site_type_symbol
_atom_site_label
_atom_site_fract_x
_atom_site_fract_y
_atom_site_fract_z
Si Si1 0.086961 0.832023 0.044881
Si Si2 0.119111 0.329662 0.323420
Si Si3 0.128183 0.830892 0.643591
Si Si4 0.234940 0.829852 0.081934
Si Si5 0.253129 0.676018 0.243744
Si Si6 0.926198 0.171144 0.521596
Si Si7 0.976485 0.665264 0.269715
Si Si8 0.042224 0.329914 0.905097
O O1 0.155716 0.821989 0.093459
O O2 0.032257 0.730371 0.084230
O O3 0.061889 0.000000 0.039226
O O4 0.095596 0.765739 0.956319
O O5 0.130664 0.500000 0.343069
O O6 0.183274 0.268413 0.278727
O O7 0.106353 0.251320 0.405665
O O8 0.055245 0.301836 0.265552
O O9 0.191081 0.763574 0.692739
O O10 0.128096 0.802450 0.549913
O O11 0.057030 0.771682 0.669308
O O12 0.128405 0.000000 0.664351
O O13 0.267053 0.749811 0.158814
O O14 0.259478 0.000000 0.078405
O O15 0.250000 0.750000 0.000000
O O16 0.253875 0.500000 0.232626
O O17 0.000000 0.232316 0.500000
O O18 0.933410 0.000000 0.542552
O O19 0.965370 0.500000 0.299802
O O20 0.940354 0.689699 0.185386
O O21 0.044985 0.500000 0.930888
#
# Coordination Sequence:
#
# PCOD8098313 Si02
#       8
#     8   8   8   8   8   8   8   8
#     4  10  21  37  55  81 112 147 191 242 295 354
#     4  10  21  38  62  89 121 160 199 247 302 356
#     4  10  22  39  60  86 119 158 197 245 300 353
#     4  11  25  42  62  86 117 159 204 248 300 358
#     4  10  23  43  63  88 122 158 202 251 303 363
#     4  10  20  37  60  90 124 158 199 244 295 359
#     4  10  21  35  55  85 116 151 196 244 294 352
#     4  10  20  34  56  84 114 149 190 242 298 350
#
# _framework density 20.701083000000001
#
# number of rings (size 3 to 8) (size 9 to 14) (size 15 to 20)
#    0.000    1.875    1.250    2.625    1.750    6.250 
#    0.000    0.000    0.000    0.000    0.000    0.000 
#    0.000    0.000    0.000    0.000    0.000    0.000 
#
# Total GULP energy -396674.871604 kJ/mol
# GULP energy per Si atom -12396.089738 kJ/mol
# Density = 2.065397 g / cm^3
# Si number density = 20.701083 Si / 1000 Ang^3
#
#
#
# Elastic Constant Matrix: (Units=GPa)
#
#
# Indices 1 2 3 4 5 6 
#
# 1 70.9991 18.6169 31.1105 0.0000 9.4043 0.0000
# 2 18.6169 53.8615 40.3287 0.0000 4.8557 0.0000
# 3 31.1105 40.3287 111.3432 0.0000 4.3572 0.0000
# 4 0.0000 0.0000 0.0000 34.7144 0.0000 2.4453
# 5 9.4043 4.8557 4.3572 0.0000 34.2089 0.0000
# 6 0.0000 0.0000 0.0000 2.4453 0.0000 23.5524
#
#
#
# Elastic Compliance Matrix: (Units=1/GPa)
#
#
# Indices 1 2 3 4 5 6 
#
# 1 0.016883 -0.002844 -0.003539 0.000000 -0.003787 0.000000
# 2 -0.002844 0.026161 -0.008609 0.000000 -0.001835 0.000000
# 3 -0.003539 -0.008609 0.013067 0.000000 0.000530 0.000000
# 4 0.000000 0.000000 0.000000 0.029019 0.000000 -0.003013
# 5 -0.003787 -0.001835 0.000530 0.000000 0.030466 0.000000
# 6 0.000000 0.000000 0.000000 -0.003013 0.000000 0.042771
#
#
# Mechanical properties :
#
#
# Convention : Reuss Voigt Hill
#
# Bulk Modulus (GPa) = 38.27510 46.25734 42.26622
# Shear Modulus (GPa) = 25.37303 28.23833 26.80568
#
# Velocity S-wave (km/s) = 3.50478 3.69738 3.60237
# Velocity P-wave (km/s) = 5.90826 6.37349 6.14528
#
# Compressibility (1/GPa) = 0.02612664
#
# Stress axis : x y z
#
# Youngs Moduli (GPa) = 59.23215 38.22552 76.52630
#
# Poissons Ratio (x) = 0.10873 0.27081
# Poissons Ratio (y) = 0.16848 0.65880
# Poissons Ratio (z) = 0.20961 0.32908
#
# Static dielectric constant tensor:
#      x y z
#    x 3.837360 0.000000 0.274510 
#    y 0.000000 3.668470 0.000000 
#    z 0.274510 0.000000 3.846060 
# 
# 
# High freq. dielectric constant tensor:
#      x y z
#    x 1.807180 0.000000 0.012870 
#    y 0.000000 1.802420 0.000000 
#    z 0.012870 0.000000 1.816570 
# 
# From -- ./inp_files/281334.got.cif
#   From: 2010.06.25/outbox.cif.g09.slc.cpg/sg12_141_cif.got.tgz:281334.got - 2010.06.28 00:19:55.
