data_PCOD8098568
_publ_section_title
;
Structure prediction by ZEFSAII (Michael W. Deem and Ramdas Pophale) SiO2 
 PCOD8098568
Probable space group: C 2/M
;
_chemical_formula_sum "Si O2"
_cell_formula_units_Z 52
_cell_length_a 20.831831
_cell_length_b 17.951265
_cell_length_c 7.820315
_cell_angle_alpha 90.000000
_cell_angle_beta 92.359136
_cell_angle_gamma 90.000000
_cell_volume 2921.988502
_symmetry_space_group_name_H-M "C 2/M"
_symmetry_group_IT_number 12
_symmetry_cell_setting 'monoclinic'
loop_
_space_group_symop_operation_xyz
x,y,z
-x,y,-z
-x,-y,-z
x,-y,z
1/2+x,1/2+y,z
1/2-x,1/2+y,-z
1/2-x,1/2-y,-z
1/2+x,1/2-y,z
loop_
_atom_site_type_symbol
_atom_site_label
_atom_site_fract_x
_atom_site_fract_y
_atom_site_fract_z
Si Si1 0.169791 0.231368 0.621725
Si Si2 0.214031 0.155093 0.312481
Si Si3 0.568729 0.149927 0.559108
Si Si4 0.070844 0.353917 0.957660
Si Si5 0.379085 0.000000 0.557286
Si Si6 0.674497 0.268783 0.994359
Si Si7 0.632607 0.000000 0.069274
Si Si8 0.778874 0.500000 0.247288
O O1 0.180718 0.161663 0.495424
O O2 0.229771 0.284314 0.670623
O O3 0.117770 0.283588 0.522505
O O4 0.151166 0.197978 0.807021
O O5 0.236753 0.072449 0.275495
O O6 0.165250 0.174219 0.151188
O O7 0.500000 0.182402 0.500000
O O8 0.575477 0.130883 0.757945
O O9 0.579028 0.075333 0.448468
O O10 0.128137 0.300682 0.027852
O O11 0.084381 0.431310 0.050165
O O12 0.000000 0.323467 0.000000
O O13 0.333765 0.000000 0.391084
O O14 0.340098 0.000000 0.732877
O O15 0.750000 0.250000 0.000000
O O16 0.691504 0.000000 0.941049
#
# Coordination Sequence:
#
# PCOD8098568 Si02
#       8
#     8   8   8   8   4   8   4   4
#     4   9  19  35  53  79 104 143 178 230 267 327
#     4  10  20  34  58  72 110 136 185 227 283 319
#     4  11  21  36  53  78 118 149 190 222 267 328
#     4  11  22  36  54  84 118 148 194 230 265 331
#     4  12  23  35  53  77 116 160 187 217 262 329
#     4   9  19  35  55  76 105 145 183 228 275 321
#     4  12  23  35  55  75 120 160 190 214 273 322
#     4  12  22  40  52  86 108 148 187 241 270 337
#
# _framework density 17.796101
#
# number of rings (size 3 to 8) (size 9 to 14) (size 15 to 20)
#    0.000    1.538    3.077    3.231    4.308    2.462 
#    0.000    0.000    0.000    0.000    0.000    1.077 
#    0.000    0.000    0.000    0.000    0.000    0.000 
#
# Total GULP energy -322169.864095 kJ/mol
# GULP energy per Si atom -12391.148619 kJ/mol
# Density = 1.775560 g / cm^3
# Si number density = 17.796101 Si / 1000 Ang^3
#
#
#
# Elastic Constant Matrix: (Units=GPa)
#
#
# Indices 1 2 3 4 5 6 
#
# 1 82.3820 40.3467 24.6890 0.0000 -1.6799 0.0000
# 2 40.3467 66.3498 40.4133 0.0000 -5.5091 0.0000
# 3 24.6890 40.4133 107.5983 0.0000 -15.4242 0.0000
# 4 0.0000 0.0000 0.0000 20.3906 0.0000 -9.4991
# 5 -1.6799 -5.5091 -15.4242 0.0000 24.7734 0.0000
# 6 0.0000 0.0000 0.0000 -9.4991 0.0000 18.3283
#
#
#
# Elastic Compliance Matrix: (Units=1/GPa)
#
#
# Indices 1 2 3 4 5 6 
#
# 1 0.017325 -0.010513 -0.000212 0.000000 -0.001295 0.000000
# 2 -0.010513 0.025924 -0.007247 0.000000 0.000540 0.000000
# 3 -0.000212 -0.007247 0.012991 0.000000 0.006462 0.000000
# 4 0.000000 0.000000 0.000000 0.064652 0.000000 0.033507
# 5 -0.001295 0.000540 0.006462 0.000000 0.044422 0.000000
# 6 0.000000 0.000000 0.000000 0.033507 0.000000 0.071926
#
#
# Mechanical properties :
#
#
# Convention : Reuss Voigt Hill
#
# Bulk Modulus (GPa) = 49.27538 51.91421 50.59479
# Shear Modulus (GPa) = 17.86043 22.75721 20.30882
#
# Velocity S-wave (km/s) = 3.17143 3.57988 3.38182
# Velocity P-wave (km/s) = 6.41557 6.80605 6.61369
#
# Compressibility (1/GPa) = 0.02029411
#
# Stress axis : x y z
#
# Youngs Moduli (GPa) = 57.72130 38.57486 76.97743
#
# Poissons Ratio (x) = 0.40555 0.01633
# Poissons Ratio (y) = 0.60684 0.55786
# Poissons Ratio (z) = 0.01225 0.27955
#
# Static dielectric constant tensor:
#      x y z
#    x 3.310840 0.000000 -0.158700 
#    y 0.000000 3.044240 0.000000 
#    z -0.158700 0.000000 4.021700 
# 
# 
# High freq. dielectric constant tensor:
#      x y z
#    x 1.661490 0.000000 -0.003370 
#    y 0.000000 1.652730 0.000000 
#    z -0.003370 0.000000 1.719200 
# 
# From -- ./inp_files/75346.got.cif
#   From: 2010.06.25/outbox.cif.g09.slc.cpg/sg12_38_cif.got.tgz:75346.got - 2010.06.28 00:19:55.
