data_PCOD8098352
_publ_section_title
;
Structure prediction by ZEFSAII (Michael W. Deem and Ramdas Pophale) SiO2 
 PCOD8098352
Probable space group: C 2/M
;
_chemical_formula_sum "Si O2"
_cell_formula_units_Z 56
_cell_length_a 26.724547
_cell_length_b 9.082569
_cell_length_c 19.150305
_cell_angle_alpha 90.000000
_cell_angle_beta 146.549568
_cell_angle_gamma 90.000000
_cell_volume 2562.217937
_symmetry_space_group_name_H-M "C 2/M"
_symmetry_group_IT_number 12
_symmetry_cell_setting 'monoclinic'
loop_
_space_group_symop_operation_xyz
x,y,z
-x,y,-z
-x,-y,-z
x,-y,z
1/2+x,1/2+y,z
1/2-x,1/2+y,-z
1/2-x,1/2-y,-z
1/2+x,1/2-y,z
loop_
_atom_site_type_symbol
_atom_site_label
_atom_site_fract_x
_atom_site_fract_y
_atom_site_fract_z
Si Si1 0.189637 0.665324 0.518726
Si Si2 0.046944 0.661480 0.879653
Si Si3 0.598971 0.835546 0.089641
Si Si4 0.878504 0.170647 0.680728
Si Si5 0.274663 0.166940 0.288696
Si Si6 0.653669 0.822486 0.868044
Si Si7 0.089998 0.175080 0.650708
O O1 0.182078 0.500000 0.480122
O O2 0.120491 0.770495 0.397980
O O3 0.291121 0.725641 0.621393
O O4 0.164046 0.668690 0.570202
O O5 0.008310 0.500000 0.817410
O O6 0.093327 0.724006 0.864250
O O7 0.967074 0.761290 0.818333
O O8 0.114277 0.656783 0.023669
O O9 0.676411 0.720573 0.202058
O O10 0.615491 0.000000 0.140140
O O11 0.500000 0.779807 0.000000
O O12 0.889920 0.000000 0.693791
O O13 0.320625 0.276133 0.287514
O O14 0.267916 0.000000 0.250878
O O15 0.601714 0.756384 0.739323
O O16 0.663876 0.000000 0.872217
O O17 0.750000 0.750000 0.000000
O O18 0.000000 0.220659 0.500000
O O19 0.091269 0.000000 0.664114
#
# Coordination Sequence:
#
# PCOD8098352 Si02
#       7
#     8   8   8   8   8   8   8
#     4   9  20  37  55  82 120 157 193 239 297 360
#     4  10  22  38  58  86 121 158 198 247 305 363
#     4  10  21  38  62  93 130 171 211 254 310 379
#     4  10  20  34  56  85 116 154 199 242 289 353
#     4  11  23  39  63  90 122 163 207 259 321 384
#     4  11  24  43  68  95 128 171 218 273 332 393
#     4  11  26  46  67  94 130 170 221 285 343 402
#
# _framework density 21.856065000000001
#
# number of rings (size 3 to 8) (size 9 to 14) (size 15 to 20)
#    0.000    1.714    0.000    3.429    2.000    6.000 
#    0.000    0.000    0.000    0.000    0.000    0.000 
#    0.000    0.000    0.000    0.000    0.000    0.000 
#
# Total GULP energy -346953.157788 kJ/mol
# GULP energy per Si atom -12391.184207 kJ/mol
# Density = 2.180632 g / cm^3
# Si number density = 21.856065 Si / 1000 Ang^3
#
#
#
# Elastic Constant Matrix: (Units=GPa)
#
#
# Indices 1 2 3 4 5 6 
#
# 1 83.2551 19.2852 20.0986 0.0000 -12.5015 0.0000
# 2 19.2852 75.9765 30.9711 0.0000 -1.5074 0.0000
# 3 20.0986 30.9711 86.7522 0.0000 -6.0694 0.0000
# 4 0.0000 0.0000 0.0000 37.0882 0.0000 0.2534
# 5 -12.5015 -1.5074 -6.0694 0.0000 36.4235 0.0000
# 6 0.0000 0.0000 0.0000 0.2534 0.0000 29.2195
#
#
#
# Elastic Compliance Matrix: (Units=1/GPa)
#
#
# Indices 1 2 3 4 5 6 
#
# 1 0.013728 -0.002604 -0.001951 0.000000 0.004279 0.000000
# 2 -0.002604 0.015901 -0.005150 0.000000 -0.001094 0.000000
# 3 -0.001951 -0.005150 0.013918 0.000000 0.001436 0.000000
# 4 0.000000 0.000000 0.000000 0.026964 0.000000 -0.000234
# 5 0.004279 -0.001094 0.001436 0.000000 0.029118 0.000000
# 6 0.000000 0.000000 0.000000 -0.000234 0.000000 0.034226
#
#
# Mechanical properties :
#
#
# Convention : Reuss Voigt Hill
#
# Bulk Modulus (GPa) = 41.43195 42.96595 42.19895
# Shear Modulus (GPa) = 30.99606 32.25482 31.62544
#
# Velocity S-wave (km/s) = 3.76997 3.84576 3.80805
# Velocity P-wave (km/s) = 6.16021 6.27862 6.21970
#
# Compressibility (1/GPa) = 0.02413596
#
# Stress axis : x y z
#
# Youngs Moduli (GPa) = 72.84308 62.89084 71.84844
#
# Poissons Ratio (x) = 0.16378 0.14021
# Poissons Ratio (y) = 0.18970 0.37000
# Poissons Ratio (z) = 0.14215 0.32387
#
# Static dielectric constant tensor:
#      x y z
#    x 3.908240 0.000000 -0.104670 
#    y 0.000000 3.904160 0.000000 
#    z -0.104670 0.000000 4.089600 
# 
# 
# High freq. dielectric constant tensor:
#      x y z
#    x 1.862630 0.000000 -0.011060 
#    y 0.000000 1.855990 0.000000 
#    z -0.011060 0.000000 1.859670 
# 
# From -- ./inp_files/329648.got.cif
#   From: 2010.06.25/outbox.cif.g09.slc.cpg/sg12_165_cif.got.tgz:329648.got - 2010.06.28 00:19:55.
