data_PCOD8098145
_publ_section_title
;
Structure prediction by ZEFSAII (Michael W. Deem and Ramdas Pophale) SiO2 
 PCOD8098145
Probable space group: C 2/M
;
_chemical_formula_sum "Si O2"
_cell_formula_units_Z 56
_cell_length_a 19.404237
_cell_length_b 9.086984
_cell_length_c 24.360287
_cell_angle_alpha 90.000000
_cell_angle_beta 43.829577
_cell_angle_gamma 90.000000
_cell_volume 2974.598377
_symmetry_space_group_name_H-M "C 2/M"
_symmetry_group_IT_number 12
_symmetry_cell_setting 'monoclinic'
loop_
_space_group_symop_operation_xyz
x,y,z
-x,y,-z
-x,-y,-z
x,-y,z
1/2+x,1/2+y,z
1/2-x,1/2+y,-z
1/2-x,1/2-y,-z
1/2+x,1/2-y,z
loop_
_atom_site_type_symbol
_atom_site_label
_atom_site_fract_x
_atom_site_fract_y
_atom_site_fract_z
Si Si1 0.454278 0.670844 0.817373
Si Si2 0.668287 0.667530 0.013962
Si Si3 0.283282 0.173138 0.847193
Si Si4 0.999161 0.170955 0.437097
Si Si5 0.306202 0.173038 0.516682
Si Si6 0.320650 0.671966 0.304789
Si Si7 0.784551 0.827197 0.731852
O O1 0.435230 0.500000 0.813451
O O2 0.435595 0.698573 0.894287
O O3 0.382636 0.767427 0.820144
O O4 0.567940 0.714745 0.740386
O O5 0.698162 0.500000 0.002693
O O6 0.750000 0.750000 0.000000
O O7 0.682662 0.708371 0.941308
O O8 0.263523 0.254028 0.801992
O O9 0.297376 0.000000 0.828642
O O10 0.918507 0.268707 0.452187
O O11 0.000000 0.215916 0.500000
O O12 0.104179 0.211620 0.350488
O O13 0.972058 0.000000 0.445108
O O14 0.250000 0.250000 0.500000
O O15 0.253286 0.216404 0.603929
O O16 0.305430 0.000000 0.507206
O O17 0.313483 0.500000 0.294495
O O18 0.293109 0.763973 0.267099
O O19 0.767628 0.000000 0.746191
#
# Coordination Sequence:
#
# PCOD8098145 Si02
#       7
#     8   8   8   8   8   8   8
#     4   9  18  35  58  82 110 146 183 222 272 324
#     4   8  15  30  53  79 108 142 179 220 267 319
#     4  10  20  34  55  85 114 141 181 228 270 322
#     4  10  21  40  61  80 105 143 187 228 271 323
#     4  11  24  39  58  84 114 146 181 225 273 323
#     4  10  22  39  57  80 111 144 181 225 272 324
#     4  11  23  38  58  80 108 146 185 226 275 327
#
# _framework density 18.826072
#
# number of rings (size 3 to 8) (size 9 to 14) (size 15 to 20)
#    0.000    2.143    1.429    1.286    2.000    3.143 
#    0.000    0.714    0.000    4.286    0.000    0.000 
#    0.000    0.000    0.000    0.000    0.000    0.000 
#
# Total GULP energy -347059.916943 kJ/mol
# GULP energy per Si atom -12394.997034 kJ/mol
# Density = 1.878322 g / cm^3
# Si number density = 18.826072 Si / 1000 Ang^3
#
#
#
# Elastic Constant Matrix: (Units=GPa)
#
#
# Indices 1 2 3 4 5 6 
#
# 1 78.7050 33.8481 12.4066 0.0000 15.4495 -0.0003
# 2 33.8481 59.6904 25.6703 0.0000 11.6891 -0.0005
# 3 12.4066 25.6703 51.0295 -0.0001 16.6742 -0.0001
# 4 0.0000 0.0000 -0.0001 28.0154 0.0000 3.9468
# 5 15.4495 11.6891 16.6742 0.0000 32.6193 0.0000
# 6 -0.0003 -0.0005 -0.0001 3.9468 0.0000 35.9024
#
#
#
# Elastic Compliance Matrix: (Units=1/GPa)
#
#
# Indices 1 2 3 4 5 6 
#
# 1 0.017831 -0.010082 0.002780 0.000000 -0.006253 0.000000
# 2 -0.010082 0.027264 -0.011563 0.000000 0.000916 0.000000
# 3 0.002780 -0.011563 0.028589 0.000000 -0.011787 0.000000
# 4 0.000000 0.000000 0.000000 0.036256 0.000000 -0.003986
# 5 -0.006253 0.000916 -0.011787 0.000000 0.039315 0.000000
# 6 0.000000 0.000000 0.000000 -0.003986 0.000000 0.028291
#
#
# Mechanical properties :
#
#
# Convention : Reuss Voigt Hill
#
# Bulk Modulus (GPa) = 27.81406 37.03053 32.42230
# Shear Modulus (GPa) = 22.00111 27.14075 24.57093
#
# Velocity S-wave (km/s) = 3.42226 3.80104 3.61661
# Velocity P-wave (km/s) = 5.51563 6.24310 5.89061
#
# Compressibility (1/GPa) = 0.03595304
#
# Stress axis : x y z
#
# Youngs Moduli (GPa) = 56.08227 36.67884 34.97870
#
# Poissons Ratio (x) = 0.36980 -0.09724
# Poissons Ratio (y) = 0.56543 0.40446
# Poissons Ratio (z) = -0.15591 0.42412
#
# Static dielectric constant tensor:
#      x y z
#    x 3.331680 0.000000 -0.155820 
#    y 0.000000 3.459760 0.000000 
#    z -0.155820 0.000000 4.699980 
# 
# 
# High freq. dielectric constant tensor:
#      x y z
#    x 1.711860 0.000000 0.008090 
#    y 0.000000 1.735620 0.000000 
#    z 0.008090 0.000000 1.747890 
# 
# From -- ./inp_files/342247.got.cif
#   From: 2010.06.25/outbox.cif.g09.slc.cpg/sg12_172_cif.got.tgz:342247.got - 2010.06.28 00:19:55.
