data_PCOD8098014
_publ_section_title
;
Structure prediction by ZEFSAII (Michael W. Deem and Ramdas Pophale) SiO2 
 PCOD8098014
Probable space group: C 2/M
;
_chemical_formula_sum "Si O2"
_cell_formula_units_Z 56
_cell_length_a 24.860785
_cell_length_b 8.907868
_cell_length_c 14.842072
_cell_angle_alpha 90.000000
_cell_angle_beta 105.409163
_cell_angle_gamma 90.000000
_cell_volume 3168.721134
_symmetry_space_group_name_H-M "C 2/M"
_symmetry_group_IT_number 12
_symmetry_cell_setting 'monoclinic'
loop_
_space_group_symop_operation_xyz
x,y,z
-x,y,-z
-x,-y,-z
x,-y,z
1/2+x,1/2+y,z
1/2-x,1/2+y,-z
1/2-x,1/2-y,-z
1/2+x,1/2-y,z
loop_
_atom_site_type_symbol
_atom_site_label
_atom_site_fract_x
_atom_site_fract_y
_atom_site_fract_z
Si Si1 0.179494 0.825181 0.616612
Si Si2 0.996776 0.826429 0.601077
Si Si3 0.826741 0.174465 0.102637
Si Si4 0.398978 0.823057 0.272502
Si Si5 0.629722 0.672837 0.404575
Si Si6 0.305402 0.174806 0.720947
Si Si7 0.785581 0.825202 0.890762
O O1 0.143443 0.730707 0.670025
O O2 0.162147 0.777096 0.508723
O O3 0.244126 0.785338 0.657021
O O4 0.166531 0.000000 0.627536
O O5 0.935632 0.799858 0.612498
O O6 0.000000 0.768088 0.500000
O O7 0.038676 0.731889 0.680814
O O8 0.014756 0.000000 0.612495
O O9 0.880301 0.258350 0.167141
O O10 0.771542 0.233868 0.127253
O O11 0.831297 0.000000 0.127505
O O12 0.824455 0.205219 0.994823
O O13 0.398238 0.000000 0.267558
O O14 0.642878 0.500000 0.387795
O O15 0.649421 0.776750 0.332130
O O16 0.318239 0.266500 0.817917
O O17 0.312084 0.000000 0.744484
O O18 0.770857 0.000000 0.875453
#
# Coordination Sequence:
#
# PCOD8098014 Si02
#       7
#     8   8   8   8   8   8   8
#     4  10  20  36  54  77 110 151 187 219 269 325
#     4  10  20  38  60  78 104 147 189 229 275 321
#     4  10  20  35  55  80 111 144 180 224 274 328
#     4  12  23  33  54  84 114 145 179 229 277 322
#     4  10  21  37  57  77 106 149 192 228 265 323
#     4  11  22  34  54  81 115 152 180 221 275 328
#     4  10  20  34  55  82 110 142 182 225 270 325
#
# _framework density 17.672746
#
# number of rings (size 3 to 8) (size 9 to 14) (size 15 to 20)
#    0.000    1.571    2.857    3.000    0.000    3.714 
#    0.000    0.000    0.000    0.857    0.000    6.000 
#    0.000    0.000    0.000    0.000    0.000    0.000 
#
# Total GULP energy -347347.608666 kJ/mol
# GULP energy per Si atom -12405.271738 kJ/mol
# Density = 1.763252 g / cm^3
# Si number density = 17.672746 Si / 1000 Ang^3
#
#
#
# Elastic Constant Matrix: (Units=GPa)
#
#
# Indices 1 2 3 4 5 6 
#
# 1 76.0256 40.3633 50.2781 0.0000 2.1451 0.0000
# 2 40.3633 96.3186 61.3285 0.0000 5.5094 0.0000
# 3 50.2781 61.3285 133.1599 0.0000 5.3990 0.0000
# 4 0.0000 0.0000 0.0000 27.9107 0.0000 -0.4088
# 5 2.1451 5.5094 5.3990 0.0000 21.7833 0.0000
# 6 0.0000 0.0000 0.0000 -0.4088 0.0000 28.5130
#
#
#
# Elastic Compliance Matrix: (Units=1/GPa)
#
#
# Indices 1 2 3 4 5 6 
#
# 1 0.018985 -0.004825 -0.004970 0.000000 0.000582 0.000000
# 2 -0.004825 0.016008 -0.005461 0.000000 -0.002220 0.000000
# 3 -0.004970 -0.005461 0.011946 0.000000 -0.001090 0.000000
# 4 0.000000 0.000000 0.000000 0.035836 0.000000 0.000514
# 5 0.000582 -0.002220 -0.001090 0.000000 0.046681 0.000000
# 6 0.000000 0.000000 0.000000 0.000514 0.000000 0.035079
#
#
# Mechanical properties :
#
#
# Convention : Reuss Voigt Hill
#
# Bulk Modulus (GPa) = 60.87290 67.71600 64.29445
# Shear Modulus (GPa) = 24.93479 25.87702 25.40590
#
# Velocity S-wave (km/s) = 3.76029 3.83068 3.79565
# Velocity P-wave (km/s) = 7.30564 7.61349 7.46115
#
# Compressibility (1/GPa) = 0.01642767
#
# Stress axis : x y z
#
# Youngs Moduli (GPa) = 52.67214 62.46754 83.71257
#
# Poissons Ratio (x) = 0.30140 0.41604
# Poissons Ratio (y) = 0.25414 0.45716
# Poissons Ratio (z) = 0.26177 0.34114
#
# Static dielectric constant tensor:
#      x y z
#    x 3.073450 0.000000 0.107250 
#    y 0.000000 3.283410 0.000000 
#    z 0.107250 0.000000 3.509620 
# 
# 
# High freq. dielectric constant tensor:
#      x y z
#    x 1.660380 0.000000 0.004010 
#    y 0.000000 1.689400 0.000000 
#    z 0.004010 0.000000 1.691540 
# 
# From -- ./inp_files/237783.got.cif
#   From: 2010.06.25/outbox.cif.g09.slc.cpg/sg12_119_cif.got.tgz:237783.got - 2010.06.28 00:19:55.
