data_PCOD8098771
_publ_section_title
;
Structure prediction by ZEFSAII (Michael W. Deem and Ramdas Pophale) SiO2 
 PCOD8098771
Probable space group: C 2/M
;
_chemical_formula_sum "Si O2"
_cell_formula_units_Z 64
_cell_length_a 22.692463
_cell_length_b 8.911534
_cell_length_c 17.230930
_cell_angle_alpha 90.000000
_cell_angle_beta 77.253342
_cell_angle_gamma 90.000000
_cell_volume 3398.643585
_symmetry_space_group_name_H-M "C 2/M"
_symmetry_group_IT_number 12
_symmetry_cell_setting 'monoclinic'
loop_
_space_group_symop_operation_xyz
x,y,z
-x,y,-z
-x,-y,-z
x,-y,z
1/2+x,1/2+y,z
1/2-x,1/2+y,-z
1/2-x,1/2-y,-z
1/2+x,1/2-y,z
loop_
_atom_site_type_symbol
_atom_site_label
_atom_site_fract_x
_atom_site_fract_y
_atom_site_fract_z
Si Si1 0.464220 0.175593 0.193064
Si Si2 0.184788 0.321957 0.011695
Si Si3 0.851705 0.320940 0.675763
Si Si4 0.382703 0.174622 0.362361
Si Si5 0.364883 0.676150 0.126520
Si Si6 0.567721 0.178997 0.489501
Si Si7 0.900317 0.677984 0.824379
Si Si8 0.215837 0.175837 0.704190
O O1 0.435163 0.208380 0.285209
O O2 0.430306 0.269827 0.136654
O O3 0.532607 0.236009 0.175474
O O4 0.460246 0.000000 0.173150
O O5 0.191408 0.500000 0.007949
O O6 0.145771 0.267289 0.096463
O O7 0.250000 0.250000 0.000000
O O8 0.150903 0.266868 0.945414
O O9 0.851536 0.500000 0.677976
O O10 0.892173 0.260266 0.593299
O O11 0.878696 0.256098 0.748095
O O12 0.783689 0.260167 0.685072
O O13 0.404232 0.240569 0.438511
O O14 0.320094 0.251452 0.356583
O O15 0.369293 0.000000 0.372990
O O16 0.366173 0.500000 0.108221
O O17 0.314777 0.717630 0.205160
O O18 0.500000 0.242172 0.500000
O O19 0.566467 0.000000 0.490754
O O20 0.901884 0.500000 0.818924
O O21 0.215046 0.000000 0.690521
#
# Coordination Sequence:
#
# PCOD8098771 Si02
#       8
#     8   8   8   8   8   8   8   8
#     4   9  17  32  53  75 100 131 165 201 244 292
#     4  11  22  36  54  76 101 130 167 208 250 295
#     4   9  16  28  47  70  96 128 165 201 239 287
#     4   9  17  29  48  75 102 126 158 202 246 286
#     4  10  20  35  53  74 101 132 167 205 247 295
#     4   9  16  26  44  72 101 125 155 201 249 286
#     4   9  18  32  51  73  98 130 167 204 242 295
#     4   9  18  32  50  70  96 133 169 198 236 293
#
# _framework density 18.831043000000001
#
# number of rings (size 3 to 8) (size 9 to 14) (size 15 to 20)
#    0.000    2.625    0.000    2.250    0.000    6.500 
#    0.000    3.750    0.000    1.125    0.000    0.000 
#    0.000    0.000    0.000    0.000    0.000    0.000 
#
# Total GULP energy -396836.240776 kJ/mol
# GULP energy per Si atom -12401.132524 kJ/mol
# Density = 1.878818 g / cm^3
# Si number density = 18.831043 Si / 1000 Ang^3
#
#
#
# Elastic Constant Matrix: (Units=GPa)
#
#
# Indices 1 2 3 4 5 6 
#
# 1 187.2312 30.1388 91.6638 0.0000 2.3942 0.0000
# 2 30.1388 29.2389 33.2503 0.0000 2.2107 0.0000
# 3 91.6638 33.2503 155.5925 0.0000 14.7975 0.0000
# 4 0.0000 0.0000 0.0000 18.1037 0.0000 5.2645
# 5 2.3942 2.2107 14.7975 0.0000 32.2023 0.0000
# 6 0.0000 0.0000 0.0000 5.2645 0.0000 27.6523
#
#
#
# Elastic Compliance Matrix: (Units=1/GPa)
#
#
# Indices 1 2 3 4 5 6 
#
# 1 0.007869 -0.003686 -0.003991 0.000000 0.001502 0.000000
# 2 -0.003686 0.046968 -0.007931 0.000000 0.000694 0.000000
# 3 -0.003991 -0.007931 0.010868 0.000000 -0.004153 0.000000
# 4 0.000000 0.000000 0.000000 0.058475 0.000000 -0.011133
# 5 0.001502 0.000694 -0.004153 0.000000 0.032803 0.000000
# 6 0.000000 0.000000 0.000000 -0.011133 0.000000 0.038283
#
#
# Mechanical properties :
#
#
# Convention : Reuss Voigt Hill
#
# Bulk Modulus (GPa) = 28.99582 75.79648 52.39615
# Shear Modulus (GPa) = 21.01030 30.05897 25.53464
#
# Velocity S-wave (km/s) = 3.34387 3.99964 3.68637
# Velocity P-wave (km/s) = 5.50817 7.85288 6.78261
#
# Compressibility (1/GPa) = 0.03448773
#
# Stress axis : x y z
#
# Youngs Moduli (GPa) = 127.08033 21.29113 92.01215
#
# Poissons Ratio (x) = 0.07849 0.36721
# Poissons Ratio (y) = 0.46846 0.72979
# Poissons Ratio (z) = 0.50717 0.16887
#
# Static dielectric constant tensor:
#      x y z
#    x 3.730230 0.000000 0.065530 
#    y 0.000000 3.048550 0.000000 
#    z 0.065530 0.000000 3.629450 
# 
# 
# High freq. dielectric constant tensor:
#      x y z
#    x 1.746430 0.000000 0.006500 
#    y 0.000000 1.687120 0.000000 
#    z 0.006500 0.000000 1.738390 
# 
# From -- ./inp_files/281340.got.cif
#   From: 2010.06.25/outbox.cif.g09.slc.cpg/sg12_141_cif.got.tgz:281340.got - 2010.06.28 00:19:55.
