data_PCOD8098823
_publ_section_title
;
Structure prediction by ZEFSAII (Michael W. Deem and Ramdas Pophale) SiO2 
 PCOD8098823
Probable space group: C 2/M
;
_chemical_formula_sum "Si O2"
_cell_formula_units_Z 64
_cell_length_a 30.478915
_cell_length_b 8.840824
_cell_length_c 11.272717
_cell_angle_alpha 90.000000
_cell_angle_beta 87.906385
_cell_angle_gamma 90.000000
_cell_volume 3035.504290
_symmetry_space_group_name_H-M "C 2/M"
_symmetry_group_IT_number 12
_symmetry_cell_setting 'monoclinic'
loop_
_space_group_symop_operation_xyz
x,y,z
-x,y,-z
-x,-y,-z
x,-y,z
1/2+x,1/2+y,z
1/2-x,1/2+y,-z
1/2-x,1/2-y,-z
1/2+x,1/2-y,z
loop_
_atom_site_type_symbol
_atom_site_label
_atom_site_fract_x
_atom_site_fract_y
_atom_site_fract_z
Si Si1 0.630782 0.676243 0.345213
Si Si2 0.645718 0.678278 0.884097
Si Si3 0.385034 0.824223 0.882844
Si Si4 0.737041 0.179035 0.871002
Si Si5 0.773535 0.173366 0.610390
Si Si6 0.514915 0.823036 0.123851
Si Si7 0.951989 0.830605 0.508253
Si Si8 0.437920 0.667767 0.245412
O O1 0.624387 0.500000 0.310905
O O2 0.640657 0.783858 0.233204
O O3 0.674336 0.692957 0.421087
O O4 0.585896 0.744140 0.407362
O O5 0.653346 0.500000 0.862921
O O6 0.688105 0.771141 0.840798
O O7 0.604041 0.742675 0.814365
O O8 0.636515 0.713404 0.021008
O O9 0.435391 0.776733 0.857362
O O10 0.379685 0.000000 0.919108
O O11 0.763562 0.231282 0.748148
O O12 0.740927 0.000000 0.888828
O O13 0.750000 0.250000 0.000000
O O14 0.750000 0.250000 0.500000
O O15 0.758818 0.000000 0.607942
O O16 0.483400 0.756592 0.226866
O O17 0.508126 0.000000 0.125529
O O18 0.500000 0.753703 0.000000
O O19 0.928232 0.834781 0.384598
O O20 0.000000 0.746382 0.500000
O O21 0.961035 0.000000 0.555188
O O22 0.444139 0.500000 0.192320
#
# Coordination Sequence:
#
# PCOD8098823 Si02
#       8
#     8   8   8   8   8   8   8   8
#     4  10  21  39  64  89 120 159 202 253 304 360
#     4  11  23  37  59  90 121 156 201 252 310 372
#     4  11  22  37  59  87 122 161 204 250 305 368
#     4  11  24  43  66  95 128 164 210 262 320 381
#     4  10  24  43  66  95 127 166 212 261 317 377
#     4  10  20  35  53  78 118 162 197 242 304 362
#     4   9  18  34  57  86 119 154 194 246 303 355
#     4  10  21  35  56  86 115 152 204 251 298 360
#
# _framework density 21.083812000000002
#
# number of rings (size 3 to 8) (size 9 to 14) (size 15 to 20)
#    0.000    1.750    1.250    2.625    1.750    5.250 
#    0.000    0.625    0.000    2.250    0.000    0.000 
#    0.000    0.000    0.000    0.000    0.000    0.000 
#
# Total GULP energy -396492.502244 kJ/mol
# GULP energy per Si atom -12390.390695 kJ/mol
# Density = 2.103582 g / cm^3
# Si number density = 21.083812 Si / 1000 Ang^3
#
#
#
# Elastic Constant Matrix: (Units=GPa)
#
#
# Indices 1 2 3 4 5 6 
#
# 1 127.1365 27.9934 37.6901 0.0000 -11.6412 0.0000
# 2 27.9934 38.9448 22.6264 0.0000 -2.9363 0.0000
# 3 37.6901 22.6264 108.4514 0.0000 -4.0573 0.0000
# 4 0.0000 0.0000 0.0000 21.9187 0.0000 2.7342
# 5 -11.6412 -2.9363 -4.0573 0.0000 22.7853 0.0000
# 6 0.0000 0.0000 0.0000 2.7342 0.0000 27.0012
#
#
#
# Elastic Compliance Matrix: (Units=1/GPa)
#
#
# Indices 1 2 3 4 5 6 
#
# 1 0.010142 -0.005718 -0.002180 0.000000 0.004057 0.000000
# 2 -0.005718 0.032608 -0.004800 0.000000 0.000426 0.000000
# 3 -0.002180 -0.004800 0.010988 0.000000 0.000224 0.000000
# 4 0.000000 0.000000 0.000000 0.046207 0.000000 -0.004679
# 5 0.004057 0.000426 0.000224 0.000000 0.046055 0.000000
# 6 0.000000 0.000000 0.000000 -0.004679 0.000000 0.037509
#
#
# Mechanical properties :
#
#
# Convention : Reuss Voigt Hill
#
# Bulk Modulus (GPa) = 35.28228 50.12804 42.70516
# Shear Modulus (GPa) = 22.89867 26.75591 24.82729
#
# Velocity S-wave (km/s) = 3.29915 3.56620 3.43527
# Velocity P-wave (km/s) = 5.59313 6.38626 6.00281
#
# Compressibility (1/GPa) = 0.02834284
#
# Stress axis : x y z
#
# Youngs Moduli (GPa) = 98.59743 30.66719 91.00678
#
# Poissons Ratio (x) = 0.17535 0.19840
# Poissons Ratio (y) = 0.56376 0.43684
# Poissons Ratio (z) = 0.21495 0.14720
#
# Static dielectric constant tensor:
#      x y z
#    x 4.243830 0.000000 -0.022520 
#    y 0.000000 3.525100 0.000000 
#    z -0.022520 0.000000 3.882280 
# 
# 
# High freq. dielectric constant tensor:
#      x y z
#    x 1.843560 0.000000 0.001790 
#    y 0.000000 1.796630 0.000000 
#    z 0.001790 0.000000 1.828820 
# 
# From -- ./inp_files/187461.got.cif
#   From: 2010.06.25/outbox.cif.g09.slc.cpg/sg12_94_cif.got.tgz:187461.got - 2010.06.28 00:19:55.
