data_PCOD8098459
_publ_section_title
;
Structure prediction by ZEFSAII (Michael W. Deem and Ramdas Pophale) SiO2 
 PCOD8098459
Probable space group: C 2/M
;
_chemical_formula_sum "Si O2"
_cell_formula_units_Z 56
_cell_length_a 28.045957
_cell_length_b 24.066012
_cell_length_c 12.090267
_cell_angle_alpha 90.000000
_cell_angle_beta 158.519827
_cell_angle_gamma 90.000000
_cell_volume 2988.161048
_symmetry_space_group_name_H-M "C 2/M"
_symmetry_group_IT_number 12
_symmetry_cell_setting 'monoclinic'
loop_
_space_group_symop_operation_xyz
x,y,z
-x,y,-z
-x,-y,-z
x,-y,z
1/2+x,1/2+y,z
1/2-x,1/2+y,-z
1/2-x,1/2-y,-z
1/2+x,1/2-y,z
loop_
_atom_site_type_symbol
_atom_site_label
_atom_site_fract_x
_atom_site_fract_y
_atom_site_fract_z
Si Si1 0.843625 0.436534 0.906961
Si Si2 0.357182 0.563984 0.712401
Si Si3 0.891791 0.760184 0.859473
Si Si4 0.129226 0.065474 0.850212
Si Si5 0.515099 0.850780 0.162189
Si Si6 0.144591 0.434849 0.822006
Si Si7 0.306753 0.637333 0.803539
O O1 0.891289 0.500000 0.003649
O O2 0.717266 0.425390 0.561763
O O3 0.801711 0.420434 0.940453
O O4 0.965316 0.401584 0.127706
O O5 0.362393 0.500000 0.758147
O O6 0.286000 0.595954 0.656247
O O7 0.500000 0.588430 0.000000
O O8 0.750000 0.750000 0.500000
O O9 0.892143 0.809858 0.949607
O O10 0.000000 0.773497 0.000000
O O11 0.932937 0.704448 0.013065
O O12 0.000000 0.075672 0.500000
O O13 0.139989 0.000000 0.905568
O O14 0.253336 0.087472 0.047993
O O15 0.123358 0.103999 0.946500
O O16 0.662680 0.841041 0.520544
O O17 0.500000 0.864786 0.000000
O O18 0.134189 0.500000 0.780204
O O19 0.000000 0.408095 0.500000
#
# Coordination Sequence:
#
# PCOD8098459 Si02
#       7
#     8   8   8   8   8   8   8
#     4  10  20  34  57  85 120 156 194 248 304 366
#     4  10  21  33  50  85 121 151 187 238 308 371
#     4  11  21  40  62  89 124 162 202 251 310 373
#     4  10  23  41  62  91 125 162 207 257 306 366
#     4  11  21  37  56  90 126 155 200 250 307 380
#     4   9  18  35  56  79 112 159 203 234 283 354
#     4  12  22  38  63  86 119 160 205 252 314 373
#
# _framework density 18.740624
#
# number of rings (size 3 to 8) (size 9 to 14) (size 15 to 20)
#    0.000    1.571    4.286    1.714    2.000    2.571 
#    0.000    0.000    0.000    4.286    0.000    0.000 
#    0.000    0.000    0.000    0.000    0.000    0.000 
#
# Total GULP energy -347166.918143 kJ/mol
# GULP energy per Si atom -12398.818505 kJ/mol
# Density = 1.869797 g / cm^3
# Si number density = 18.740624 Si / 1000 Ang^3
#
#
#
# Elastic Constant Matrix: (Units=GPa)
#
#
# Indices 1 2 3 4 5 6 
#
# 1 104.5892 58.0868 43.9318 0.0000 -4.6816 0.0000
# 2 58.0868 89.7390 43.4016 0.0000 -4.1990 0.0000
# 3 43.9318 43.4016 114.3038 0.0000 5.4121 0.0000
# 4 0.0000 0.0000 0.0000 21.4530 0.0000 6.4403
# 5 -4.6816 -4.1990 5.4121 0.0000 35.5739 0.0000
# 6 0.0000 0.0000 0.0000 6.4403 0.0000 32.2799
#
#
#
# Elastic Compliance Matrix: (Units=1/GPa)
#
#
# Indices 1 2 3 4 5 6 
#
# 1 0.015624 -0.008707 -0.002768 0.000000 0.001450 0.000000
# 2 -0.008707 0.018712 -0.003836 0.000000 0.001646 0.000000
# 3 -0.002768 -0.003836 0.011390 0.000000 -0.002550 0.000000
# 4 0.000000 0.000000 0.000000 0.049583 0.000000 -0.009893
# 5 0.001450 0.001646 -0.002550 0.000000 0.028884 0.000000
# 6 0.000000 0.000000 0.000000 -0.009893 0.000000 0.032953
#
#
# Mechanical properties :
#
#
# Convention : Reuss Voigt Hill
#
# Bulk Modulus (GPa) = 66.20868 66.60804 66.40836
# Shear Modulus (GPa) = 25.93327 28.74215 27.33771
#
# Velocity S-wave (km/s) = 3.72398 3.92047 3.82349
# Velocity P-wave (km/s) = 7.34142 7.49084 7.41650
#
# Compressibility (1/GPa) = 0.01510376
#
# Stress axis : x y z
#
# Youngs Moduli (GPa) = 64.00273 53.44199 87.79804
#
# Poissons Ratio (x) = 0.46532 0.24299
# Poissons Ratio (y) = 0.55727 0.33683
# Poissons Ratio (z) = 0.17714 0.20503
#
# Static dielectric constant tensor:
#      x y z
#    x 3.527650 0.000000 0.140630 
#    y 0.000000 3.387580 0.000000 
#    z 0.140630 0.000000 3.528230 
# 
# 
# High freq. dielectric constant tensor:
#      x y z
#    x 1.721060 0.000000 0.010450 
#    y 0.000000 1.707790 0.000000 
#    z 0.010450 0.000000 1.736180 
# 
# From -- ./inp_files/185170.got.cif
#   From: 2010.06.25/outbox.cif.g09.slc.cpg/sg12_93_cif.got.tgz:185170.got - 2010.06.28 00:19:55.
