data_PCOD8098477
_publ_section_title
;
Structure prediction by ZEFSAII (Michael W. Deem and Ramdas Pophale) SiO2 
 PCOD8098477
Probable space group: C 2/M
;
_chemical_formula_sum "Si O2"
_cell_formula_units_Z 56
_cell_length_a 25.121347
_cell_length_b 8.983243
_cell_length_c 14.433232
_cell_angle_alpha 90.000000
_cell_angle_beta 120.973617
_cell_angle_gamma 90.000000
_cell_volume 2792.706881
_symmetry_space_group_name_H-M "C 2/M"
_symmetry_group_IT_number 12
_symmetry_cell_setting 'monoclinic'
loop_
_space_group_symop_operation_xyz
x,y,z
-x,y,-z
-x,-y,-z
x,-y,z
1/2+x,1/2+y,z
1/2-x,1/2+y,-z
1/2-x,1/2-y,-z
1/2+x,1/2-y,z
loop_
_atom_site_type_symbol
_atom_site_label
_atom_site_fract_x
_atom_site_fract_y
_atom_site_fract_z
Si Si1 0.457469 0.326624 0.374525
Si Si2 0.179118 0.825753 0.685794
Si Si3 0.226891 0.673941 0.070549
Si Si4 0.607492 0.675344 0.215855
Si Si5 0.505275 0.175580 0.232953
Si Si6 0.754827 0.174940 0.602773
Si Si7 0.907431 0.324843 0.987841
O O1 0.500000 0.289463 0.500000
O O2 0.460526 0.500000 0.350412
O O3 0.388285 0.277098 0.339466
O O4 0.479374 0.231391 0.307191
O O5 0.227892 0.778791 0.807070
O O6 0.197094 0.735142 0.610482
O O7 0.181407 0.000000 0.664138
O O8 0.227391 0.500000 0.053333
O O9 0.158342 0.731139 0.032447
O O10 0.250000 0.750000 0.000000
O O11 0.597270 0.500000 0.207576
O O12 0.570808 0.746021 0.269898
O O13 0.679864 0.718119 0.290530
O O14 0.578939 0.742114 0.096078
O O15 0.515024 0.000000 0.247431
O O16 0.458037 0.220271 0.108980
O O17 0.750000 0.250000 0.500000
O O18 0.748350 0.000000 0.584696
O O19 0.907665 0.500000 0.967088
#
# Coordination Sequence:
#
# PCOD8098477 Si02
#       7
#     8   8   8   8   8   8   8
#     4  10  23  42  63  89 123 161 204 254 305 362
#     4  10  21  40  64  89 121 162 201 247 306 359
#     4  10  20  34  57  86 119 158 200 245 295 355
#     4  11  24  41  63  92 124 161 204 251 304 362
#     4  11  24  40  62  91 125 165 205 250 305 362
#     4  11  25  42  64  93 123 159 202 253 308 362
#     4  10  21  39  60  88 125 161 200 250 306 360
#
# _framework density 20.052230999999999
#
# number of rings (size 3 to 8) (size 9 to 14) (size 15 to 20)
#    0.000    1.571    1.429    2.571    2.000    6.571 
#    0.000    0.000    0.000    0.000    0.000    0.000 
#    0.000    0.000    0.000    0.000    0.000    0.000 
#
# Total GULP energy -347362.199894 kJ/mol
# GULP energy per Si atom -12405.792853 kJ/mol
# Density = 2.000659 g / cm^3
# Si number density = 20.052231 Si / 1000 Ang^3
#
#
#
# Elastic Constant Matrix: (Units=GPa)
#
#
# Indices 1 2 3 4 5 6 
#
# 1 141.9401 49.7508 40.7982 0.0000 -17.2037 0.0000
# 2 49.7508 67.7860 48.1728 0.0000 -10.7543 0.0000
# 3 40.7982 48.1728 78.0436 0.0000 -16.9287 0.0000
# 4 0.0000 0.0000 0.0000 27.7248 0.0000 -12.8339
# 5 -17.2037 -10.7543 -16.9287 0.0000 35.8180 0.0000
# 6 0.0000 0.0000 0.0000 -12.8339 0.0000 38.6072
#
#
#
# Elastic Compliance Matrix: (Units=1/GPa)
#
#
# Indices 1 2 3 4 5 6 
#
# 1 0.009739 -0.006268 -0.000686 0.000000 0.002471 0.000000
# 2 -0.006268 0.030317 -0.015727 0.000000 -0.001341 0.000000
# 3 -0.000686 -0.015727 0.024272 0.000000 0.006420 0.000000
# 4 0.000000 0.000000 0.000000 0.042628 0.000000 0.014171
# 5 0.002471 -0.001341 0.006420 0.000000 0.031738 0.000000
# 6 0.000000 0.000000 0.000000 0.014171 0.000000 0.030612
#
#
# Mechanical properties :
#
#
# Convention : Reuss Voigt Hill
#
# Bulk Modulus (GPa) = 52.72857 62.80146 57.76502
# Shear Modulus (GPa) = 22.62530 30.36654 26.49592
#
# Velocity S-wave (km/s) = 3.36269 3.89572 3.63897
# Velocity P-wave (km/s) = 6.43658 7.18487 6.82100
#
# Compressibility (1/GPa) = 0.01896505
#
# Stress axis : x y z
#
# Youngs Moduli (GPa) = 102.67982 32.98497 41.19908
#
# Poissons Ratio (x) = 0.20676 0.02826
# Poissons Ratio (y) = 0.64362 0.64795
# Poissons Ratio (z) = 0.07043 0.51877
#
# Static dielectric constant tensor:
#      x y z
#    x 3.829100 0.000000 0.188940 
#    y 0.000000 3.536410 0.000000 
#    z 0.188940 0.000000 3.552700 
# 
# 
# High freq. dielectric constant tensor:
#      x y z
#    x 1.801940 0.000000 -0.000150 
#    y 0.000000 1.777870 0.000000 
#    z -0.000150 0.000000 1.788810 
# 
# From -- ./inp_files/239027.got.cif
#   From: 2010.06.25/outbox.cif.g09.slc.cpg/sg12_120_cif.got.tgz:239027.got - 2010.06.28 00:19:55.
