data_PCOD8098491
_publ_section_title
;
Structure prediction by ZEFSAII (Michael W. Deem and Ramdas Pophale) SiO2 
 PCOD8098491
Probable space group: C 2/M
;
_chemical_formula_sum "Si O2"
_cell_formula_units_Z 56
_cell_length_a 8.890107
_cell_length_b 17.762646
_cell_length_c 27.311946
_cell_angle_alpha 90.000000
_cell_angle_beta 38.846705
_cell_angle_gamma 90.000000
_cell_volume 2705.205540
_symmetry_space_group_name_H-M "C 2/M"
_symmetry_group_IT_number 12
_symmetry_cell_setting 'monoclinic'
loop_
_space_group_symop_operation_xyz
x,y,z
-x,y,-z
-x,-y,-z
x,-y,z
1/2+x,1/2+y,z
1/2-x,1/2+y,-z
1/2-x,1/2-y,-z
1/2+x,1/2-y,z
loop_
_atom_site_type_symbol
_atom_site_label
_atom_site_fract_x
_atom_site_fract_y
_atom_site_fract_z
Si Si1 0.451469 0.083137 0.874927
Si Si2 0.974720 0.302321 0.950090
Si Si3 0.853923 0.311370 0.816032
Si Si4 0.129242 0.648771 0.297763
Si Si5 0.366816 0.584780 0.584034
Si Si6 0.515238 0.416060 0.716333
Si Si7 0.087069 0.807869 0.338941
O O1 0.412312 0.122367 0.936759
O O2 0.303599 0.123609 0.868690
O O3 0.732426 0.080326 0.793509
O O4 0.342730 0.000000 0.906012
O O5 0.213557 0.263778 0.867445
O O6 0.000000 0.324408 0.000000
O O7 0.750000 0.250000 0.000000
O O8 0.775484 0.333888 0.781186
O O9 0.136224 0.296578 0.745993
O O10 0.919909 0.586697 0.349725
O O11 0.002649 0.721093 0.356888
O O12 0.357071 0.615055 0.267752
O O13 0.500000 0.601248 0.500000
O O14 0.429371 0.500000 0.587441
O O15 0.447673 0.650863 0.600503
O O16 0.612085 0.500000 0.679274
O O17 0.569152 0.357624 0.659079
#
# Coordination Sequence:
#
# PCOD8098491 Si02
#       7
#     8   8   8   8   8   8   8
#     4  10  22  40  59  84 117 151 193 245 293 343
#     4  12  24  39  62  85 114 159 196 241 292 357
#     4  10  21  39  59  87 114 156 197 229 289 359
#     4  11  21  35  62  88 117 146 196 246 279 340
#     4  10  22  40  59  82 118 161 196 230 289 360
#     4  10  20  34  57  87 116 144 187 244 293 335
#     4  10  20  37  61  84 116 152 193 241 286 342
#
# _framework density 20.700831000000001
#
# number of rings (size 3 to 8) (size 9 to 14) (size 15 to 20)
#    0.000    1.571    1.429    5.143    2.000    4.857 
#    0.000    2.143    0.000    2.571    0.000    0.000 
#    0.000    0.000    0.000    0.000    0.000    0.000 
#
# Total GULP energy -347105.422328 kJ/mol
# GULP energy per Si atom -12396.622226 kJ/mol
# Density = 2.065371 g / cm^3
# Si number density = 20.700831 Si / 1000 Ang^3
#
#
#
# Elastic Constant Matrix: (Units=GPa)
#
#
# Indices 1 2 3 4 5 6 
#
# 1 112.2078 32.1656 15.0223 0.0122 26.6868 0.0081
# 2 32.1656 126.3666 18.5965 0.0146 23.3276 -0.0030
# 3 15.0223 18.5965 65.8444 -0.0139 23.9513 -0.0071
# 4 0.0122 0.0146 -0.0139 22.8631 -0.0340 1.3210
# 5 26.6868 23.3276 23.9513 -0.0340 25.5053 0.0079
# 6 0.0081 -0.0030 -0.0071 1.3210 0.0079 30.9589
#
#
#
# Elastic Compliance Matrix: (Units=1/GPa)
#
#
# Indices 1 2 3 4 5 6 
#
# 1 0.012271 -0.000819 0.002779 -0.000026 -0.014700 0.000002
# 2 -0.000819 0.009599 0.000543 -0.000018 -0.008433 0.000004
# 3 0.002779 0.000543 0.023752 -0.000026 -0.025709 0.000012
# 4 -0.000026 -0.000018 -0.000026 0.043847 0.000128 -0.001871
# 5 -0.014700 -0.008433 -0.025709 0.000128 0.086444 -0.000030
# 6 0.000002 0.000004 0.000012 -0.001871 -0.000030 0.032381
#
#
# Mechanical properties :
#
#
# Convention : Reuss Voigt Hill
#
# Bulk Modulus (GPa) = 19.75187 48.44304 34.09745
# Shear Modulus (GPa) = 22.71055 31.77443 27.24249
#
# Velocity S-wave (km/s) = 3.31582 3.92207 3.63162
# Velocity P-wave (km/s) = 4.92157 6.63042 5.83885
#
# Compressibility (1/GPa) = 0.05062812
#
# Stress axis : x y z
#
# Youngs Moduli (GPa) = 81.49372 104.18167 42.10220
#
# Poissons Ratio (x) = 0.08530 -0.11700
# Poissons Ratio (y) = 0.06672 -0.02287
# Poissons Ratio (z) = -0.22646 -0.05660
#
# Static dielectric constant tensor:
#      x y z
#    x 3.934040 0.000080 0.135840 
#    y 0.000080 3.891360 0.000160 
#    z 0.135840 0.000160 3.408280 
# 
# 
# High freq. dielectric constant tensor:
#      x y z
#    x 1.820260 0.000000 0.012170 
#    y 0.000000 1.820680 0.000000 
#    z 0.012170 0.000000 1.777920 
# 
# From -- ./inp_files/257221.got.cif
#   From: 2010.06.25/outbox.cif.g09.slc.cpg/sg12_129_cif.got.tgz:257221.got - 2010.06.28 00:19:55.
