data_PCOD8098277
_publ_section_title
;
Structure prediction by ZEFSAII (Michael W. Deem and Ramdas Pophale) SiO2 
 PCOD8098277
Probable space group: C 2/M
;
_chemical_formula_sum "Si O2"
_cell_formula_units_Z 56
_cell_length_a 32.692031
_cell_length_b 9.099997
_cell_length_c 11.055488
_cell_angle_alpha 90.000000
_cell_angle_beta 120.100598
_cell_angle_gamma 90.000000
_cell_volume 2845.447430
_symmetry_space_group_name_H-M "C 2/M"
_symmetry_group_IT_number 12
_symmetry_cell_setting 'monoclinic'
loop_
_space_group_symop_operation_xyz
x,y,z
-x,y,-z
-x,-y,-z
x,-y,z
1/2+x,1/2+y,z
1/2-x,1/2+y,-z
1/2-x,1/2-y,-z
1/2+x,1/2-y,z
loop_
_atom_site_type_symbol
_atom_site_label
_atom_site_fract_x
_atom_site_fract_y
_atom_site_fract_z
Si Si1 0.196961 0.329955 0.182532
Si Si2 0.291723 0.172611 0.295786
Si Si3 0.659956 0.828567 0.383411
Si Si4 0.575992 0.669229 0.368882
Si Si5 0.980905 0.829993 0.103443
Si Si6 0.621904 0.327011 0.686779
Si Si7 0.398048 0.829913 0.102630
O O1 0.212300 0.500000 0.211875
O O2 0.239777 0.234491 0.193580
O O3 0.183794 0.269543 0.296242
O O4 0.153640 0.305893 0.028500
O O5 0.305893 0.211220 0.454429
O O6 0.327463 0.250366 0.256398
O O7 0.292978 0.000000 0.271532
O O8 0.608909 0.756164 0.324375
O O9 0.650450 0.000000 0.358194
O O10 0.587032 0.500000 0.360217
O O11 0.521453 0.705702 0.262121
O O12 0.587459 0.711741 0.523965
O O13 0.936127 0.728455 0.063457
O O14 0.965458 0.000000 0.086789
O O15 0.000000 0.789144 0.000000
O O16 0.629558 0.500000 0.713087
O O17 0.596671 0.262289 0.766979
O O18 0.407894 0.000000 0.144276
#
# Coordination Sequence:
#
# PCOD8098277 Si02
#       7
#     8   8   8   8   8   8   8
#     4  10  21  36  53  77 111 148 182 220 271 324
#     4  10  20  34  56  84 110 139 180 226 269 321
#     4   9  18  33  54  82 113 142 176 221 271 323
#     4   9  19  35  57  83 109 142 181 221 268 322
#     4  10  21  38  60  86 114 142 175 217 268 326
#     4  10  21  39  59  78 107 145 183 224 270 319
#     4  11  24  39  56  80 110 144 185 228 266 315
#
# _framework density 19.680561000000001
#
# number of rings (size 3 to 8) (size 9 to 14) (size 15 to 20)
#    0.000    2.143    0.000    2.571    0.000    4.857 
#    0.000    2.857    0.000    0.000    0.000    0.000 
#    0.000    0.000    0.000    0.000    0.000    0.000 
#
# Total GULP energy -347346.332587 kJ/mol
# GULP energy per Si atom -12405.226164 kJ/mol
# Density = 1.963577 g / cm^3
# Si number density = 19.680561 Si / 1000 Ang^3
#
#
#
# Elastic Constant Matrix: (Units=GPa)
#
#
# Indices 1 2 3 4 5 6 
#
# 1 88.6655 48.2936 40.3370 0.0000 -7.2755 0.0000
# 2 48.2936 84.2857 39.2191 0.0000 0.2168 0.0000
# 3 40.3370 39.2191 71.9512 0.0000 -3.2276 0.0000
# 4 0.0000 0.0000 0.0000 26.0366 0.0000 -0.0022
# 5 -7.2755 0.2168 -3.2276 0.0000 26.7189 0.0000
# 6 0.0000 0.0000 0.0000 -0.0022 0.0000 39.9466
#
#
#
# Elastic Compliance Matrix: (Units=1/GPa)
#
#
# Indices 1 2 3 4 5 6 
#
# 1 0.018671 -0.007947 -0.005937 0.000000 0.004432 0.000000
# 2 -0.007947 0.019316 -0.006211 0.000000 -0.003071 0.000000
# 3 -0.005937 -0.006211 0.020654 0.000000 0.000929 0.000000
# 4 0.000000 0.000000 0.000000 0.038407 0.000000 0.000002
# 5 0.004432 -0.003071 0.000929 0.000000 0.038770 0.000000
# 6 0.000000 0.000000 0.000000 0.000002 0.000000 0.025033
#
#
# Mechanical properties :
#
#
# Convention : Reuss Voigt Hill
#
# Bulk Modulus (GPa) = 54.19815 55.62242 54.91029
# Shear Modulus (GPa) = 24.13203 26.34393 25.23798
#
# Velocity S-wave (km/s) = 3.50549 3.66262 3.58492
# Velocity P-wave (km/s) = 6.63199 6.79782 6.71542
#
# Compressibility (1/GPa) = 0.01845081
#
# Stress axis : x y z
#
# Youngs Moduli (GPa) = 53.55760 51.77064 48.41701
#
# Poissons Ratio (x) = 0.41143 0.28745
# Poissons Ratio (y) = 0.42563 0.30073
# Poissons Ratio (z) = 0.31797 0.32156
#
# Static dielectric constant tensor:
#      x y z
#    x 3.502540 0.000000 -0.022910 
#    y 0.000000 3.530570 0.000000 
#    z -0.022910 0.000000 3.640000 
# 
# 
# High freq. dielectric constant tensor:
#      x y z
#    x 1.766290 0.000000 -0.000940 
#    y 0.000000 1.766550 0.000000 
#    z -0.000940 0.000000 1.770010 
# 
# From -- ./inp_files/180619.got.cif
#   From: 2010.06.25/outbox.cif.g09.slc.cpg/sg12_91_cif.got.tgz:180619.got - 2010.06.28 00:19:55.
