data_PCOD8098026
_publ_section_title
;
Structure prediction by ZEFSAII (Michael W. Deem and Ramdas Pophale) SiO2 
 PCOD8098026
Probable space group: C 2/M
;
_chemical_formula_sum "Si O2"
_cell_formula_units_Z 56
_cell_length_a 27.780476
_cell_length_b 9.129753
_cell_length_c 19.582827
_cell_angle_alpha 90.000000
_cell_angle_beta 141.974868
_cell_angle_gamma 90.000000
_cell_volume 3059.565760
_symmetry_space_group_name_H-M "C 2/M"
_symmetry_group_IT_number 12
_symmetry_cell_setting 'monoclinic'
loop_
_space_group_symop_operation_xyz
x,y,z
-x,y,-z
-x,-y,-z
x,-y,z
1/2+x,1/2+y,z
1/2-x,1/2+y,-z
1/2-x,1/2-y,-z
1/2+x,1/2-y,z
loop_
_atom_site_type_symbol
_atom_site_label
_atom_site_fract_x
_atom_site_fract_y
_atom_site_fract_z
Si Si1 0.632419 0.671154 0.064791
Si Si2 0.289772 0.167974 0.395374
Si Si3 0.310061 0.832837 0.262394
Si Si4 0.497334 0.170087 0.158304
Si Si5 0.956500 0.173029 0.383107
Si Si6 0.635558 0.171776 0.210078
Si Si7 0.046733 0.669513 0.365289
O O1 0.616721 0.500000 0.057946
O O2 0.721319 0.700128 0.140723
O O3 0.613855 0.750462 0.115182
O O4 0.577849 0.734577 0.944762
O O5 0.320186 0.203397 0.353512
O O6 0.216846 0.270559 0.332580
O O7 0.360498 0.201114 0.525957
O O8 0.261154 0.000000 0.367309
O O9 0.367540 0.730006 0.283648
O O10 0.332913 0.000000 0.272557
O O11 0.568507 0.210645 0.188591
O O12 0.520933 0.213225 0.260957
O O13 0.475479 0.000000 0.127663
O O14 0.000000 0.229264 0.500000
O O15 0.999453 0.232212 0.364790
O O16 0.955632 0.000000 0.378280
O O17 0.642621 0.000000 0.204387
O O18 0.029924 0.500000 0.363249
#
# Coordination Sequence:
#
# PCOD8098026 Si02
#       7
#     8   8   8   8   8   8   8
#     4  10  21  37  58  83 108 141 187 229 266 318
#     4   9  18  33  54  81 109 142 184 224 265 320
#     4   9  18  34  56  81 106 139 181 221 268 321
#     4  10  22  38  55  79 110 148 186 223 271 322
#     4  11  22  34  54  86 114 136 174 224 273 323
#     4  10  20  34  55  82 112 143 181 228 274 319
#     4  10  21  38  57  77 110 150 185 219 266 330
#
# _framework density 18.303252000000001
#
# number of rings (size 3 to 8) (size 9 to 14) (size 15 to 20)
#    0.000    2.143    1.429    2.571    0.000    8.000 
#    0.000    0.714    0.000    0.000    0.000    0.000 
#    0.000    0.000    0.000    0.000    0.000    0.000 
#
# Total GULP energy -347300.199781 kJ/mol
# GULP energy per Si atom -12403.578564 kJ/mol
# Density = 1.826159 g / cm^3
# Si number density = 18.303252 Si / 1000 Ang^3
#
#
#
# Elastic Constant Matrix: (Units=GPa)
#
#
# Indices 1 2 3 4 5 6 
#
# 1 61.1166 38.7141 56.2195 0.0000 9.3090 0.0000
# 2 38.7141 75.1429 58.2555 0.0000 7.5998 0.0000
# 3 56.2195 58.2555 140.9749 0.0000 2.8745 0.0000
# 4 0.0000 0.0000 0.0000 28.1083 0.0000 8.3732
# 5 9.3090 7.5998 2.8745 0.0000 21.0001 0.0000
# 6 0.0000 0.0000 0.0000 8.3732 0.0000 27.5144
#
#
#
# Elastic Compliance Matrix: (Units=1/GPa)
#
#
# Indices 1 2 3 4 5 6 
#
# 1 0.031170 -0.008241 -0.008829 0.000000 -0.009626 0.000000
# 2 -0.008241 0.022543 -0.005954 0.000000 -0.003690 0.000000
# 3 -0.008829 -0.005954 0.012987 0.000000 0.004291 0.000000
# 4 0.000000 0.000000 0.000000 0.039123 0.000000 -0.011906
# 5 -0.009626 -0.003690 0.004291 0.000000 0.052634 0.000000
# 6 0.000000 0.000000 0.000000 -0.011906 0.000000 0.039968
#
#
# Mechanical properties :
#
#
# Convention : Reuss Voigt Hill
#
# Bulk Modulus (GPa) = 48.41887 64.84586 56.63236
# Shear Modulus (GPa) = 19.89217 23.59425 21.74321
#
# Velocity S-wave (km/s) = 3.30026 3.59426 3.45039
# Velocity P-wave (km/s) = 6.40573 7.26158 6.84704
#
# Compressibility (1/GPa) = 0.02065311
#
# Stress axis : x y z
#
# Youngs Moduli (GPa) = 32.08247 44.36040 77.00003
#
# Poissons Ratio (x) = 0.36557 0.67980
# Poissons Ratio (y) = 0.26439 0.45844
# Poissons Ratio (z) = 0.28324 0.26411
#
# Static dielectric constant tensor:
#      x y z
#    x 3.194590 0.000000 0.113560 
#    y 0.000000 3.349160 0.000000 
#    z 0.113560 0.000000 3.491820 
# 
# 
# High freq. dielectric constant tensor:
#      x y z
#    x 1.699220 0.000000 0.013970 
#    y 0.000000 1.712290 0.000000 
#    z 0.013970 0.000000 1.711020 
# 
# From -- ./inp_files/288186.got.cif
#   From: 2010.06.25/outbox.cif.g09.slc.cpg/sg12_145_cif.got.tgz:288186.got - 2010.06.28 00:19:55.
