data_PCOD8098040
_publ_section_title
;
Structure prediction by ZEFSAII (Michael W. Deem and Ramdas Pophale) SiO2 
 PCOD8098040
Probable space group: C 2/M
;
_chemical_formula_sum "Si O2"
_cell_formula_units_Z 64
_cell_length_a 21.077427
_cell_length_b 17.553387
_cell_length_c 24.778230
_cell_angle_alpha 90.000000
_cell_angle_beta 159.034272
_cell_angle_gamma 90.000000
_cell_volume 3280.202195
_symmetry_space_group_name_H-M "C 2/M"
_symmetry_group_IT_number 12
_symmetry_cell_setting 'monoclinic'
loop_
_space_group_symop_operation_xyz
x,y,z
-x,y,-z
-x,-y,-z
x,-y,z
1/2+x,1/2+y,z
1/2-x,1/2+y,-z
1/2-x,1/2-y,-z
1/2+x,1/2-y,z
loop_
_atom_site_type_symbol
_atom_site_label
_atom_site_fract_x
_atom_site_fract_y
_atom_site_fract_z
Si Si1 0.125895 0.919560 0.550407
Si Si2 0.062373 0.310095 0.199183
Si Si3 0.393994 0.330826 0.290687
Si Si4 0.134611 0.084383 0.310283
Si Si5 0.224727 0.909257 0.914628
Si Si6 0.704974 0.915909 0.677054
Si Si7 0.721805 0.769204 0.538442
Si Si8 0.860206 0.769901 0.845968
O O1 0.269015 0.859529 0.682105
O O2 0.000000 0.929472 0.500000
O O3 0.009366 0.899200 0.405930
O O4 0.219334 0.000000 0.610937
O O5 0.116352 0.265051 0.296583
O O6 0.041233 0.253232 0.131575
O O7 0.893876 0.365237 0.074379
O O8 0.321831 0.363027 0.176877
O O9 0.524009 0.257968 0.393683
O O10 0.237789 0.303964 0.206454
O O11 0.163446 0.093837 0.269404
O O12 0.269863 0.139932 0.448584
O O13 0.930834 0.100806 0.165048
O O14 0.188389 0.000000 0.372019
O O15 0.262970 0.000000 0.934232
O O16 0.500000 0.911309 0.500000
O O17 0.737082 0.844155 0.741200
O O18 0.742562 0.000000 0.732989
O O19 0.750000 0.750000 0.500000
O O20 0.000000 0.799068 0.000000
#
# Coordination Sequence:
#
# PCOD8098040 Si02
#       8
#     8   8   8   8   8   8   8   8
#     4  10  20  34  55  82 114 157 208 258 297 341
#     4  11  23  39  59  88 125 165 208 259 303 368
#     4  11  22  37  59  88 126 158 212 251 312 362
#     4  10  21  40  65  92 123 161 205 253 316 379
#     4  11  23  41  61  88 130 173 208 252 309 378
#     4  10  22  42  70  94 118 158 203 258 322 375
#     4  11  22  40  63  93 117 159 209 265 313 370
#     4  12  23  38  59  93 127 163 203 254 308 370
#
# _framework density 19.510992000000002
#
# number of rings (size 3 to 8) (size 9 to 14) (size 15 to 20)
#    0.000    1.250    5.000    1.500    1.750    0.750 
#    2.250    1.250    0.000    0.000    0.000    0.000 
#    0.000    0.000    0.000    0.000    0.000    0.000 
#
# Total GULP energy -396508.816726 kJ/mol
# GULP energy per Si atom -12390.900523 kJ/mol
# Density = 1.946658 g / cm^3
# Si number density = 19.510992 Si / 1000 Ang^3
#
#
#
# Elastic Constant Matrix: (Units=GPa)
#
#
# Indices 1 2 3 4 5 6 
#
# 1 92.0787 30.9231 36.4259 0.0264 -4.4462 -0.0117
# 2 30.9231 125.9549 41.4346 0.0258 -5.3300 0.0436
# 3 36.4259 41.4346 86.0999 0.0097 -9.1973 0.0211
# 4 0.0264 0.0258 0.0097 26.0053 -0.0253 7.5900
# 5 -4.4462 -5.3300 -9.1973 -0.0253 29.7120 0.0091
# 6 -0.0117 0.0436 0.0211 7.5900 0.0091 28.2087
#
#
#
# Elastic Compliance Matrix: (Units=1/GPa)
#
#
# Indices 1 2 3 4 5 6 
#
# 1 0.013339 -0.001683 -0.004811 -0.000014 0.000205 0.000016
# 2 -0.001683 0.009648 -0.003902 -0.000003 0.000271 -0.000012
# 3 -0.004811 -0.003902 0.015902 0.000010 0.003502 -0.000012
# 4 -0.000014 -0.000003 0.000010 0.041731 0.000039 -0.011228
# 5 0.000205 0.000271 0.003502 0.000039 0.034820 -0.000025
# 6 0.000016 -0.000012 -0.000012 -0.011228 -0.000025 0.038471
#
#
# Mechanical properties :
#
#
# Convention : Reuss Voigt Hill
#
# Bulk Modulus (GPa) = 55.26232 57.96675 56.61453
# Shear Modulus (GPa) = 27.66488 29.80852 28.73670
#
# Velocity S-wave (km/s) = 3.76960 3.91292 3.84193
# Velocity P-wave (km/s) = 6.87980 7.08441 6.98286
#
# Compressibility (1/GPa) = 0.01809551
#
# Stress axis : x y z
#
# Youngs Moduli (GPa) = 74.96930 103.65243 62.88668
#
# Poissons Ratio (x) = 0.17449 0.30256
# Poissons Ratio (y) = 0.12621 0.24536
# Poissons Ratio (z) = 0.36069 0.40442
#
# Static dielectric constant tensor:
#      x y z
#    x 3.453150 -0.000170 0.033760 
#    y -0.000170 4.093750 -0.000190 
#    z 0.033760 -0.000190 3.497140 
# 
# 
# High freq. dielectric constant tensor:
#      x y z
#    x 1.755670 -0.000010 0.005720 
#    y -0.000010 1.778830 -0.000020 
#    z 0.005720 -0.000020 1.747490 
# 
# From -- ./inp_files/347924.got.cif
#   From: 2010.06.25/outbox.cif.g09.slc.cpg/sg12_174_cif.got.tgz:347924.got - 2010.06.28 00:19:55.
