data_PCOD8098134
_publ_section_title
;
Structure prediction by ZEFSAII (Michael W. Deem and Ramdas Pophale) SiO2 
 PCOD8098134
Probable space group: C 2/M
;
_chemical_formula_sum "Si O2"
_cell_formula_units_Z 56
_cell_length_a 30.971734
_cell_length_b 9.060791
_cell_length_c 20.994679
_cell_angle_alpha 90.000000
_cell_angle_beta 28.608174
_cell_angle_gamma 90.000000
_cell_volume 2821.048369
_symmetry_space_group_name_H-M "C 2/M"
_symmetry_group_IT_number 12
_symmetry_cell_setting 'monoclinic'
loop_
_space_group_symop_operation_xyz
x,y,z
-x,y,-z
-x,-y,-z
x,-y,z
1/2+x,1/2+y,z
1/2-x,1/2+y,-z
1/2-x,1/2-y,-z
1/2+x,1/2-y,z
loop_
_atom_site_type_symbol
_atom_site_label
_atom_site_fract_x
_atom_site_fract_y
_atom_site_fract_z
Si Si1 0.128502 0.834323 0.690200
Si Si2 0.715979 0.672693 0.107811
Si Si3 0.961413 0.668813 0.617964
Si Si4 0.284821 0.827639 0.153411
Si Si5 0.544178 0.670080 0.009032
Si Si6 0.215412 0.833251 0.449297
Si Si7 0.653650 0.168009 0.408844
O O1 0.136032 0.818718 0.604260
O O2 0.189262 0.709974 0.643797
O O3 0.025792 0.806947 0.842914
O O4 0.159326 0.000000 0.671064
O O5 0.709661 0.500000 0.102116
O O6 0.616854 0.727863 0.254653
O O7 0.785297 0.704662 0.076659
O O8 0.750000 0.750000 0.000000
O O9 0.926024 0.500000 0.659863
O O10 0.000000 0.720611 0.500000
O O11 0.046107 0.684265 0.555923
O O12 0.191165 0.761587 0.300871
O O13 0.286474 0.000000 0.164956
O O14 0.367334 0.758466 0.085644
O O15 0.572014 0.500000 0.964029
O O16 0.500000 0.728646 0.000000
O O17 0.198403 0.720713 0.415407
O O18 0.221819 0.000000 0.414870
O O19 0.681605 0.000000 0.360001
#
# Coordination Sequence:
#
# PCOD8098134 Si02
#       7
#     8   8   8   8   8   8   8
#     4   9  19  36  55  79 115 156 197 239 293 353
#     4  11  25  43  65  93 128 167 208 257 313 373
#     4  10  21  40  65  91 120 157 202 249 301 362
#     4  11  24  40  60  89 121 155 199 251 304 362
#     4  10  21  37  59  86 118 158 201 243 293 359
#     4  10  20  34  55  84 117 152 194 245 295 350
#     4  11  22  37  61  88 116 153 197 245 299 361
#
# _framework density 19.850777000000001
#
# number of rings (size 3 to 8) (size 9 to 14) (size 15 to 20)
#    0.000    1.714    1.429    2.571    0.000    6.857 
#    0.000    2.857    0.000    0.000    0.000    0.000 
#    0.000    0.000    0.000    0.000    0.000    0.000 
#
# Total GULP energy -347202.787703 kJ/mol
# GULP energy per Si atom -12400.099561 kJ/mol
# Density = 1.980560 g / cm^3
# Si number density = 19.850777 Si / 1000 Ang^3
#
#
#
# Elastic Constant Matrix: (Units=GPa)
#
#
# Indices 1 2 3 4 5 6 
#
# 1 105.3179 62.2156 43.5240 -0.0056 6.4155 0.0020
# 2 62.2156 107.5793 56.2680 -0.0073 -0.0345 0.0079
# 3 43.5240 56.2680 107.1719 -0.0107 7.5494 0.0065
# 4 -0.0056 -0.0073 -0.0107 35.1361 0.0051 0.1536
# 5 6.4155 -0.0345 7.5494 0.0051 28.1709 -0.0021
# 6 0.0020 0.0079 0.0065 0.1536 -0.0021 28.3625
#
#
#
# Elastic Compliance Matrix: (Units=1/GPa)
#
#
# Indices 1 2 3 4 5 6 
#
# 1 0.014984 -0.007709 -0.001832 0.000001 -0.002931 0.000001
# 2 -0.007709 0.016876 -0.005967 0.000000 0.003375 -0.000003
# 3 -0.001832 -0.005967 0.013432 0.000003 -0.003190 -0.000002
# 4 0.000001 0.000000 0.000003 0.028461 -0.000006 -0.000154
# 5 -0.002931 0.003375 -0.003190 -0.000006 0.037024 0.000003
# 6 0.000001 -0.000003 -0.000002 -0.000154 0.000003 0.035259
#
#
# Mechanical properties :
#
#
# Convention : Reuss Voigt Hill
#
# Bulk Modulus (GPa) = 70.04212 71.56494 70.80353
# Shear Modulus (GPa) = 27.50100 28.87133 28.18617
#
# Velocity S-wave (km/s) = 3.72612 3.81782 3.77225
# Velocity P-wave (km/s) = 7.33981 7.45413 7.39719
#
# Compressibility (1/GPa) = 0.01427712
#
# Stress axis : x y z
#
# Youngs Moduli (GPa) = 66.73590 59.25611 74.44686
#
# Poissons Ratio (x) = 0.45679 0.13636
# Poissons Ratio (y) = 0.51445 0.44426
# Poissons Ratio (z) = 0.12223 0.35361
#
# Static dielectric constant tensor:
#      x y z
#    x 3.653800 0.000000 0.128270 
#    y 0.000000 3.632220 0.000020 
#    z 0.128270 0.000020 3.686640 
# 
# 
# High freq. dielectric constant tensor:
#      x y z
#    x 1.775600 0.000000 0.005700 
#    y 0.000000 1.778110 0.000000 
#    z 0.005700 0.000000 1.773240 
# 
# From -- ./inp_files/329465.got.cif
#   From: 2010.06.25/outbox.cif.g09.slc.cpg/sg12_165_cif.got.tgz:329465.got - 2010.06.28 00:19:55.
