data_PCOD8098276
_publ_section_title
;
Structure prediction by ZEFSAII (Michael W. Deem and Ramdas Pophale) SiO2 
 PCOD8098276
Probable space group: C 2/M
;
_chemical_formula_sum "Si O2"
_cell_formula_units_Z 56
_cell_length_a 19.123222
_cell_length_b 9.325590
_cell_length_c 27.589187
_cell_angle_alpha 90.000000
_cell_angle_beta 141.521688
_cell_angle_gamma 90.000000
_cell_volume 3061.393141
_symmetry_space_group_name_H-M "C 2/M"
_symmetry_group_IT_number 12
_symmetry_cell_setting 'monoclinic'
loop_
_space_group_symop_operation_xyz
x,y,z
-x,y,-z
-x,-y,-z
x,-y,z
1/2+x,1/2+y,z
1/2-x,1/2+y,-z
1/2-x,1/2-y,-z
1/2+x,1/2-y,z
loop_
_atom_site_type_symbol
_atom_site_label
_atom_site_fract_x
_atom_site_fract_y
_atom_site_fract_z
Si Si1 0.514425 0.832846 0.859083
Si Si2 0.679046 0.830385 0.862903
Si Si3 0.157564 0.162675 0.291126
Si Si4 0.618684 0.840078 0.539744
Si Si5 0.992330 0.162706 0.288285
Si Si6 0.410701 0.832490 0.993296
Si Si7 0.141449 0.832890 0.458286
O O1 0.617333 0.785323 0.879742
O O2 0.398163 0.758359 0.780847
O O3 0.493569 0.000000 0.842498
O O4 0.539739 0.788145 0.927739
O O5 0.607584 0.771677 0.778750
O O6 0.800331 0.760092 0.925386
O O7 0.691508 0.000000 0.865059
O O8 0.287024 0.207643 0.369902
O O9 0.096611 0.187207 0.309177
O O10 0.146959 0.000000 0.267345
O O11 0.500000 0.847436 0.500000
O O12 0.607167 0.723413 0.491922
O O13 0.651692 0.000000 0.537894
O O14 0.036296 0.196749 0.365847
O O15 0.946690 0.000000 0.259397
O O16 0.378861 0.000000 0.974846
O O17 0.500000 0.794357 0.000000
O O18 0.250000 0.750000 0.500000
O O19 0.170452 0.000000 0.476384
#
# Coordination Sequence:
#
# PCOD8098276 Si02
#       7
#     8   8   8   8   8   8   8
#     4   9  19  35  56  82 105 135 180 224 266 316
#     4  10  20  34  56  84 109 134 176 228 269 314
#     4   9  17  33  55  79 107 142 181 222 273 324
#     4  10  21  38  56  78 114 153 190 231 280 335
#     4   9  18  34  55  80 109 141 180 224 272 327
#     4  10  21  38  57  77 109 148 177 210 266 327
#     4  11  21  35  58  84 112 146 190 235 279 331
#
# _framework density 18.292327
#
# number of rings (size 3 to 8) (size 9 to 14) (size 15 to 20)
#    0.000    2.286    1.429    1.286    0.000    3.429 
#    2.571    0.000    0.000    0.000    0.000    0.000 
#    0.000    0.000    0.000    0.000    0.000    0.000 
#
# Total GULP energy -347225.873283 kJ/mol
# GULP energy per Si atom -12400.924046 kJ/mol
# Density = 1.825069 g / cm^3
# Si number density = 18.292327 Si / 1000 Ang^3
#
#
#
# Elastic Constant Matrix: (Units=GPa)
#
#
# Indices 1 2 3 4 5 6 
#
# 1 76.8863 48.5815 66.5362 0.0000 3.1215 0.0000
# 2 48.5815 87.5307 78.4883 0.0000 -0.0202 0.0000
# 3 66.5362 78.4883 157.6030 0.0000 9.2133 0.0000
# 4 0.0000 0.0000 0.0000 38.1355 0.0000 0.6703
# 5 3.1215 -0.0202 9.2133 0.0000 24.9780 0.0000
# 6 0.0000 0.0000 0.0000 0.6703 0.0000 21.5640
#
#
#
# Elastic Compliance Matrix: (Units=1/GPa)
#
#
# Indices 1 2 3 4 5 6 
#
# 1 0.022804 -0.007334 -0.005936 0.000000 -0.000666 0.000000
# 2 -0.007334 0.023379 -0.008791 0.000000 0.004178 0.000000
# 3 -0.005936 -0.008791 0.013477 0.000000 -0.004236 0.000000
# 4 0.000000 0.000000 0.000000 0.026237 0.000000 -0.000816
# 5 -0.000666 0.004178 -0.004236 0.000000 0.041684 0.000000
# 6 0.000000 0.000000 0.000000 -0.000816 0.000000 0.046399
#
#
# Mechanical properties :
#
#
# Convention : Reuss Voigt Hill
#
# Bulk Modulus (GPa) = 64.35950 78.80355 71.58153
# Shear Modulus (GPa) = 22.39325 25.49646 23.94486
#
# Velocity S-wave (km/s) = 3.50264 3.73746 3.62195
# Velocity P-wave (km/s) = 7.18458 7.86120 7.53049
#
# Compressibility (1/GPa) = 0.01553772
#
# Stress axis : x y z
#
# Youngs Moduli (GPa) = 43.85116 42.77338 74.20235
#
# Poissons Ratio (x) = 0.31372 0.44046
# Poissons Ratio (y) = 0.32162 0.65230
# Poissons Ratio (z) = 0.26030 0.37602
#
# Static dielectric constant tensor:
#      x y z
#    x 3.184420 0.000000 -0.054890 
#    y 0.000000 3.652850 0.000000 
#    z -0.054890 0.000000 3.498700 
# 
# 
# High freq. dielectric constant tensor:
#      x y z
#    x 1.687380 0.000000 0.000390 
#    y 0.000000 1.710670 0.000000 
#    z 0.000390 0.000000 1.720610 
# 
# From -- ./inp_files/363091.got.cif
#   From: 2010.06.25/outbox.cif.g09.slc.cpg/sg12_182_cif.got.tgz:363091.got - 2010.06.28 00:19:55.
