data_PCOD8098611
_publ_section_title
;
Structure prediction by ZEFSAII (Michael W. Deem and Ramdas Pophale) SiO2 
 PCOD8098611
Probable space group: C 2/M
;
_chemical_formula_sum "Si O2"
_cell_formula_units_Z 64
_cell_length_a 25.664024
_cell_length_b 8.835329
_cell_length_c 30.055983
_cell_angle_alpha 90.000000
_cell_angle_beta 28.101829
_cell_angle_gamma 90.000000
_cell_volume 3210.230677
_symmetry_space_group_name_H-M "C 2/M"
_symmetry_group_IT_number 12
_symmetry_cell_setting 'monoclinic'
loop_
_space_group_symop_operation_xyz
x,y,z
-x,y,-z
-x,-y,-z
x,-y,z
1/2+x,1/2+y,z
1/2-x,1/2+y,-z
1/2-x,1/2-y,-z
1/2+x,1/2-y,z
loop_
_atom_site_type_symbol
_atom_site_label
_atom_site_fract_x
_atom_site_fract_y
_atom_site_fract_z
Si Si1 0.758706 0.823530 0.893869
Si Si2 0.955628 0.320325 0.893323
Si Si3 0.683050 0.176431 0.760506
Si Si4 0.610113 0.826707 0.439717
Si Si5 0.632055 0.322226 0.597205
Si Si6 0.017270 0.327648 0.603744
Si Si7 0.965584 0.678979 0.784573
Si Si8 0.292237 0.673772 0.767861
O O1 0.864282 0.730696 0.830391
O O2 0.740276 0.795189 0.855338
O O3 0.779115 0.000000 0.888956
O O4 0.651149 0.758610 0.999976
O O5 0.956754 0.500000 0.895684
O O6 0.947105 0.265327 0.848879
O O7 0.066249 0.252306 0.832786
O O8 0.781487 0.239853 0.656641
O O9 0.699938 0.211098 0.800148
O O10 0.680651 0.000000 0.752582
O O11 0.500000 0.756176 0.500000
O O12 0.601435 0.811653 0.499419
O O13 0.621385 0.000000 0.415884
O O14 0.645292 0.500000 0.593035
O O15 0.750000 0.250000 0.500000
O O16 0.552029 0.285903 0.616370
O O17 0.578903 0.253955 0.681926
O O18 0.017081 0.500000 0.621757
O O19 0.894882 0.282888 0.680217
O O20 0.978011 0.500000 0.772402
O O21 0.331910 0.500000 0.733818
#
# Coordination Sequence:
#
# PCOD8098611 Si02
#       8
#     8   8   8   8   8   8   8   8
#     4  10  20  38  62  87 116 155 202 253 303 355
#     4   9  21  39  59  86 120 156 201 252 302 354
#     4  10  21  37  57  86 120 158 201 249 299 353
#     4  10  21  37  56  82 115 155 195 237 291 351
#     4  12  26  43  62  89 123 157 196 241 297 356
#     4  11  22  38  60  85 118 157 198 242 295 353
#     4  11  22  39  62  89 120 158 202 248 298 354
#     4  10  20  34  58  89 119 155 202 248 297 353
#
# _framework density 19.936263
#
# number of rings (size 3 to 8) (size 9 to 14) (size 15 to 20)
#    0.000    1.625    2.500    2.250    1.750    1.750 
#    0.000    4.375    0.000    0.000    0.000    2.625 
#    0.000    0.000    0.000    0.000    0.000    0.000 
#
# Total GULP energy -396916.414847 kJ/mol
# GULP energy per Si atom -12403.637964 kJ/mol
# Density = 1.989089 g / cm^3
# Si number density = 19.936263 Si / 1000 Ang^3
#
#
#
# Elastic Constant Matrix: (Units=GPa)
#
#
# Indices 1 2 3 4 5 6 
#
# 1 97.4302 31.5427 46.1625 0.0258 11.6366 -0.0089
# 2 31.5427 72.3818 41.5969 0.0768 6.1419 -0.0822
# 3 46.1625 41.5969 148.2320 0.0306 8.5907 -0.0210
# 4 0.0258 0.0768 0.0306 24.1798 -0.0030 -0.0541
# 5 11.6366 6.1419 8.5907 -0.0030 36.1628 0.0076
# 6 -0.0089 -0.0822 -0.0210 -0.0541 0.0076 25.0820
#
#
#
# Elastic Compliance Matrix: (Units=1/GPa)
#
#
# Indices 1 2 3 4 5 6 
#
# 1 0.013221 -0.003869 -0.002863 0.000001 -0.002917 -0.000010
# 2 -0.003869 0.017711 -0.003714 -0.000047 -0.000881 0.000054
# 3 -0.002863 -0.003714 0.008710 0.000004 -0.000517 -0.000006
# 4 0.000001 -0.000047 0.000004 0.041357 0.000010 0.000089
# 5 -0.002917 -0.000881 -0.000517 0.000010 0.028864 -0.000013
# 6 -0.000010 0.000054 -0.000006 0.000089 -0.000013 0.039870
#
#
# Mechanical properties :
#
#
# Convention : Reuss Voigt Hill
#
# Bulk Modulus (GPa) = 53.33143 61.84981 57.59062
# Shear Modulus (GPa) = 28.26875 30.33439 29.30157
#
# Velocity S-wave (km/s) = 3.76966 3.90496 3.83791
# Velocity P-wave (km/s) = 6.76433 7.17097 6.97061
#
# Compressibility (1/GPa) = 0.01875067
#
# Stress axis : x y z
#
# Youngs Moduli (GPa) = 75.63737 56.46226 114.81233
#
# Poissons Ratio (x) = 0.21845 0.32865
# Poissons Ratio (y) = 0.29263 0.42643
# Poissons Ratio (z) = 0.21651 0.20971
#
# Static dielectric constant tensor:
#      x y z
#    x 3.818030 0.000020 0.025230 
#    y 0.000020 3.458790 0.000050 
#    z 0.025230 0.000050 3.816580 
# 
# 
# High freq. dielectric constant tensor:
#      x y z
#    x 1.787110 0.000000 0.007880 
#    y 0.000000 1.760260 0.000000 
#    z 0.007880 0.000000 1.783000 
# 
# From -- ./inp_files/382388.got.cif
#   From: 2010.06.25/outbox.cif.g09.slc.cpg/sg12_192_cif.got.tgz:382388.got - 2010.06.28 00:19:55.
