data_PCOD8098897
_publ_section_title
;
Structure prediction by ZEFSAII (Michael W. Deem and Ramdas Pophale) SiO2 
 PCOD8098897
Probable space group: C 2/M
;
_chemical_formula_sum "Si O2"
_cell_formula_units_Z 56
_cell_length_a 16.273194
_cell_length_b 25.443852
_cell_length_c 12.727828
_cell_angle_alpha 90.000000
_cell_angle_beta 145.491389
_cell_angle_gamma 90.000000
_cell_volume 2985.609066
_symmetry_space_group_name_H-M "C 2/M"
_symmetry_group_IT_number 12
_symmetry_cell_setting 'monoclinic'
loop_
_space_group_symop_operation_xyz
x,y,z
-x,y,-z
-x,-y,-z
x,-y,z
1/2+x,1/2+y,z
1/2-x,1/2+y,-z
1/2-x,1/2-y,-z
1/2+x,1/2-y,z
loop_
_atom_site_type_symbol
_atom_site_label
_atom_site_fract_x
_atom_site_fract_y
_atom_site_fract_z
Si Si1 0.854632 0.943038 0.779302
Si Si2 0.132965 0.211659 0.922493
Si Si3 0.130116 0.939250 0.450423
Si Si4 0.837225 0.368326 0.800745
Si Si5 0.828455 0.161633 0.832830
Si Si6 0.911210 0.863593 0.309538
Si Si7 0.341027 0.245466 0.700283
O O1 0.886722 0.930016 0.691530
O O2 0.758066 0.894443 0.722921
O O3 0.773488 0.000000 0.701806
O O4 0.000000 0.947614 0.000000
O O5 0.065946 0.177285 0.759727
O O6 0.010164 0.244568 0.853964
O O7 0.250000 0.250000 0.000000
O O8 0.211776 0.173021 0.088734
O O9 0.268429 0.907941 0.642893
O O10 0.982251 0.918838 0.349244
O O11 0.149787 0.000000 0.499685
O O12 0.753353 0.371435 0.824565
O O13 0.828439 0.310171 0.743568
O O14 0.000000 0.385392 0.000000
O O15 0.773614 0.209964 0.704692
O O16 0.000000 0.154694 0.000000
O O17 0.000000 0.839015 0.500000
O O18 0.250000 0.250000 0.500000
#
# Coordination Sequence:
#
# PCOD8098897 Si02
#       7
#     8   8   8   8   8   8   8
#     4   9  16  29  52  81 107 131 170 225 277 322
#     4  11  21  33  51  76 109 142 175 216 265 325
#     4  10  21  37  58  82 106 137 183 235 281 331
#     4  11  22  36  53  77 112 148 183 225 281 340
#     4   9  17  30  48  72 103 135 168 207 262 319
#     4  10  20  35  54  76 106 140 182 228 271 320
#     4  11  20  33  53  75 104 140 179 220 266 325
#
# _framework density 18.756643
#
# number of rings (size 3 to 8) (size 9 to 14) (size 15 to 20)
#    0.000    1.857    0.000    8.143    0.000    2.857 
#    0.000    0.000    0.000    0.000    0.000    4.000 
#    0.000   24.000    0.000    0.000    0.000    0.000 
#
# Total GULP energy -347054.683678 kJ/mol
# GULP energy per Si atom -12394.810131 kJ/mol
# Density = 1.871395 g / cm^3
# Si number density = 18.756643 Si / 1000 Ang^3
#
#
#
# Elastic Constant Matrix: (Units=GPa)
#
#
# Indices 1 2 3 4 5 6 
#
# 1 103.4009 66.2957 47.2534 0.0000 -14.6785 0.0000
# 2 66.2957 172.8509 51.7544 0.0000 -17.4253 0.0000
# 3 47.2534 51.7544 85.9391 0.0000 -14.5513 0.0000
# 4 0.0000 0.0000 0.0000 25.8533 0.0000 -6.6903
# 5 -14.6785 -17.4253 -14.5513 0.0000 39.5095 0.0000
# 6 0.0000 0.0000 0.0000 -6.6903 0.0000 30.5685
#
#
#
# Elastic Compliance Matrix: (Units=1/GPa)
#
#
# Indices 1 2 3 4 5 6 
#
# 1 0.014972 -0.003889 -0.005587 0.000000 0.001789 0.000000
# 2 -0.003889 0.008171 -0.002577 0.000000 0.001209 0.000000
# 3 -0.005587 -0.002577 0.016762 0.000000 0.002961 0.000000
# 4 0.000000 0.000000 0.000000 0.041002 0.000000 0.008974
# 5 0.001789 0.001209 0.002961 0.000000 0.027599 0.000000
# 6 0.000000 0.000000 0.000000 0.008974 0.000000 0.034677
#
#
# Mechanical properties :
#
#
# Convention : Reuss Voigt Hill
#
# Bulk Modulus (GPa) = 63.30312 76.97753 70.14033
# Shear Modulus (GPa) = 28.97617 32.31207 30.64412
#
# Velocity S-wave (km/s) = 3.93472 4.15505 4.04638
# Velocity P-wave (km/s) = 7.38009 8.00927 7.70111
#
# Compressibility (1/GPa) = 0.01579701
#
# Stress axis : x y z
#
# Youngs Moduli (GPa) = 66.79178 122.39035 59.65974
#
# Poissons Ratio (x) = 0.47599 0.33333
# Poissons Ratio (y) = 0.25976 0.15376
# Poissons Ratio (z) = 0.37318 0.31544
#
# Static dielectric constant tensor:
#      x y z
#    x 3.537120 0.000000 -0.240680 
#    y 0.000000 4.102500 0.000000 
#    z -0.240680 0.000000 3.214600 
# 
# 
# High freq. dielectric constant tensor:
#      x y z
#    x 1.717870 0.000000 -0.036710 
#    y 0.000000 1.740910 0.000000 
#    z -0.036710 0.000000 1.715050 
# 
# From -- ./inp_files/65788.got.cif
#   From: 2010.06.25/outbox.cif.g09.slc.cpg/sg12_33_cif.got.tgz:65788.got - 2010.06.28 00:19:55.
