data_PCOD8098941
_publ_section_title
;
Structure prediction by ZEFSAII (Michael W. Deem and Ramdas Pophale) SiO2 
 PCOD8098941
Probable space group: C 2/M
;
_chemical_formula_sum "Si O2"
_cell_formula_units_Z 48
_cell_length_a 31.134144
_cell_length_b 8.836376
_cell_length_c 9.672950
_cell_angle_alpha 90.000000
_cell_angle_beta 90.374619
_cell_angle_gamma 90.000000
_cell_volume 2661.097439
_symmetry_space_group_name_H-M "C 2/M"
_symmetry_group_IT_number 12
_symmetry_cell_setting 'monoclinic'
loop_
_space_group_symop_operation_xyz
x,y,z
-x,y,-z
-x,-y,-z
x,-y,z
1/2+x,1/2+y,z
1/2-x,1/2+y,-z
1/2-x,1/2-y,-z
1/2+x,1/2-y,z
loop_
_atom_site_type_symbol
_atom_site_label
_atom_site_fract_x
_atom_site_fract_y
_atom_site_fract_z
Si Si1 0.540101 0.320958 0.909512
Si Si2 0.037482 0.177920 0.595875
Si Si3 0.121963 0.666913 0.588775
Si Si4 0.373445 0.169917 0.082932
Si Si5 0.216183 0.680166 0.602849
Si Si6 0.713999 0.319767 0.902958
O O1 0.546422 0.500000 0.914225
O O2 0.531787 0.263782 0.752705
O O3 0.583013 0.246070 0.973898
O O4 0.500000 0.267373 0.000000
O O5 0.084061 0.223842 0.535777
O O6 0.000000 0.249781 0.500000
O O7 0.034286 0.000000 0.590888
O O8 0.111152 0.500000 0.532524
O O9 0.124269 0.666807 0.753117
O O10 0.169035 0.718897 0.537998
O O11 0.332132 0.267615 0.037493
O O12 0.369212 0.000000 0.022955
O O13 0.221885 0.500000 0.619933
O O14 0.250000 0.750000 0.500000
O O15 0.222335 0.758276 0.750116
O O16 0.716371 0.500000 0.903184
O O17 0.750000 0.250000 0.000000
#
# Coordination Sequence:
#
# PCOD8098941 Si02
#       6
#     8   8   8   8   8   8
#     4   9  17  30  48  69  94 125 161 200 244 294
#     4   9  17  29  46  68  92 120 156 196 238 286
#     4   8  16  30  48  69  94 125 162 200 237 287
#     4   9  17  31  50  72  97 127 166 206 245 297
#     4  10  20  35  54  78 105 135 172 212 255 304
#     4  11  21  35  55  78 104 135 171 212 258 308
#
# _framework density 18.037669000000001
#
# number of rings (size 3 to 8) (size 9 to 14) (size 15 to 20)
#    0.000    2.667    0.000    3.500    0.000    5.333 
#    0.000    1.667    0.000    6.000    0.000    0.000 
#    0.000    0.000    0.000    0.000    0.000    0.000 
#
# Total GULP energy -297500.912520 kJ/mol
# GULP energy per Si atom -12395.871355 kJ/mol
# Density = 1.799661 g / cm^3
# Si number density = 18.037669 Si / 1000 Ang^3
#
#
#
# Elastic Constant Matrix: (Units=GPa)
#
#
# Indices 1 2 3 4 5 6 
#
# 1 188.2595 65.6094 64.3450 0.0000 -3.1283 0.0000
# 2 65.6094 91.9299 35.5554 0.0000 2.3167 0.0000
# 3 64.3450 35.5554 54.8272 0.0000 1.1016 0.0000
# 4 0.0000 0.0000 0.0000 19.6662 0.0000 0.0426
# 5 -3.1283 2.3167 1.1016 0.0000 32.5949 0.0000
# 6 0.0000 0.0000 0.0000 0.0426 0.0000 36.4891
#
#
#
# Elastic Compliance Matrix: (Units=1/GPa)
#
#
# Indices 1 2 3 4 5 6 
#
# 1 0.009643 -0.003378 -0.009156 0.000000 0.001475 0.000000
# 2 -0.003378 0.015720 -0.006205 0.000000 -0.001232 0.000000
# 3 -0.009156 -0.006205 0.033040 0.000000 -0.001554 0.000000
# 4 0.000000 0.000000 0.000000 0.050849 0.000000 -0.000059
# 5 0.001475 -0.001232 -0.001554 0.000000 0.030961 0.000000
# 6 0.000000 0.000000 0.000000 -0.000059 0.000000 0.027406
#
#
# Mechanical properties :
#
#
# Convention : Reuss Voigt Hill
#
# Bulk Modulus (GPa) = 47.79120 74.00402 60.89761
# Shear Modulus (GPa) = 23.57703 29.05048 26.31376
#
# Velocity S-wave (km/s) = 3.61931 4.01751 3.82360
# Velocity P-wave (km/s) = 6.63465 7.91436 7.30259
#
# Compressibility (1/GPa) = 0.02092436
#
# Stress axis : x y z
#
# Youngs Moduli (GPa) = 103.70217 63.61462 30.26665
#
# Poissons Ratio (x) = 0.21489 0.27712
# Poissons Ratio (y) = 0.35031 0.18780
# Poissons Ratio (z) = 0.94949 0.39473
#
# Static dielectric constant tensor:
#      x y z
#    x 3.773250 0.000000 0.049660 
#    y 0.000000 3.414460 0.000000 
#    z 0.049660 0.000000 2.990350 
# 
# 
# High freq. dielectric constant tensor:
#      x y z
#    x 1.718080 0.000000 0.000130 
#    y 0.000000 1.701640 0.000000 
#    z 0.000130 0.000000 1.654990 
# 
# From -- ./inp_files/179280.got.cif
#   From: 2010.06.25/outbox.cif.g09.slc.cpg/sg12_90_cif.got.tgz:179280.got - 2010.06.28 00:19:55.
