data_PCOD8098302
_publ_section_title
;
Structure prediction by ZEFSAII (Michael W. Deem and Ramdas Pophale) SiO2 
 PCOD8098302
Probable space group: C 2/M
;
_chemical_formula_sum "Si O2"
_cell_formula_units_Z 48
_cell_length_a 9.471956
_cell_length_b 15.440432
_cell_length_c 22.538277
_cell_angle_alpha 90.000000
_cell_angle_beta 139.122719
_cell_angle_gamma 90.000000
_cell_volume 2157.199764
_symmetry_space_group_name_H-M "C 2/M"
_symmetry_group_IT_number 12
_symmetry_cell_setting 'monoclinic'
loop_
_space_group_symop_operation_xyz
x,y,z
-x,y,-z
-x,-y,-z
x,-y,z
1/2+x,1/2+y,z
1/2-x,1/2+y,-z
1/2-x,1/2-y,-z
1/2+x,1/2-y,z
loop_
_atom_site_type_symbol
_atom_site_label
_atom_site_fract_x
_atom_site_fract_y
_atom_site_fract_z
Si Si1 0.663648 0.396923 0.406041
Si Si2 0.409795 0.669705 0.036356
Si Si3 0.332049 0.103691 0.224194
Si Si4 0.813348 0.603655 0.758239
Si Si5 0.957372 0.602748 0.393783
Si Si6 0.495310 0.904816 0.062667
O O1 0.655651 0.500000 0.403557
O O2 0.420754 0.360264 0.335741
O O3 0.810560 0.364060 0.507778
O O4 0.767147 0.364393 0.376917
O O5 0.609115 0.655495 0.144194
O O6 0.500000 0.676369 0.000000
O O7 0.250000 0.750000 0.000000
O O8 0.251091 0.587439 0.992346
O O9 0.506727 0.134496 0.231129
O O10 0.419983 0.136507 0.315558
O O11 0.294671 0.000000 0.210141
O O12 0.816755 0.500000 0.762703
O O13 0.864317 0.641474 0.840797
O O14 0.959012 0.500000 0.394368
O O15 0.592371 0.000000 0.082751
O O16 0.500000 0.854618 0.000000
#
# Coordination Sequence:
#
# PCOD8098302 Si02
#       6
#     8   8   8   8   8   8
#     4   8  14  26  44  73 117 153 177 217 270 326
#     4  12  25  42  58  77 111 147 192 236 288 344
#     4  10  20  34  56  84 112 146 186 231 283 334
#     4   9  17  29  48  77 111 145 179 221 272 324
#     4   8  15  27  46  76 114 151 181 216 270 329
#     4  10  21  36  57  85 113 144 185 232 283 337
#
# _framework density 22.251068
#
# number of rings (size 3 to 8) (size 9 to 14) (size 15 to 20)
#    0.000    2.500    1.667    2.000    2.333    1.333 
#    0.000    3.333    0.000    0.000    0.000    1.167 
#    0.000    0.000    0.000    0.000    0.000    0.000 
#
# Total GULP energy -297321.799151 kJ/mol
# GULP energy per Si atom -12388.408298 kJ/mol
# Density = 2.220042 g / cm^3
# Si number density = 22.251068 Si / 1000 Ang^3
#
#
#
# Elastic Constant Matrix: (Units=GPa)
#
#
# Indices 1 2 3 4 5 6 
#
# 1 138.8914 17.4380 102.9140 -0.0001 -3.5182 0.0000
# 2 17.4380 23.5107 16.0927 0.0000 -0.1235 0.0000
# 3 102.9140 16.0927 228.4143 -0.0001 -1.6461 -0.0001
# 4 -0.0001 0.0000 -0.0001 8.5098 0.0000 7.8867
# 5 -3.5182 -0.1235 -1.6461 0.0000 53.7354 0.0000
# 6 0.0000 0.0000 -0.0001 7.8867 0.0000 6.0410
#
#
#
# Elastic Compliance Matrix: (Units=1/GPa)
#
#
# Indices 1 2 3 4 5 6 
#
# 1 0.011397 -0.005188 -0.004765 0.000000 0.000588 0.000000
# 2 -0.005188 0.047051 -0.000979 0.000000 -0.000262 0.000000
# 3 -0.004765 -0.000979 0.006593 0.000000 -0.000112 0.000000
# 4 0.000000 0.000000 0.000000 -0.559672 0.000000 0.730678
# 5 0.000588 -0.000262 -0.000112 0.000000 0.018644 0.000000
# 6 0.000000 0.000000 0.000000 0.730678 0.000000 -0.788398
#
#
# Mechanical properties :
#
#
# Convention : Reuss Voigt Hill
#
# Bulk Modulus (GPa) = 23.16127 73.74511 48.45319
# Shear Modulus (GPa) = -4.07124 30.61533 13.27204
#
# Velocity S-wave (km/s) = -1.35413 3.71334 2.44492
# Velocity P-wave (km/s) = 2.82609 7.18328 5.45831
#
# Compressibility (1/GPa) = 0.04317553
#
# Stress axis : x y z
#
# Youngs Moduli (GPa) = 87.74163 21.25360 151.67103
#
# Poissons Ratio (x) = 0.11027 0.72275
# Poissons Ratio (y) = 0.45524 0.14850
# Poissons Ratio (z) = 0.41811 0.02081
#
# Static dielectric constant tensor:
#      x y z
#    x 4.268260 0.000000 0.087870 
#    y 0.000000 3.513000 0.000000 
#    z 0.087870 0.000000 4.612980 
# 
# 
# High freq. dielectric constant tensor:
#      x y z
#    x 1.879090 0.000000 -0.001770 
#    y 0.000000 1.826490 0.000000 
#    z -0.001770 0.000000 1.890610 
# 
# From -- ./inp_files/301835.got.cif
#   From: 2010.06.25/outbox.cif.g09.slc.cpg/sg12_151_cif.got.tgz:301835.got - 2010.06.28 00:19:55.
