data_PCOD8098963
_publ_section_title
;
Structure prediction by ZEFSAII (Michael W. Deem and Ramdas Pophale) SiO2 
 PCOD8098963
Probable space group: C 2/M
;
_chemical_formula_sum "Si O2"
_cell_formula_units_Z 48
_cell_length_a 19.609543
_cell_length_b 9.235309
_cell_length_c 26.161978
_cell_angle_alpha 90.000000
_cell_angle_beta 146.989264
_cell_angle_gamma 90.000000
_cell_volume 2581.211128
_symmetry_space_group_name_H-M "C 2/M"
_symmetry_group_IT_number 12
_symmetry_cell_setting 'monoclinic'
loop_
_space_group_symop_operation_xyz
x,y,z
-x,y,-z
-x,-y,-z
x,-y,z
1/2+x,1/2+y,z
1/2-x,1/2+y,-z
1/2-x,1/2-y,-z
1/2+x,1/2-y,z
loop_
_atom_site_type_symbol
_atom_site_label
_atom_site_fract_x
_atom_site_fract_y
_atom_site_fract_z
Si Si1 0.816780 0.331234 0.616642
Si Si2 0.152333 0.831714 0.972731
Si Si3 0.614707 0.669559 0.240791
Si Si4 0.196426 0.671593 0.726850
Si Si5 0.862562 0.171962 0.922431
Si Si6 0.082335 0.668685 0.430593
O O1 0.798121 0.500000 0.615651
O O2 0.888108 0.259309 0.708777
O O3 0.900780 0.303988 0.619240
O O4 0.681252 0.259204 0.525314
O O5 0.009999 0.792343 0.869041
O O6 0.175837 0.000000 0.979714
O O7 0.250000 0.750000 0.000000
O O8 0.181740 0.783643 0.049043
O O9 0.622076 0.500000 0.258568
O O10 0.733521 0.718556 0.281107
O O11 0.197598 0.500000 0.732657
O O12 0.267609 0.737881 0.820897
O O13 0.053593 0.726624 0.637479
O O14 0.869229 0.000000 0.920660
O O15 0.000000 0.238031 0.000000
O O16 0.101208 0.500000 0.455625
#
# Coordination Sequence:
#
# PCOD8098963 Si02
#       6
#     8   8   8   8   8   8
#     4  10  21  36  55  79 108 139 169 212 268 321
#     4  10  21  34  53  80 110 142 174 214 263 310
#     4  10  20  35  54  79 108 138 174 219 264 306
#     4   9  17  31  54  80 102 133 181 224 257 296
#     4   9  15  29  53  79 105 134 174 221 257 294
#     4   9  19  36  57  79 101 134 179 221 260 307
#
# _framework density 18.595921000000001
#
# number of rings (size 3 to 8) (size 9 to 14) (size 15 to 20)
#    0.000    2.500    1.667    0.500    2.333    2.000 
#    0.000    4.167    0.000    1.500    0.000    0.000 
#    0.000    0.000    0.000    0.000    0.000    0.000 
#
# Total GULP energy -297593.177664 kJ/mol
# GULP energy per Si atom -12399.715736 kJ/mol
# Density = 1.855360 g / cm^3
# Si number density = 18.595921 Si / 1000 Ang^3
#
#
#
# Elastic Constant Matrix: (Units=GPa)
#
#
# Indices 1 2 3 4 5 6 
#
# 1 88.8819 28.7938 23.9641 -0.0003 13.3848 0.0000
# 2 28.7938 44.2102 28.6185 -0.0001 -2.2484 0.0000
# 3 23.9641 28.6185 56.0679 -0.0002 0.2526 0.0001
# 4 -0.0003 -0.0001 -0.0002 22.7090 0.0000 -3.9722
# 5 13.3848 -2.2484 0.2526 0.0000 40.2141 0.0000
# 6 0.0000 0.0000 0.0001 -3.9722 0.0000 24.7381
#
#
#
# Elastic Compliance Matrix: (Units=1/GPa)
#
#
# Indices 1 2 3 4 5 6 
#
# 1 0.015615 -0.009194 -0.001956 0.000000 -0.005699 0.000000
# 2 -0.009194 0.039355 -0.016183 0.000000 0.005362 0.000000
# 3 -0.001956 -0.016183 0.026933 0.000000 -0.000423 0.000000
# 4 0.000000 0.000000 0.000000 0.045308 0.000000 0.007275
# 5 -0.005699 0.005362 -0.000423 0.000000 0.027066 0.000000
# 6 0.000000 0.000000 0.000000 0.007275 0.000000 0.041592
#
#
# Mechanical properties :
#
#
# Convention : Reuss Voigt Hill
#
# Bulk Modulus (GPa) = 36.71137 39.10142 37.90640
# Shear Modulus (GPa) = 19.25948 24.71781 21.98865
#
# Velocity S-wave (km/s) = 3.22169 3.64978 3.44240
# Velocity P-wave (km/s) = 5.79858 6.23167 6.01902
#
# Compressibility (1/GPa) = 0.02723951
#
# Stress axis : x y z
#
# Youngs Moduli (GPa) = 64.04226 25.40962 37.12890
#
# Poissons Ratio (x) = 0.23361 0.07261
# Poissons Ratio (y) = 0.58879 0.60084
# Poissons Ratio (z) = 0.12524 0.41119
#
# Static dielectric constant tensor:
#      x y z
#    x 3.422280 0.000000 0.031110 
#    y 0.000000 3.056060 0.000000 
#    z 0.031110 0.000000 3.604150 
# 
# 
# High freq. dielectric constant tensor:
#      x y z
#    x 1.731170 0.000000 -0.000960 
#    y 0.000000 1.677700 0.000000 
#    z -0.000960 0.000000 1.730240 
# 
# From -- ./inp_files/365538.got.cif
#   From: 2010.06.25/outbox.cif.g09.slc.cpg/sg12_183_cif.got.tgz:365538.got - 2010.06.28 00:19:55.
