data_PCOD8098164
_publ_section_title
;
Structure prediction by ZEFSAII (Michael W. Deem and Ramdas Pophale) SiO2 
 PCOD8098164
Probable space group: C 2/M
;
_chemical_formula_sum "Si O2"
_cell_formula_units_Z 40
_cell_length_a 15.207312
_cell_length_b 8.659852
_cell_length_c 30.341101
_cell_angle_alpha 90.000000
_cell_angle_beta 150.911947
_cell_angle_gamma 90.000000
_cell_volume 1942.528455
_symmetry_space_group_name_H-M "C 2/M"
_symmetry_group_IT_number 12
_symmetry_cell_setting 'monoclinic'
loop_
_space_group_symop_operation_xyz
x,y,z
-x,y,-z
-x,-y,-z
x,-y,z
1/2+x,1/2+y,z
1/2-x,1/2+y,-z
1/2-x,1/2-y,-z
1/2+x,1/2-y,z
loop_
_atom_site_type_symbol
_atom_site_label
_atom_site_fract_x
_atom_site_fract_y
_atom_site_fract_z
Si Si1 0.362137 0.169093 0.906725
Si Si2 0.433368 0.169327 0.093732
Si Si3 0.190769 0.177546 0.606738
Si Si4 0.760122 0.318965 0.278039
Si Si5 0.969139 0.184984 0.288329
O O1 0.449073 0.149088 0.897728
O O2 0.166845 0.245458 0.810752
O O3 0.329591 0.000000 0.914316
O O4 0.500000 0.262785 0.000000
O O5 0.550545 0.268780 0.179517
O O6 0.392207 0.000000 0.096058
O O7 0.250000 0.250000 0.000000
O O8 0.185579 0.277162 0.648736
O O9 0.337624 0.241001 0.636465
O O10 0.000000 0.197184 0.500000
O O11 0.232453 0.000000 0.636546
O O12 0.776212 0.500000 0.277422
O O13 0.898738 0.236248 0.305406
O O14 0.979656 0.000000 0.292157
#
# Coordination Sequence:
#
# PCOD8098164 Si02
#       5
#     8   8   8   8   8
#     4   8  16  31  52  81 116 154 195 239 295 357
#     4  10  20  34  55  85 122 161 204 253 307 366
#     4  11  25  44  66  93 124 160 207 264 322 378
#     4  11  23  41  64  89 125 168 210 258 311 372
#     4  10  21  39  64  92 126 164 205 258 313 373
#
# _framework density 20.591718
#
# number of rings (size 3 to 8) (size 9 to 14) (size 15 to 20)
#    0.000    2.000    0.000    4.800    2.800    2.400 
#    0.000    0.000    0.000    3.600    0.000    0.000 
#    0.000    0.000    0.000    0.000    0.000    0.000 
#
# Total GULP energy -247867.238155 kJ/mol
# GULP energy per Si atom -12393.361908 kJ/mol
# Density = 2.054485 g / cm^3
# Si number density = 20.591718 Si / 1000 Ang^3
#
#
#
# Elastic Constant Matrix: (Units=GPa)
#
#
# Indices 1 2 3 4 5 6 
#
# 1 68.9221 18.9325 42.4022 0.0002 7.0081 -0.0004
# 2 18.9325 98.5702 47.5214 0.0005 9.6040 -0.0008
# 3 42.4022 47.5214 120.0199 -0.0003 10.4786 0.0003
# 4 0.0002 0.0005 -0.0003 29.9656 -0.0001 -0.0265
# 5 7.0081 9.6040 10.4786 -0.0001 37.4677 0.0003
# 6 -0.0004 -0.0008 0.0003 -0.0265 0.0003 29.1116
#
#
#
# Elastic Compliance Matrix: (Units=1/GPa)
#
#
# Indices 1 2 3 4 5 6 
#
# 1 0.018654 -0.000390 -0.006294 0.000000 -0.001629 0.000000
# 2 -0.000390 0.012676 -0.004719 0.000000 -0.001856 0.000000
# 3 -0.006294 -0.004719 0.012521 0.000000 -0.001115 0.000000
# 4 0.000000 0.000000 0.000000 0.033372 0.000000 0.000030
# 5 -0.001629 -0.001856 -0.001115 0.000000 0.027782 0.000000
# 6 0.000000 0.000000 0.000000 0.000030 0.000000 0.034351
#
#
# Mechanical properties :
#
#
# Convention : Reuss Voigt Hill
#
# Bulk Modulus (GPa) = 47.51573 56.13604 51.82588
# Shear Modulus (GPa) = 29.55498 31.21937 30.38718
#
# Velocity S-wave (km/s) = 3.79263 3.89795 3.84565
# Velocity P-wave (km/s) = 6.50415 6.89778 6.70385
#
# Compressibility (1/GPa) = 0.02104566
#
# Stress axis : x y z
#
# Youngs Moduli (GPa) = 53.60822 78.88938 79.86374
#
# Poissons Ratio (x) = 0.03076 0.50263
# Poissons Ratio (y) = 0.02090 0.37689
# Poissons Ratio (z) = 0.33739 0.37229
#
# Static dielectric constant tensor:
#      x y z
#    x 3.486350 0.000000 -0.005750 
#    y 0.000000 3.751000 0.000000 
#    z -0.005750 0.000000 4.017320 
# 
# 
# High freq. dielectric constant tensor:
#      x y z
#    x 1.798180 0.000000 0.001500 
#    y 0.000000 1.796270 0.000000 
#    z 0.001500 0.000000 1.817520 
# 
# From -- ./inp_files/249504.got.cif
#   From: 2010.06.25/outbox.cif.g09.slc.cpg/sg12_125_cif.got.tgz:249504.got - 2010.06.28 00:19:55.
