data_PCOD8098469
_publ_section_title
;
Structure prediction by ZEFSAII (Michael W. Deem and Ramdas Pophale) SiO2 
 PCOD8098469
Probable space group: C 2/M
;
_chemical_formula_sum "Si O2"
_cell_formula_units_Z 64
_cell_length_a 24.987447
_cell_length_b 27.598731
_cell_length_c 9.579726
_cell_angle_alpha 90.000000
_cell_angle_beta 150.904260
_cell_angle_gamma 90.000000
_cell_volume 3212.491099
_symmetry_space_group_name_H-M "C 2/M"
_symmetry_group_IT_number 12
_symmetry_cell_setting 'monoclinic'
loop_
_space_group_symop_operation_xyz
x,y,z
-x,y,-z
-x,-y,-z
x,-y,z
1/2+x,1/2+y,z
1/2-x,1/2+y,-z
1/2-x,1/2-y,-z
1/2+x,1/2-y,z
loop_
_atom_site_type_symbol
_atom_site_label
_atom_site_fract_x
_atom_site_fract_y
_atom_site_fract_z
Si Si1 0.205370 0.557457 0.125400
Si Si2 0.550657 0.555766 0.252548
Si Si3 0.074119 0.095928 0.792141
Si Si4 0.497092 0.219194 0.833996
Si Si5 0.018943 0.606896 0.879599
Si Si6 0.790348 0.707600 0.190588
Si Si7 0.816393 0.602643 0.220671
Si Si8 0.062566 0.202548 0.779035
O O1 0.196616 0.500000 0.120288
O O2 0.329841 0.577684 0.432593
O O3 0.126573 0.580882 0.063256
O O4 0.168983 0.571227 0.885296
O O5 0.573127 0.500000 0.272844
O O6 0.453093 0.560901 0.142430
O O7 0.500000 0.581489 0.000000
O O8 0.019129 0.148449 0.711842
O O9 0.000000 0.075083 0.500000
O O10 0.201565 0.092730 0.038546
O O11 0.539336 0.164590 0.910051
O O12 0.375957 0.227708 0.497049
O O13 0.569292 0.258269 0.916373
O O14 0.500000 0.235007 0.000000
O O15 0.912392 0.589564 0.549679
O O16 0.000000 0.593802 0.000000
O O17 0.832553 0.659041 0.208492
O O18 0.750000 0.750000 0.000000
O O19 0.687727 0.688704 0.041276
O O20 0.000000 0.224992 0.500000
#
# Coordination Sequence:
#
# PCOD8098469 Si02
#       8
#     8   8   8   8   8   8   8   8
#     4  11  24  42  64  92 121 154 204 253 299 359
#     4  10  23  41  62  91 124 158 196 243 302 366
#     4  10  20  38  60  89 123 154 199 248 300 357
#     4  10  22  39  56  84 120 154 198 245 295 351
#     4  10  24  42  61  86 120 162 203 250 306 359
#     4  10  20  35  59  84 115 155 198 237 287 348
#     4  10  22  39  62  89 121 157 202 251 296 353
#     4  10  20  34  57  86 116 152 197 240 285 350
#
# _framework density 19.922234
#
# number of rings (size 3 to 8) (size 9 to 14) (size 15 to 20)
#    0.000    1.875    2.500    0.375    3.500    3.000 
#    0.000    0.000    0.000    0.000    0.000    0.000 
#    0.000    0.000    0.000    0.000    0.000    0.000 
#
# Total GULP energy -396511.057820 kJ/mol
# GULP energy per Si atom -12390.970557 kJ/mol
# Density = 1.987689 g / cm^3
# Si number density = 19.922234 Si / 1000 Ang^3
#
#
#
# Elastic Constant Matrix: (Units=GPa)
#
#
# Indices 1 2 3 4 5 6 
#
# 1 125.0015 39.2672 46.1492 0.0000 -11.3915 0.0000
# 2 39.2672 58.5238 27.6001 0.0000 -9.0275 0.0000
# 3 46.1492 27.6001 103.5877 0.0000 -13.8768 0.0000
# 4 0.0000 0.0000 0.0000 21.0121 0.0000 1.9663
# 5 -11.3915 -9.0275 -13.8768 0.0000 37.3731 0.0000
# 6 0.0000 0.0000 0.0000 1.9663 0.0000 42.3970
#
#
#
# Elastic Compliance Matrix: (Units=1/GPa)
#
#
# Indices 1 2 3 4 5 6 
#
# 1 0.011104 -0.005773 -0.003306 0.000000 0.000762 0.000000
# 2 -0.005773 0.022855 -0.003171 0.000000 0.002583 0.000000
# 3 -0.003306 -0.003171 0.012348 0.000000 0.002811 0.000000
# 4 0.000000 0.000000 0.000000 0.047799 0.000000 -0.002217
# 5 0.000762 0.002583 0.002811 0.000000 0.028657 0.000000
# 6 0.000000 0.000000 0.000000 -0.002217 0.000000 0.023689
#
#
# Mechanical properties :
#
#
# Convention : Reuss Voigt Hill
#
# Bulk Modulus (GPa) = 45.86178 57.01622 51.43900
# Shear Modulus (GPa) = 28.05479 31.76287 29.90883
#
# Velocity S-wave (km/s) = 3.75669 3.99725 3.87884
# Velocity P-wave (km/s) = 6.47204 7.07005 6.77764
#
# Compressibility (1/GPa) = 0.02180465
#
# Stress axis : x y z
#
# Youngs Moduli (GPa) = 90.06075 43.75451 80.98304
#
# Poissons Ratio (x) = 0.25260 0.26776
# Poissons Ratio (y) = 0.51994 0.25683
# Poissons Ratio (z) = 0.29778 0.13876
#
# Static dielectric constant tensor:
#      x y z
#    x 3.563010 0.000000 0.046410 
#    y 0.000000 3.785380 0.000000 
#    z 0.046410 0.000000 3.820480 
# 
# 
# High freq. dielectric constant tensor:
#      x y z
#    x 1.767720 0.000000 0.001800 
#    y 0.000000 1.772580 0.000000 
#    z 0.001800 0.000000 1.787850 
# 
# From -- ./inp_files/100249.got.cif
#   From: 2010.06.25/outbox.cif.g09.slc.cpg/sg12_51_cif.got.tgz:100249.got - 2010.06.28 00:19:55.
