data_PCOD8098714
_publ_section_title
;
Structure prediction by ZEFSAII (Michael W. Deem and Ramdas Pophale) SiO2 
 PCOD8098714
Probable space group: C 2/M
;
_chemical_formula_sum "Si O2"
_cell_formula_units_Z 56
_cell_length_a 33.643643
_cell_length_b 8.954589
_cell_length_c 14.959146
_cell_angle_alpha 90.000000
_cell_angle_beta 134.276741
_cell_angle_gamma 90.000000
_cell_volume 3226.666323
_symmetry_space_group_name_H-M "C 2/M"
_symmetry_group_IT_number 12
_symmetry_cell_setting 'monoclinic'
loop_
_space_group_symop_operation_xyz
x,y,z
-x,y,-z
-x,-y,-z
x,-y,z
1/2+x,1/2+y,z
1/2-x,1/2+y,-z
1/2-x,1/2-y,-z
1/2+x,1/2-y,z
loop_
_atom_site_type_symbol
_atom_site_label
_atom_site_fract_x
_atom_site_fract_y
_atom_site_fract_z
Si Si1 0.936124 0.824909 0.261255
Si Si2 0.961987 0.676287 0.816755
Si Si3 0.625714 0.328166 0.656047
Si Si4 0.750233 0.173876 0.096149
Si Si5 0.449684 0.823242 0.599665
Si Si6 0.147958 0.823780 0.025658
Si Si7 0.918514 0.676828 0.932812
O O1 0.902446 0.776416 0.296005
O O2 0.994011 0.739272 0.354225
O O3 0.948485 0.000000 0.279314
O O4 0.899702 0.776028 0.119067
O O5 0.966010 0.500000 0.822920
O O6 0.941871 0.736856 0.689123
O O7 0.919489 0.723182 0.829180
O O8 0.023918 0.734931 0.933692
O O9 0.611563 0.500000 0.614837
O O10 0.691032 0.300406 0.764203
O O11 0.603007 0.230732 0.538857
O O12 0.705276 0.246818 0.089966
O O13 0.737548 0.000000 0.062456
O O14 0.750000 0.250000 0.000000
O O15 0.452883 0.000000 0.602406
O O16 0.131232 0.764908 0.097405
O O17 0.157062 0.000000 0.040669
O O18 0.909937 0.500000 0.932013
#
# Coordination Sequence:
#
# PCOD8098714 Si02
#       7
#     8   8   8   8   8   8   8
#     4  10  20  35  51  72 108 147 173 206 260 318
#     4   8  16  30  51  77 107 137 172 214 264 316
#     4  10  22  39  53  71 104 146 179 209 261 318
#     4  11  22  38  58  78 103 139 181 221 263 311
#     4  11  21  33  52  81 108 137 178 220 256 307
#     4  11  21  34  53  81 111 138 173 220 266 309
#     4   9  16  32  54  76 104 141 174 212 264 320
#
# _framework density 17.355373
#
# number of rings (size 3 to 8) (size 9 to 14) (size 15 to 20)
#    0.000    2.000    2.857    2.571    0.000    4.000 
#    0.000    2.857    0.000    0.857    0.000    0.000 
#    0.000    0.000    0.000    0.000    0.000    0.000 
#
# Total GULP energy -347218.864234 kJ/mol
# GULP energy per Si atom -12400.673723 kJ/mol
# Density = 1.731587 g / cm^3
# Si number density = 17.355373 Si / 1000 Ang^3
#
#
#
# Elastic Constant Matrix: (Units=GPa)
#
#
# Indices 1 2 3 4 5 6 
#
# 1 142.7174 48.4797 48.6630 0.0000 -5.0651 0.0000
# 2 48.4797 64.1357 38.6867 0.0000 1.3216 0.0000
# 3 48.6630 38.6867 70.5242 0.0000 -2.1996 0.0000
# 4 0.0000 0.0000 0.0000 26.9907 0.0000 1.2522
# 5 -5.0651 1.3216 -2.1996 0.0000 25.2110 0.0000
# 6 0.0000 0.0000 0.0000 1.2522 0.0000 28.5542
#
#
#
# Elastic Compliance Matrix: (Units=1/GPa)
#
#
# Indices 1 2 3 4 5 6 
#
# 1 0.010294 -0.005343 -0.004110 0.000000 0.001990 0.000000
# 2 -0.005343 0.026215 -0.010799 0.000000 -0.003390 0.000000
# 3 -0.004110 -0.010799 0.022994 0.000000 0.001747 0.000000
# 4 0.000000 0.000000 0.000000 0.037125 0.000000 -0.001628
# 5 0.001990 -0.003390 0.001747 0.000000 0.040395 0.000000
# 6 0.000000 0.000000 0.000000 -0.001628 0.000000 0.035093
#
#
# Mechanical properties :
#
#
# Convention : Reuss Voigt Hill
#
# Bulk Modulus (GPa) = 52.63681 61.00399 56.82040
# Shear Modulus (GPa) = 22.83605 25.58771 24.21188
#
# Velocity S-wave (km/s) = 3.63132 3.84388 3.73911
# Velocity P-wave (km/s) = 6.92652 7.41126 7.17298
#
# Compressibility (1/GPa) = 0.01899811
#
# Stress axis : x y z
#
# Youngs Moduli (GPa) = 97.14615 38.14680 43.48958
#
# Poissons Ratio (x) = 0.20381 0.17874
# Poissons Ratio (y) = 0.51904 0.46966
# Poissons Ratio (z) = 0.39927 0.41196
#
# Static dielectric constant tensor:
#      x y z
#    x 3.488720 0.000000 -0.179890 
#    y 0.000000 3.120460 0.000000 
#    z -0.179890 0.000000 3.250020 
# 
# 
# High freq. dielectric constant tensor:
#      x y z
#    x 1.675270 0.000000 -0.009290 
#    y 0.000000 1.663000 0.000000 
#    z -0.009290 0.000000 1.653530 
# 
# From -- ./inp_files/237478.got.cif
#   From: 2010.06.25/outbox.cif.g09.slc.cpg/sg12_119_cif.got.tgz:237478.got - 2010.06.28 00:19:55.
