data_PCOD8098524
_publ_section_title
;
Structure prediction by ZEFSAII (Michael W. Deem and Ramdas Pophale) SiO2 
 PCOD8098524
Probable space group: C 2/M
;
_chemical_formula_sum "Si O2"
_cell_formula_units_Z 48
_cell_length_a 27.807744
_cell_length_b 8.929686
_cell_length_c 10.154834
_cell_angle_alpha 90.000000
_cell_angle_beta 90.135981
_cell_angle_gamma 90.000000
_cell_volume 2521.584637
_symmetry_space_group_name_H-M "C 2/M"
_symmetry_group_IT_number 12
_symmetry_cell_setting 'monoclinic'
loop_
_space_group_symop_operation_xyz
x,y,z
-x,y,-z
-x,-y,-z
x,-y,z
1/2+x,1/2+y,z
1/2-x,1/2+y,-z
1/2-x,1/2-y,-z
1/2+x,1/2-y,z
loop_
_atom_site_type_symbol
_atom_site_label
_atom_site_fract_x
_atom_site_fract_y
_atom_site_fract_z
Si Si1 0.388102 0.172416 0.766443
Si Si2 0.195186 0.326254 0.642460
Si Si3 0.304138 0.326157 0.634610
Si Si4 0.555178 0.172458 0.496052
Si Si5 0.554453 0.176042 0.975031
Si Si6 0.893862 0.823824 0.266252
O O1 0.340619 0.273273 0.747968
O O2 0.426288 0.199345 0.651018
O O3 0.413162 0.223517 0.901050
O O4 0.372037 0.000000 0.772570
O O5 0.181959 0.500000 0.644611
O O6 0.250081 0.296208 0.685661
O O7 0.185332 0.269253 0.495111
O O8 0.160388 0.241326 0.744505
O O9 0.311673 0.500000 0.600704
O O10 0.500000 0.221818 0.500000
O O11 0.584914 0.277611 0.592944
O O12 0.561265 0.000000 0.540362
O O13 0.556916 0.000000 0.947867
O O14 0.500000 0.227291 0.000000
O O15 0.572930 0.260651 0.847678
O O16 0.891419 0.000000 0.254069
#
# Coordination Sequence:
#
# PCOD8098524 Si02
#       6
#     8   8   8   8   8   8
#     4  10  20  35  59  87 114 151 195 240 290 347
#     4  10  20  36  58  84 116 155 196 235 284 352
#     4  10  20  34  57  88 119 150 187 240 299 347
#     4  10  20  36  59  85 113 149 194 241 287 346
#     4  10  22  42  64  84 112 158 205 239 283 350
#     4  12  24  37  57  88 120 153 192 242 299 342
#
# _framework density 19.035648999999999
#
# number of rings (size 3 to 8) (size 9 to 14) (size 15 to 20)
#    0.000    1.667    1.667    3.500    0.000    6.000 
#    0.000    2.500    0.000    0.000    0.000    0.000 
#    0.000    0.000    0.000    0.000    0.000    0.000 
#
# Total GULP energy -297717.189616 kJ/mol
# GULP energy per Si atom -12404.882901 kJ/mol
# Density = 1.899232 g / cm^3
# Si number density = 19.035649 Si / 1000 Ang^3
#
#
#
# Elastic Constant Matrix: (Units=GPa)
#
#
# Indices 1 2 3 4 5 6 
#
# 1 121.9753 44.4445 18.3692 0.0000 -4.4950 0.0000
# 2 44.4445 71.6147 23.2556 0.0000 -9.7866 0.0000
# 3 18.3692 23.2556 51.1729 0.0000 -4.1850 0.0000
# 4 0.0000 0.0000 0.0000 17.7979 0.0000 1.8216
# 5 -4.4950 -9.7866 -4.1850 0.0000 33.9658 0.0000
# 6 0.0000 0.0000 0.0000 1.8216 0.0000 29.2095
#
#
#
# Elastic Compliance Matrix: (Units=1/GPa)
#
#
# Indices 1 2 3 4 5 6 
#
# 1 0.010644 -0.006364 -0.000973 0.000000 -0.000545 0.000000
# 2 -0.006364 0.020698 -0.006771 0.000000 0.004287 0.000000
# 3 -0.000973 -0.006771 0.023030 0.000000 0.000758 0.000000
# 4 0.000000 0.000000 0.000000 0.056547 0.000000 -0.003527
# 5 -0.000545 0.004287 0.000758 0.000000 0.030698 0.000000
# 6 0.000000 0.000000 0.000000 -0.003527 0.000000 0.034455
#
#
# Mechanical properties :
#
#
# Convention : Reuss Voigt Hill
#
# Bulk Modulus (GPa) = 38.23350 46.32239 42.27795
# Shear Modulus (GPa) = 23.47338 26.77420 25.12379
#
# Velocity S-wave (km/s) = 3.51540 3.75444 3.63689
# Velocity P-wave (km/s) = 6.05031 6.57129 6.31617
#
# Compressibility (1/GPa) = 0.02615507
#
# Stress axis : x y z
#
# Youngs Moduli (GPa) = 93.95195 48.31416 43.42153
#
# Poissons Ratio (x) = 0.30747 0.04225
# Poissons Ratio (y) = 0.59791 0.29401
# Poissons Ratio (z) = 0.09143 0.32714
#
# Static dielectric constant tensor:
#      x y z
#    x 3.787500 0.000000 -0.033330 
#    y 0.000000 3.449380 0.000000 
#    z -0.033330 0.000000 3.280870 
# 
# 
# High freq. dielectric constant tensor:
#      x y z
#    x 1.759580 0.000000 -0.002900 
#    y 0.000000 1.737470 0.000000 
#    z -0.002900 0.000000 1.719660 
# 
# From -- ./inp_files/108731.got.cif
#   From: 2010.06.25/outbox.cif.g09.slc.cpg/sg12_55_cif.got.tgz:108731.got - 2010.06.28 00:19:55.
