data_PCOD8098759
_publ_section_title
;
Structure prediction by ZEFSAII (Michael W. Deem and Ramdas Pophale) SiO2 
 PCOD8098759
Probable space group: C 2/M
;
_chemical_formula_sum "Si O2"
_cell_formula_units_Z 64
_cell_length_a 23.546588
_cell_length_b 9.333267
_cell_length_c 16.782238
_cell_angle_alpha 90.000000
_cell_angle_beta 93.485077
_cell_angle_gamma 90.000000
_cell_volume 3681.354592
_symmetry_space_group_name_H-M "C 2/M"
_symmetry_group_IT_number 12
_symmetry_cell_setting 'monoclinic'
loop_
_space_group_symop_operation_xyz
x,y,z
-x,y,-z
-x,-y,-z
x,-y,z
1/2+x,1/2+y,z
1/2-x,1/2+y,-z
1/2-x,1/2-y,-z
1/2+x,1/2-y,z
loop_
_atom_site_type_symbol
_atom_site_label
_atom_site_fract_x
_atom_site_fract_y
_atom_site_fract_z
Si Si1 0.379198 0.662803 0.588573
Si Si2 0.640670 0.165412 0.180183
Si Si3 0.738929 0.163246 0.077931
Si Si4 0.948832 0.835031 0.752254
Si Si5 0.306967 0.334696 0.238164
Si Si6 0.430977 0.336062 0.299842
Si Si7 0.781658 0.834357 0.690994
Si Si8 0.938309 0.331338 0.462002
O O1 0.392096 0.500000 0.563319
O O2 0.420443 0.705225 0.665233
O O3 0.312573 0.679107 0.607714
O O4 0.390416 0.766967 0.515836
O O5 0.672271 0.179098 0.097504
O O6 0.577946 0.237603 0.178882
O O7 0.678498 0.252907 0.244391
O O8 0.636168 0.000000 0.205675
O O9 0.780743 0.218450 0.151983
O O10 0.753875 0.000000 0.060080
O O11 0.750000 0.250000 0.000000
O O12 0.015841 0.801173 0.752953
O O13 0.936619 0.000000 0.772274
O O14 0.290363 0.500000 0.251135
O O15 0.374520 0.311130 0.242751
O O16 0.279943 0.242444 0.309153
O O17 0.434928 0.500000 0.330986
O O18 0.430255 0.231268 0.374116
O O19 0.775594 0.000000 0.715057
O O20 0.929607 0.500000 0.457228
O O21 0.000000 0.287940 0.500000
#
# Coordination Sequence:
#
# PCOD8098759 Si02
#       8
#     8   8   8   8   8   8   8   8
#     4   9  17  30  48  69  93 125 167 209 251 295
#     4   9  17  29  47  73 103 129 159 202 244 285
#     4   9  18  32  52  79 104 127 158 196 241 290
#     4   9  17  29  48  73  96 126 168 207 244 290
#     4   9  19  35  53  75 101 130 164 202 246 295
#     4  10  20  35  53  70  97 135 169 204 249 299
#     4   9  17  30  49  72  96 126 165 206 247 295
#     4  11  22  32  45  71 101 128 166 213 254 292
#
# _framework density 17.384905
#
# number of rings (size 3 to 8) (size 9 to 14) (size 15 to 20)
#    0.000    2.625    1.250    2.625    0.000    6.500 
#    0.000    0.625    0.000    0.750    0.000    5.250 
#    0.000    0.000    0.000    0.000    0.000    0.000 
#
# Total GULP energy -396640.312953 kJ/mol
# GULP energy per Si atom -12395.009780 kJ/mol
# Density = 1.734534 g / cm^3
# Si number density = 17.384905 Si / 1000 Ang^3
#
#
#
# Elastic Constant Matrix: (Units=GPa)
#
#
# Indices 1 2 3 4 5 6 
#
# 1 121.7730 52.2654 45.1834 0.0000 -16.9208 0.0000
# 2 52.2654 91.6184 46.9940 0.0000 -16.2771 0.0000
# 3 45.1834 46.9940 71.0721 0.0000 -14.7084 0.0000
# 4 0.0000 0.0000 0.0000 27.5762 0.0000 -8.5588
# 5 -16.9208 -16.2771 -14.7084 0.0000 21.8474 0.0000
# 6 0.0000 0.0000 0.0000 -8.5588 0.0000 27.1289
#
#
#
# Elastic Compliance Matrix: (Units=1/GPa)
#
#
# Indices 1 2 3 4 5 6 
#
# 1 0.012004 -0.004070 -0.004234 0.000000 0.003415 0.000000
# 2 -0.004070 0.018543 -0.008676 0.000000 0.004823 0.000000
# 3 -0.004234 -0.008676 0.023798 0.000000 0.006278 0.000000
# 4 0.000000 0.000000 0.000000 0.040199 0.000000 0.012682
# 5 0.003415 0.004823 0.006278 0.000000 0.056237 0.000000
# 6 0.000000 0.000000 0.000000 0.012682 0.000000 0.040862
#
#
# Mechanical properties :
#
#
# Convention : Reuss Voigt Hill
#
# Bulk Modulus (GPa) = 49.05204 63.70543 56.37873
# Shear Modulus (GPa) = 21.51481 24.64522 23.08001
#
# Velocity S-wave (km/s) = 3.52171 3.76922 3.64756
# Velocity P-wave (km/s) = 6.69426 7.46099 7.08800
#
# Compressibility (1/GPa) = 0.02038651
#
# Stress axis : x y z
#
# Youngs Moduli (GPa) = 83.30434 53.92761 42.02050
#
# Poissons Ratio (x) = 0.21946 0.17791
# Poissons Ratio (y) = 0.33901 0.36457
# Poissons Ratio (z) = 0.35271 0.46787
#
# Static dielectric constant tensor:
#      x y z
#    x 3.765960 0.000000 -0.377980 
#    y 0.000000 3.411850 0.000000 
#    z -0.377980 0.000000 2.935160 
# 
# 
# High freq. dielectric constant tensor:
#      x y z
#    x 1.673540 0.000000 -0.028390 
#    y 0.000000 1.678770 0.000000 
#    z -0.028390 0.000000 1.627440 
# 
# From -- ./inp_files/287633.got.cif
#   From: 2010.06.25/outbox.cif.g09.slc.cpg/sg12_144_cif.got.tgz:287633.got - 2010.06.28 00:19:55.
