data_PCOD8098486
_publ_section_title
;
Structure prediction by ZEFSAII (Michael W. Deem and Ramdas Pophale) SiO2 
 PCOD8098486
Probable space group: C 2/M
;
_chemical_formula_sum "Si O2"
_cell_formula_units_Z 64
_cell_length_a 15.293805
_cell_length_b 9.039856
_cell_length_c 30.382296
_cell_angle_alpha 90.000000
_cell_angle_beta 128.198711
_cell_angle_gamma 90.000000
_cell_volume 3301.024950
_symmetry_space_group_name_H-M "C 2/M"
_symmetry_group_IT_number 12
_symmetry_cell_setting 'monoclinic'
loop_
_space_group_symop_operation_xyz
x,y,z
-x,y,-z
-x,-y,-z
x,-y,z
1/2+x,1/2+y,z
1/2-x,1/2+y,-z
1/2-x,1/2-y,-z
1/2+x,1/2-y,z
loop_
_atom_site_type_symbol
_atom_site_label
_atom_site_fract_x
_atom_site_fract_y
_atom_site_fract_z
Si Si1 0.785166 0.674673 0.635274
Si Si2 0.653959 0.173227 0.443045
Si Si3 0.396455 0.830616 0.839940
Si Si4 0.458406 0.825333 0.761564
Si Si5 0.550917 0.173632 0.562197
Si Si6 0.189450 0.831049 0.828810
Si Si7 0.086614 0.170979 0.940214
Si Si8 0.261573 0.670631 0.934452
O O1 0.770099 0.500000 0.632965
O O2 0.837606 0.723892 0.604953
O O3 0.868300 0.733427 0.698682
O O4 0.665939 0.745332 0.606937
O O5 0.750000 0.250000 0.500000
O O6 0.533748 0.218098 0.425055
O O7 0.672943 0.000000 0.454291
O O8 0.419692 0.774367 0.797829
O O9 0.264751 0.817010 0.808442
O O10 0.460609 0.725624 0.894713
O O11 0.435755 0.000000 0.858367
O O12 0.576934 0.757617 0.786340
O O13 0.470227 0.000000 0.762112
O O14 0.500000 0.227467 0.500000
O O15 0.574504 0.000000 0.568301
O O16 0.265075 0.766778 0.891663
O O17 0.159477 0.000000 0.830192
O O18 0.158682 0.275728 0.931538
O O19 0.099816 0.000000 0.930220
O O20 0.123884 0.191270 0.002614
O O21 0.241287 0.500000 0.915740
#
# Coordination Sequence:
#
# PCOD8098486 Si02
#       8
#     8   8   8   8   8   8   8   8
#     4  10  22  38  59  86 114 149 194 238 283 338
#     4  10  20  35  56  84 117 150 187 230 277 336
#     4  10  22  39  59  82 115 154 191 238 296 346
#     4  10  22  42  61  80 113 154 192 238 295 343
#     4  10  20  35  56  84 118 152 184 225 282 337
#     4  11  23  38  59  87 113 149 199 242 284 346
#     4  10  20  34  57  87 115 147 194 238 285 353
#     4  10  20  35  56  84 118 152 184 236 300 347
#
# _framework density 19.387917000000002
#
# number of rings (size 3 to 8) (size 9 to 14) (size 15 to 20)
#    0.000    1.875    2.500    1.125    0.000    5.250 
#    0.000    2.500    0.000    0.000    0.000    0.000 
#    0.000    0.000    0.000    0.000    0.000    0.000 
#
# Total GULP energy -396854.200673 kJ/mol
# GULP energy per Si atom -12401.693771 kJ/mol
# Density = 1.934379 g / cm^3
# Si number density = 19.387917 Si / 1000 Ang^3
#
#
#
# Elastic Constant Matrix: (Units=GPa)
#
#
# Indices 1 2 3 4 5 6 
#
# 1 122.5848 28.8721 63.5888 0.0000 15.3931 0.0000
# 2 28.8721 40.7090 40.8824 0.0000 5.5174 0.0000
# 3 63.5888 40.8824 147.0735 0.0000 14.0461 0.0000
# 4 0.0000 0.0000 0.0000 28.3925 0.0000 7.8031
# 5 15.3931 5.5174 14.0461 0.0000 17.3578 0.0000
# 6 0.0000 0.0000 0.0000 7.8031 0.0000 29.4310
#
#
#
# Elastic Compliance Matrix: (Units=1/GPa)
#
#
# Indices 1 2 3 4 5 6 
#
# 1 0.011619 -0.004084 -0.003282 0.000000 -0.006350 0.000000
# 2 -0.004084 0.035703 -0.008042 0.000000 -0.001219 0.000000
# 3 -0.003282 -0.008042 0.010764 0.000000 -0.003243 0.000000
# 4 0.000000 0.000000 0.000000 0.037989 0.000000 -0.010072
# 5 -0.006350 -0.001219 -0.003243 0.000000 0.066254 0.000000
# 6 0.000000 0.000000 0.000000 -0.010072 0.000000 0.036648
#
#
# Mechanical properties :
#
#
# Convention : Reuss Voigt Hill
#
# Bulk Modulus (GPa) = 36.67152 64.11711 50.39431
# Shear Modulus (GPa) = 20.93070 26.83786 23.88428
#
# Velocity S-wave (km/s) = 3.28925 3.72460 3.51367
# Velocity P-wave (km/s) = 5.77765 7.18605 6.51999
#
# Compressibility (1/GPa) = 0.02726912
#
# Stress axis : x y z
#
# Youngs Moduli (GPa) = 86.06247 28.00895 92.90603
#
# Poissons Ratio (x) = 0.11440 0.30492
# Poissons Ratio (y) = 0.35150 0.74716
# Poissons Ratio (z) = 0.28246 0.22525
#
# Static dielectric constant tensor:
#      x y z
#    x 3.592740 0.000000 -0.096780 
#    y 0.000000 3.477660 0.000000 
#    z -0.096780 0.000000 3.665690 
# 
# 
# High freq. dielectric constant tensor:
#      x y z
#    x 1.758910 0.000000 0.000690 
#    y 0.000000 1.752040 0.000000 
#    z 0.000690 0.000000 1.750770 
# 
# From -- ./inp_files/375663.got.cif
#   From: 2010.06.25/outbox.cif.g09.slc.cpg/sg12_188_cif.got.tgz:375663.got - 2010.06.28 00:19:55.
