data_PCOD8098363
_publ_section_title
;
Structure prediction by ZEFSAII (Michael W. Deem and Ramdas Pophale) SiO2 
 PCOD8098363
Probable space group: C 2/M
;
_chemical_formula_sum "Si O2"
_cell_formula_units_Z 64
_cell_length_a 18.595414
_cell_length_b 8.975308
_cell_length_c 32.068487
_cell_angle_alpha 90.000000
_cell_angle_beta 141.772304
_cell_angle_gamma 90.000000
_cell_volume 3311.888470
_symmetry_space_group_name_H-M "C 2/M"
_symmetry_group_IT_number 12
_symmetry_cell_setting 'monoclinic'
loop_
_space_group_symop_operation_xyz
x,y,z
-x,y,-z
-x,-y,-z
x,-y,z
1/2+x,1/2+y,z
1/2-x,1/2+y,-z
1/2-x,1/2-y,-z
1/2+x,1/2-y,z
loop_
_atom_site_type_symbol
_atom_site_label
_atom_site_fract_x
_atom_site_fract_y
_atom_site_fract_z
Si Si1 0.676773 0.172362 0.844784
Si Si2 0.682576 0.672350 0.932285
Si Si3 0.514347 0.325394 0.634099
Si Si4 0.909891 0.828446 0.809886
Si Si5 0.405804 0.171544 0.724170
Si Si6 0.042260 0.327965 0.474523
Si Si7 0.234854 0.823969 0.788047
Si Si8 0.689057 0.328298 0.397725
O O1 0.720971 0.250566 0.906874
O O2 0.540431 0.196603 0.775802
O O3 0.741440 0.248457 0.835970
O O4 0.710904 0.000000 0.862707
O O5 0.717071 0.500000 0.945896
O O6 0.546413 0.694638 0.877725
O O7 0.750000 0.750000 0.000000
O O8 0.521423 0.500000 0.630154
O O9 0.525175 0.251675 0.593688
O O10 0.621357 0.269037 0.711044
O O11 0.394156 0.279455 0.602103
O O12 0.867101 0.771003 0.745535
O O13 0.850493 0.727554 0.817584
O O14 0.872931 0.000000 0.797870
O O15 0.332630 0.223808 0.651455
O O16 0.377587 0.000000 0.721274
O O17 0.007555 0.500000 0.456877
O O18 0.178627 0.302983 0.528816
O O19 0.000000 0.262400 0.500000
O O20 0.233641 0.000000 0.793320
O O21 0.664093 0.500000 0.374055
#
# Coordination Sequence:
#
# PCOD8098363 Si02
#       8
#     8   8   8   8   8   8   8   8
#     4  10  20  36  59  88 120 154 193 235 282 340
#     4  10  21  39  64  91 121 158 196 236 281 335
#     4  10  22  38  57  80 109 149 192 238 292 348
#     4  10  22  38  58  85 120 157 191 233 287 338
#     4  10  20  34  56  86 113 146 192 237 283 341
#     4  10  23  39  55  79 109 145 192 243 295 354
#     4  11  22  37  58  87 121 152 192 243 294 344
#     4  10  20  37  57  78 110 149 190 236 292 350
#
# _framework density 19.324324000000001
#
# number of rings (size 3 to 8) (size 9 to 14) (size 15 to 20)
#    0.000    1.875    1.250    2.250    1.750    4.750 
#    0.000    0.625    0.000    3.750    0.000    0.000 
#    0.000    0.000    0.000    0.000    0.000    0.000 
#
# Total GULP energy -396958.314429 kJ/mol
# GULP energy per Si atom -12404.947326 kJ/mol
# Density = 1.928034 g / cm^3
# Si number density = 19.324324 Si / 1000 Ang^3
#
#
#
# Elastic Constant Matrix: (Units=GPa)
#
#
# Indices 1 2 3 4 5 6 
#
# 1 120.8488 44.5576 40.1722 0.0000 -25.1352 0.0000
# 2 44.5576 87.5742 46.5898 -0.0001 -15.0460 0.0000
# 3 40.1722 46.5898 88.6482 0.0000 -31.6039 0.0000
# 4 0.0000 -0.0001 0.0000 34.3119 0.0000 -8.1279
# 5 -25.1352 -15.0460 -31.6039 0.0000 29.3782 0.0000
# 6 0.0000 0.0000 0.0000 -8.1279 0.0000 35.5023
#
#
#
# Elastic Compliance Matrix: (Units=1/GPa)
#
#
# Indices 1 2 3 4 5 6 
#
# 1 0.011528 -0.004464 -0.000287 0.000000 0.007268 0.000000
# 2 -0.004464 0.017613 -0.008726 0.000000 -0.004186 0.000000
# 3 -0.000287 -0.008726 0.023222 0.000000 0.020267 0.000000
# 4 0.000000 0.000000 0.000000 0.030816 0.000000 0.007055
# 5 0.007268 -0.004186 0.020267 0.000000 0.059916 0.000000
# 6 0.000000 0.000000 0.000000 0.007055 0.000000 0.029782
#
#
# Mechanical properties :
#
#
# Convention : Reuss Voigt Hill
#
# Bulk Modulus (GPa) = 39.35606 62.19003 50.77304
# Shear Modulus (GPa) = 24.00383 30.88860 27.44622
#
# Velocity S-wave (km/s) = 3.52825 4.00238 3.77277
# Velocity P-wave (km/s) = 6.08345 7.32194 6.73124
#
# Compressibility (1/GPa) = 0.02540905
#
# Stress axis : x y z
#
# Youngs Moduli (GPa) = 86.74758 56.77497 43.06285
#
# Poissons Ratio (x) = 0.25345 0.01234
# Poissons Ratio (y) = 0.38724 0.37578
# Poissons Ratio (z) = 0.02487 0.49543
#
# Static dielectric constant tensor:
#      x y z
#    x 3.656270 0.000000 -0.120160 
#    y 0.000000 3.549280 0.000000 
#    z -0.120160 0.000000 3.414100 
# 
# 
# High freq. dielectric constant tensor:
#      x y z
#    x 1.757980 0.000000 -0.010510 
#    y 0.000000 1.757270 0.000000 
#    z -0.010510 0.000000 1.741520 
# 
# From -- ./inp_files/378385.got.cif
#   From: 2010.06.25/outbox.cif.g09.slc.cpg/sg12_190_cif.got.tgz:378385.got - 2010.06.28 00:19:55.
