data_PCOD8098853
_publ_section_title
;
Structure prediction by ZEFSAII (Michael W. Deem and Ramdas Pophale) SiO2 
 PCOD8098853
Probable space group: C 2/M
;
_chemical_formula_sum "Si O2"
_cell_formula_units_Z 40
_cell_length_a 19.596756
_cell_length_b 8.993943
_cell_length_c 12.424422
_cell_angle_alpha 90.000000
_cell_angle_beta 86.493919
_cell_angle_gamma 90.000000
_cell_volume 2185.731873
_symmetry_space_group_name_H-M "C 2/M"
_symmetry_group_IT_number 12
_symmetry_cell_setting 'monoclinic'
loop_
_space_group_symop_operation_xyz
x,y,z
-x,y,-z
-x,-y,-z
x,-y,z
1/2+x,1/2+y,z
1/2-x,1/2+y,-z
1/2-x,1/2-y,-z
1/2+x,1/2-y,z
loop_
_atom_site_type_symbol
_atom_site_label
_atom_site_fract_x
_atom_site_fract_y
_atom_site_fract_z
Si Si1 0.556227 0.675432 0.762081
Si Si2 0.663147 0.172393 0.608509
Si Si3 0.079764 0.663727 0.968296
Si Si4 0.299740 0.827846 0.637155
Si Si5 0.911766 0.675073 0.798093
O O1 0.554446 0.500000 0.756304
O O2 0.597998 0.738749 0.657602
O O3 0.594085 0.723006 0.869703
O O4 0.479812 0.736639 0.761134
O O5 0.665515 0.202013 0.481057
O O6 0.731892 0.230988 0.658409
O O7 0.654570 0.000000 0.637036
O O8 0.106479 0.500000 0.931372
O O9 0.114078 0.714890 0.077992
O O10 0.000000 0.655756 0.000000
O O11 0.352465 0.775473 0.723030
O O12 0.279525 0.000000 0.652110
O O13 0.928286 0.500000 0.787488
#
# Coordination Sequence:
#
# PCOD8098853 Si02
#       5
#     8   8   8   8   8
#     4  11  21  32  50  76 105 134 169 209 244 289
#     4  10  20  35  54  74 101 135 168 204 250 301
#     4   8  15  30  51  73  99 131 164 201 250 301
#     4   9  19  36  56  76  99 130 167 207 252 301
#     4   9  18  34  55  77 102 131 164 205 253 301
#
# _framework density 18.300505999999999
#
# number of rings (size 3 to 8) (size 9 to 14) (size 15 to 20)
#    0.000    2.600    0.000    3.600    0.000    6.000 
#    0.000    5.000    0.000    0.000    0.000    0.000 
#    0.000    0.000    0.000    0.000    0.000    0.000 
#
# Total GULP energy -247978.498469 kJ/mol
# GULP energy per Si atom -12398.924923 kJ/mol
# Density = 1.825885 g / cm^3
# Si number density = 18.300506 Si / 1000 Ang^3
#
#
#
# Elastic Constant Matrix: (Units=GPa)
#
#
# Indices 1 2 3 4 5 6 
#
# 1 45.6389 20.1443 19.3569 0.0000 24.9785 0.0000
# 2 20.1443 80.3386 11.2036 0.0000 5.6782 0.0000
# 3 19.3569 11.2036 49.2697 0.0000 26.9828 0.0000
# 4 0.0000 0.0000 0.0000 24.6793 0.0000 -4.4634
# 5 24.9785 5.6782 26.9828 0.0000 34.1412 0.0000
# 6 0.0000 0.0000 0.0000 -4.4634 0.0000 29.1852
#
#
#
# Elastic Compliance Matrix: (Units=1/GPa)
#
#
# Indices 1 2 3 4 5 6 
#
# 1 0.041609 -0.008603 0.002640 0.000000 -0.031097 0.000000
# 2 -0.008603 0.014636 -0.003636 0.000000 0.006734 0.000000
# 3 0.002640 -0.003636 0.036695 0.000000 -0.030328 0.000000
# 4 0.000000 0.000000 0.000000 0.041672 0.000000 0.006373
# 5 -0.031097 0.006734 -0.030328 0.000000 0.074891 0.000000
# 6 0.000000 0.000000 0.000000 0.006373 0.000000 0.035239
#
#
# Mechanical properties :
#
#
# Convention : Reuss Voigt Hill
#
# Bulk Modulus (GPa) = 13.56090 30.73964 22.15027
# Shear Modulus (GPa) = 17.32981 25.90398 21.61689
#
# Velocity S-wave (km/s) = 3.08061 3.76637 3.44061
# Velocity P-wave (km/s) = 4.48104 5.97893 5.28334
#
# Compressibility (1/GPa) = 0.07374142
#
# Stress axis : x y z
#
# Youngs Moduli (GPa) = 24.03347 68.32655 27.25141
#
# Poissons Ratio (x) = 0.58783 -0.07194
# Poissons Ratio (y) = 0.20677 0.09908
# Poissons Ratio (z) = -0.06344 0.24841
#
# Static dielectric constant tensor:
#      x y z
#    x 3.169520 0.000000 0.218960 
#    y 0.000000 3.330840 0.000000 
#    z 0.218960 0.000000 3.735190 
# 
# 
# High freq. dielectric constant tensor:
#      x y z
#    x 1.684810 0.000000 0.008020 
#    y 0.000000 1.706850 0.000000 
#    z 0.008020 0.000000 1.717980 
# 
# From -- ./inp_files/151867.got.cif
#   From: 2010.06.25/outbox.cif.g09.slc.cpg/sg12_76_cif.got.tgz:151867.got - 2010.06.28 00:19:55.
