data_PCOD8098289
_publ_section_title
;
Structure prediction by ZEFSAII (Michael W. Deem and Ramdas Pophale) SiO2 
 PCOD8098289
Probable space group: C 2/M
;
_chemical_formula_sum "Si O2"
_cell_formula_units_Z 40
_cell_length_a 24.625188
_cell_length_b 11.893568
_cell_length_c 12.024305
_cell_angle_alpha 90.000000
_cell_angle_beta 30.328864
_cell_angle_gamma 90.000000
_cell_volume 1778.323788
_symmetry_space_group_name_H-M "C 2/M"
_symmetry_group_IT_number 12
_symmetry_cell_setting 'monoclinic'
loop_
_space_group_symop_operation_xyz
x,y,z
-x,y,-z
-x,-y,-z
x,-y,z
1/2+x,1/2+y,z
1/2-x,1/2+y,-z
1/2-x,1/2-y,-z
1/2+x,1/2-y,z
loop_
_atom_site_type_symbol
_atom_site_label
_atom_site_fract_x
_atom_site_fract_y
_atom_site_fract_z
Si Si1 0.744896 0.707452 0.186060
Si Si2 0.731705 0.370802 0.660529
Si Si3 0.578748 0.746881 0.768940
Si Si4 0.973510 0.126405 0.351880
Si Si5 0.902314 0.306942 0.733095
O O1 0.797374 0.787449 0.186669
O O2 0.655360 0.624774 0.394673
O O3 0.689209 0.790470 0.196415
O O4 0.842064 0.640524 0.948865
O O5 0.720583 0.500000 0.717409
O O6 0.655199 0.345955 0.691320
O O7 0.854518 0.347617 0.405217
O O8 0.508722 0.682248 0.800008
O O9 0.500000 0.800705 0.000000
O O10 0.040597 0.191147 0.327402
O O11 0.016892 0.000000 0.272850
O O12 0.000000 0.378085 0.500000
#
# Coordination Sequence:
#
# PCOD8098289 Si02
#       5
#     8   8   8   8   8
#     4   9  19  34  52  77 110 141 177 226 270 315
#     4  10  21  37  57  81 110 147 184 219 271 330
#     4  10  21  36  56  84 115 142 178 229 272 318
#     4  10  20  34  56  84 111 143 183 225 273 324
#     4   9  18  33  53  75 106 141 178 223 270 315
#
# _framework density 22.493092000000001
#
# number of rings (size 3 to 8) (size 9 to 14) (size 15 to 20)
#    0.000    2.400    0.000    1.800    0.000    8.000 
#    0.000    5.000    0.000   40.800    0.000    0.000 
#    0.000    0.000    0.000    0.000    0.000    0.000 
#
# Total GULP energy -247787.055857 kJ/mol
# GULP energy per Si atom -12389.352793 kJ/mol
# Density = 2.244190 g / cm^3
# Si number density = 22.493092 Si / 1000 Ang^3
#
#
#
# Elastic Constant Matrix: (Units=GPa)
#
#
# Indices 1 2 3 4 5 6 
#
# 1 95.2609 18.3909 5.0199 0.0000 12.1530 0.0000
# 2 18.3909 45.2959 -17.7258 0.0000 -1.9458 0.0000
# 3 5.0199 -17.7258 144.5007 0.0000 20.9559 0.0000
# 4 0.0000 0.0000 0.0000 1.4153 0.0000 -4.6960
# 5 12.1530 -1.9458 20.9559 0.0000 37.1697 0.0000
# 6 0.0000 0.0000 0.0000 -4.6960 0.0000 14.0799
#
#
#
# Elastic Compliance Matrix: (Units=1/GPa)
#
#
# Indices 1 2 3 4 5 6 
#
# 1 0.012039 -0.005249 -0.000492 0.000000 -0.003934 0.000000
# 2 -0.005249 0.025485 0.003121 0.000000 0.001291 0.000000
# 3 -0.000492 0.003121 0.007921 0.000000 -0.004142 0.000000
# 4 0.000000 0.000000 0.000000 -6.623400 0.000000 -2.209076
# 5 -0.003934 0.001291 -0.004142 0.000000 0.030592 0.000000
# 6 0.000000 0.000000 0.000000 -2.209076 0.000000 -0.665761
#
#
# Mechanical properties :
#
#
# Convention : Reuss Voigt Hill
#
# Bulk Modulus (GPa) = 24.87191 32.93640 28.90415
# Shear Modulus (GPa) = -0.69498 29.15781 14.23142
#
# Velocity S-wave (km/s) = -0.55646 3.60432 2.51808
# Velocity P-wave (km/s) = 3.26630 5.65652 4.61871
#
# Compressibility (1/GPa) = 0.04020600
#
# Stress axis : x y z
#
# Youngs Moduli (GPa) = 83.06563 39.23827 126.24672
#
# Poissons Ratio (x) = 0.20597 0.06207
# Poissons Ratio (y) = 0.43604 -0.39407
# Poissons Ratio (z) = 0.04084 -0.12248
#
# Static dielectric constant tensor:
#      x y z
#    x 4.062320 0.000000 0.151100 
#    y 0.000000 3.209010 0.000000 
#    z 0.151100 0.000000 4.836990 
# 
# 
# High freq. dielectric constant tensor:
#      x y z
#    x 1.899230 0.000000 0.008990 
#    y 0.000000 1.806360 0.000000 
#    z 0.008990 0.000000 1.921500 
# 
# From -- ./inp_files/140475.got.cif
#   From: 2010.06.25/outbox.cif.g09.slc.cpg/sg12_71_cif.got.tgz:140475.got - 2010.06.28 00:19:55.
