data_PCOD8098303
_publ_section_title
;
Structure prediction by ZEFSAII (Michael W. Deem and Ramdas Pophale) SiO2 
 PCOD8098303
Probable space group: C 2/M
;
_chemical_formula_sum "Si O2"
_cell_formula_units_Z 36
_cell_length_a 9.350954
_cell_length_b 9.452820
_cell_length_c 20.575626
_cell_angle_alpha 90.000000
_cell_angle_beta 109.617220
_cell_angle_gamma 90.000000
_cell_volume 1713.173136
_symmetry_space_group_name_H-M "C 2/M"
_symmetry_group_IT_number 12
_symmetry_cell_setting 'monoclinic'
loop_
_space_group_symop_operation_xyz
x,y,z
-x,y,-z
-x,-y,-z
x,-y,z
1/2+x,1/2+y,z
1/2-x,1/2+y,-z
1/2-x,1/2-y,-z
1/2+x,1/2-y,z
loop_
_atom_site_type_symbol
_atom_site_label
_atom_site_fract_x
_atom_site_fract_y
_atom_site_fract_z
Si Si1 0.816179 0.652638 0.092266
Si Si2 0.500000 0.223513 0.000000
Si Si3 0.576854 0.838374 0.758172
Si Si4 0.203365 0.837925 0.323101
Si Si5 0.173349 0.840074 0.544084
O O1 0.792017 0.500000 0.119123
O O2 0.649329 0.690775 0.042198
O O3 0.881441 0.735356 0.165081
O O4 0.941612 0.638660 0.053889
O O5 0.727963 0.836961 0.738366
O O6 0.458830 0.736919 0.704581
O O7 0.512516 0.000000 0.754021
O O8 0.309793 0.747164 0.386836
O O9 0.186009 0.000000 0.345894
O O10 0.250000 0.750000 0.500000
O O11 0.000000 0.854517 0.500000
O O12 0.242877 0.000000 0.560595
#
# Coordination Sequence:
#
# PCOD8098303 Si02
#       5
#     8   4   8   8   8
#     4  10  20  36  56  81 113 149 190 237 290 345
#     4  10  20  34  56  84 112 146 190 238 290 346
#     4  10  22  39  59  84 117 155 195 241 292 347
#     4  11  23  39  60  87 117 153 196 240 289 344
#     4  11  24  41  63  91 121 155 194 237 287 343
#
# _framework density 21.013639000000001
#
# number of rings (size 3 to 8) (size 9 to 14) (size 15 to 20)
#    0.000    1.556    0.000    4.667    0.000    7.111 
#    0.000    5.556    0.000    0.000    0.000    0.000 
#    0.000    0.000    0.000    0.000    0.000    0.000 
#
# Total GULP energy -222998.601933 kJ/mol
# GULP energy per Si atom -12388.811218 kJ/mol
# Density = 2.096581 g / cm^3
# Si number density = 21.013639 Si / 1000 Ang^3
#
#
#
# Elastic Constant Matrix: (Units=GPa)
#
#
# Indices 1 2 3 4 5 6 
#
# 1 97.2499 35.0845 25.9623 0.0000 -1.7972 0.0000
# 2 35.0845 131.4061 40.6373 0.0000 -0.6083 0.0000
# 3 25.9623 40.6373 120.6022 0.0000 -9.1160 0.0000
# 4 0.0000 0.0000 0.0000 28.9794 0.0000 -2.0552
# 5 -1.7972 -0.6083 -9.1160 0.0000 35.1512 0.0000
# 6 0.0000 0.0000 0.0000 -2.0552 0.0000 22.0005
#
#
#
# Elastic Compliance Matrix: (Units=1/GPa)
#
#
# Indices 1 2 3 4 5 6 
#
# 1 0.011660 -0.002611 -0.001620 0.000000 0.000131 0.000000
# 2 -0.002611 0.009093 -0.002550 0.000000 -0.000637 0.000000
# 3 -0.001620 -0.002550 0.009680 0.000000 0.002383 0.000000
# 4 0.000000 0.000000 0.000000 0.034737 0.000000 0.003245
# 5 0.000131 -0.000637 0.002383 0.000000 0.029062 0.000000
# 6 0.000000 0.000000 0.000000 0.003245 0.000000 0.045757
#
#
# Mechanical properties :
#
#
# Convention : Reuss Voigt Hill
#
# Bulk Modulus (GPa) = 59.27869 61.40294 60.34081
# Shear Modulus (GPa) = 31.41194 33.73116 32.57155
#
# Velocity S-wave (km/s) = 3.87050 4.01085 3.94130
# Velocity P-wave (km/s) = 6.94588 7.12272 7.03486
#
# Compressibility (1/GPa) = 0.01686947
#
# Stress axis : x y z
#
# Youngs Moduli (GPa) = 85.76430 109.97677 103.30742
#
# Poissons Ratio (x) = 0.28720 0.16738
# Poissons Ratio (y) = 0.22397 0.26342
# Poissons Ratio (z) = 0.13896 0.28043
#
# Static dielectric constant tensor:
#      x y z
#    x 3.626000 0.000000 -0.122290 
#    y 0.000000 3.992220 0.000000 
#    z -0.122290 0.000000 4.080430 
# 
# 
# High freq. dielectric constant tensor:
#      x y z
#    x 1.821690 0.000000 -0.004560 
#    y 0.000000 1.817430 0.000000 
#    z -0.004560 0.000000 1.844180 
# 
# From -- ./inp_files/331839.got.cif
#   From: 2010.06.25/outbox.cif.g09.slc.cpg/sg12_166_cif.got.tgz:331839.got - 2010.06.28 00:19:55.
