data_PCOD8098412
_publ_section_title
;
Structure prediction by ZEFSAII (Michael W. Deem and Ramdas Pophale) SiO2 
 PCOD8098412
Probable space group: C 2/M
;
_chemical_formula_sum "Si O2"
_cell_formula_units_Z 44
_cell_length_a 8.787509
_cell_length_b 21.451264
_cell_length_c 11.535296
_cell_angle_alpha 90.000000
_cell_angle_beta 105.445837
_cell_angle_gamma 90.000000
_cell_volume 2095.904916
_symmetry_space_group_name_H-M "C 2/M"
_symmetry_group_IT_number 12
_symmetry_cell_setting 'monoclinic'
loop_
_space_group_symop_operation_xyz
x,y,z
-x,y,-z
-x,-y,-z
x,-y,z
1/2+x,1/2+y,z
1/2-x,1/2+y,-z
1/2-x,1/2-y,-z
1/2+x,1/2-y,z
loop_
_atom_site_type_symbol
_atom_site_label
_atom_site_fract_x
_atom_site_fract_y
_atom_site_fract_z
Si Si1 0.744603 0.073895 0.755364
Si Si2 0.907658 0.628281 0.671081
Si Si3 0.655541 0.570818 0.476058
Si Si4 0.000000 0.726589 0.500000
Si Si5 0.921403 0.183955 0.864099
Si Si6 0.813577 0.215857 0.264103
O O1 0.566414 0.095363 0.746219
O O2 0.789465 0.098618 0.635691
O O3 0.865199 0.111535 0.862418
O O4 0.762218 0.000000 0.778320
O O5 0.800307 0.574233 0.594281
O O6 0.923675 0.683495 0.582092
O O7 0.815862 0.660165 0.760064
O O8 0.500000 0.604500 0.500000
O O9 0.610454 0.500000 0.441970
O O10 0.871420 0.769563 0.407520
O O11 0.762938 0.223501 0.810124
O O12 0.040353 0.193828 0.782817
O O13 0.000000 0.204380 0.000000
#
# Coordination Sequence:
#
# PCOD8098412 Si02
#       6
#     8   8   8   4   8   8
#     4  11  23  41  61  88 124 168 217 259 309 367
#     4  12  21  36  62  93 132 165 202 249 319 383
#     4  10  20  34  56  89 128 167 204 249 309 378
#     4  12  22  36  63  92 135 156 196 248 316 384
#     4  12  25  45  66  90 127 168 216 263 312 373
#     4  12  25  40  65  99 126 166 206 259 322 378
#
# _framework density 20.993319
#
# number of rings (size 3 to 8) (size 9 to 14) (size 15 to 20)
#    0.000    0.545    5.455    2.727    3.818    1.818 
#    0.000    0.909    0.000    1.091    0.000    0.000 
#    0.000    0.000    0.000    0.000    0.000    0.000 
#
# Total GULP energy -272777.405968 kJ/mol
# GULP energy per Si atom -12398.972999 kJ/mol
# Density = 2.094554 g / cm^3
# Si number density = 20.993319 Si / 1000 Ang^3
#
#
#
# Elastic Constant Matrix: (Units=GPa)
#
#
# Indices 1 2 3 4 5 6 
#
# 1 117.9920 41.6132 16.1399 0.0000 12.3022 0.0000
# 2 41.6132 91.9675 23.8724 0.0000 11.4050 0.0000
# 3 16.1399 23.8724 67.9334 0.0000 21.8932 0.0000
# 4 0.0000 0.0000 0.0000 12.7570 0.0000 7.5864
# 5 12.3022 11.4050 21.8932 0.0000 24.1636 0.0000
# 6 0.0000 0.0000 0.0000 7.5864 0.0000 41.1382
#
#
#
# Elastic Compliance Matrix: (Units=1/GPa)
#
#
# Indices 1 2 3 4 5 6 
#
# 1 0.010319 -0.004288 0.000136 0.000000 -0.003352 0.000000
# 2 -0.004288 0.013863 -0.003457 0.000000 -0.001228 0.000000
# 3 0.000136 -0.003457 0.021750 0.000000 -0.018144 0.000000
# 4 0.000000 0.000000 0.000000 0.088044 0.000000 -0.016236
# 5 -0.003352 -0.001228 -0.018144 0.000000 0.060110 0.000000
# 6 0.000000 0.000000 0.000000 -0.016236 0.000000 0.027302
#
#
# Mechanical properties :
#
#
# Convention : Reuss Voigt Hill
#
# Bulk Modulus (GPa) = 32.55989 49.01599 40.78794
# Shear Modulus (GPa) = 20.25559 28.69627 24.47593
#
# Velocity S-wave (km/s) = 3.10959 3.70120 3.41822
# Velocity P-wave (km/s) = 5.33254 6.45479 5.92032
#
# Compressibility (1/GPa) = 0.03071264
#
# Stress axis : x y z
#
# Youngs Moduli (GPa) = 96.91296 72.13197 45.97649
#
# Poissons Ratio (x) = 0.30933 -0.00625
# Poissons Ratio (y) = 0.41560 0.15895
# Poissons Ratio (z) = -0.01317 0.24938
#
# Static dielectric constant tensor:
#      x y z
#    x 4.034250 0.000000 -0.052200 
#    y 0.000000 3.741570 0.000000 
#    z -0.052200 0.000000 3.516230 
# 
# 
# High freq. dielectric constant tensor:
#      x y z
#    x 1.845630 0.000000 0.001950 
#    y 0.000000 1.825360 0.000000 
#    z 0.001950 0.000000 1.779610 
# 
# From -- ./inp_files/120754.got.cif
#   From: 2010.06.25/outbox.cif.g09.slc.cpg/sg12_61_cif.got.tgz:120754.got - 2010.06.28 00:19:55.
