data_PCOD8098334
_publ_section_title
;
Structure prediction by ZEFSAII (Michael W. Deem and Ramdas Pophale) SiO2 
 PCOD8098334
Probable space group: C 2/M
;
_chemical_formula_sum "Si O2"
_cell_formula_units_Z 64
_cell_length_a 22.734200
_cell_length_b 9.065916
_cell_length_c 17.055015
_cell_angle_alpha 90.000000
_cell_angle_beta 78.251285
_cell_angle_gamma 90.000000
_cell_volume 3441.504661
_symmetry_space_group_name_H-M "C 2/M"
_symmetry_group_IT_number 12
_symmetry_cell_setting 'monoclinic'
loop_
_space_group_symop_operation_xyz
x,y,z
-x,y,-z
-x,-y,-z
x,-y,z
1/2+x,1/2+y,z
1/2-x,1/2+y,-z
1/2-x,1/2-y,-z
1/2+x,1/2-y,z
loop_
_atom_site_type_symbol
_atom_site_label
_atom_site_fract_x
_atom_site_fract_y
_atom_site_fract_z
Si Si1 0.901444 0.674111 0.753342
Si Si2 0.775475 0.832534 0.367559
Si Si3 0.845744 0.828969 0.620223
Si Si4 0.885747 0.169701 0.440482
Si Si5 0.871577 0.832889 0.211035
Si Si6 0.303324 0.329080 0.079275
Si Si7 0.960849 0.326864 0.295294
Si Si8 0.680944 0.328050 0.103342
O O1 0.892930 0.500000 0.759777
O O2 0.869866 0.730834 0.683712
O O3 0.872260 0.745695 0.837756
O O4 0.970632 0.721922 0.733791
O O5 0.721410 0.718010 0.383192
O O6 0.820034 0.786253 0.425891
O O7 0.810285 0.816567 0.276250
O O8 0.751740 0.000000 0.384899
O O9 0.888018 0.802716 0.532888
O O10 0.845624 0.000000 0.644723
O O11 0.937290 0.262931 0.384086
O O12 0.897879 0.000000 0.415371
O O13 0.856056 0.787358 0.125992
O O14 0.923766 0.730018 0.230517
O O15 0.895536 0.000000 0.208976
O O16 0.284576 0.500000 0.093236
O O17 0.245149 0.231841 0.114330
O O18 0.328413 0.295387 0.986097
O O19 0.953594 0.500000 0.301318
O O20 0.678075 0.500000 0.123923
#
# Coordination Sequence:
#
# PCOD8098334 Si02
#       8
#     8   8   8   8   8   8   8   8
#     4  11  24  40  54  72 104 143 179 219 268 312
#     4   9  17  31  52  79 111 142 167 201 259 320
#     4  11  22  34  53  81 106 134 176 220 262 315
#     4   9  20  37  55  77 106 138 171 213 268 319
#     4   9  18  34  56  79 106 140 173 210 262 315
#     4   9  18  34  57  86 116 141 168 208 261 315
#     4  10  22  38  56  76  99 135 183 226 261 305
#     4  10  20  34  56  85 112 141 176 212 254 308
#
# _framework density 18.596516999999999
#
# number of rings (size 3 to 8) (size 9 to 14) (size 15 to 20)
#    0.000    2.250    0.000    3.375    0.000    7.500 
#    0.000    3.125    0.000    3.750    0.000    0.000 
#    0.000    0.000    0.000    0.000    0.000    0.000 
#
# Total GULP energy -396888.541984 kJ/mol
# GULP energy per Si atom -12402.766937 kJ/mol
# Density = 1.855419 g / cm^3
# Si number density = 18.596517 Si / 1000 Ang^3
#
#
#
# Elastic Constant Matrix: (Units=GPa)
#
#
# Indices 1 2 3 4 5 6 
#
# 1 88.1268 46.4028 37.4695 0.0000 -22.7566 0.0000
# 2 46.4028 69.4194 26.9005 0.0000 -16.0955 0.0000
# 3 37.4695 26.9005 85.0900 0.0000 -7.8868 0.0000
# 4 0.0000 0.0000 0.0000 27.6674 0.0000 -0.9680
# 5 -22.7566 -16.0955 -7.8868 0.0000 17.5867 0.0000
# 6 0.0000 0.0000 0.0000 -0.9680 0.0000 31.7911
#
#
#
# Elastic Compliance Matrix: (Units=1/GPa)
#
#
# Indices 1 2 3 4 5 6 
#
# 1 0.023618 -0.008984 -0.005728 0.000000 0.019770 0.000000
# 2 -0.008984 0.023442 -0.002654 0.000000 0.008639 0.000000
# 3 -0.005728 -0.002654 0.014817 0.000000 -0.003196 0.000000
# 4 0.000000 0.000000 0.000000 0.036182 0.000000 0.001102
# 5 0.019770 0.008639 -0.003196 0.000000 0.088917 0.000000
# 6 0.000000 0.000000 0.000000 0.001102 0.000000 0.031489
#
#
# Mechanical properties :
#
#
# Convention : Reuss Voigt Hill
#
# Bulk Modulus (GPa) = 36.83774 51.57573 44.20674
# Shear Modulus (GPa) = 19.06607 24.19992 21.63299
#
# Velocity S-wave (km/s) = 3.20543 3.61129 3.41439
# Velocity P-wave (km/s) = 5.79238 6.72182 6.27433
#
# Compressibility (1/GPa) = 0.02714607
#
# Stress axis : x y z
#
# Youngs Moduli (GPa) = 42.34014 42.65842 67.48846
#
# Poissons Ratio (x) = 0.38324 0.38655
# Poissons Ratio (y) = 0.38038 0.17912
# Poissons Ratio (z) = 0.24251 0.11322
#
# Static dielectric constant tensor:
#      x y z
#    x 3.271050 0.000000 0.044390 
#    y 0.000000 3.421590 0.000000 
#    z 0.044390 0.000000 3.572810 
# 
# 
# High freq. dielectric constant tensor:
#      x y z
#    x 1.706370 0.000000 0.004420 
#    y 0.000000 1.726270 0.000000 
#    z 0.004420 0.000000 1.730010 
# 
# From -- ./inp_files/281378.got.cif
#   From: 2010.06.25/outbox.cif.g09.slc.cpg/sg12_141_cif.got.tgz:281378.got - 2010.06.28 00:19:55.
