data_PCOD8098950
_publ_section_title
;
Structure prediction by ZEFSAII (Michael W. Deem and Ramdas Pophale) SiO2 
 PCOD8098950
Probable space group: C 2/M
;
_chemical_formula_sum "Si O2"
_cell_formula_units_Z 48
_cell_length_a 30.987449
_cell_length_b 8.667558
_cell_length_c 9.436923
_cell_angle_alpha 90.000000
_cell_angle_beta 89.954963
_cell_angle_gamma 90.000000
_cell_volume 2534.620008
_symmetry_space_group_name_H-M "C 2/M"
_symmetry_group_IT_number 12
_symmetry_cell_setting 'monoclinic'
loop_
_space_group_symop_operation_xyz
x,y,z
-x,y,-z
-x,-y,-z
x,-y,z
1/2+x,1/2+y,z
1/2-x,1/2+y,-z
1/2-x,1/2-y,-z
1/2+x,1/2-y,z
loop_
_atom_site_type_symbol
_atom_site_label
_atom_site_fract_x
_atom_site_fract_y
_atom_site_fract_z
Si Si1 0.540134 0.683695 0.590439
Si Si2 0.540929 0.315973 0.910334
Si Si3 0.785000 0.819308 0.896757
Si Si4 0.211813 0.681730 0.409577
Si Si5 0.378145 0.316461 0.586880
Si Si6 0.118440 0.179613 0.095188
O O1 0.500000 0.749221 0.500000
O O2 0.538362 0.500000 0.592108
O O3 0.538182 0.749565 0.750394
O O4 0.584116 0.740741 0.516808
O O5 0.541966 0.500000 0.904384
O O6 0.500000 0.257334 0.000000
O O7 0.583981 0.247574 0.985826
O O8 0.780337 0.731589 0.750484
O O9 0.832934 0.789492 0.960093
O O10 0.777030 0.000000 0.872412
O O11 0.750000 0.750000 0.000000
O O12 0.211976 0.500000 0.422224
O O13 0.250000 0.750000 0.500000
O O14 0.166526 0.745887 0.469259
O O15 0.373381 0.500000 0.588044
O O16 0.387726 0.253684 0.745862
O O17 0.108281 0.000000 0.103885
#
# Coordination Sequence:
#
# PCOD8098950 Si02
#       6
#     8   8   8   8   8   8
#     4   9  16  25  41  68 101 136 171 209 255 307
#     4   9  15  23  38  63  95 128 162 201 248 300
#     4  10  20  35  54  78 108 141 178 220 268 320
#     4  11  22  37  56  78 105 138 178 223 275 331
#     4   9  17  31  49  70 100 134 170 213 261 313
#     4   8  15  27  42  62  92 129 165 206 253 299
#
# _framework density 18.937749
#
# number of rings (size 3 to 8) (size 9 to 14) (size 15 to 20)
#    0.000    2.667    0.000    4.000    0.000    5.333 
#    0.000    3.333    0.000    0.500    0.000    0.000 
#    0.000   22.667    0.000    0.000    0.000    0.000 
#
# Total GULP energy -297533.111242 kJ/mol
# GULP energy per Si atom -12397.212968 kJ/mol
# Density = 1.889465 g / cm^3
# Si number density = 18.937749 Si / 1000 Ang^3
#
#
#
# Elastic Constant Matrix: (Units=GPa)
#
#
# Indices 1 2 3 4 5 6 
#
# 1 188.3925 35.6285 103.7574 0.0000 2.5256 0.0000
# 2 35.6285 46.0135 20.9939 0.0000 -0.6687 0.0000
# 3 103.7574 20.9939 132.8685 0.0000 -0.2339 0.0000
# 4 0.0000 0.0000 0.0000 17.1744 0.0000 -2.4098
# 5 2.5256 -0.6687 -0.2339 0.0000 45.9924 0.0000
# 6 0.0000 0.0000 0.0000 -2.4098 0.0000 21.6819
#
#
#
# Elastic Compliance Matrix: (Units=1/GPa)
#
#
# Indices 1 2 3 4 5 6 
#
# 1 0.010151 -0.004583 -0.007204 0.000000 -0.000661 0.000000
# 2 -0.004583 0.025495 -0.000448 0.000000 0.000620 0.000000
# 3 -0.007204 -0.000448 0.013224 0.000000 0.000456 0.000000
# 4 0.000000 0.000000 0.000000 0.059149 0.000000 0.006574
# 5 -0.000661 0.000620 0.000456 0.000000 0.021790 0.000000
# 6 0.000000 0.000000 0.000000 0.006574 0.000000 0.046852
#
#
# Mechanical properties :
#
#
# Convention : Reuss Voigt Hill
#
# Bulk Modulus (GPa) = 40.98558 76.44824 58.71691
# Shear Modulus (GPa) = 23.89310 30.76272 27.32791
#
# Velocity S-wave (km/s) = 3.55585 4.03477 3.80286
# Velocity P-wave (km/s) = 6.20870 7.88427 7.09611
#
# Compressibility (1/GPa) = 0.02439882
#
# Stress axis : x y z
#
# Youngs Moduli (GPa) = 98.50841 39.22347 75.62145
#
# Poissons Ratio (x) = 0.17976 0.54480
# Poissons Ratio (y) = 0.45145 0.03391
# Poissons Ratio (z) = 0.70969 0.01759
#
# Static dielectric constant tensor:
#      x y z
#    x 3.751210 0.000000 0.087910 
#    y 0.000000 2.992500 0.000000 
#    z 0.087910 0.000000 3.932420 
# 
# 
# High freq. dielectric constant tensor:
#      x y z
#    x 1.753950 0.000000 0.001560 
#    y 0.000000 1.683010 0.000000 
#    z 0.001560 0.000000 1.737220 
# 
# From -- ./inp_files/108747.got.cif
#   From: 2010.06.25/outbox.cif.g09.slc.cpg/sg12_55_cif.got.tgz:108747.got - 2010.06.28 00:19:55.
