data_PCOD8098855
_publ_section_title
;
Structure prediction by ZEFSAII (Michael W. Deem and Ramdas Pophale) SiO2 
 PCOD8098855
Probable space group: C 2/M
;
_chemical_formula_sum "Si O2"
_cell_formula_units_Z 56
_cell_length_a 16.389745
_cell_length_b 13.037535
_cell_length_c 31.139971
_cell_angle_alpha 90.000000
_cell_angle_beta 152.422880
_cell_angle_gamma 90.000000
_cell_volume 3080.438721
_symmetry_space_group_name_H-M "C 2/M"
_symmetry_group_IT_number 12
_symmetry_cell_setting 'monoclinic'
loop_
_space_group_symop_operation_xyz
x,y,z
-x,y,-z
-x,-y,-z
x,-y,z
1/2+x,1/2+y,z
1/2-x,1/2+y,-z
1/2-x,1/2-y,-z
1/2+x,1/2-y,z
loop_
_atom_site_type_symbol
_atom_site_label
_atom_site_fract_x
_atom_site_fract_y
_atom_site_fract_z
Si Si1 0.798517 0.207260 0.417909
Si Si2 0.335895 0.747128 0.281566
Si Si3 0.396907 0.616624 0.636245
Si Si4 0.392604 0.621620 0.885150
Si Si5 0.831110 0.384166 0.555651
Si Si6 0.857961 0.380671 0.737925
Si Si7 0.751638 0.379189 0.091829
O O1 0.706786 0.319595 0.375650
O O2 0.779643 0.155179 0.455447
O O3 0.702314 0.133976 0.339113
O O4 0.000000 0.222080 0.500000
O O5 0.409711 0.665516 0.281096
O O6 0.180998 0.815784 0.189420
O O7 0.493309 0.819799 0.370836
O O8 0.263400 0.687133 0.288493
O O9 0.415226 0.500000 0.660732
O O10 0.293910 0.625773 0.543418
O O11 0.372362 0.500000 0.867502
O O12 0.286158 0.659701 0.877541
O O13 0.597597 0.653720 0.987019
O O14 0.890443 0.500000 0.591645
O O15 0.839264 0.500000 0.741723
O O16 0.059241 0.340862 0.836669
O O17 0.751567 0.500000 0.095498
#
# Coordination Sequence:
#
# PCOD8098855 Si02
#       7
#     8   8   8   8   8   8   8
#     4  11  21  34  53  78 101 129 172 212 249 294
#     4  11  20  32  51  75 102 135 171 203 246 300
#     4  10  21  36  51  70 101 137 169 203 249 303
#     4   9  17  32  55  79 102 129 166 210 250 294
#     4  10  20  35  54  74 101 135 169 208 250 295
#     4  11  22  34  50  75 105 133 166 210 254 295
#     4   8  16  32  53  77 102 128 163 208 254 296
#
# _framework density 18.179227999999998
#
# number of rings (size 3 to 8) (size 9 to 14) (size 15 to 20)
#    0.000    2.000    0.000    7.286    0.000    4.286 
#    0.000    1.429    0.000    0.000    0.000   19.000 
#    0.000    0.000    0.000    0.000    0.000    0.000 
#
# Total GULP energy -347174.454164 kJ/mol
# GULP energy per Si atom -12399.087649 kJ/mol
# Density = 1.813785 g / cm^3
# Si number density = 18.179228 Si / 1000 Ang^3
#
#
#
# Elastic Constant Matrix: (Units=GPa)
#
#
# Indices 1 2 3 4 5 6 
#
# 1 88.9106 39.4166 28.5592 -0.0002 23.8637 0.0000
# 2 39.4166 99.4312 28.1063 -0.0001 9.1350 0.0001
# 3 28.5592 28.1063 57.7160 -0.0012 13.1819 0.0008
# 4 -0.0002 -0.0001 -0.0012 24.1106 -0.0003 0.2892
# 5 23.8637 9.1350 13.1819 -0.0003 29.4856 0.0001
# 6 0.0000 0.0001 0.0008 0.2892 0.0001 22.6839
#
#
#
# Elastic Compliance Matrix: (Units=1/GPa)
#
#
# Indices 1 2 3 4 5 6 
#
# 1 0.017596 -0.004886 -0.003810 0.000000 -0.011024 0.000000
# 2 -0.004886 0.013057 -0.004366 0.000000 0.001861 0.000000
# 3 -0.003810 -0.004366 0.022636 0.000001 -0.005683 -0.000001
# 4 0.000000 0.000000 0.000001 0.041482 0.000000 -0.000529
# 5 -0.011024 0.001861 -0.005683 0.000000 0.044801 0.000000
# 6 0.000000 0.000000 -0.000001 -0.000529 0.000000 0.044091
#
#
# Mechanical properties :
#
#
# Convention : Reuss Voigt Hill
#
# Bulk Modulus (GPa) = 36.81110 48.69133 42.75122
# Shear Modulus (GPa) = 22.84766 25.25439 24.05103
#
# Velocity S-wave (km/s) = 3.54898 3.73123 3.64125
# Velocity P-wave (km/s) = 6.08988 6.73832 6.42229
#
# Compressibility (1/GPa) = 0.02716572
#
# Stress axis : x y z
#
# Youngs Moduli (GPa) = 56.83167 76.58638 44.17818
#
# Poissons Ratio (x) = 0.37417 0.16831
# Poissons Ratio (y) = 0.27766 0.19288
# Poissons Ratio (z) = 0.21652 0.33437
#
# Static dielectric constant tensor:
#      x y z
#    x 3.370570 0.000000 0.363180 
#    y 0.000000 3.491760 0.000000 
#    z 0.363180 0.000000 3.693780 
# 
# 
# High freq. dielectric constant tensor:
#      x y z
#    x 1.695190 0.000000 0.014500 
#    y 0.000000 1.697750 0.000000 
#    z 0.014500 0.000000 1.702880 
# 
# From -- ./inp_files/361454.got.cif
#   From: 2010.06.25/outbox.cif.g09.slc.cpg/sg12_181_cif.got.tgz:361454.got - 2010.06.28 00:19:55.
