data_PCOD8098030
_publ_section_title
;
Structure prediction by ZEFSAII (Michael W. Deem and Ramdas Pophale) SiO2 
 PCOD8098030
Probable space group: C 2/M
;
_chemical_formula_sum "Si O2"
_cell_formula_units_Z 56
_cell_length_a 19.521243
_cell_length_b 8.913890
_cell_length_c 24.496144
_cell_angle_alpha 90.000000
_cell_angle_beta 136.168172
_cell_angle_gamma 90.000000
_cell_volume 2952.023701
_symmetry_space_group_name_H-M "C 2/M"
_symmetry_group_IT_number 12
_symmetry_cell_setting 'monoclinic'
loop_
_space_group_symop_operation_xyz
x,y,z
-x,y,-z
-x,-y,-z
x,-y,z
1/2+x,1/2+y,z
1/2-x,1/2+y,-z
1/2-x,1/2-y,-z
1/2+x,1/2-y,z
loop_
_atom_site_type_symbol
_atom_site_label
_atom_site_fract_x
_atom_site_fract_y
_atom_site_fract_z
Si Si1 0.463350 0.677451 0.675246
Si Si2 0.303945 0.676029 0.780459
Si Si3 0.998282 0.323873 0.936219
Si Si4 0.804189 0.176319 0.980946
Si Si5 0.331983 0.826472 0.198150
Si Si6 0.159561 0.323777 0.478844
Si Si7 0.214836 0.175234 0.352173
O O1 0.459487 0.500000 0.667697
O O2 0.571083 0.727932 0.756554
O O3 0.440352 0.747988 0.601822
O O4 0.382077 0.740066 0.671985
O O5 0.331658 0.500000 0.797885
O O6 0.396184 0.773425 0.851654
O O7 0.211939 0.708440 0.767370
O O8 0.274865 0.735962 0.703440
O O9 0.012932 0.500000 0.936768
O O10 0.085329 0.238568 0.955424
O O11 0.000000 0.275850 0.000000
O O12 0.749172 0.220284 0.893278
O O13 0.807869 0.000000 0.991653
O O14 0.750000 0.250000 0.000000
O O15 0.361225 0.000000 0.208991
O O16 0.155262 0.500000 0.464801
O O17 0.250000 0.250000 0.500000
O O18 0.182367 0.290655 0.556120
O O19 0.196782 0.000000 0.338790
#
# Coordination Sequence:
#
# PCOD8098030 Si02
#       7
#     8   8   8   8   8   8   8
#     4  10  20  34  55  82 112 146 184 226 278 333
#     4  10  20  38  60  81 109 146 189 233 279 333
#     4  11  23  39  59  84 114 150 190 231 281 337
#     4  11  24  41  60  85 114 148 190 236 285 335
#     4  10  22  38  56  80 111 145 185 230 280 334
#     4   9  16  31  54  81 111 142 181 225 275 329
#     4   8  17  33  56  84 106 136 183 229 272 325
#
# _framework density 18.970037000000001
#
# number of rings (size 3 to 8) (size 9 to 14) (size 15 to 20)
#    0.000    2.143    1.429    2.571    2.000    2.286 
#    0.000    4.286    0.000    4.286    0.000    0.000 
#    0.000    0.000    0.000    0.000    0.000    0.000 
#
# Total GULP energy -347133.942605 kJ/mol
# GULP energy per Si atom -12397.640807 kJ/mol
# Density = 1.892686 g / cm^3
# Si number density = 18.970037 Si / 1000 Ang^3
#
#
#
# Elastic Constant Matrix: (Units=GPa)
#
#
# Indices 1 2 3 4 5 6 
#
# 1 85.0451 27.1165 22.5133 0.0000 -14.7433 0.0000
# 2 27.1165 63.9361 25.6082 0.0000 -4.9890 0.0000
# 3 22.5133 25.6082 72.6091 0.0000 -19.8623 0.0000
# 4 0.0000 0.0000 0.0000 33.8009 0.0000 5.8664
# 5 -14.7433 -4.9890 -19.8623 0.0000 34.6769 0.0000
# 6 0.0000 0.0000 0.0000 5.8664 0.0000 26.1249
#
#
#
# Elastic Compliance Matrix: (Units=1/GPa)
#
#
# Indices 1 2 3 4 5 6 
#
# 1 0.014618 -0.005277 -0.001398 0.000000 0.004655 0.000000
# 2 -0.005277 0.020164 -0.006280 0.000000 -0.002939 0.000000
# 3 -0.001398 -0.006280 0.018986 0.000000 0.009377 0.000000
# 4 0.000000 0.000000 0.000000 0.030785 0.000000 -0.006913
# 5 0.004655 -0.002939 0.009377 0.000000 0.035765 0.000000
# 6 0.000000 0.000000 0.000000 -0.006913 0.000000 0.039830
#
#
# Mechanical properties :
#
#
# Convention : Reuss Voigt Hill
#
# Bulk Modulus (GPa) = 35.89457 41.34070 38.61764
# Shear Modulus (GPa) = 25.59609 28.67738 27.13673
#
# Velocity S-wave (km/s) = 3.67725 3.89230 3.78630
# Velocity P-wave (km/s) = 6.08214 6.48382 6.28619
#
# Compressibility (1/GPa) = 0.02785936
#
# Stress axis : x y z
#
# Youngs Moduli (GPa) = 68.40886 49.59256 52.67137
#
# Poissons Ratio (x) = 0.26168 0.07364
# Poissons Ratio (y) = 0.36096 0.33076
# Poissons Ratio (z) = 0.09564 0.31142
#
# Static dielectric constant tensor:
#      x y z
#    x 3.464200 0.000000 -0.263170 
#    y 0.000000 3.415190 0.000000 
#    z -0.263170 0.000000 3.950950 
# 
# 
# High freq. dielectric constant tensor:
#      x y z
#    x 1.721640 0.000000 -0.006280 
#    y 0.000000 1.730060 0.000000 
#    z -0.006280 0.000000 1.750180 
# 
# From -- ./inp_files/342501.got.cif
#   From: 2010.06.25/outbox.cif.g09.slc.cpg/sg12_172_cif.got.tgz:342501.got - 2010.06.28 00:19:55.
