data_PCOD8098528
_publ_section_title
;
Structure prediction by ZEFSAII (Michael W. Deem and Ramdas Pophale) SiO2 
 PCOD8098528
Probable space group: C 2/M
;
_chemical_formula_sum "Si O2"
_cell_formula_units_Z 48
_cell_length_a 11.863532
_cell_length_b 19.154227
_cell_length_c 11.179926
_cell_angle_alpha 90.000000
_cell_angle_beta 72.199741
_cell_angle_gamma 90.000000
_cell_volume 2418.872109
_symmetry_space_group_name_H-M "C 2/M"
_symmetry_group_IT_number 12
_symmetry_cell_setting 'monoclinic'
loop_
_space_group_symop_operation_xyz
x,y,z
-x,y,-z
-x,-y,-z
x,-y,z
1/2+x,1/2+y,z
1/2-x,1/2+y,-z
1/2-x,1/2-y,-z
1/2+x,1/2-y,z
loop_
_atom_site_type_symbol
_atom_site_label
_atom_site_fract_x
_atom_site_fract_y
_atom_site_fract_z
Si Si1 0.789727 0.346569 0.888947
Si Si2 0.626341 0.921498 0.519793
Si Si3 0.258788 0.189088 0.155234
Si Si4 0.336535 0.582291 0.277620
Si Si5 0.040800 0.678820 0.732561
Si Si6 0.522172 0.326442 0.353643
O O1 0.781926 0.264573 0.872497
O O2 0.693143 0.390524 0.846077
O O3 0.923805 0.365307 0.805728
O O4 0.768119 0.361863 0.036626
O O5 0.500000 0.914443 0.500000
O O6 0.724943 0.896689 0.394800
O O7 0.629950 0.870895 0.631351
O O8 0.651683 0.000000 0.555134
O O9 0.387871 0.198052 0.171288
O O10 0.160163 0.160077 0.279182
O O11 0.360076 0.500000 0.265613
O O12 0.450720 0.620165 0.293297
O O13 0.015321 0.747306 0.662335
O O14 0.500000 0.342915 0.500000
#
# Coordination Sequence:
#
# PCOD8098528 Si02
#       6
#     8   8   8   8   8   8
#     4  10  21  38  59  88 118 159 202 246 300 353
#     4  10  20  34  57  88 120 154 191 240 300 353
#     4  10  22  38  59  87 123 154 199 252 301 355
#     4  11  23  41  62  87 125 164 204 246 296 363
#     4  11  20  36  64  90 121 155 197 257 300 357
#     4  11  24  38  60  91 122 158 204 251 301 358
#
# _framework density 19.843959999999999
#
# number of rings (size 3 to 8) (size 9 to 14) (size 15 to 20)
#    0.000    1.500    3.333    2.000    2.333    2.333 
#    0.000    3.333    0.000    2.000    0.000    0.000 
#    0.000    0.000    0.000    0.000    0.000    0.000 
#
# Total GULP energy -297631.015704 kJ/mol
# GULP energy per Si atom -12401.292321 kJ/mol
# Density = 1.979879 g / cm^3
# Si number density = 19.843960 Si / 1000 Ang^3
#
#
#
# Elastic Constant Matrix: (Units=GPa)
#
#
# Indices 1 2 3 4 5 6 
#
# 1 92.1373 9.8561 23.7975 0.0000 7.7457 0.0000
# 2 9.8561 50.8765 26.6975 0.0000 -6.4426 0.0000
# 3 23.7975 26.6975 108.7915 0.0000 9.5484 0.0000
# 4 0.0000 0.0000 0.0000 22.9129 0.0000 3.3513
# 5 7.7457 -6.4426 9.5484 0.0000 25.3019 0.0000
# 6 0.0000 0.0000 0.0000 3.3513 0.0000 23.4711
#
#
#
# Elastic Compliance Matrix: (Units=1/GPa)
#
#
# Indices 1 2 3 4 5 6 
#
# 1 0.011801 -0.001734 -0.001862 0.000000 -0.003352 0.000000
# 2 -0.001734 0.024544 -0.006453 0.000000 0.009216 0.000000
# 3 -0.001862 -0.006453 0.011663 0.000000 -0.005475 0.000000
# 4 0.000000 0.000000 0.000000 0.044574 0.000000 -0.006365
# 5 -0.003352 0.009216 -0.005475 0.000000 0.044961 0.000000
# 6 0.000000 0.000000 0.000000 -0.006365 0.000000 0.043514
#
#
# Mechanical properties :
#
#
# Convention : Reuss Voigt Hill
#
# Bulk Modulus (GPa) = 35.82645 41.38974 38.60810
# Shear Modulus (GPa) = 23.75748 27.10079 25.42914
#
# Velocity S-wave (km/s) = 3.46383 3.69954 3.58362
# Velocity P-wave (km/s) = 5.83873 6.25713 6.05155
#
# Compressibility (1/GPa) = 0.02791234
#
# Stress axis : x y z
#
# Youngs Moduli (GPa) = 84.73521 40.74246 85.73976
#
# Poissons Ratio (x) = 0.07063 0.15964
# Poissons Ratio (y) = 0.14690 0.55326
# Poissons Ratio (z) = 0.15777 0.26290
#
# Static dielectric constant tensor:
#      x y z
#    x 3.624560 0.000000 -0.135480 
#    y 0.000000 3.381390 0.000000 
#    z -0.135480 0.000000 3.824690 
# 
# 
# High freq. dielectric constant tensor:
#      x y z
#    x 1.780790 0.000000 -0.001130 
#    y 0.000000 1.748920 0.000000 
#    z -0.001130 0.000000 1.779680 
# 
# From -- ./inp_files/131035.got.cif
#   From: 2010.06.25/outbox.cif.g09.slc.cpg/sg12_66_cif.got.tgz:131035.got - 2010.06.28 00:19:55.
