data_PCOD8098720
_publ_section_title
;
Structure prediction by ZEFSAII (Michael W. Deem and Ramdas Pophale) SiO2 
 PCOD8098720
Probable space group: C 2/M
;
_chemical_formula_sum "Si O2"
_cell_formula_units_Z 64
_cell_length_a 19.741435
_cell_length_b 18.885188
_cell_length_c 16.392638
_cell_angle_alpha 90.000000
_cell_angle_beta 145.106390
_cell_angle_gamma 90.000000
_cell_volume 3496.119031
_symmetry_space_group_name_H-M "C 2/M"
_symmetry_group_IT_number 12
_symmetry_cell_setting 'monoclinic'
loop_
_space_group_symop_operation_xyz
x,y,z
-x,y,-z
-x,-y,-z
x,-y,z
1/2+x,1/2+y,z
1/2-x,1/2+y,-z
1/2-x,1/2-y,-z
1/2+x,1/2-y,z
loop_
_atom_site_type_symbol
_atom_site_label
_atom_site_fract_x
_atom_site_fract_y
_atom_site_fract_z
Si Si1 0.963212 0.813129 0.831424
Si Si2 0.071455 0.299611 0.828058
Si Si3 0.815350 0.189018 0.842189
Si Si4 0.361769 0.418109 0.600169
Si Si5 0.467448 0.418055 0.376672
Si Si6 0.296294 0.299898 0.157672
Si Si7 0.129491 0.418985 0.605048
Si Si8 0.393041 0.919170 0.605094
O O1 0.863857 0.795547 0.799978
O O2 0.925585 0.876195 0.735401
O O3 0.982465 0.741829 0.799408
O O4 0.084090 0.836373 0.995435
O O5 0.103687 0.250728 0.782738
O O6 0.005359 0.370579 0.735234
O O7 0.193529 0.320029 0.992648
O O8 0.756031 0.261563 0.814333
O O9 0.722048 0.125715 0.748602
O O10 0.375669 0.500000 0.637839
O O11 0.421590 0.400917 0.572499
O O12 0.222206 0.398805 0.454613
O O13 0.500000 0.395422 0.500000
O O14 0.431288 0.500000 0.335967
O O15 0.353001 0.374089 0.237906
O O16 0.145458 0.500000 0.648195
O O17 0.150704 0.408784 0.530390
O O18 0.000000 0.391032 0.500000
O O19 0.433524 0.000000 0.660778
#
# Coordination Sequence:
#
# PCOD8098720 Si02
#       8
#     8   8   8   8   8   8   8   8
#     4  10  20  37  57  83 112 149 187 233 282 333
#     4  10  21  37  57  80 113 149 189 233 279 328
#     4  10  21  35  56  84 116 146 187 230 281 337
#     4  10  20  38  59  83 115 148 189 235 279 335
#     4  10  22  40  61  85 112 145 190 240 286 331
#     4  10  21  38  57  82 115 147 187 236 280 331
#     4  10  20  35  51  76 116 152 183 223 273 333
#     4  10  21  36  55  80 111 149 189 229 275 334
#
# _framework density 18.306013
#
# number of rings (size 3 to 8) (size 9 to 14) (size 15 to 20)
#    0.000    2.000    2.500    0.750    0.000    4.000 
#    0.000    1.250    0.000    0.000    0.000    7.000 
#    0.000    0.000    0.000    0.000    0.000    0.000 
#
# Total GULP energy -396868.151560 kJ/mol
# GULP energy per Si atom -12402.129736 kJ/mol
# Density = 1.826435 g / cm^3
# Si number density = 18.306013 Si / 1000 Ang^3
#
#
#
# Elastic Constant Matrix: (Units=GPa)
#
#
# Indices 1 2 3 4 5 6 
#
# 1 114.6324 34.1899 37.7004 0.0003 0.1250 0.0001
# 2 34.1899 83.9773 60.4236 0.0000 7.4258 0.0000
# 3 37.7004 60.4236 83.1984 0.0004 7.3815 0.0002
# 4 0.0003 0.0000 0.0004 34.9184 0.0003 5.2838
# 5 0.1250 7.4258 7.3815 0.0003 27.9790 0.0002
# 6 0.0001 0.0000 0.0002 5.2838 0.0002 24.2992
#
#
#
# Elastic Compliance Matrix: (Units=1/GPa)
#
#
# Indices 1 2 3 4 5 6 
#
# 1 0.010425 -0.001841 -0.003508 0.000000 0.001368 0.000000
# 2 -0.001841 0.025364 -0.017397 0.000000 -0.002134 0.000000
# 3 -0.003508 -0.017397 0.026452 0.000000 -0.002346 0.000000
# 4 0.000000 0.000000 0.000000 0.029613 0.000000 -0.006439
# 5 0.001368 -0.002134 -0.002346 0.000000 0.036920 0.000000
# 6 0.000000 0.000000 0.000000 -0.006439 0.000000 0.042554
#
#
# Mechanical properties :
#
#
# Convention : Reuss Voigt Hill
#
# Bulk Modulus (GPa) = 59.70829 60.71510 60.21170
# Shear Modulus (GPa) = 22.48171 27.40559 24.94365
#
# Velocity S-wave (km/s) = 3.50823 3.87341 3.69534
# Velocity P-wave (km/s) = 7.00699 7.29679 7.15336
#
# Compressibility (1/GPa) = 0.01674809
#
# Stress axis : x y z
#
# Youngs Moduli (GPa) = 95.92388 39.42618 37.80408
#
# Poissons Ratio (x) = 0.07258 0.13263
# Poissons Ratio (y) = 0.17660 0.65769
# Poissons Ratio (z) = 0.33652 0.68591
#
# Static dielectric constant tensor:
#      x y z
#    x 3.712260 0.000000 0.037090 
#    y 0.000000 3.236320 0.000000 
#    z 0.037090 0.000000 3.222600 
# 
# 
# High freq. dielectric constant tensor:
#      x y z
#    x 1.729070 0.000000 0.005600 
#    y 0.000000 1.701890 0.000000 
#    z 0.005600 0.000000 1.700570 
# 
# From -- ./inp_files/226874.got.cif
#   From: 2010.06.25/outbox.cif.g09.slc.cpg/sg12_114_cif.got.tgz:226874.got - 2010.06.28 00:19:55.
