data_PCOD8098455
_publ_section_title
;
Structure prediction by ZEFSAII (Michael W. Deem and Ramdas Pophale) SiO2 
 PCOD8098455
Probable space group: C 2/M
;
_chemical_formula_sum "Si O2"
_cell_formula_units_Z 32
_cell_length_a 12.862696
_cell_length_b 31.467616
_cell_length_c 9.821094
_cell_angle_alpha 90.000000
_cell_angle_beta 21.778622
_cell_angle_gamma 90.000000
_cell_volume 1474.873075
_symmetry_space_group_name_H-M "C 2/M"
_symmetry_group_IT_number 12
_symmetry_cell_setting 'monoclinic'
loop_
_space_group_symop_operation_xyz
x,y,z
-x,y,-z
-x,-y,-z
x,-y,z
1/2+x,1/2+y,z
1/2-x,1/2+y,-z
1/2-x,1/2-y,-z
1/2+x,1/2-y,z
loop_
_atom_site_type_symbol
_atom_site_label
_atom_site_fract_x
_atom_site_fract_y
_atom_site_fract_z
Si Si1 0.216317 0.818380 0.622790
Si Si2 0.876165 0.047525 0.800600
Si Si3 0.621164 0.096514 0.701958
Si Si4 0.166860 0.768900 0.426921
O O1 0.391196 0.858722 0.360651
O O2 0.060347 0.797933 0.681237
O O3 0.410917 0.780488 0.447154
O O4 0.000000 0.834079 0.000000
O O5 0.000000 0.046027 0.500000
O O6 0.066501 0.077005 0.666978
O O7 0.865228 0.000000 0.875573
O O8 0.562970 0.065522 0.168417
O O9 0.500000 0.103056 0.000000
O O10 0.000000 0.785608 0.500000
O O11 0.500000 0.773612 0.000000
#
# Coordination Sequence:
#
# PCOD8098455 Si02
#       4
#     8   8   8   8
#     4  10  23  39  60  88 120 155 195 241 291 343
#     4   9  18  34  57  84 111 144 190 239 283 333
#     4  10  20  34  57  85 114 148 188 236 286 341
#     4  10  23  42  62  83 115 158 201 242 285 338
#
# _framework density 21.696784000000001
#
# number of rings (size 3 to 8) (size 9 to 14) (size 15 to 20)
#    0.000    2.250    0.000    1.500    0.000   22.000 
#    0.000    0.000    0.000    4.500    0.000    0.000 
#    0.000    0.000    0.000    0.000    0.000    0.000 
#
# Total GULP energy -198343.442746 kJ/mol
# GULP energy per Si atom -12396.465172 kJ/mol
# Density = 2.164740 g / cm^3
# Si number density = 21.696784 Si / 1000 Ang^3
#
#
#
# Elastic Constant Matrix: (Units=GPa)
#
#
# Indices 1 2 3 4 5 6 
#
# 1 121.6530 28.7294 53.5934 0.0002 -13.2798 0.0000
# 2 28.7294 129.2948 41.7610 0.0008 -0.4569 -0.0001
# 3 53.5934 41.7610 63.4223 0.0048 -7.9845 -0.0009
# 4 0.0002 0.0008 0.0048 33.4982 -0.0024 10.3227
# 5 -13.2798 -0.4569 -7.9845 -0.0024 34.8492 0.0004
# 6 0.0000 -0.0001 -0.0009 10.3227 0.0004 16.5292
#
#
#
# Elastic Compliance Matrix: (Units=1/GPa)
#
#
# Indices 1 2 3 4 5 6 
#
# 1 0.013371 0.000745 -0.011477 0.000002 0.002475 -0.000002
# 2 0.000745 0.009931 -0.007328 0.000001 -0.001265 -0.000001
# 3 -0.011477 -0.007328 0.030611 -0.000005 0.002544 0.000005
# 4 0.000002 0.000001 -0.000005 0.036967 0.000002 -0.023086
# 5 0.002475 -0.001265 0.002544 0.000002 0.030205 -0.000002
# 6 -0.000002 -0.000001 0.000005 -0.023086 -0.000002 0.074916
#
#
# Mechanical properties :
#
#
# Convention : Reuss Voigt Hill
#
# Bulk Modulus (GPa) = 56.20408 62.50419 59.35414
# Shear Modulus (GPa) = 21.00379 29.66107 25.33243
#
# Velocity S-wave (km/s) = 3.11474 3.70141 3.42067
# Velocity P-wave (km/s) = 6.23667 6.86570 6.55873
#
# Compressibility (1/GPa) = 0.01779230
#
# Stress axis : x y z
#
# Youngs Moduli (GPa) = 74.79057 100.69342 32.66760
#
# Poissons Ratio (x) = -0.07500 0.37494
# Poissons Ratio (y) = -0.05571 0.23939
# Poissons Ratio (z) = 0.85840 0.73787
#
# Static dielectric constant tensor:
#      x y z
#    x 3.902020 0.000000 0.067650 
#    y 0.000000 4.011630 0.000000 
#    z 0.067650 0.000000 3.692880 
# 
# 
# High freq. dielectric constant tensor:
#      x y z
#    x 1.845330 0.000000 -0.003920 
#    y 0.000000 1.855220 0.000000 
#    z -0.003920 0.000000 1.825130 
# 
# From -- ./inp_files/3740.got.cif
#   From: 2010.06.25/outbox.cif.g09.slc.cpg/sg12_2_cif.got.tgz:3740.got - 2010.06.28 00:19:55.
