data_PCOD8098750
_publ_section_title
;
Structure prediction by ZEFSAII (Michael W. Deem and Ramdas Pophale) SiO2 
 PCOD8098750
Probable space group: C 2/M
;
_chemical_formula_sum "Si O2"
_cell_formula_units_Z 56
_cell_length_a 9.260544
_cell_length_b 28.223499
_cell_length_c 12.525507
_cell_angle_alpha 90.000000
_cell_angle_beta 121.877322
_cell_angle_gamma 90.000000
_cell_volume 2779.987376
_symmetry_space_group_name_H-M "C 2/M"
_symmetry_group_IT_number 12
_symmetry_cell_setting 'monoclinic'
loop_
_space_group_symop_operation_xyz
x,y,z
-x,y,-z
-x,-y,-z
x,-y,z
1/2+x,1/2+y,z
1/2-x,1/2+y,-z
1/2-x,1/2-y,-z
1/2+x,1/2-y,z
loop_
_atom_site_type_symbol
_atom_site_label
_atom_site_fract_x
_atom_site_fract_y
_atom_site_fract_z
Si Si1 0.354470 0.363995 0.167681
Si Si2 0.446451 0.445384 0.857221
Si Si3 0.600490 0.900171 0.647393
Si Si4 0.806048 0.775311 0.418869
Si Si5 0.278238 0.198122 0.063109
Si Si6 0.318154 0.310965 0.745098
Si Si7 0.397576 0.146766 0.740669
O O1 0.434407 0.414919 0.173868
O O2 0.505212 0.324798 0.246005
O O3 0.221480 0.372100 0.210732
O O4 0.249027 0.344822 0.027778
O O5 0.483729 0.500000 0.848549
O O6 0.250700 0.434839 0.747258
O O7 0.500000 0.432847 0.000000
O O8 0.500000 0.917866 0.500000
O O9 0.674781 0.848122 0.651466
O O10 0.478070 0.896417 0.704089
O O11 0.750000 0.750000 0.500000
O O12 0.747833 0.742091 0.298687
O O13 0.726350 0.826963 0.388672
O O14 0.000000 0.785292 0.500000
O O15 0.153852 0.188624 0.115780
O O16 0.472640 0.188633 0.173033
O O17 0.250000 0.250000 0.000000
#
# Coordination Sequence:
#
# PCOD8098750 Si02
#       7
#     8   8   8   8   8   8   8
#     4  11  21  36  58  86 119 151 192 249 310 363
#     4  10  22  43  69  92 116 153 198 246 309 384
#     4  10  21  40  63  85 116 156 199 244 299 369
#     4  12  22  34  50  72 110 157 206 245 284 345
#     4  11  21  35  54  80 119 162 205 247 291 352
#     4  10  20  35  52  76 112 160 205 244 294 352
#     4  11  23  35  54  85 118 154 199 254 306 349
#
# _framework density 20.143975999999999
#
# number of rings (size 3 to 8) (size 9 to 14) (size 15 to 20)
#    0.000    1.286    0.000    9.000    0.000    2.571 
#    0.000    0.714    0.000    4.286    0.000    0.000 
#    0.000    0.000    0.000    0.000    0.000    0.000 
#
# Total GULP energy -346939.562016 kJ/mol
# GULP energy per Si atom -12390.698643 kJ/mol
# Density = 2.009813 g / cm^3
# Si number density = 20.143976 Si / 1000 Ang^3
#
#
#
# Elastic Constant Matrix: (Units=GPa)
#
#
# Indices 1 2 3 4 5 6 
#
# 1 131.1867 31.0236 46.2173 0.0000 -6.4188 0.0000
# 2 31.0236 86.4645 29.0828 0.0000 1.7254 0.0000
# 3 46.2173 29.0828 119.3883 0.0000 2.8756 0.0000
# 4 0.0000 0.0000 0.0000 26.9996 0.0000 2.2505
# 5 -6.4188 1.7254 2.8756 0.0000 35.4440 0.0000
# 6 0.0000 0.0000 0.0000 2.2505 0.0000 16.9029
#
#
#
# Elastic Compliance Matrix: (Units=1/GPa)
#
#
# Indices 1 2 3 4 5 6 
#
# 1 0.009376 -0.002361 -0.003104 0.000000 0.002065 0.000000
# 2 -0.002361 0.013197 -0.002279 0.000000 -0.000885 0.000000
# 3 -0.003104 -0.002279 0.010164 0.000000 -0.001276 0.000000
# 4 0.000000 0.000000 0.000000 0.037453 0.000000 -0.004987
# 5 0.002065 -0.000885 -0.001276 0.000000 0.028734 0.000000
# 6 0.000000 0.000000 0.000000 -0.004987 0.000000 0.059825
#
#
# Mechanical properties :
#
#
# Convention : Reuss Voigt Hill
#
# Bulk Modulus (GPa) = 57.98075 61.07633 59.52854
# Shear Modulus (GPa) = 27.77976 31.25035 29.51505
#
# Velocity S-wave (km/s) = 3.71760 3.94299 3.83195
# Velocity P-wave (km/s) = 6.87554 7.14950 7.01386
#
# Compressibility (1/GPa) = 0.01724710
#
# Stress axis : x y z
#
# Youngs Moduli (GPa) = 106.65889 75.77496 98.38987
#
# Poissons Ratio (x) = 0.17892 0.30541
# Poissons Ratio (y) = 0.25184 0.22427
# Poissons Ratio (z) = 0.33107 0.17272
#
# Static dielectric constant tensor:
#      x y z
#    x 3.838730 0.000000 0.141800 
#    y 0.000000 3.502300 0.000000 
#    z 0.141800 0.000000 3.851680 
# 
# 
# High freq. dielectric constant tensor:
#      x y z
#    x 1.796590 0.000000 0.009280 
#    y 0.000000 1.749360 0.000000 
#    z 0.009280 0.000000 1.800740 
# 
# From -- ./inp_files/125204.got.cif
#   From: 2010.06.25/outbox.cif.g09.slc.cpg/sg12_63_cif.got.tgz:125204.got - 2010.06.28 00:19:55.
