data_PCOD8098656
_publ_section_title
;
Structure prediction by ZEFSAII (Michael W. Deem and Ramdas Pophale) SiO2 
 PCOD8098656
Probable space group: C 2/M
;
_chemical_formula_sum "Si O2"
_cell_formula_units_Z 56
_cell_length_a 27.463429
_cell_length_b 12.816511
_cell_length_c 9.364996
_cell_angle_alpha 90.000000
_cell_angle_beta 122.258463
_cell_angle_gamma 90.000000
_cell_volume 2787.547703
_symmetry_space_group_name_H-M "C 2/M"
_symmetry_group_IT_number 12
_symmetry_cell_setting 'monoclinic'
loop_
_space_group_symop_operation_xyz
x,y,z
-x,y,-z
-x,-y,-z
x,-y,z
1/2+x,1/2+y,z
1/2-x,1/2+y,-z
1/2-x,1/2-y,-z
1/2+x,1/2-y,z
loop_
_atom_site_type_symbol
_atom_site_label
_atom_site_fract_x
_atom_site_fract_y
_atom_site_fract_z
Si Si1 0.431084 0.616954 0.289463
Si Si2 0.247779 0.263075 0.233903
Si Si3 0.635319 0.120222 0.160974
Si Si4 0.297374 0.614598 0.076939
Si Si5 0.657921 0.116838 0.516072
Si Si6 0.973589 0.747551 0.108904
Si Si7 0.047483 0.306899 0.474480
O O1 0.452150 0.500000 0.358272
O O2 0.364247 0.620712 0.156762
O O3 0.457039 0.652993 0.178422
O O4 0.447475 0.690419 0.449326
O O5 0.191749 0.310179 0.220443
O O6 0.283909 0.356657 0.220236
O O7 0.288971 0.198297 0.405359
O O8 0.233685 0.186504 0.083941
O O9 0.625327 0.123653 0.314375
O O10 0.643074 0.000000 0.120707
O O11 0.580361 0.169714 0.995951
O O12 0.272825 0.500000 0.011085
O O13 0.610919 0.141558 0.567729
O O14 0.681863 0.000000 0.579161
O O15 0.023569 0.689683 0.275935
O O16 0.000000 0.785223 0.000000
O O17 0.000000 0.367351 0.500000
#
# Coordination Sequence:
#
# PCOD8098656 Si02
#       7
#     8   8   8   8   8   8   8
#     4  10  21  41  63  88 125 164 202 247 307 365
#     4  11  21  39  61  88 125 156 199 257 303 365
#     4  11  24  41  63  90 120 163 206 251 312 372
#     4  10  20  34  60  89 116 157 198 243 305 365
#     4  11  23  40  62  90 124 162 205 252 310 369
#     4  11  22  40  65  90 124 160 207 259 302 363
#     4  10  22  39  63  92 125 163 205 255 308 362
#
# _framework density 20.089341999999998
#
# number of rings (size 3 to 8) (size 9 to 14) (size 15 to 20)
#    0.000    1.429    4.286    1.286    0.000    4.000 
#    0.000    6.429    0.000    1.714    0.000    0.000 
#    0.000    0.000    0.000    0.000    0.000    0.000 
#
# Total GULP energy -346989.765126 kJ/mol
# GULP energy per Si atom -12392.491612 kJ/mol
# Density = 2.004362 g / cm^3
# Si number density = 20.089342 Si / 1000 Ang^3
#
#
#
# Elastic Constant Matrix: (Units=GPa)
#
#
# Indices 1 2 3 4 5 6 
#
# 1 104.1296 43.3228 23.7740 0.0000 -3.9803 0.0000
# 2 43.3228 84.3543 30.0341 0.0000 3.9113 0.0000
# 3 23.7740 30.0341 96.5713 0.0000 -1.9296 0.0000
# 4 0.0000 0.0000 0.0000 23.4886 0.0000 -8.0932
# 5 -3.9803 3.9113 -1.9296 0.0000 34.7280 0.0000
# 6 0.0000 0.0000 0.0000 -8.0932 0.0000 12.6331
#
#
#
# Elastic Compliance Matrix: (Units=1/GPa)
#
#
# Indices 1 2 3 4 5 6 
#
# 1 0.012479 -0.006101 -0.001134 0.000000 0.002054 0.000000
# 2 -0.006101 0.016418 -0.003659 0.000000 -0.002752 0.000000
# 3 -0.001134 -0.003659 0.011791 0.000000 0.000937 0.000000
# 4 0.000000 0.000000 0.000000 0.054634 0.000000 0.035000
# 5 0.002054 -0.002752 0.000937 0.000000 0.029393 0.000000
# 6 0.000000 0.000000 0.000000 0.035000 0.000000 0.101579
#
#
# Mechanical properties :
#
#
# Convention : Reuss Voigt Hill
#
# Bulk Modulus (GPa) = 52.90716 53.25744 53.08230
# Shear Modulus (GPa) = 19.65554 26.69823 23.17689
#
# Velocity S-wave (km/s) = 3.13134 3.64947 3.40029
# Velocity P-wave (km/s) = 6.28226 6.65778 6.47274
#
# Compressibility (1/GPa) = 0.01890103
#
# Stress axis : x y z
#
# Youngs Moduli (GPa) = 80.13531 60.90746 84.81090
#
# Poissons Ratio (x) = 0.37157 0.09615
# Poissons Ratio (y) = 0.48887 0.31035
# Poissons Ratio (z) = 0.09085 0.22288
#
# Static dielectric constant tensor:
#      x y z
#    x 3.798130 0.000000 0.030210 
#    y 0.000000 3.761460 0.000000 
#    z 0.030210 0.000000 3.584260 
# 
# 
# High freq. dielectric constant tensor:
#      x y z
#    x 1.798990 0.000000 0.008120 
#    y 0.000000 1.775100 0.000000 
#    z 0.008120 0.000000 1.783770 
# 
# From -- ./inp_files/103248.got.cif
#   From: 2010.06.25/outbox.cif.g09.slc.cpg/sg12_52_cif.got.tgz:103248.got - 2010.06.28 00:19:55.
