data_PCOD8098579
_publ_section_title
;
Structure prediction by ZEFSAII (Michael W. Deem and Ramdas Pophale) SiO2 
 PCOD8098579
Probable space group: C 2/M
;
_chemical_formula_sum "Si O2"
_cell_formula_units_Z 64
_cell_length_a 20.317673
_cell_length_b 9.145975
_cell_length_c 22.377809
_cell_angle_alpha 90.000000
_cell_angle_beta 124.513151
_cell_angle_gamma 90.000000
_cell_volume 3426.468370
_symmetry_space_group_name_H-M "C 2/M"
_symmetry_group_IT_number 12
_symmetry_cell_setting 'monoclinic'
loop_
_space_group_symop_operation_xyz
x,y,z
-x,y,-z
-x,-y,-z
x,-y,z
1/2+x,1/2+y,z
1/2-x,1/2+y,-z
1/2-x,1/2-y,-z
1/2+x,1/2-y,z
loop_
_atom_site_type_symbol
_atom_site_label
_atom_site_fract_x
_atom_site_fract_y
_atom_site_fract_z
Si Si1 0.957947 0.668609 0.157673
Si Si2 0.295183 0.667521 0.074699
Si Si3 0.406933 0.167981 0.444713
Si Si4 0.983003 0.668478 0.683722
Si Si5 0.167654 0.670453 0.467718
Si Si6 0.455376 0.174421 0.917790
Si Si7 0.720864 0.832729 0.162983
Si Si8 0.625998 0.674305 0.690726
O O1 0.932622 0.500000 0.136425
O O2 0.880309 0.762304 0.131835
O O3 0.017162 0.687464 0.244604
O O4 0.999763 0.727533 0.118990
O O5 0.308313 0.500000 0.063290
O O6 0.238905 0.682706 0.102676
O O7 0.250000 0.750000 0.000000
O O8 0.500000 0.196244 0.500000
O O9 0.364320 0.213191 0.483739
O O10 0.373073 0.274221 0.376854
O O11 0.390077 0.000000 0.418582
O O12 0.997883 0.500000 0.672647
O O13 0.051430 0.763360 0.688534
O O14 0.897070 0.720975 0.615145
O O15 0.183868 0.500000 0.470407
O O16 0.250000 0.750000 0.500000
O O17 0.365520 0.240819 0.869353
O O18 0.452050 0.000000 0.918960
O O19 0.500000 0.234769 0.000000
O O20 0.792394 0.761747 0.238210
O O21 0.715192 0.000000 0.179828
O O22 0.621668 0.500000 0.692590
#
# Coordination Sequence:
#
# PCOD8098579 Si02
#       8
#     8   8   8   8   8   8   8   8
#     4  10  20  34  58  85 106 145 194 231 280 342
#     4  11  21  35  55  81 113 145 183 232 281 335
#     4  10  20  38  60  81 112 154 193 230 284 346
#     4  10  20  37  58  81 114 153 191 232 287 352
#     4  10  22  39  59  84 116 154 191 239 289 339
#     4   9  17  32  54  79 110 146 186 228 274 334
#     4   9  19  34  53  81 113 143 180 234 284 323
#     4  11  21  34  57  88 116 145 189 245 291 329
#
# _framework density 18.678122999999999
#
# number of rings (size 3 to 8) (size 9 to 14) (size 15 to 20)
#    0.000    2.000    2.500    1.500    0.000    4.250 
#    0.000    2.500    0.000    5.625    0.000    0.000 
#    0.000    0.000    0.000    0.000    0.000    0.000 
#
# Total GULP energy -396815.331650 kJ/mol
# GULP energy per Si atom -12400.479114 kJ/mol
# Density = 1.863561 g / cm^3
# Si number density = 18.678123 Si / 1000 Ang^3
#
#
#
# Elastic Constant Matrix: (Units=GPa)
#
#
# Indices 1 2 3 4 5 6 
#
# 1 118.7882 32.4988 52.7360 0.0000 11.5903 0.0000
# 2 32.4988 52.6748 38.3153 0.0000 2.3159 0.0000
# 3 52.7360 38.3153 137.2851 0.0000 2.8661 0.0000
# 4 0.0000 0.0000 0.0000 21.8393 0.0000 1.4469
# 5 11.5903 2.3159 2.8661 0.0000 34.3674 0.0000
# 6 0.0000 0.0000 0.0000 1.4469 0.0000 26.0451
#
#
#
# Elastic Compliance Matrix: (Units=1/GPa)
#
#
# Indices 1 2 3 4 5 6 
#
# 1 0.011342 -0.004686 -0.002981 0.000000 -0.003261 0.000000
# 2 -0.004686 0.025794 -0.005405 0.000000 0.000293 0.000000
# 3 -0.002981 -0.005405 0.009926 0.000000 0.000542 0.000000
# 4 0.000000 0.000000 0.000000 0.045958 0.000000 -0.002553
# 5 -0.003261 0.000293 0.000542 0.000000 0.030132 0.000000
# 6 0.000000 0.000000 0.000000 -0.002553 0.000000 0.038537
#
#
# Mechanical properties :
#
#
# Convention : Reuss Voigt Hill
#
# Bulk Modulus (GPa) = 47.80427 61.76093 54.78260
# Shear Modulus (GPa) = 25.66654 28.79691 27.23172
#
# Velocity S-wave (km/s) = 3.71097 3.93077 3.82245
# Velocity P-wave (km/s) = 6.63408 7.33068 6.99107
#
# Compressibility (1/GPa) = 0.02091864
#
# Stress axis : x y z
#
# Youngs Moduli (GPa) = 88.16883 38.76838 100.74150
#
# Poissons Ratio (x) = 0.18167 0.30030
# Poissons Ratio (y) = 0.41315 0.54451
# Poissons Ratio (z) = 0.26283 0.20955
#
# Static dielectric constant tensor:
#      x y z
#    x 3.474410 0.000000 0.208580 
#    y 0.000000 3.224530 0.000000 
#    z 0.208580 0.000000 4.164690 
# 
# 
# High freq. dielectric constant tensor:
#      x y z
#    x 1.727630 0.000000 -0.001630 
#    y 0.000000 1.695530 0.000000 
#    z -0.001630 0.000000 1.743970 
# 
# From -- ./inp_files/320119.got.cif
#   From: 2010.06.25/outbox.cif.g09.slc.cpg/sg12_161_cif.got.tgz:320119.got - 2010.06.28 00:19:55.
