data_PCOD8098325
_publ_section_title
;
Structure prediction by ZEFSAII (Michael W. Deem and Ramdas Pophale) SiO2 
 PCOD8098325
Probable space group: C 2/M
;
_chemical_formula_sum "Si O2"
_cell_formula_units_Z 64
_cell_length_a 15.777153
_cell_length_b 22.579016
_cell_length_c 9.323728
_cell_angle_alpha 90.000000
_cell_angle_beta 101.433141
_cell_angle_gamma 90.000000
_cell_volume 3255.507864
_symmetry_space_group_name_H-M "C 2/M"
_symmetry_group_IT_number 12
_symmetry_cell_setting 'monoclinic'
loop_
_space_group_symop_operation_xyz
x,y,z
-x,y,-z
-x,-y,-z
x,-y,z
1/2+x,1/2+y,z
1/2-x,1/2+y,-z
1/2-x,1/2-y,-z
1/2+x,1/2-y,z
loop_
_atom_site_type_symbol
_atom_site_label
_atom_site_fract_x
_atom_site_fract_y
_atom_site_fract_z
Si Si1 0.666366 0.641479 0.779718
Si Si2 0.459463 0.932247 0.139198
Si Si3 0.408311 0.566360 0.484259
Si Si4 0.745123 0.931241 0.942552
Si Si5 0.030235 0.673824 0.347278
Si Si6 0.335836 0.374720 0.702991
Si Si7 0.231856 0.312126 0.426715
Si Si8 0.496372 0.292460 0.830487
O O1 0.656573 0.596360 0.646071
O O2 0.724909 0.690670 0.718834
O O3 0.577593 0.666658 0.814169
O O4 0.720233 0.605873 0.913588
O O5 0.357101 0.925807 0.095058
O O6 0.494429 0.887490 0.270732
O O7 0.484695 0.000000 0.189737
O O8 0.500000 0.915167 0.000000
O O9 0.500000 0.599659 0.500000
O O10 0.416285 0.500000 0.434370
O O11 0.384341 0.570176 0.644420
O O12 0.784199 0.898658 0.819255
O O13 0.774542 0.000000 0.960426
O O14 0.132672 0.671917 0.372003
O O15 0.994469 0.730397 0.248598
O O16 0.000000 0.680162 0.500000
O O17 0.270059 0.356435 0.556728
O O18 0.404839 0.323474 0.764695
O O19 0.250000 0.250000 0.500000
O O20 0.500000 0.279571 0.000000
#
# Coordination Sequence:
#
# PCOD8098325 Si02
#       8
#     8   8   8   8   8   8   8   8
#     4  11  23  38  62  91 126 171 214 268 314 380
#     4  10  23  46  72  97 130 169 210 266 328 388
#     4  10  20  34  56  84 119 166 212 255 307 369
#     4  11  23  42  65  95 132 170 218 270 322 380
#     4  12  25  43  69  97 127 169 217 266 324 389
#     4  11  22  40  61  89 134 165 214 262 320 376
#     4  11  23  41  64  93 127 167 214 266 323 386
#     4  12  24  41  60  92 133 171 214 260 321 383
#
# _framework density 19.658991
#
# number of rings (size 3 to 8) (size 9 to 14) (size 15 to 20)
#    0.000    1.000    3.750    3.375    1.750    0.250 
#    0.000    5.625    0.000    0.000    0.000    0.000 
#    0.000    0.000    0.000    0.000    0.000    0.000 
#
# Total GULP energy -396608.828601 kJ/mol
# GULP energy per Si atom -12394.025894 kJ/mol
# Density = 1.961425 g / cm^3
# Si number density = 19.658991 Si / 1000 Ang^3
#
#
#
# Elastic Constant Matrix: (Units=GPa)
#
#
# Indices 1 2 3 4 5 6 
#
# 1 100.6270 40.5109 45.9053 0.0000 -7.6486 0.0000
# 2 40.5109 114.0213 62.6921 0.0000 -0.1584 0.0000
# 3 45.9053 62.6921 154.7118 0.0000 -15.7071 0.0000
# 4 0.0000 0.0000 0.0000 14.7165 0.0000 -9.3920
# 5 -7.6486 -0.1584 -15.7071 0.0000 41.7576 0.0000
# 6 0.0000 0.0000 0.0000 -9.3920 0.0000 20.5300
#
#
#
# Elastic Compliance Matrix: (Units=1/GPa)
#
#
# Indices 1 2 3 4 5 6 
#
# 1 0.012334 -0.003148 -0.002242 0.000000 0.001404 0.000000
# 2 -0.003148 0.012211 -0.004230 0.000000 -0.002121 0.000000
# 3 -0.002242 -0.004230 0.009149 0.000000 0.003015 0.000000
# 4 0.000000 0.000000 0.000000 0.095970 0.000000 0.043904
# 5 0.001404 -0.002121 0.003015 0.000000 0.025331 0.000000
# 6 0.000000 0.000000 0.000000 0.043904 0.000000 0.068794
#
#
# Mechanical properties :
#
#
# Convention : Reuss Voigt Hill
#
# Bulk Modulus (GPa) = 69.17451 74.17518 71.67484
# Shear Modulus (GPa) = 20.17376 30.08428 25.12902
#
# Velocity S-wave (km/s) = 3.20689 3.91616 3.57913
# Velocity P-wave (km/s) = 6.99827 7.63290 7.32246
#
# Compressibility (1/GPa) = 0.01445619
#
# Stress axis : x y z
#
# Youngs Moduli (GPa) = 81.07466 81.89148 109.30465
#
# Poissons Ratio (x) = 0.25778 0.24503
# Poissons Ratio (y) = 0.25521 0.46231
# Poissons Ratio (z) = 0.18174 0.34637
#
# Static dielectric constant tensor:
#      x y z
#    x 3.869670 0.000000 -0.220830 
#    y 0.000000 3.769310 0.000000 
#    z -0.220830 0.000000 3.789680 
# 
# 
# High freq. dielectric constant tensor:
#      x y z
#    x 1.781130 0.000000 -0.007100 
#    y 0.000000 1.769620 0.000000 
#    z -0.007100 0.000000 1.780270 
# 
# From -- ./inp_files/65890.got.cif
#   From: 2010.06.25/outbox.cif.g09.slc.cpg/sg12_33_cif.got.tgz:65890.got - 2010.06.28 00:19:55.
