data_PCOD8098409
_publ_section_title
;
Structure prediction by ZEFSAII (Michael W. Deem and Ramdas Pophale) SiO2 
 PCOD8098409
Probable space group: C 2/M
;
_chemical_formula_sum "Si O2"
_cell_formula_units_Z 64
_cell_length_a 12.472511
_cell_length_b 13.013435
_cell_length_c 20.281692
_cell_angle_alpha 90.000000
_cell_angle_beta 108.700640
_cell_angle_gamma 90.000000
_cell_volume 3118.134078
_symmetry_space_group_name_H-M "C 2/M"
_symmetry_group_IT_number 12
_symmetry_cell_setting 'monoclinic'
loop_
_space_group_symop_operation_xyz
x,y,z
-x,y,-z
-x,-y,-z
x,-y,z
1/2+x,1/2+y,z
1/2-x,1/2+y,-z
1/2-x,1/2-y,-z
1/2+x,1/2-y,z
loop_
_atom_site_type_symbol
_atom_site_label
_atom_site_fract_x
_atom_site_fract_y
_atom_site_fract_z
Si Si1 0.382797 0.879795 0.014499
Si Si2 0.924712 0.819581 0.424337
Si Si3 0.586381 0.684300 0.341602
Si Si4 0.782394 0.246045 0.102184
Si Si5 0.957024 0.116160 0.193847
Si Si6 0.928247 0.883909 0.923599
Si Si7 0.678074 0.884495 0.559620
Si Si8 0.318440 0.114338 0.593073
O O1 0.273072 0.846109 0.951032
O O2 0.372837 0.000000 0.029168
O O3 0.500000 0.856014 0.000000
O O4 0.375427 0.812896 0.079971
O O5 0.907882 0.695380 0.423655
O O6 0.807210 0.879289 0.402638
O O7 0.000000 0.857682 0.500000
O O8 0.984444 0.851641 0.368435
O O9 0.555339 0.657836 0.260721
O O10 0.699102 0.623617 0.383364
O O11 0.602120 0.806842 0.352252
O O12 0.847296 0.190721 0.175895
O O13 0.684535 0.318736 0.110729
O O14 0.997001 0.120887 0.126586
O O15 0.924826 0.000000 0.207687
O O16 0.890387 0.000000 0.932164
O O17 0.000000 0.840060 0.000000
O O18 0.687094 0.854577 0.484692
O O19 0.631158 0.000000 0.560424
O O20 0.366494 0.000000 0.613048
#
# Coordination Sequence:
#
# PCOD8098409 Si02
#       8
#     8   8   8   8   8   8   8   8
#     4  10  20  34  56  89 123 150 183 233 290 343
#     4  11  19  35  57  85 114 148 189 235 286 346
#     4  11  22  40  57  80 120 158 192 238 296 352
#     4  11  20  35  59  87 115 152 195 237 283 342
#     4  11  25  41  59  85 118 156 195 243 300 354
#     4  10  21  40  66  91 115 150 199 248 294 347
#     4  10  20  35  59  88 115 148 196 249 291 338
#     4  10  21  36  58  87 115 149 196 246 291 339
#
# _framework density 20.525096000000001
#
# number of rings (size 3 to 8) (size 9 to 14) (size 15 to 20)
#    0.000    1.500    2.500    4.500    0.000    5.000 
#    0.000    1.250    0.000    1.125    0.000    0.000 
#    0.000    0.000    0.000    0.000    0.000    0.000 
#
# Total GULP energy -396851.554793 kJ/mol
# GULP energy per Si atom -12401.611087 kJ/mol
# Density = 2.047838 g / cm^3
# Si number density = 20.525096 Si / 1000 Ang^3
#
#
#
# Elastic Constant Matrix: (Units=GPa)
#
#
# Indices 1 2 3 4 5 6 
#
# 1 74.3383 10.5277 22.4386 0.0000 8.2862 0.0000
# 2 10.5277 120.2948 36.9832 0.0000 17.0950 0.0000
# 3 22.4386 36.9832 99.9436 0.0000 12.1757 0.0000
# 4 0.0000 0.0000 0.0000 25.3931 0.0000 6.2174
# 5 8.2862 17.0950 12.1757 0.0000 24.0479 0.0000
# 6 0.0000 0.0000 0.0000 6.2174 0.0000 15.9851
#
#
#
# Elastic Compliance Matrix: (Units=1/GPa)
#
#
# Indices 1 2 3 4 5 6 
#
# 1 0.014722 0.000129 -0.002903 0.000000 -0.003695 0.000000
# 2 0.000129 0.010043 -0.003059 0.000000 -0.005635 0.000000
# 3 -0.002903 -0.003059 0.012152 0.000000 -0.002978 0.000000
# 4 0.000000 0.000000 0.000000 0.043526 0.000000 -0.016929
# 5 -0.003695 -0.005635 -0.002978 0.000000 0.048370 0.000000
# 6 0.000000 0.000000 0.000000 -0.016929 0.000000 0.069143
#
#
# Mechanical properties :
#
#
# Convention : Reuss Voigt Hill
#
# Bulk Modulus (GPa) = 39.60153 48.27509 43.93831
# Shear Modulus (GPa) = 22.93181 28.06038 25.49609
#
# Velocity S-wave (km/s) = 3.34617 3.70148 3.52830
# Velocity P-wave (km/s) = 5.85365 6.46831 6.16864
#
# Compressibility (1/GPa) = 0.02525155
#
# Stress axis : x y z
#
# Youngs Moduli (GPa) = 67.92653 99.57422 82.29070
#
# Poissons Ratio (x) = -0.01286 0.23888
# Poissons Ratio (y) = -0.00877 0.25171
# Poissons Ratio (z) = 0.19718 0.30457
#
# Static dielectric constant tensor:
#      x y z
#    x 3.657380 0.000000 0.041430 
#    y 0.000000 3.904840 0.000000 
#    z 0.041430 0.000000 3.404410 
# 
# 
# High freq. dielectric constant tensor:
#      x y z
#    x 1.804900 0.000000 0.005870 
#    y 0.000000 1.820460 0.000000 
#    z 0.005870 0.000000 1.767790 
# 
# From -- ./inp_files/305446.got.cif
#   From: 2010.06.25/outbox.cif.g09.slc.cpg/sg12_153_cif.got.tgz:305446.got - 2010.06.28 00:19:55.
