data_PCOD8098451
_publ_section_title
;
Structure prediction by ZEFSAII (Michael W. Deem and Ramdas Pophale) SiO2 
 PCOD8098451
Probable space group: C 2/M
;
_chemical_formula_sum "Si O2"
_cell_formula_units_Z 64
_cell_length_a 24.522787
_cell_length_b 18.874377
_cell_length_c 19.489499
_cell_angle_alpha 90.000000
_cell_angle_beta 157.171373
_cell_angle_gamma 90.000000
_cell_volume 3499.839572
_symmetry_space_group_name_H-M "C 2/M"
_symmetry_group_IT_number 12
_symmetry_cell_setting 'monoclinic'
loop_
_space_group_symop_operation_xyz
x,y,z
-x,y,-z
-x,-y,-z
x,-y,z
1/2+x,1/2+y,z
1/2-x,1/2+y,-z
1/2-x,1/2-y,-z
1/2+x,1/2-y,z
loop_
_atom_site_type_symbol
_atom_site_label
_atom_site_fract_x
_atom_site_fract_y
_atom_site_fract_z
Si Si1 0.635032 0.690631 0.611226
Si Si2 0.793241 0.640235 0.582313
Si Si3 0.654535 0.419065 0.162255
Si Si4 0.152359 0.583043 0.206267
Si Si5 0.470572 0.724426 0.748362
Si Si6 0.034792 0.287737 0.686343
Si Si7 0.867116 0.421930 0.528286
Si Si8 0.217642 0.802655 0.130373
O O1 0.500000 0.666959 0.500000
O O2 0.717144 0.622166 0.679251
O O3 0.582183 0.741894 0.489279
O O4 0.751478 0.733169 0.789261
O O5 0.843272 0.601254 0.708669
O O6 0.628689 0.660710 0.392858
O O7 0.880626 0.711414 0.673592
O O8 0.817747 0.586116 0.549034
O O9 0.650560 0.500000 0.130910
O O10 0.733359 0.411708 0.325140
O O11 0.731021 0.372618 0.192557
O O12 0.500000 0.389664 0.000000
O O13 0.176481 0.500000 0.222255
O O14 0.000000 0.606334 0.000000
O O15 0.566313 0.748575 0.794858
O O16 0.563783 0.698080 0.919517
O O17 0.983001 0.366084 0.641907
O O18 0.173437 0.302172 0.805034
O O19 0.932962 0.500000 0.595293
#
# Coordination Sequence:
#
# PCOD8098451 Si02
#       8
#     8   8   8   8   8   8   8   8
#     4  10  21  38  58  84 117 149 188 236 290 344
#     4  10  20  36  57  84 112 143 184 230 285 339
#     4  10  21  35  52  81 116 148 188 231 278 339
#     4  11  23  39  61  88 113 145 193 241 286 344
#     4  10  20  34  57  85 113 144 186 235 281 333
#     4  10  20  37  54  82 113 148 194 231 275 341
#     4  10  20  35  55  79 113 151 182 226 280 330
#     4  11  21  34  59  83 110 151 189 235 281 328
#
# _framework density 18.286553000000001
#
# number of rings (size 3 to 8) (size 9 to 14) (size 15 to 20)
#    0.000    1.750    2.500    2.250    0.000    2.250 
#    0.000    1.875    0.000    0.000    0.000    0.000 
#    0.000    0.000    0.000    0.000    0.000    0.000 
#
# Total GULP energy -396777.565120 kJ/mol
# GULP energy per Si atom -12399.298910 kJ/mol
# Density = 1.824493 g / cm^3
# Si number density = 18.286553 Si / 1000 Ang^3
#
#
#
# Elastic Constant Matrix: (Units=GPa)
#
#
# Indices 1 2 3 4 5 6 
#
# 1 95.7063 46.2555 38.5671 0.0004 -8.9597 -0.0006
# 2 46.2555 85.6604 33.8047 0.0006 -5.0287 0.0001
# 3 38.5671 33.8047 94.8823 -0.0024 -18.7652 -0.0012
# 4 0.0004 0.0006 -0.0024 20.5424 -0.0024 -2.5904
# 5 -8.9597 -5.0287 -18.7652 -0.0024 28.0209 -0.0012
# 6 -0.0006 0.0001 -0.0012 -2.5904 -0.0012 22.3501
#
#
#
# Elastic Compliance Matrix: (Units=1/GPa)
#
#
# Indices 1 2 3 4 5 6 
#
# 1 0.015269 -0.006773 -0.003536 0.000000 0.001298 0.000000
# 2 -0.006773 0.016609 -0.003462 -0.000001 -0.001503 -0.000001
# 3 -0.003536 -0.003462 0.014828 0.000003 0.008178 0.000001
# 4 0.000000 -0.000001 0.000003 0.049402 0.000006 0.005726
# 5 0.001298 -0.001503 0.008178 0.000006 0.041310 0.000003
# 6 0.000000 -0.000001 0.000001 0.005726 0.000003 0.045406
#
#
# Mechanical properties :
#
#
# Convention : Reuss Voigt Hill
#
# Bulk Modulus (GPa) = 52.18403 57.05597 54.62000
# Shear Modulus (GPa) = 23.06768 24.69078 23.87923
#
# Velocity S-wave (km/s) = 3.55555 3.67851 3.61755
# Velocity P-wave (km/s) = 6.74201 7.02216 6.88351
#
# Compressibility (1/GPa) = 0.01916295
#
# Stress axis : x y z
#
# Youngs Moduli (GPa) = 65.49322 60.20732 67.44211
#
# Poissons Ratio (x) = 0.40779 0.23850
# Poissons Ratio (y) = 0.44359 0.23347
# Poissons Ratio (z) = 0.23161 0.20842
#
# Static dielectric constant tensor:
#      x y z
#    x 3.453730 0.000000 -0.135840 
#    y 0.000000 3.349080 0.000000 
#    z -0.135840 0.000000 3.396520 
# 
# 
# High freq. dielectric constant tensor:
#      x y z
#    x 1.717730 0.000000 -0.011140 
#    y 0.000000 1.703560 0.000000 
#    z -0.011140 0.000000 1.710510 
# 
# From -- ./inp_files/328677.got.cif
#   From: 2010.06.25/outbox.cif.g09.slc.cpg/sg12_165_cif.got.tgz:328677.got - 2010.06.28 00:19:55.
