data_PCOD8098877
_publ_section_title
;
Structure prediction by ZEFSAII (Michael W. Deem and Ramdas Pophale) SiO2 
 PCOD8098877
Probable space group: C 2/M
;
_chemical_formula_sum "Si O2"
_cell_formula_units_Z 56
_cell_length_a 27.698624
_cell_length_b 10.029671
_cell_length_c 20.153019
_cell_angle_alpha 90.000000
_cell_angle_beta 33.050621
_cell_angle_gamma 90.000000
_cell_volume 3053.402362
_symmetry_space_group_name_H-M "C 2/M"
_symmetry_group_IT_number 12
_symmetry_cell_setting 'monoclinic'
loop_
_space_group_symop_operation_xyz
x,y,z
-x,y,-z
-x,-y,-z
x,-y,z
1/2+x,1/2+y,z
1/2-x,1/2+y,-z
1/2-x,1/2-y,-z
1/2+x,1/2-y,z
loop_
_atom_site_type_symbol
_atom_site_label
_atom_site_fract_x
_atom_site_fract_y
_atom_site_fract_z
Si Si1 0.667588 0.159850 0.425726
Si Si2 0.739313 0.145025 0.209031
Si Si3 0.016907 0.652723 0.820272
Si Si4 0.418384 0.277750 0.054144
Si Si5 0.995801 0.344604 0.698859
Si Si6 0.318564 0.850387 0.284402
Si Si7 0.702454 0.842007 0.108193
O O1 0.676394 0.208197 0.338510
O O2 0.572632 0.208702 0.561526
O O3 0.742809 0.239138 0.379740
O O4 0.683611 0.000000 0.413777
O O5 0.838040 0.126608 0.125698
O O6 0.734952 0.216154 0.142396
O O7 0.700220 0.000000 0.238566
O O8 0.987953 0.500000 0.850772
O O9 0.004081 0.720692 0.762640
O O10 0.118968 0.669162 0.723665
O O11 0.951061 0.719376 0.947611
O O12 0.378468 0.164936 0.148964
O O13 0.500000 0.349724 0.000000
O O14 0.012360 0.500000 0.688496
O O15 0.901819 0.313011 0.774892
O O16 0.278409 0.000000 0.329472
O O17 0.723902 0.000000 0.071701
O O18 0.750000 0.750000 0.000000
#
# Coordination Sequence:
#
# PCOD8098877 Si02
#       7
#     8   8   8   8   8   8   8
#     4   9  18  33  49  68  96 127 161 195 231 280
#     4   9  18  31  48  70  96 126 158 196 237 277
#     4   9  16  27  44  68  96 124 159 200 238 278
#     4   9  16  27  45  69  97 127 158 192 235 286
#     4   9  18  31  49  70  93 126 163 197 233 279
#     4   9  17  29  47  71  97 125 158 198 239 279
#     4  10  20  35  54  75  98 123 155 195 239 283
#
# _framework density 18.340195999999999
#
# number of rings (size 3 to 8) (size 9 to 14) (size 15 to 20)
#    0.000    2.857    0.000    1.286    0.000    3.143 
#    0.000    8.571    0.000    1.714    0.000    5.000 
#    0.000    0.000    0.000    0.000    0.000    0.000 
#
# Total GULP energy -346865.509526 kJ/mol
# GULP energy per Si atom -12388.053912 kJ/mol
# Density = 1.829845 g / cm^3
# Si number density = 18.340196 Si / 1000 Ang^3
#
#
#
# Elastic Constant Matrix: (Units=GPa)
#
#
# Indices 1 2 3 4 5 6 
#
# 1 132.7016 18.5334 57.7654 -0.0010 8.1298 0.0001
# 2 18.5334 45.6034 22.9357 -0.0078 -2.5326 0.0011
# 3 57.7654 22.9357 128.9050 -0.0038 4.8447 0.0006
# 4 -0.0010 -0.0078 -0.0038 19.4639 0.0017 -1.9883
# 5 8.1298 -2.5326 4.8447 0.0017 24.1559 0.0000
# 6 0.0001 0.0011 0.0006 -1.9883 0.0000 19.6054
#
#
#
# Elastic Compliance Matrix: (Units=1/GPa)
#
#
# Indices 1 2 3 4 5 6 
#
# 1 0.009679 -0.002146 -0.003854 -0.000001 -0.002710 0.000000
# 2 -0.002146 0.024841 -0.003611 0.000009 0.004051 0.000000
# 3 -0.003854 -0.003611 0.010169 0.000000 -0.001121 0.000000
# 4 -0.000001 0.000009 0.000000 0.051915 -0.000002 0.005265
# 5 -0.002710 0.004051 -0.001121 -0.000002 0.042959 0.000000
# 6 0.000000 0.000000 0.000000 0.005265 0.000000 0.051540
#
#
# Mechanical properties :
#
#
# Convention : Reuss Voigt Hill
#
# Bulk Modulus (GPa) = 39.26348 56.18658 47.72503
# Shear Modulus (GPa) = 22.85050 26.51007 24.68028
#
# Velocity S-wave (km/s) = 3.53359 3.80605 3.67235
# Velocity P-wave (km/s) = 6.17279 7.07227 6.63778
#
# Compressibility (1/GPa) = 0.02546896
#
# Stress axis : x y z
#
# Youngs Moduli (GPa) = 103.31718 40.25582 98.33674
#
# Poissons Ratio (x) = 0.08638 0.37896
# Poissons Ratio (y) = 0.22170 0.35505
# Poissons Ratio (z) = 0.39816 0.14535
#
# Static dielectric constant tensor:
#      x y z
#    x 3.629960 0.000000 0.082750 
#    y 0.000000 3.011040 0.000000 
#    z 0.082750 0.000000 3.471020 
# 
# 
# High freq. dielectric constant tensor:
#      x y z
#    x 1.720770 0.000000 0.005760 
#    y 0.000000 1.666450 0.000000 
#    z 0.005760 0.000000 1.711510 
# 
# From -- ./inp_files/250516.got.cif
#   From: 2010.06.25/outbox.cif.g09.slc.cpg/sg12_126_cif.got.tgz:250516.got - 2010.06.28 00:19:55.
