data_PCOD8098914
_publ_section_title
;
Structure prediction by ZEFSAII (Michael W. Deem and Ramdas Pophale) SiO2 
 PCOD8098914
Probable space group: C 2/M
;
_chemical_formula_sum "Si O2"
_cell_formula_units_Z 48
_cell_length_a 20.337926
_cell_length_b 9.256991
_cell_length_c 27.044528
_cell_angle_alpha 90.000000
_cell_angle_beta 147.605580
_cell_angle_gamma 90.000000
_cell_volume 2727.807277
_symmetry_space_group_name_H-M "C 2/M"
_symmetry_group_IT_number 12
_symmetry_cell_setting 'monoclinic'
loop_
_space_group_symop_operation_xyz
x,y,z
-x,y,-z
-x,-y,-z
x,-y,z
1/2+x,1/2+y,z
1/2-x,1/2+y,-z
1/2-x,1/2-y,-z
1/2+x,1/2-y,z
loop_
_atom_site_type_symbol
_atom_site_label
_atom_site_fract_x
_atom_site_fract_y
_atom_site_fract_z
Si Si1 0.739548 0.331897 0.224035
Si Si2 0.374484 0.169397 0.567166
Si Si3 0.974497 0.328017 0.429603
Si Si4 0.505140 0.167936 0.058961
Si Si5 0.750839 0.169805 0.052201
Si Si6 0.887537 0.332777 0.220516
O O1 0.713505 0.500000 0.214248
O O2 0.840041 0.276465 0.327224
O O3 0.614796 0.248219 0.156848
O O4 0.788700 0.298337 0.200322
O O5 0.250000 0.250000 0.500000
O O6 0.423677 0.225026 0.545118
O O7 0.476140 0.204058 0.673479
O O8 0.347747 0.000000 0.548427
O O9 0.977192 0.500000 0.431964
O O10 0.000000 0.262193 0.500000
O O11 0.536395 0.000000 0.079267
O O12 0.500000 0.227737 0.000000
O O13 0.378908 0.203911 0.005399
O O14 0.859065 0.233138 0.155245
O O15 0.773395 0.000000 0.059168
O O16 0.750000 0.250000 0.000000
O O17 0.879080 0.500000 0.199359
#
# Coordination Sequence:
#
# PCOD8098914 Si02
#       6
#     8   8   8   8   8   8
#     4   9  17  30  54  82 102 133 178 216 250 299
#     4   9  18  33  54  78 104 137 175 216 260 306
#     4   8  15  31  53  76 105 135 167 212 258 298
#     4  10  20  35  54  77 105 135 169 213 261 308
#     4  11  23  38  55  76 106 141 173 213 265 316
#     4   9  18  34  54  76 105 140 177 218 261 305
#
# _framework density 17.596551000000002
#
# number of rings (size 3 to 8) (size 9 to 14) (size 15 to 20)
#    0.000    2.667    1.667    2.500    0.000    2.333 
#    3.000    2.500    0.000    1.000    0.000    0.000 
#    0.000    0.000    0.000    0.000    0.000    0.000 
#
# Total GULP energy -297571.889816 kJ/mol
# GULP energy per Si atom -12398.828742 kJ/mol
# Density = 1.755650 g / cm^3
# Si number density = 17.596551 Si / 1000 Ang^3
#
#
#
# Elastic Constant Matrix: (Units=GPa)
#
#
# Indices 1 2 3 4 5 6 
#
# 1 104.6358 52.0883 78.9827 0.0000 -9.7925 -0.0001
# 2 52.0883 61.5487 61.2508 0.0000 -1.1390 -0.0001
# 3 78.9827 61.2508 143.4537 -0.0001 -4.4434 -0.0001
# 4 0.0000 0.0000 -0.0001 32.4694 0.0000 6.6921
# 5 -9.7925 -1.1390 -4.4434 0.0000 35.3034 0.0000
# 6 -0.0001 -0.0001 -0.0001 6.6921 0.0000 25.6981
#
#
#
# Elastic Compliance Matrix: (Units=1/GPa)
#
#
# Indices 1 2 3 4 5 6 
#
# 1 0.020033 -0.010488 -0.006415 0.000000 0.004411 0.000000
# 2 -0.010488 0.033756 -0.008729 0.000000 -0.002919 0.000000
# 3 -0.006415 -0.008729 0.014221 0.000000 -0.000271 0.000000
# 4 0.000000 0.000000 0.000000 0.032545 0.000000 -0.008475
# 5 0.004411 -0.002919 -0.000271 0.000000 0.029421 0.000000
# 6 0.000000 0.000000 0.000000 -0.008475 0.000000 0.041120
#
#
# Mechanical properties :
#
#
# Convention : Reuss Voigt Hill
#
# Bulk Modulus (GPa) = 59.71398 77.14243 68.42821
# Shear Modulus (GPa) = 21.93532 26.51527 24.22529
#
# Velocity S-wave (km/s) = 3.53451 3.88602 3.71443
# Velocity P-wave (km/s) = 7.11799 8.00435 7.57414
#
# Compressibility (1/GPa) = 0.01674650
#
# Stress axis : x y z
#
# Youngs Moduli (GPa) = 49.91709 29.62453 70.31710
#
# Poissons Ratio (x) = 0.31071 0.45108
# Poissons Ratio (y) = 0.52355 0.61376
# Poissons Ratio (z) = 0.32022 0.25858
#
# Static dielectric constant tensor:
#      x y z
#    x 3.334390 0.000000 -0.108680 
#    y 0.000000 3.032380 0.000000 
#    z -0.108680 0.000000 3.389080 
# 
# 
# High freq. dielectric constant tensor:
#      x y z
#    x 1.669020 0.000000 0.000420 
#    y 0.000000 1.661460 0.000000 
#    z 0.000420 0.000000 1.689640 
# 
# From -- ./inp_files/345707.got.cif
#   From: 2010.06.25/outbox.cif.g09.slc.cpg/sg12_173_cif.got.tgz:345707.got - 2010.06.28 00:19:55.
