data_PCOD8098540
_publ_section_title
;
Structure prediction by ZEFSAII (Michael W. Deem and Ramdas Pophale) SiO2 
 PCOD8098540
Probable space group: C 2/M
;
_chemical_formula_sum "Si O2"
_cell_formula_units_Z 64
_cell_length_a 19.967543
_cell_length_b 9.483568
_cell_length_c 20.642485
_cell_angle_alpha 90.000000
_cell_angle_beta 122.791126
_cell_angle_gamma 90.000000
_cell_volume 3286.047530
_symmetry_space_group_name_H-M "C 2/M"
_symmetry_group_IT_number 12
_symmetry_cell_setting 'monoclinic'
loop_
_space_group_symop_operation_xyz
x,y,z
-x,y,-z
-x,-y,-z
x,-y,z
1/2+x,1/2+y,z
1/2-x,1/2+y,-z
1/2-x,1/2-y,-z
1/2+x,1/2-y,z
loop_
_atom_site_type_symbol
_atom_site_label
_atom_site_fract_x
_atom_site_fract_y
_atom_site_fract_z
Si Si1 0.859208 0.849330 0.542063
Si Si2 0.546841 0.167277 0.793848
Si Si3 0.772324 0.749003 0.618650
Si Si4 0.173619 0.343540 0.682116
Si Si5 0.995829 0.661421 0.370282
Si Si6 0.277874 0.829694 0.828094
Si Si7 0.725663 0.829828 0.922737
Si Si8 0.103566 0.658195 0.215042
O O1 0.823732 0.840005 0.595715
O O2 0.787669 0.848274 0.452980
O O3 0.925885 0.734890 0.560570
O O4 0.901665 0.000000 0.558679
O O5 0.529292 0.225006 0.712774
O O6 0.634079 0.212240 0.862396
O O7 0.479365 0.233404 0.807027
O O8 0.539487 0.000000 0.789041
O O9 0.719846 0.846771 0.638476
O O10 0.833038 0.657094 0.693025
O O11 0.183750 0.500000 0.719797
O O12 0.203005 0.222462 0.746398
O O13 0.079310 0.316902 0.620939
O O14 0.020726 0.500000 0.376701
O O15 0.279722 0.742955 0.895744
O O16 0.357046 0.779444 0.829870
O O17 0.273229 0.000000 0.835583
O O18 0.738819 0.000000 0.932919
O O19 0.750000 0.750000 0.000000
O O20 0.081478 0.500000 0.186319
#
# Coordination Sequence:
#
# PCOD8098540 Si02
#       8
#     8   8   8   8   8   8   8   8
#     4  11  23  36  52  80 114 148 188 241 295 339
#     4   9  17  34  59  84 108 145 189 227 268 326
#     4  10  21  35  54  77 111 150 190 235 289 340
#     4  10  20  37  58  80 107 146 195 238 280 332
#     4  10  20  36  58  79 106 147 191 233 279 336
#     4  10  20  34  57  89 118 146 182 227 281 333
#     4  11  22  39  63  89 119 151 186 225 273 330
#     4   9  17  33  58  83 108 144 191 234 272 325
#
# _framework density 19.476285000000001
#
# number of rings (size 3 to 8) (size 9 to 14) (size 15 to 20)
#    0.000    2.000    2.500    1.500    0.000    4.000 
#    0.000    2.500    0.000    3.750    0.000    0.000 
#    0.000    0.000    0.000    0.000    0.000    0.000 
#
# Total GULP energy -396517.206622 kJ/mol
# GULP energy per Si atom -12391.162707 kJ/mol
# Density = 1.943196 g / cm^3
# Si number density = 19.476285 Si / 1000 Ang^3
#
#
#
# Elastic Constant Matrix: (Units=GPa)
#
#
# Indices 1 2 3 4 5 6 
#
# 1 111.2865 22.1896 20.7575 0.0000 -5.1708 0.0000
# 2 22.1896 80.1709 14.1366 0.0000 -4.1689 0.0000
# 3 20.7575 14.1366 57.9937 0.0000 -10.7569 0.0000
# 4 0.0000 0.0000 0.0000 16.0392 0.0000 7.1236
# 5 -5.1708 -4.1689 -10.7569 0.0000 28.3555 0.0000
# 6 0.0000 0.0000 0.0000 7.1236 0.0000 20.6217
#
#
#
# Elastic Compliance Matrix: (Units=1/GPa)
#
#
# Indices 1 2 3 4 5 6 
#
# 1 0.010000 -0.002225 -0.002968 0.000000 0.000370 0.000000
# 2 -0.002225 0.013544 -0.002378 0.000000 0.000683 0.000000
# 3 -0.002968 -0.002378 0.020137 0.000000 0.006748 0.000000
# 4 0.000000 0.000000 0.000000 0.073647 0.000000 -0.025441
# 5 0.000370 0.000683 0.006748 0.000000 0.037995 0.000000
# 6 0.000000 0.000000 0.000000 -0.025441 0.000000 0.057281
#
#
# Mechanical properties :
#
#
# Convention : Reuss Voigt Hill
#
# Bulk Modulus (GPa) = 35.04104 40.40206 37.72155
# Shear Modulus (GPa) = 21.07393 25.82776 23.45084
#
# Velocity S-wave (km/s) = 3.29299 3.64553 3.47374
# Velocity P-wave (km/s) = 5.69992 6.20558 5.95811
#
# Compressibility (1/GPa) = 0.02853796
#
# Stress axis : x y z
#
# Youngs Moduli (GPa) = 99.99631 73.83257 49.65957
#
# Poissons Ratio (x) = 0.16429 0.14740
# Poissons Ratio (y) = 0.22252 0.11811
# Poissons Ratio (z) = 0.29681 0.17560
#
# Static dielectric constant tensor:
#      x y z
#    x 4.074640 0.000000 -0.115320 
#    y 0.000000 3.308750 0.000000 
#    z -0.115320 0.000000 3.360370 
# 
# 
# High freq. dielectric constant tensor:
#      x y z
#    x 1.778410 0.000000 -0.008360 
#    y 0.000000 1.734830 0.000000 
#    z -0.008360 0.000000 1.732980 
# 
# From -- ./inp_files/320109.got.cif
#   From: 2010.06.25/outbox.cif.g09.slc.cpg/sg12_161_cif.got.tgz:320109.got - 2010.06.28 00:19:55.
