data_PCOD8098050
_publ_section_title
;
Structure prediction by ZEFSAII (Michael W. Deem and Ramdas Pophale) SiO2 
 PCOD8098050
Probable space group: C 2/M
;
_chemical_formula_sum "Si O2"
_cell_formula_units_Z 48
_cell_length_a 9.279629
_cell_length_b 10.472785
_cell_length_c 25.282481
_cell_angle_alpha 90.000000
_cell_angle_beta 72.965658
_cell_angle_gamma 90.000000
_cell_volume 2349.249467
_symmetry_space_group_name_H-M "C 2/M"
_symmetry_group_IT_number 12
_symmetry_cell_setting 'monoclinic'
loop_
_space_group_symop_operation_xyz
x,y,z
-x,y,-z
-x,-y,-z
x,-y,z
1/2+x,1/2+y,z
1/2-x,1/2+y,-z
1/2-x,1/2-y,-z
1/2+x,1/2-y,z
loop_
_atom_site_type_symbol
_atom_site_label
_atom_site_fract_x
_atom_site_fract_y
_atom_site_fract_z
Si Si1 0.840221 0.779204 0.369320
Si Si2 0.243886 0.648920 0.824014
Si Si3 0.630648 0.000000 0.026789
Si Si4 0.936186 0.263050 0.892675
Si Si5 0.557728 0.500000 0.052699
Si Si6 0.843917 0.857596 0.701746
Si Si7 0.525690 0.857547 0.440289
O O1 0.759914 0.695465 0.333507
O O2 0.703993 0.862534 0.407603
O O3 0.976579 0.858507 0.328831
O O4 0.918934 0.701118 0.407454
O O5 0.286568 0.500000 0.826337
O O6 0.305523 0.728892 0.866181
O O7 0.309739 0.707917 0.762017
O O8 0.065770 0.670001 0.844350
O O9 0.630723 0.131055 0.060242
O O10 0.500000 0.000000 0.000000
O O11 0.763831 0.000000 0.970275
O O12 0.995672 0.131366 0.913273
O O13 0.500000 0.500000 0.000000
O O14 0.786439 0.000000 0.713888
O O15 0.500000 0.787591 0.500000
O O16 0.465267 0.000000 0.451979
#
# Coordination Sequence:
#
# PCOD8098050 Si02
#       7
#     8   8   4   8   4   8   8
#     4  10  20  36  56  85 113 154 200 241 290 352
#     4  11  23  42  62  91 121 157 200 251 306 360
#     4  12  24  42  66  94 124 162 198 246 299 360
#     4  12  23  43  66  90 126 159 199 250 301 359
#     4  12  24  40  62  96 122 156 204 244 291 364
#     4  10  21  37  60  83 116 153 194 246 298 350
#     4  10  20  34  55  82 118 155 194 243 294 346
#
# _framework density 20.432057
#
# number of rings (size 3 to 8) (size 9 to 14) (size 15 to 20)
#    0.000    1.167    1.667    5.500    0.000    0.000 
#    0.000    0.000    7.333    8.000    0.000    0.000 
#    0.000    0.000    0.000    0.000    0.000    0.000 
#
# Total GULP energy -297426.343958 kJ/mol
# GULP energy per Si atom -12392.764332 kJ/mol
# Density = 2.038555 g / cm^3
# Si number density = 20.432057 Si / 1000 Ang^3
#
#
#
# Elastic Constant Matrix: (Units=GPa)
#
#
# Indices 1 2 3 4 5 6 
#
# 1 109.6859 16.3143 36.7404 0.0000 7.6983 0.0000
# 2 16.3143 87.6898 31.4277 0.0000 13.7965 0.0000
# 3 36.7404 31.4277 125.3354 0.0000 3.2584 0.0000
# 4 0.0000 0.0000 0.0000 27.7359 0.0000 -3.6468
# 5 7.6983 13.7965 3.2584 0.0000 28.3574 0.0000
# 6 0.0000 0.0000 0.0000 -3.6468 0.0000 21.5314
#
#
#
# Elastic Compliance Matrix: (Units=1/GPa)
#
#
# Indices 1 2 3 4 5 6 
#
# 1 0.010300 -0.000559 -0.002822 0.000000 -0.002200 0.000000
# 2 -0.000559 0.013571 -0.003081 0.000000 -0.006097 0.000000
# 3 -0.002822 -0.003081 0.009548 0.000000 0.001168 0.000000
# 4 0.000000 0.000000 0.000000 0.036876 0.000000 0.006246
# 5 -0.002200 -0.006097 0.001168 0.000000 0.038694 0.000000
# 6 0.000000 0.000000 0.000000 0.006246 0.000000 0.047502
#
#
# Mechanical properties :
#
#
# Convention : Reuss Voigt Hill
#
# Bulk Modulus (GPa) = 48.78970 54.63067 51.71019
# Shear Modulus (GPa) = 28.36973 31.40684 29.88829
#
# Velocity S-wave (km/s) = 3.73029 3.92489 3.82882
# Velocity P-wave (km/s) = 6.51799 6.88007 6.70148
#
# Compressibility (1/GPa) = 0.02049613
#
# Stress axis : x y z
#
# Youngs Moduli (GPa) = 97.09037 73.68585 104.73489
#
# Poissons Ratio (x) = 0.04117 0.29555
# Poissons Ratio (y) = 0.05425 0.32265
# Poissons Ratio (z) = 0.27398 0.22700
#
# Static dielectric constant tensor:
#      x y z
#    x 3.705690 0.000000 0.071100 
#    y 0.000000 3.642170 0.000000 
#    z 0.071100 0.000000 3.922470 
# 
# 
# High freq. dielectric constant tensor:
#      x y z
#    x 1.809030 0.000000 0.002310 
#    y 0.000000 1.789150 0.000000 
#    z 0.002310 0.000000 1.817420 
# 
# From -- ./inp_files/332241.got.cif
#   From: 2010.06.25/outbox.cif.g09.slc.cpg/sg12_167_cif.got.tgz:332241.got - 2010.06.28 00:19:55.
