data_PCOD8098982
_publ_section_title
;
Structure prediction by ZEFSAII (Michael W. Deem and Ramdas Pophale) SiO2 
 PCOD8098982
Probable space group: C 2/M
;
_chemical_formula_sum "Si O2"
_cell_formula_units_Z 48
_cell_length_a 23.662738
_cell_length_b 8.482393
_cell_length_c 13.767647
_cell_angle_alpha 90.000000
_cell_angle_beta 108.430707
_cell_angle_gamma 90.000000
_cell_volume 2621.652215
_symmetry_space_group_name_H-M "C 2/M"
_symmetry_group_IT_number 12
_symmetry_cell_setting 'monoclinic'
loop_
_space_group_symop_operation_xyz
x,y,z
-x,y,-z
-x,-y,-z
x,-y,z
1/2+x,1/2+y,z
1/2-x,1/2+y,-z
1/2-x,1/2-y,-z
1/2+x,1/2-y,z
loop_
_atom_site_type_symbol
_atom_site_label
_atom_site_fract_x
_atom_site_fract_y
_atom_site_fract_z
Si Si1 0.376417 0.184577 0.791884
Si Si2 0.502180 0.685067 0.112767
Si Si3 0.808264 0.815694 0.925393
Si Si4 0.264016 0.815103 0.612284
Si Si5 0.696258 0.684160 0.761341
Si Si6 0.382811 0.184077 0.133068
O O1 0.444032 0.227810 0.800832
O O2 0.362522 0.285538 0.880661
O O3 0.330698 0.235286 0.681530
O O4 0.369382 0.000000 0.811198
O O5 0.512893 0.500000 0.122162
O O6 0.442911 0.726057 0.139145
O O7 0.500000 0.745547 0.000000
O O8 0.751804 0.715248 0.862105
O O9 0.671630 0.748651 0.959724
O O10 0.792623 0.000000 0.922435
O O11 0.250000 0.750000 0.500000
O O12 0.215113 0.754117 0.664147
O O13 0.259584 0.000000 0.604982
O O14 0.681439 0.500000 0.752678
O O15 0.637643 0.777844 0.767154
O O16 0.392464 0.000000 0.122050
#
# Coordination Sequence:
#
# PCOD8098982 Si02
#       6
#     8   8   8   8   8   8
#     4  10  20  35  54  80 110 143 183 224 267 316
#     4  11  22  35  53  78 109 148 189 222 261 314
#     4  11  20  32  50  75 107 144 182 221 264 316
#     4   9  20  37  60  85 108 136 173 222 276 325
#     4  10  21  37  53  76 108 140 178 223 270 323
#     4  12  23  34  51  75 107 148 183 219 266 316
#
# _framework density 18.309065
#
# number of rings (size 3 to 8) (size 9 to 14) (size 15 to 20)
#    0.000    1.500    1.667    6.000    0.000    4.667 
#    0.000    0.000    0.000    1.000    0.000    7.000 
#    0.000    0.000    0.000    0.000    0.000    0.000 
#
# Total GULP energy -297602.594366 kJ/mol
# GULP energy per Si atom -12400.108099 kJ/mol
# Density = 1.826739 g / cm^3
# Si number density = 18.309065 Si / 1000 Ang^3
#
#
#
# Elastic Constant Matrix: (Units=GPa)
#
#
# Indices 1 2 3 4 5 6 
#
# 1 118.3546 9.7144 54.1337 0.0000 -10.1588 0.0000
# 2 9.7144 60.6876 24.2181 0.0000 -4.3894 0.0000
# 3 54.1337 24.2181 95.1239 0.0000 -11.8529 0.0000
# 4 0.0000 0.0000 0.0000 26.3979 0.0000 0.6635
# 5 -10.1588 -4.3894 -11.8529 0.0000 16.6514 0.0000
# 6 0.0000 0.0000 0.0000 0.6635 0.0000 33.1078
#
#
#
# Elastic Compliance Matrix: (Units=1/GPa)
#
#
# Indices 1 2 3 4 5 6 
#
# 1 0.011570 0.000931 -0.006487 0.000000 0.002687 0.000000
# 2 0.000931 0.018458 -0.004995 0.000000 0.001878 0.000000
# 3 -0.006487 -0.004995 0.016261 0.000000 0.006301 0.000000
# 4 0.000000 0.000000 0.000000 0.037901 0.000000 -0.000760
# 5 0.002687 0.001878 0.006301 0.000000 0.066674 0.000000
# 6 0.000000 0.000000 0.000000 -0.000760 0.000000 0.030220
#
#
# Mechanical properties :
#
#
# Convention : Reuss Voigt Hill
#
# Bulk Modulus (GPa) = 39.70235 50.03316 44.86776
# Shear Modulus (GPa) = 23.74378 27.63809 25.69094
#
# Velocity S-wave (km/s) = 3.60506 3.88948 3.74997
# Velocity P-wave (km/s) = 6.24982 6.89616 6.58093
#
# Compressibility (1/GPa) = 0.02518742
#
# Stress axis : x y z
#
# Youngs Moduli (GPa) = 86.42795 54.17711 61.49721
#
# Poissons Ratio (x) = -0.05043 0.39891
# Poissons Ratio (y) = -0.08045 0.30718
# Poissons Ratio (z) = 0.56063 0.27062
#
# Static dielectric constant tensor:
#      x y z
#    x 3.511550 0.000000 0.125710 
#    y 0.000000 3.355880 0.000000 
#    z 0.125710 0.000000 2.649330 
# 
# 
# High freq. dielectric constant tensor:
#      x y z
#    x 1.719680 0.000000 0.000320 
#    y 0.000000 1.718630 0.000000 
#    z 0.000320 0.000000 1.668520 
# 
# From -- ./inp_files/280546.got.cif
#   From: 2010.06.25/outbox.cif.g09.slc.cpg/sg12_141_cif.got.tgz:280546.got - 2010.06.28 00:19:55.
