data_PCOD8098666
_publ_section_title
;
Structure prediction by ZEFSAII (Michael W. Deem and Ramdas Pophale) SiO2 
 PCOD8098666
Probable space group: C 2/M
;
_chemical_formula_sum "Si O2"
_cell_formula_units_Z 40
_cell_length_a 8.699645
_cell_length_b 22.198377
_cell_length_c 10.776256
_cell_angle_alpha 90.000000
_cell_angle_beta 61.231299
_cell_angle_gamma 90.000000
_cell_volume 1824.219597
_symmetry_space_group_name_H-M "C 2/M"
_symmetry_group_IT_number 12
_symmetry_cell_setting 'monoclinic'
loop_
_space_group_symop_operation_xyz
x,y,z
-x,y,-z
-x,-y,-z
x,-y,z
1/2+x,1/2+y,z
1/2-x,1/2+y,-z
1/2-x,1/2-y,-z
1/2+x,1/2-y,z
loop_
_atom_site_type_symbol
_atom_site_label
_atom_site_fract_x
_atom_site_fract_y
_atom_site_fract_z
Si Si1 0.217930 0.618631 0.650223
Si Si2 0.326374 0.339577 0.128884
Si Si3 0.912636 0.568206 0.904983
Si Si4 0.500602 0.224094 0.356512
Si Si5 0.448459 0.636548 0.339876
O O1 0.318718 0.601458 0.484331
O O2 0.352552 0.615398 0.713676
O O3 0.059504 0.572858 0.739168
O O4 0.141104 0.686014 0.666095
O O5 0.246554 0.387000 0.062602
O O6 0.191554 0.287073 0.220106
O O7 0.386791 0.377981 0.225565
O O8 0.500000 0.309454 0.000000
O O9 0.842152 0.500000 0.938581
O O10 0.000000 0.588451 0.000000
O O11 0.500000 0.202343 0.500000
O O12 0.439223 0.292274 0.370948
#
# Coordination Sequence:
#
# PCOD8098666 Si02
#       5
#     8   8   8   8   8
#     4  10  20  34  61  91 120 159 210 245 290 364
#     4  11  24  38  60  93 125 158 212 258 295 357
#     4  10  23  45  67  84 115 160 204 259 329 370
#     4  11  19  36  61  88 127 177 203 230 298 364
#     4  11  20  35  60  91 127 167 198 243 296 361
#
# _framework density 21.927184
#
# number of rings (size 3 to 8) (size 9 to 14) (size 15 to 20)
#    0.000    1.400    4.000    3.000    0.000    1.200 
#    0.000   10.000    0.000    0.000    0.000    0.000 
#    0.000    0.000    0.000    0.000    0.000    0.000 
#
# Total GULP energy -247988.413451 kJ/mol
# GULP energy per Si atom -12399.420673 kJ/mol
# Density = 2.187728 g / cm^3
# Si number density = 21.927184 Si / 1000 Ang^3
#
#
#
# Elastic Constant Matrix: (Units=GPa)
#
#
# Indices 1 2 3 4 5 6 
#
# 1 101.4343 10.2980 40.7331 0.0000 4.9159 0.0000
# 2 10.2980 44.4152 12.2809 0.0000 3.3470 0.0000
# 3 40.7331 12.2809 109.3718 0.0000 -13.5413 0.0000
# 4 0.0000 0.0000 0.0000 20.2662 0.0000 3.6103
# 5 4.9159 3.3470 -13.5413 0.0000 50.7077 0.0000
# 6 0.0000 0.0000 0.0000 3.6103 0.0000 20.3148
#
#
#
# Elastic Compliance Matrix: (Units=1/GPa)
#
#
# Indices 1 2 3 4 5 6 
#
# 1 0.011945 -0.001329 -0.004584 0.000000 -0.002294 0.000000
# 2 -0.001329 0.023648 -0.002417 0.000000 -0.002078 0.000000
# 3 -0.004584 -0.002417 0.011579 0.000000 0.003696 0.000000
# 4 0.000000 0.000000 0.000000 0.050957 0.000000 -0.009056
# 5 -0.002294 -0.002078 0.003696 0.000000 0.021067 0.000000
# 6 0.000000 0.000000 0.000000 -0.009056 0.000000 0.050835
#
#
# Mechanical properties :
#
#
# Convention : Reuss Voigt Hill
#
# Bulk Modulus (GPa) = 32.77417 42.42724 37.60071
# Shear Modulus (GPa) = 25.39839 31.05167 28.22503
#
# Velocity S-wave (km/s) = 3.40708 3.76723 3.59167
# Velocity P-wave (km/s) = 5.51878 6.18982 5.86390
#
# Compressibility (1/GPa) = 0.03051183
#
# Stress axis : x y z
#
# Youngs Moduli (GPa) = 83.71423 42.28681 86.36135
#
# Poissons Ratio (x) = 0.05621 0.39585
# Poissons Ratio (y) = 0.11129 0.20878
# Poissons Ratio (z) = 0.38371 0.10223
#
# Static dielectric constant tensor:
#      x y z
#    x 4.375050 0.000000 0.017730 
#    y 0.000000 3.314130 0.000000 
#    z 0.017730 0.000000 4.091840 
# 
# 
# High freq. dielectric constant tensor:
#      x y z
#    x 1.884560 0.000000 -0.006570 
#    y 0.000000 1.802420 0.000000 
#    z -0.006570 0.000000 1.871460 
# 
# From -- ./inp_files/121687.got.cif
#   From: 2010.06.25/outbox.cif.g09.slc.cpg/sg12_61_cif.got.tgz:121687.got - 2010.06.28 00:19:55.
