data_PCOD8098742
_publ_section_title
;
Structure prediction by ZEFSAII (Michael W. Deem and Ramdas Pophale) SiO2 
 PCOD8098742
Probable space group: C 2/M
;
_chemical_formula_sum "Si O2"
_cell_formula_units_Z 48
_cell_length_a 19.786399
_cell_length_b 9.036950
_cell_length_c 14.671344
_cell_angle_alpha 90.000000
_cell_angle_beta 99.313161
_cell_angle_gamma 90.000000
_cell_volume 2588.784236
_symmetry_space_group_name_H-M "C 2/M"
_symmetry_group_IT_number 12
_symmetry_cell_setting 'monoclinic'
loop_
_space_group_symop_operation_xyz
x,y,z
-x,y,-z
-x,-y,-z
x,-y,z
1/2+x,1/2+y,z
1/2-x,1/2+y,-z
1/2-x,1/2-y,-z
1/2+x,1/2-y,z
loop_
_atom_site_type_symbol
_atom_site_label
_atom_site_fract_x
_atom_site_fract_y
_atom_site_fract_z
Si Si1 0.687939 0.324851 0.434561
Si Si2 0.369262 0.174745 0.262490
Si Si3 0.595296 0.324456 0.086349
Si Si4 0.920258 0.328757 0.472282
Si Si5 0.215492 0.175589 0.236524
Si Si6 0.948437 0.824955 0.118502
O O1 0.694609 0.500000 0.445730
O O2 0.750000 0.250000 0.500000
O O3 0.616410 0.269967 0.459690
O O4 0.690767 0.273478 0.330490
O O5 0.395273 0.222462 0.367573
O O6 0.291825 0.234915 0.232588
O O7 0.418149 0.247762 0.199748
O O8 0.373278 0.000000 0.251115
O O9 0.596441 0.500000 0.090490
O O10 0.662519 0.257806 0.150538
O O11 0.526877 0.271395 0.123779
O O12 0.593936 0.273965 0.980568
O O13 0.901580 0.500000 0.484679
O O14 0.000000 0.298446 0.500000
O O15 0.216239 0.000000 0.231782
O O16 0.944158 0.000000 0.130620
#
# Coordination Sequence:
#
# PCOD8098742 Si02
#       6
#     8   8   8   8   8   8
#     4  11  21  36  58  81 109 144 182 222 265 319
#     4  10  20  35  52  74 106 141 171 209 266 318
#     4   8  16  33  54  76 102 135 170 213 263 310
#     4  10  22  39  55  76 111 148 180 220 273 320
#     4   9  18  33  53  75 103 139 175 210 259 316
#     4   9  18  33  55  79 103 131 171 217 261 308
#
# _framework density 18.541520999999999
#
# number of rings (size 3 to 8) (size 9 to 14) (size 15 to 20)
#    0.000    2.500    1.667    1.500    2.333    1.667 
#    0.000    1.667    0.000    3.000    0.000    0.000 
#    0.000    0.000    0.000    0.000    0.000    0.000 
#
# Total GULP energy -297574.815600 kJ/mol
# GULP energy per Si atom -12398.950650 kJ/mol
# Density = 1.849932 g / cm^3
# Si number density = 18.541521 Si / 1000 Ang^3
#
#
#
# Elastic Constant Matrix: (Units=GPa)
#
#
# Indices 1 2 3 4 5 6 
#
# 1 103.3367 15.2211 35.6179 0.0000 9.3375 0.0000
# 2 15.2211 28.6556 10.3593 0.0000 -5.8238 0.0000
# 3 35.6179 10.3593 59.7379 0.0000 2.7814 0.0000
# 4 0.0000 0.0000 0.0000 19.8783 0.0000 -11.2125
# 5 9.3375 -5.8238 2.7814 0.0000 44.4059 0.0000
# 6 0.0000 0.0000 0.0000 -11.2125 0.0000 24.9712
#
#
#
# Elastic Compliance Matrix: (Units=1/GPa)
#
#
# Indices 1 2 3 4 5 6 
#
# 1 0.013019 -0.005084 -0.006742 0.000000 -0.002982 0.000000
# 2 -0.005084 0.040505 -0.004302 0.000000 0.006651 0.000000
# 3 -0.006742 -0.004302 0.021529 0.000000 -0.000495 0.000000
# 4 0.000000 0.000000 0.000000 0.067369 0.000000 0.030250
# 5 -0.002982 0.006651 -0.000495 0.000000 0.024050 0.000000
# 6 0.000000 0.000000 0.000000 0.030250 0.000000 0.053629
#
#
# Mechanical properties :
#
#
# Convention : Reuss Voigt Hill
#
# Bulk Modulus (GPa) = 23.36683 34.90298 29.13491
# Shear Modulus (GPa) = 18.75311 26.55324 22.65317
#
# Velocity S-wave (km/s) = 3.18372 3.78841 3.49915
# Velocity P-wave (km/s) = 5.11317 6.16451 5.66329
#
# Compressibility (1/GPa) = 0.04279570
#
# Stress axis : x y z
#
# Youngs Moduli (GPa) = 76.80909 24.68841 46.44951
#
# Poissons Ratio (x) = 0.12552 0.31316
# Poissons Ratio (y) = 0.39052 0.19984
# Poissons Ratio (z) = 0.51785 0.10622
#
# Static dielectric constant tensor:
#      x y z
#    x 3.731940 0.000000 0.168730 
#    y 0.000000 3.049190 0.000000 
#    z 0.168730 0.000000 3.685960 
# 
# 
# High freq. dielectric constant tensor:
#      x y z
#    x 1.732080 0.000000 0.003200 
#    y 0.000000 1.680860 0.000000 
#    z 0.003200 0.000000 1.728870 
# 
# From -- ./inp_files/221524.got.cif
#   From: 2010.06.25/outbox.cif.g09.slc.cpg/sg12_111_cif.got.tgz:221524.got - 2010.06.28 00:19:55.
