data_PCOD8098148
_publ_section_title
;
Structure prediction by ZEFSAII (Michael W. Deem and Ramdas Pophale) SiO2 
 PCOD8098148
Probable space group: C 2/M
;
_chemical_formula_sum "Si O2"
_cell_formula_units_Z 56
_cell_length_a 26.777459
_cell_length_b 11.623398
_cell_length_c 27.668638
_cell_angle_alpha 90.000000
_cell_angle_beta 19.869112
_cell_angle_gamma 90.000000
_cell_volume 2926.889990
_symmetry_space_group_name_H-M "C 2/M"
_symmetry_group_IT_number 12
_symmetry_cell_setting 'monoclinic'
loop_
_space_group_symop_operation_xyz
x,y,z
-x,y,-z
-x,-y,-z
x,-y,z
1/2+x,1/2+y,z
1/2-x,1/2+y,-z
1/2-x,1/2-y,-z
1/2+x,1/2-y,z
loop_
_atom_site_type_symbol
_atom_site_label
_atom_site_fract_x
_atom_site_fract_y
_atom_site_fract_z
Si Si1 0.174480 0.369348 0.549879
Si Si2 0.607817 0.247213 0.189944
Si Si3 0.903455 0.864899 0.899261
Si Si4 0.871856 0.787822 0.580895
Si Si5 0.708184 0.628121 0.660486
Si Si6 0.336907 0.132387 0.149356
Si Si7 0.411676 0.631133 0.693062
O O1 0.228903 0.500000 0.518523
O O2 0.250000 0.250000 0.500000
O O3 0.185728 0.368076 0.482076
O O4 0.003268 0.358267 0.720040
O O5 0.596510 0.341593 0.158061
O O6 0.557011 0.302786 0.286250
O O7 0.771427 0.199675 0.045878
O O8 0.052124 0.814362 0.787917
O O9 0.889474 0.000000 0.919651
O O10 0.787367 0.682419 0.634100
O O11 0.746514 0.858376 0.723404
O O12 0.000000 0.742497 0.500000
O O13 0.945637 0.864494 0.471722
O O14 0.674318 0.500000 0.708060
O O15 0.231186 0.185890 0.204025
O O16 0.358375 0.000000 0.117344
O O17 0.500000 0.191428 0.000000
O O18 0.381055 0.500000 0.734227
#
# Coordination Sequence:
#
# PCOD8098148 Si02
#       7
#     8   8   8   8   8   8   8
#     4  11  22  39  61  88 119 154 199 246 296 351
#     4  11  21  36  59  84 116 154 196 242 290 353
#     4  10  22  38  56  80 116 157 193 241 299 350
#     4  10  20  36  58  83 113 151 189 240 295 355
#     4  10  21  38  58  81 112 148 192 241 292 348
#     4   9  19  35  55  81 114 150 188 241 297 347
#     4  10  20  34  55  85 115 150 196 243 297 355
#
# _framework density 19.132936000000001
#
# number of rings (size 3 to 8) (size 9 to 14) (size 15 to 20)
#    0.000    1.857    2.857    1.286    2.000    2.571 
#    0.000    0.000    0.000    0.429    0.000    0.000 
#    0.000    0.000    0.000    0.000    0.000    0.000 
#
# Total GULP energy -346908.024900 kJ/mol
# GULP energy per Si atom -12389.572318 kJ/mol
# Density = 1.908939 g / cm^3
# Si number density = 19.132936 Si / 1000 Ang^3
#
#
#
# Elastic Constant Matrix: (Units=GPa)
#
#
# Indices 1 2 3 4 5 6 
#
# 1 84.5489 35.3866 39.6770 0.0045 -2.1110 -0.0005
# 2 35.3866 79.5235 22.8492 0.0062 -5.6523 -0.0048
# 3 39.6770 22.8492 123.4019 0.0136 -10.0890 -0.0055
# 4 0.0045 0.0062 0.0136 20.0041 -0.0056 -3.9177
# 5 -2.1110 -5.6523 -10.0890 -0.0056 30.6790 0.0019
# 6 -0.0005 -0.0048 -0.0055 -3.9177 0.0019 28.4577
#
#
#
# Elastic Compliance Matrix: (Units=1/GPa)
#
#
# Indices 1 2 3 4 5 6 
#
# 1 0.016358 -0.006162 -0.004233 0.000000 -0.001402 -0.000001
# 2 -0.006162 0.015688 -0.000742 -0.000002 0.002222 0.000002
# 3 -0.004233 -0.000742 0.009831 -0.000005 0.002805 0.000001
# 4 0.000000 -0.000002 -0.000005 0.051375 0.000007 0.007073
# 5 -0.001402 0.002222 0.002805 0.000007 0.033831 0.000000
# 6 -0.000001 0.000002 0.000001 0.007073 0.000000 0.036114
#
#
# Mechanical properties :
#
#
# Convention : Reuss Voigt Hill
#
# Bulk Modulus (GPa) = 51.01256 53.69999 52.35627
# Shear Modulus (GPa) = 26.04079 28.46558 27.25319
#
# Velocity S-wave (km/s) = 3.69324 3.86136 3.77823
# Velocity P-wave (km/s) = 6.70125 6.92877 6.81596
#
# Compressibility (1/GPa) = 0.01960301
#
# Stress axis : x y z
#
# Youngs Moduli (GPa) = 61.13137 63.74223 101.71524
#
# Poissons Ratio (x) = 0.39281 0.43058
# Poissons Ratio (y) = 0.37672 0.07545
# Poissons Ratio (z) = 0.25878 0.04728
#
# Static dielectric constant tensor:
#      x y z
#    x 3.513670 -0.000010 -0.217990 
#    y -0.000010 3.395680 0.000010 
#    z -0.217990 0.000010 3.823910 
# 
# 
# High freq. dielectric constant tensor:
#      x y z
#    x 1.737160 0.000000 -0.007330 
#    y 0.000000 1.720860 0.000000 
#    z -0.007330 0.000000 1.759160 
# 
# From -- ./inp_files/103157.got.cif
#   From: 2010.06.25/outbox.cif.g09.slc.cpg/sg12_52_cif.got.tgz:103157.got - 2010.06.28 00:19:55.
