data_PCOD8098956
_publ_section_title
;
Structure prediction by ZEFSAII (Michael W. Deem and Ramdas Pophale) SiO2 
 PCOD8098956
Probable space group: C 2/M
;
_chemical_formula_sum "Si O2"
_cell_formula_units_Z 44
_cell_length_a 33.976694
_cell_length_b 10.398275
_cell_length_c 20.766456
_cell_angle_alpha 90.000000
_cell_angle_beta 162.027178
_cell_angle_gamma 90.000000
_cell_volume 2263.876001
_symmetry_space_group_name_H-M "C 2/M"
_symmetry_group_IT_number 12
_symmetry_cell_setting 'monoclinic'
loop_
_space_group_symop_operation_xyz
x,y,z
-x,y,-z
-x,-y,-z
x,-y,z
1/2+x,1/2+y,z
1/2-x,1/2+y,-z
1/2-x,1/2-y,-z
1/2+x,1/2-y,z
loop_
_atom_site_type_symbol
_atom_site_label
_atom_site_fract_x
_atom_site_fract_y
_atom_site_fract_z
Si Si1 0.222124 0.643654 0.087195
Si Si2 0.299149 0.854862 0.401001
Si Si3 0.453492 0.851778 0.295602
Si Si4 0.369340 0.148935 0.919029
Si Si5 0.500000 0.282589 0.500000
Si Si6 0.658829 0.142827 0.386720
O O1 0.166240 0.500000 0.001356
O O2 0.375848 0.635531 0.325518
O O3 0.172662 0.706334 0.076625
O O4 0.156782 0.711006 0.922589
O O5 0.409578 0.824284 0.522084
O O6 0.357379 0.842833 0.562312
O O7 0.244637 0.000000 0.304852
O O8 0.191853 0.745243 0.228153
O O9 0.451258 0.798696 0.363878
O O10 0.422998 0.000000 0.256331
O O11 0.519219 0.159741 0.139778
O O12 0.323428 0.000000 0.838330
O O13 0.750000 0.250000 0.500000
O O14 0.712105 0.000000 0.452564
#
# Coordination Sequence:
#
# PCOD8098956 Si02
#       6
#     8   8   8   8   4   8
#     4  10  20  35  54  78 112 151 192 234 283 339
#     4  10  20  38  61  84 113 155 192 232 288 344
#     4  10  20  35  54  78 112 151 192 234 283 339
#     4  10  20  38  61  84 113 155 192 232 288 344
#     4  12  20  32  56  84 110 144 196 244 282 314
#     4  10  22  40  64  87 116 152 190 233 288 346
#
# _framework density 19.435694000000002
#
# number of rings (size 3 to 8) (size 9 to 14) (size 15 to 20)
#    0.000    1.818    3.636    1.091    0.000    2.182 
#    0.000    3.636    0.000    2.182    0.000    0.000 
#    0.000    0.000    0.000    0.000    0.000    0.000 
#
# Total GULP energy -272673.499574 kJ/mol
# GULP energy per Si atom -12394.249981 kJ/mol
# Density = 1.939146 g / cm^3
# Si number density = 19.435694 Si / 1000 Ang^3
#
#
#
# Elastic Constant Matrix: (Units=GPa)
#
#
# Indices 1 2 3 4 5 6 
#
# 1 38.5911 16.8688 3.1013 0.0000 9.5463 0.0000
# 2 16.8688 83.5254 42.8944 0.0000 2.1178 0.0000
# 3 3.1013 42.8944 95.1376 0.0000 -2.7083 0.0000
# 4 0.0000 0.0000 0.0000 29.7472 0.0000 -1.0329
# 5 9.5463 2.1178 -2.7083 0.0000 28.8583 0.0000
# 6 0.0000 0.0000 0.0000 -1.0329 0.0000 23.8362
#
#
#
# Elastic Compliance Matrix: (Units=1/GPa)
#
#
# Indices 1 2 3 4 5 6 
#
# 1 0.031215 -0.007022 0.001874 0.000000 -0.009635 0.000000
# 2 -0.007022 0.017254 -0.007541 0.000000 0.000349 0.000000
# 3 0.001874 -0.007541 0.013885 0.000000 0.001236 0.000000
# 4 0.000000 0.000000 0.000000 0.033667 0.000000 0.001459
# 5 -0.009635 0.000349 0.001236 0.000000 0.037930 0.000000
# 6 0.000000 0.000000 0.000000 0.001459 0.000000 0.042016
#
#
# Mechanical properties :
#
#
# Convention : Reuss Voigt Hill
#
# Bulk Modulus (GPa) = 27.04381 38.10923 32.57652
# Shear Modulus (GPa) = 23.40056 26.78099 25.09077
#
# Velocity S-wave (km/s) = 3.47363 3.71607 3.59690
# Velocity P-wave (km/s) = 5.48023 6.16950 5.83505
#
# Compressibility (1/GPa) = 0.03697703
#
# Stress axis : x y z
#
# Youngs Moduli (GPa) = 32.03582 57.95681 72.02046
#
# Poissons Ratio (x) = 0.40700 -0.13499
# Poissons Ratio (y) = 0.22497 0.54307
# Poissons Ratio (z) = -0.06005 0.43702
#
# Static dielectric constant tensor:
#      x y z
#    x 3.499390 0.000000 -0.157480 
#    y 0.000000 3.375860 0.000000 
#    z -0.157480 0.000000 3.565590 
# 
# 
# High freq. dielectric constant tensor:
#      x y z
#    x 1.758190 0.000000 -0.006550 
#    y 0.000000 1.735560 0.000000 
#    z -0.006550 0.000000 1.761800 
# 
# From -- ./inp_files/203465.got.cif
#   From: 2010.06.25/outbox.cif.g09.slc.cpg/sg12_102_cif.got.tgz:203465.got - 2010.06.28 00:19:55.
