data_PCOD8098004
_publ_section_title
;
Structure prediction by ZEFSAII (Michael W. Deem and Ramdas Pophale) SiO2 
 PCOD8098004
Probable space group: C 2/M
;
_chemical_formula_sum "Si O2"
_cell_formula_units_Z 56
_cell_length_a 17.974444
_cell_length_b 8.973688
_cell_length_c 28.897120
_cell_angle_alpha 90.000000
_cell_angle_beta 38.756706
_cell_angle_gamma 90.000000
_cell_volume 2917.867431
_symmetry_space_group_name_H-M "C 2/M"
_symmetry_group_IT_number 12
_symmetry_cell_setting 'monoclinic'
loop_
_space_group_symop_operation_xyz
x,y,z
-x,y,-z
-x,-y,-z
x,-y,z
1/2+x,1/2+y,z
1/2-x,1/2+y,-z
1/2-x,1/2-y,-z
1/2+x,1/2-y,z
loop_
_atom_site_type_symbol
_atom_site_label
_atom_site_fract_x
_atom_site_fract_y
_atom_site_fract_z
Si Si1 0.740193 0.322775 0.140914
Si Si2 0.897708 0.323819 0.149711
Si Si3 0.557068 0.328110 0.422698
Si Si4 0.624471 0.675754 0.568968
Si Si5 0.303844 0.323586 0.287562
Si Si6 0.332205 0.176134 0.997952
Si Si7 0.975883 0.177102 0.285098
O O1 0.739030 0.500000 0.141256
O O2 0.822693 0.264949 0.142427
O O3 0.793378 0.263062 0.066979
O O4 0.607483 0.258586 0.212001
O O5 0.884681 0.500000 0.161940
O O6 0.847042 0.246223 0.219232
O O7 0.033051 0.275070 0.076448
O O8 0.500000 0.300671 0.500000
O O9 0.594236 0.500000 0.397570
O O10 0.463431 0.277335 0.429460
O O11 0.671103 0.225032 0.363245
O O12 0.643451 0.500000 0.561292
O O13 0.750000 0.750000 0.500000
O O14 0.570086 0.736744 0.643305
O O15 0.309587 0.500000 0.280738
O O16 0.388869 0.264259 0.287235
O O17 0.316662 0.000000 0.002561
O O18 0.250000 0.250000 0.000000
O O19 0.979931 0.000000 0.283677
#
# Coordination Sequence:
#
# PCOD8098004 Si02
#       7
#     8   8   8   8   8   8   8
#     4   9  17  33  56  78 103 138 180 221 261 315
#     4  10  20  35  56  80 106 139 180 223 266 317
#     4  10  21  37  57  81 109 142 179 220 267 317
#     4  10  20  35  55  78 105 138 175 215 261 311
#     4  11  22  35  54  80 109 141 177 219 267 318
#     4  10  20  34  55  82 109 140 178 220 269 323
#     4   9  18  32  51  75 103 137 174 213 260 312
#
# _framework density 19.192098000000001
#
# number of rings (size 3 to 8) (size 9 to 14) (size 15 to 20)
#    0.000    2.143    0.000    3.429    0.000    6.571 
#    0.000    1.429    0.000    6.000    0.000    0.000 
#    0.000    0.000    0.000    0.000    0.000    0.000 
#
# Total GULP energy -347287.504035 kJ/mol
# GULP energy per Si atom -12403.125144 kJ/mol
# Density = 1.914842 g / cm^3
# Si number density = 19.192098 Si / 1000 Ang^3
#
#
#
# Elastic Constant Matrix: (Units=GPa)
#
#
# Indices 1 2 3 4 5 6 
#
# 1 196.4843 30.4615 86.7993 -0.0003 3.1835 -0.0035
# 2 30.4615 20.5100 24.6155 -0.0002 -2.5929 -0.0041
# 3 86.7993 24.6155 147.1001 0.0000 0.9263 0.0002
# 4 -0.0003 -0.0002 0.0000 22.1497 0.0002 -2.6097
# 5 3.1835 -2.5929 0.9263 0.0002 46.1215 -0.0002
# 6 -0.0035 -0.0041 0.0002 -2.6097 -0.0002 25.7708
#
#
#
# Elastic Compliance Matrix: (Units=1/GPa)
#
#
# Indices 1 2 3 4 5 6 
#
# 1 0.007743 -0.007679 -0.003278 0.000000 -0.000900 0.000000
# 2 -0.007679 0.069241 -0.007084 0.000002 0.004565 0.000010
# 3 -0.003278 -0.007084 0.009920 0.000000 -0.000371 -0.000002
# 4 0.000000 0.000002 0.000000 0.045693 0.000000 0.004627
# 5 -0.000900 0.004565 -0.000371 0.000000 0.022008 0.000001
# 6 0.000000 0.000010 -0.000002 0.004627 0.000001 0.039272
#
#
# Mechanical properties :
#
#
# Convention : Reuss Voigt Hill
#
# Bulk Modulus (GPa) = 19.67684 71.98299 45.82992
# Shear Modulus (GPa) = 20.25114 33.62293 26.93703
#
# Velocity S-wave (km/s) = 3.25188 4.19013 3.75046
# Velocity P-wave (km/s) = 4.93705 7.81009 6.53345
#
# Compressibility (1/GPa) = 0.05082116
#
# Stress axis : x y z
#
# Youngs Moduli (GPa) = 129.15445 14.44232 100.80471
#
# Poissons Ratio (x) = 0.11090 0.33044
# Poissons Ratio (y) = 0.99178 0.71413
# Poissons Ratio (z) = 0.42337 0.10231
#
# Static dielectric constant tensor:
#      x y z
#    x 3.780350 0.000000 0.038270 
#    y 0.000000 3.147460 0.000000 
#    z 0.038270 0.000000 3.675460 
# 
# 
# High freq. dielectric constant tensor:
#      x y z
#    x 1.768200 0.000000 0.001670 
#    y 0.000000 1.707720 0.000000 
#    z 0.001670 0.000000 1.767470 
# 
# From -- ./inp_files/275240.got.cif
#   From: 2010.06.25/outbox.cif.g09.slc.cpg/sg12_138_cif.got.tgz:275240.got - 2010.06.28 00:19:55.
