data_PCOD8098450
_publ_section_title
;
Structure prediction by ZEFSAII (Michael W. Deem and Ramdas Pophale) SiO2 
 PCOD8098450
Probable space group: C 2/M
;
_chemical_formula_sum "Si O2"
_cell_formula_units_Z 64
_cell_length_a 24.012494
_cell_length_b 8.881554
_cell_length_c 31.430816
_cell_angle_alpha 90.000000
_cell_angle_beta 149.903129
_cell_angle_gamma 90.000000
_cell_volume 3361.407808
_symmetry_space_group_name_H-M "C 2/M"
_symmetry_group_IT_number 12
_symmetry_cell_setting 'monoclinic'
loop_
_space_group_symop_operation_xyz
x,y,z
-x,y,-z
-x,-y,-z
x,-y,z
1/2+x,1/2+y,z
1/2-x,1/2+y,-z
1/2-x,1/2-y,-z
1/2+x,1/2-y,z
loop_
_atom_site_type_symbol
_atom_site_label
_atom_site_fract_x
_atom_site_fract_y
_atom_site_fract_z
Si Si1 0.029034 0.674552 0.471257
Si Si2 0.298175 0.678049 0.094861
Si Si3 0.655938 0.678066 0.408665
Si Si4 0.409055 0.675013 0.252740
Si Si5 0.742488 0.176041 0.384890
Si Si6 0.361252 0.173417 0.773578
Si Si7 0.835493 0.826792 0.295403
Si Si8 0.093019 0.176417 0.920716
O O1 0.060316 0.500000 0.486562
O O2 0.923864 0.713359 0.373276
O O3 0.000000 0.716516 0.500000
O O4 0.131011 0.776176 0.523605
O O5 0.284586 0.500000 0.088551
O O6 0.352263 0.748076 0.173470
O O7 0.376242 0.726555 0.106986
O O8 0.175858 0.746518 0.008852
O O9 0.669257 0.500000 0.420270
O O10 0.750000 0.750000 0.500000
O O11 0.534393 0.734706 0.343856
O O12 0.665825 0.731657 0.366544
O O13 0.420426 0.500000 0.250322
O O14 0.331381 0.705977 0.242225
O O15 0.706593 0.218777 0.313466
O O16 0.730825 0.000000 0.386675
O O17 0.284709 0.205921 0.763988
O O18 0.468797 0.275309 0.849441
O O19 0.397986 0.000000 0.795666
O O20 0.870753 0.000000 0.327909
O O21 0.104364 0.000000 0.933900
#
# Coordination Sequence:
#
# PCOD8098450 Si02
#       8
#     8   8   8   8   8   8   8   8
#     4  11  22  35  53  79 110 146 188 233 282 330
#     4   9  18  36  59  83 108 138 178 223 273 330
#     4  11  22  37  56  83 115 148 187 232 282 333
#     4   9  19  36  59  81 106 144 187 228 273 327
#     4  11  22  36  55  80 110 147 188 231 280 331
#     4  10  21  35  54  81 110 142 182 227 275 329
#     4  10  20  37  58  80 108 146 190 232 275 329
#     4  10  20  34  57  85 112 140 173 222 281 334
#
# _framework density 19.039643000000002
#
# number of rings (size 3 to 8) (size 9 to 14) (size 15 to 20)
#    0.000    1.875    1.250    3.000    0.000    4.500 
#    0.000    3.125    0.000    3.750    0.000    0.000 
#    0.000    0.000    0.000    0.000    0.000    0.000 
#
# Total GULP energy -396894.389510 kJ/mol
# GULP energy per Si atom -12402.949672 kJ/mol
# Density = 1.899631 g / cm^3
# Si number density = 19.039643 Si / 1000 Ang^3
#
#
#
# Elastic Constant Matrix: (Units=GPa)
#
#
# Indices 1 2 3 4 5 6 
#
# 1 122.6849 32.1391 57.2869 0.0000 -0.5166 0.0004
# 2 32.1391 47.5170 31.8736 0.0009 0.8656 -0.0006
# 3 57.2869 31.8736 124.2618 0.0004 -3.2630 0.0005
# 4 0.0000 0.0009 0.0004 28.4594 0.0001 2.5244
# 5 -0.5166 0.8656 -3.2630 0.0001 32.5296 0.0001
# 6 0.0004 -0.0006 0.0005 2.5244 0.0001 24.6375
#
#
#
# Elastic Compliance Matrix: (Units=1/GPa)
#
#
# Indices 1 2 3 4 5 6 
#
# 1 0.011295 -0.005005 -0.003925 0.000000 -0.000081 0.000000
# 2 -0.005005 0.027694 -0.004831 -0.000001 -0.001301 0.000001
# 3 -0.003925 -0.004831 0.011127 0.000000 0.001182 0.000000
# 4 0.000000 -0.000001 0.000000 0.035460 0.000000 -0.003633
# 5 -0.000081 -0.001301 0.001182 0.000000 0.030893 0.000000
# 6 0.000000 0.000001 0.000000 -0.003633 0.000000 0.040961
#
#
# Mechanical properties :
#
#
# Convention : Reuss Voigt Hill
#
# Bulk Modulus (GPa) = 44.25829 59.67366 51.96598
# Shear Modulus (GPa) = 25.97633 28.66959 27.32296
#
# Velocity S-wave (km/s) = 3.69769 3.88465 3.79232
# Velocity P-wave (km/s) = 6.44409 7.17848 6.82118
#
# Compressibility (1/GPa) = 0.02259463
#
# Stress axis : x y z
#
# Youngs Moduli (GPa) = 88.53765 36.10879 89.86904
#
# Poissons Ratio (x) = 0.18072 0.35277
# Poissons Ratio (y) = 0.44311 0.43411
# Poissons Ratio (z) = 0.34755 0.17442
#
# Static dielectric constant tensor:
#      x y z
#    x 3.634990 0.000000 -0.032250 
#    y 0.000000 3.344160 0.000000 
#    z -0.032250 0.000000 3.482370 
# 
# 
# High freq. dielectric constant tensor:
#      x y z
#    x 1.745200 0.000000 0.001260 
#    y 0.000000 1.729320 0.000000 
#    z 0.001260 0.000000 1.735370 
# 
# From -- ./inp_files/382452.got.cif
#   From: 2010.06.25/outbox.cif.g09.slc.cpg/sg12_192_cif.got.tgz:382452.got - 2010.06.28 00:19:55.
