data_PCOD8098166
_publ_section_title
;
Structure prediction by ZEFSAII (Michael W. Deem and Ramdas Pophale) SiO2 
 PCOD8098166
Probable space group: C 2/M
;
_chemical_formula_sum "Si O2"
_cell_formula_units_Z 40
_cell_length_a 10.185346
_cell_length_b 27.316421
_cell_length_c 10.651520
_cell_angle_alpha 90.000000
_cell_angle_beta 42.476697
_cell_angle_gamma 90.000000
_cell_volume 2001.251529
_symmetry_space_group_name_H-M "C 2/M"
_symmetry_group_IT_number 12
_symmetry_cell_setting 'monoclinic'
loop_
_space_group_symop_operation_xyz
x,y,z
-x,y,-z
-x,-y,-z
x,-y,z
1/2+x,1/2+y,z
1/2-x,1/2+y,-z
1/2-x,1/2-y,-z
1/2+x,1/2-y,z
loop_
_atom_site_type_symbol
_atom_site_label
_atom_site_fract_x
_atom_site_fract_y
_atom_site_fract_z
Si Si1 0.877648 0.367728 0.765946
Si Si2 0.619413 0.944647 0.031793
Si Si3 0.899534 0.208842 0.939925
Si Si4 0.277106 0.354864 0.390066
Si Si5 0.964670 0.946136 0.378317
O O1 0.926302 0.417456 0.805291
O O2 0.758692 0.377597 0.722441
O O3 0.073571 0.336767 0.594916
O O4 0.737765 0.337765 0.954560
O O5 0.545915 0.000000 0.104472
O O6 0.500000 0.920889 0.000000
O O7 0.843944 0.942074 0.840287
O O8 0.070558 0.191061 0.722504
O O9 0.750000 0.250000 0.000000
O O10 0.000000 0.225243 0.000000
O O11 0.333134 0.400719 0.434941
O O12 0.000000 0.940809 0.500000
O O13 0.870091 0.000000 0.419264
#
# Coordination Sequence:
#
# PCOD8098166 Si02
#       5
#     8   8   8   8   8
#     4  10  21  38  62  84 117 156 197 243 294 355
#     4  10  20  34  55  85 123 160 199 243 290 348
#     4  10  22  42  63  87 117 151 197 254 308 361
#     4  10  21  39  60  86 117 156 196 243 295 353
#     4  10  20  35  56  86 124 160 196 242 288 347
#
# _framework density 19.987492
#
# number of rings (size 3 to 8) (size 9 to 14) (size 15 to 20)
#    0.000    2.000    2.000    1.200    0.000    4.800 
#    3.600    4.000    0.000    0.000    0.000    0.000 
#    0.000    0.000    0.000    0.000    0.000    0.000 
#
# Total GULP energy -247811.004074 kJ/mol
# GULP energy per Si atom -12390.550204 kJ/mol
# Density = 1.994200 g / cm^3
# Si number density = 19.987492 Si / 1000 Ang^3
#
#
#
# Elastic Constant Matrix: (Units=GPa)
#
#
# Indices 1 2 3 4 5 6 
#
# 1 81.8678 46.9317 17.0570 0.0000 -4.2583 0.0000
# 2 46.9317 71.9801 19.6690 0.0000 -0.2315 0.0000
# 3 17.0570 19.6690 98.6027 0.0000 -8.5632 0.0000
# 4 0.0000 0.0000 0.0000 24.7102 0.0000 -8.1038
# 5 -4.2583 -0.2315 -8.5632 0.0000 27.3159 0.0000
# 6 0.0000 0.0000 0.0000 -8.1038 0.0000 39.7055
#
#
#
# Elastic Compliance Matrix: (Units=1/GPa)
#
#
# Indices 1 2 3 4 5 6 
#
# 1 0.019781 -0.012712 -0.000645 0.000000 0.002774 0.000000
# 2 -0.012712 0.022881 -0.002591 0.000000 -0.002600 0.000000
# 3 -0.000645 -0.002591 0.011061 0.000000 0.003345 0.000000
# 4 0.000000 0.000000 0.000000 0.043372 0.000000 0.008852
# 5 0.002774 -0.002600 0.003345 0.000000 0.038068 0.000000
# 6 0.000000 0.000000 0.000000 0.008852 0.000000 0.026992
#
#
# Mechanical properties :
#
#
# Convention : Reuss Voigt Hill
#
# Bulk Modulus (GPa) = 45.81731 46.64064 46.22897
# Shear Modulus (GPa) = 24.83534 29.59920 27.21727
#
# Velocity S-wave (km/s) = 3.52880 3.85240 3.69415
# Velocity P-wave (km/s) = 6.29094 6.57066 6.43232
#
# Compressibility (1/GPa) = 0.02182581
#
# Stress axis : x y z
#
# Youngs Moduli (GPa) = 50.55386 43.70479 90.41072
#
# Poissons Ratio (x) = 0.55558 0.05833
# Poissons Ratio (y) = 0.64265 0.23425
# Poissons Ratio (z) = 0.03262 0.11324
#
# Static dielectric constant tensor:
#      x y z
#    x 3.705350 0.000000 -0.156210 
#    y 0.000000 3.645770 0.000000 
#    z -0.156210 0.000000 3.871970 
# 
# 
# High freq. dielectric constant tensor:
#      x y z
#    x 1.777150 0.000000 -0.011850 
#    y 0.000000 1.755170 0.000000 
#    z -0.011850 0.000000 1.798270 
# 
# From -- ./inp_files/135132.got.cif
#   From: 2010.06.25/outbox.cif.g09.slc.cpg/sg12_68_cif.got.tgz:135132.got - 2010.06.28 00:19:55.
