data_PCOD8098635
_publ_section_title
;
Structure prediction by ZEFSAII (Michael W. Deem and Ramdas Pophale) SiO2 
 PCOD8098635
Probable space group: C 2/M
;
_chemical_formula_sum "Si O2"
_cell_formula_units_Z 60
_cell_length_a 25.498952
_cell_length_b 24.161652
_cell_length_c 13.601333
_cell_angle_alpha 90.000000
_cell_angle_beta 158.117859
_cell_angle_gamma 90.000000
_cell_volume 3123.116206
_symmetry_space_group_name_H-M "C 2/M"
_symmetry_group_IT_number 12
_symmetry_cell_setting 'monoclinic'
loop_
_space_group_symop_operation_xyz
x,y,z
-x,y,-z
-x,-y,-z
x,-y,z
1/2+x,1/2+y,z
1/2-x,1/2+y,-z
1/2-x,1/2-y,-z
1/2+x,1/2-y,z
loop_
_atom_site_type_symbol
_atom_site_label
_atom_site_fract_x
_atom_site_fract_y
_atom_site_fract_z
Si Si1 0.309463 0.936428 0.364537
Si Si2 0.500000 0.646153 0.500000
Si Si3 0.435804 0.878738 0.286900
Si Si4 0.178827 0.936411 0.931336
Si Si5 0.886623 0.231934 0.959392
Si Si6 0.291247 0.292522 0.491123
Si Si7 0.343775 0.628798 0.744896
Si Si8 0.756684 0.718316 0.911479
O O1 0.453421 0.905280 0.593764
O O2 0.249029 0.918271 0.365432
O O3 0.347845 0.000000 0.439549
O O4 0.200173 0.925983 0.084965
O O5 0.439070 0.606836 0.308482
O O6 0.611473 0.685745 0.638946
O O7 0.500000 0.855554 0.500000
O O8 0.320037 0.924781 0.114773
O O9 0.378302 0.827349 0.125529
O O10 0.133063 0.000000 0.832473
O O11 0.828999 0.287948 0.802761
O O12 0.841121 0.180238 0.815067
O O13 0.796365 0.234111 0.902367
O O14 0.052278 0.227247 0.271541
O O15 0.250000 0.250000 0.500000
O O16 0.288915 0.352817 0.540513
O O17 0.500000 0.605379 0.000000
O O18 0.750000 0.750000 0.000000
#
# Coordination Sequence:
#
# PCOD8098635 Si02
#       8
#     8   4   8   8   8   8   8   8
#     4  10  20  34  59  86 109 143 186 239 299 336
#     4  10  23  36  48  80 116 150 197 218 278 336
#     4   9  20  35  53  81 114 148 189 227 274 340
#     4   9  18  36  58  79 109 147 192 239 277 335
#     4  10  22  35  58  79 114 154 190 231 282 342
#     4   9  19  37  55  81 106 143 196 236 280 333
#     4   9  20  35  54  79 108 143 185 242 280 331
#     4  11  26  34  53  84 120 158 182 225 279 349
#
# _framework density 19.211580999999999
#
# number of rings (size 3 to 8) (size 9 to 14) (size 15 to 20)
#    0.000    2.400    0.000    1.800   12.133    2.933 
#    0.000    0.000    0.000    0.000    0.000    2.800 
#    0.000    0.000    0.000    0.000    0.000    0.000 
#
# Total GULP energy -371743.517306 kJ/mol
# GULP energy per Si atom -12391.450577 kJ/mol
# Density = 1.916785 g / cm^3
# Si number density = 19.211581 Si / 1000 Ang^3
#
#
#
# Elastic Constant Matrix: (Units=GPa)
#
#
# Indices 1 2 3 4 5 6 
#
# 1 104.2051 23.2409 32.7445 0.0000 17.8693 0.0000
# 2 23.2409 54.7264 31.8134 0.0000 11.9893 0.0000
# 3 32.7445 31.8134 85.1196 0.0000 12.1776 0.0000
# 4 0.0000 0.0000 0.0000 14.1172 0.0000 2.8223
# 5 17.8693 11.9893 12.1776 0.0000 25.0885 0.0000
# 6 0.0000 0.0000 0.0000 2.8223 0.0000 27.8566
#
#
#
# Elastic Compliance Matrix: (Units=1/GPa)
#
#
# Indices 1 2 3 4 5 6 
#
# 1 0.012045 -0.002025 -0.002996 0.000000 -0.006157 0.000000
# 2 -0.002025 0.025052 -0.007606 0.000000 -0.006838 0.000000
# 3 -0.002996 -0.007606 0.016031 0.000000 -0.002013 0.000000
# 4 0.000000 0.000000 0.000000 0.072300 0.000000 -0.007325
# 5 -0.006157 -0.006838 -0.002013 0.000000 0.048489 0.000000
# 6 0.000000 0.000000 0.000000 -0.007325 0.000000 0.036640
#
#
# Mechanical properties :
#
#
# Convention : Reuss Voigt Hill
#
# Bulk Modulus (GPa) = 35.87415 46.62763 41.25089
# Shear Modulus (GPa) = 20.39953 23.82929 22.11441
#
# Velocity S-wave (km/s) = 3.26212 3.52570 3.39646
# Velocity P-wave (km/s) = 5.73605 6.39510 6.07452
#
# Compressibility (1/GPa) = 0.02787523
#
# Stress axis : x y z
#
# Youngs Moduli (GPa) = 83.01932 39.91671 62.37748
#
# Poissons Ratio (x) = 0.08082 0.18689
# Poissons Ratio (y) = 0.16809 0.47445
# Poissons Ratio (z) = 0.24873 0.30361
#
# Static dielectric constant tensor:
#      x y z
#    x 6.352390 0.000000 -1.758210 
#    y 0.000000 3.542210 0.000000 
#    z -1.758210 0.000000 4.616940 
# 
# 
# High freq. dielectric constant tensor:
#      x y z
#    x 1.744230 0.000000 0.008490 
#    y 0.000000 1.730400 0.000000 
#    z 0.008490 0.000000 1.743170 
# 
# From -- ./inp_files/247292.got.cif
#   From: 2010.06.25/outbox.cif.g09.slc.cpg/sg12_124_cif.got.tgz:247292.got - 2010.06.28 00:19:55.
