data_PCOD8098746
_publ_section_title
;
Structure prediction by ZEFSAII (Michael W. Deem and Ramdas Pophale) SiO2 
 PCOD8098746
Probable space group: C 2/M
;
_chemical_formula_sum "Si O2"
_cell_formula_units_Z 56
_cell_length_a 12.269698
_cell_length_b 18.667402
_cell_length_c 18.419640
_cell_angle_alpha 90.000000
_cell_angle_beta 49.784856
_cell_angle_gamma 90.000000
_cell_volume 3221.656674
_symmetry_space_group_name_H-M "C 2/M"
_symmetry_group_IT_number 12
_symmetry_cell_setting 'monoclinic'
loop_
_space_group_symop_operation_xyz
x,y,z
-x,y,-z
-x,-y,-z
x,-y,z
1/2+x,1/2+y,z
1/2-x,1/2+y,-z
1/2-x,1/2-y,-z
1/2+x,1/2-y,z
loop_
_atom_site_type_symbol
_atom_site_label
_atom_site_fract_x
_atom_site_fract_y
_atom_site_fract_z
Si Si1 0.492038 0.918113 0.885363
Si Si2 0.231754 0.581645 0.899800
Si Si3 0.025648 0.647076 0.589730
Si Si4 0.285060 0.917282 0.610706
Si Si5 0.498712 0.340239 0.730735
Si Si6 0.907582 0.318897 0.281558
Si Si7 0.425307 0.307235 0.604435
O O1 0.620285 0.901322 0.884576
O O2 0.501085 0.864091 0.814752
O O3 0.501623 0.000000 0.853529
O O4 0.342014 0.905112 0.990610
O O5 0.285030 0.500000 0.870687
O O6 0.364395 0.634337 0.835188
O O7 0.160152 0.628289 0.481484
O O8 0.079393 0.639264 0.648281
O O9 0.894610 0.592864 0.630761
O O10 0.974296 0.726092 0.592170
O O11 0.131147 0.888144 0.699133
O O12 0.275681 0.000000 0.593604
O O13 0.521894 0.258393 0.742043
O O14 0.473389 0.351045 0.655198
O O15 0.744066 0.312294 0.329219
O O16 0.500000 0.339961 0.500000
#
# Coordination Sequence:
#
# PCOD8098746 Si02
#       7
#     8   8   8   8   8   8   8
#     4   9  19  36  58  79 104 138 175 218 277 329
#     4   9  18  36  58  79 105 138 175 220 270 329
#     4  10  20  35  52  75 107 149 187 211 260 312
#     4  11  21  36  53  76 110 149 189 216 250 321
#     4  11  21  33  57  83 107 140 181 223 274 312
#     4  11  21  34  57  81 110 138 178 229 270 316
#     4  11  19  34  53  77 111 140 178 227 268 312
#
# _framework density 17.382361
#
# number of rings (size 3 to 8) (size 9 to 14) (size 15 to 20)
#    0.000    1.714    4.286    3.000    0.000    4.000 
#    0.000    0.000    0.000    3.000    0.000    3.000 
#    0.000    0.000    0.000    0.000    0.000    0.000 
#
# Total GULP energy -347229.190728 kJ/mol
# GULP energy per Si atom -12401.042526 kJ/mol
# Density = 1.734280 g / cm^3
# Si number density = 17.382361 Si / 1000 Ang^3
#
#
#
# Elastic Constant Matrix: (Units=GPa)
#
#
# Indices 1 2 3 4 5 6 
#
# 1 64.5163 28.1901 32.0586 0.0002 -8.9169 -0.0002
# 2 28.1901 66.5538 37.6578 0.0001 -4.7041 -0.0001
# 3 32.0586 37.6578 82.5294 0.0005 -16.3173 -0.0004
# 4 0.0002 0.0001 0.0005 29.8705 -0.0002 1.8924
# 5 -8.9169 -4.7041 -16.3173 -0.0002 29.2846 0.0002
# 6 -0.0002 -0.0001 -0.0004 1.8924 0.0002 11.0699
#
#
#
# Elastic Compliance Matrix: (Units=1/GPa)
#
#
# Indices 1 2 3 4 5 6 
#
# 1 0.020873 -0.005883 -0.004893 0.000000 0.002684 0.000000
# 2 -0.005883 0.022032 -0.008341 0.000000 -0.002900 0.000000
# 3 -0.004893 -0.008341 0.019402 0.000000 0.007981 0.000001
# 4 0.000000 0.000000 0.000000 0.033844 0.000000 -0.005786
# 5 0.002684 -0.002900 0.007981 0.000000 0.038946 0.000000
# 6 0.000000 0.000000 0.000001 -0.005786 0.000000 0.091324
#
#
# Mechanical properties :
#
#
# Convention : Reuss Voigt Hill
#
# Bulk Modulus (GPa) = 41.54175 45.49027 43.51601
# Shear Modulus (GPa) = 18.33657 21.75786 20.04721
#
# Velocity S-wave (km/s) = 3.25144 3.54180 3.39972
# Velocity P-wave (km/s) = 6.16818 6.55385 6.36394
#
# Compressibility (1/GPa) = 0.02407217
#
# Stress axis : x y z
#
# Youngs Moduli (GPa) = 47.90925 45.38879 51.54212
#
# Poissons Ratio (x) = 0.26701 0.25220
# Poissons Ratio (y) = 0.28184 0.42993
# Poissons Ratio (z) = 0.23443 0.37860
#
# Static dielectric constant tensor:
#      x y z
#    x 3.312000 0.000000 0.039310 
#    y 0.000000 3.151980 0.000000 
#    z 0.039310 0.000000 3.282020 
# 
# 
# High freq. dielectric constant tensor:
#      x y z
#    x 1.670720 0.000000 -0.007260 
#    y 0.000000 1.665460 0.000000 
#    z -0.007260 0.000000 1.668090 
# 
# From -- ./inp_files/133299.got.cif
#   From: 2010.06.25/outbox.cif.g09.slc.cpg/sg12_67_cif.got.tgz:133299.got - 2010.06.28 00:19:55.
