data_PCOD8098536
_publ_section_title
;
Structure prediction by ZEFSAII (Michael W. Deem and Ramdas Pophale) SiO2 
 PCOD8098536
Probable space group: C 2/M
;
_chemical_formula_sum "Si O2"
_cell_formula_units_Z 44
_cell_length_a 24.609179
_cell_length_b 9.158145
_cell_length_c 10.652116
_cell_angle_alpha 90.000000
_cell_angle_beta 120.686763
_cell_angle_gamma 90.000000
_cell_volume 2064.542984
_symmetry_space_group_name_H-M "C 2/M"
_symmetry_group_IT_number 12
_symmetry_cell_setting 'monoclinic'
loop_
_space_group_symop_operation_xyz
x,y,z
-x,y,-z
-x,-y,-z
x,-y,z
1/2+x,1/2+y,z
1/2-x,1/2+y,-z
1/2-x,1/2-y,-z
1/2+x,1/2-y,z
loop_
_atom_site_type_symbol
_atom_site_label
_atom_site_fract_x
_atom_site_fract_y
_atom_site_fract_z
Si Si1 0.063896 0.663244 0.698829
Si Si2 0.243684 0.826878 0.127897
Si Si3 0.000000 0.759816 0.000000
Si Si4 0.956595 0.159087 0.687200
Si Si5 0.145161 0.832874 0.612450
Si Si6 0.626127 0.842341 0.028595
O O1 0.057367 0.500000 0.633855
O O2 0.084835 0.782799 0.622834
O O3 0.996396 0.710401 0.673649
O O4 0.116623 0.662669 0.868221
O O5 0.296839 0.773700 0.288719
O O6 0.177064 0.784457 0.116318
O O7 0.247823 0.000000 0.115720
O O8 0.250000 0.750000 0.000000
O O9 0.031423 0.851997 0.149266
O O10 0.058650 0.667012 0.017200
O O11 0.881930 0.183399 0.562824
O O12 0.976703 0.000000 0.656769
O O13 0.164240 0.000000 0.666065
O O14 0.655167 0.000000 0.100347
#
# Coordination Sequence:
#
# PCOD8098536 Si02
#       6
#     8   8   4   8   8   8
#     4  10  20  34  57  88 123 160 199 249 311 370
#     4  12  24  39  62  92 126 164 203 249 307 369
#     4  10  22  42  68  90 120 160 212 258 306 362
#     4  10  22  38  59  87 120 161 207 257 308 360
#     4  11  22  37  58  87 124 161 202 253 309 366
#     4  10  21  39  63  92 124 161 206 252 303 363
#
# _framework density 21.312225000000002
#
# number of rings (size 3 to 8) (size 9 to 14) (size 15 to 20)
#    0.000    1.455    1.818    3.818    0.000    8.000 
#    0.000    0.909    0.000    0.000    0.000    0.000 
#    0.000    0.000    0.000    0.000    0.000    0.000 
#
# Total GULP energy -272554.559520 kJ/mol
# GULP energy per Si atom -12388.843615 kJ/mol
# Density = 2.126372 g / cm^3
# Si number density = 21.312225 Si / 1000 Ang^3
#
#
#
# Elastic Constant Matrix: (Units=GPa)
#
#
# Indices 1 2 3 4 5 6 
#
# 1 76.4016 39.0176 48.3699 0.0000 10.6389 0.0000
# 2 39.0176 160.8474 52.1634 0.0000 19.1858 0.0000
# 3 48.3699 52.1634 136.6105 0.0000 27.3618 0.0000
# 4 0.0000 0.0000 0.0000 25.7255 0.0000 7.0793
# 5 10.6389 19.1858 27.3618 0.0000 21.4644 0.0000
# 6 0.0000 0.0000 0.0000 7.0793 0.0000 17.0420
#
#
#
# Elastic Compliance Matrix: (Units=1/GPa)
#
#
# Indices 1 2 3 4 5 6 
#
# 1 0.017771 -0.002614 -0.005368 0.000000 0.000372 0.000000
# 2 -0.002614 0.007729 -0.001211 0.000000 -0.004070 0.000000
# 3 -0.005368 -0.001211 0.011996 0.000000 -0.011549 0.000000
# 4 0.000000 0.000000 0.000000 0.043889 0.000000 -0.018232
# 5 0.000372 -0.004070 -0.011549 0.000000 0.064765 0.000000
# 6 0.000000 0.000000 0.000000 -0.018232 0.000000 0.066252
#
#
# Mechanical properties :
#
#
# Convention : Reuss Voigt Hill
#
# Bulk Modulus (GPa) = 52.32844 72.55126 62.43985
# Shear Modulus (GPa) = 21.08293 28.46696 24.77494
#
# Velocity S-wave (km/s) = 3.14863 3.65870 3.41321
# Velocity P-wave (km/s) = 6.15021 7.20861 6.70034
#
# Compressibility (1/GPa) = 0.01911007
#
# Stress axis : x y z
#
# Youngs Moduli (GPa) = 56.27240 129.37884 83.35829
#
# Poissons Ratio (x) = 0.33821 0.44750
# Poissons Ratio (y) = 0.14710 0.10092
# Poissons Ratio (z) = 0.30209 0.15663
#
# Static dielectric constant tensor:
#      x y z
#    x 3.552100 0.000000 0.093820 
#    y 0.000000 3.847230 0.000000 
#    z 0.093820 0.000000 4.232180 
# 
# 
# High freq. dielectric constant tensor:
#      x y z
#    x 1.800470 0.000000 0.020230 
#    y 0.000000 1.843280 0.000000 
#    z 0.020230 0.000000 1.846920 
# 
# From -- ./inp_files/181280.got.cif
#   From: 2010.06.25/outbox.cif.g09.slc.cpg/sg12_91_cif.got.tgz:181280.got - 2010.06.28 00:19:55.
