data_PCOD8098970
_publ_section_title
;
Structure prediction by ZEFSAII (Michael W. Deem and Ramdas Pophale) SiO2 
 PCOD8098970
Probable space group: C 2/M
;
_chemical_formula_sum "Si O2"
_cell_formula_units_Z 64
_cell_length_a 25.221124
_cell_length_b 8.735409
_cell_length_c 15.812897
_cell_angle_alpha 90.000000
_cell_angle_beta 69.682933
_cell_angle_gamma 90.000000
_cell_volume 3267.101745
_symmetry_space_group_name_H-M "C 2/M"
_symmetry_group_IT_number 12
_symmetry_cell_setting 'monoclinic'
loop_
_space_group_symop_operation_xyz
x,y,z
-x,y,-z
-x,-y,-z
x,-y,z
1/2+x,1/2+y,z
1/2-x,1/2+y,-z
1/2-x,1/2-y,-z
1/2+x,1/2-y,z
loop_
_atom_site_type_symbol
_atom_site_label
_atom_site_fract_x
_atom_site_fract_y
_atom_site_fract_z
Si Si1 0.466724 0.824884 0.941087
Si Si2 0.536523 0.181862 0.243923
Si Si3 0.661791 0.180528 0.518823
Si Si4 0.962923 0.318317 0.442763
Si Si5 0.757754 0.177357 0.190912
Si Si6 0.775624 0.822317 0.369618
Si Si7 0.344993 0.679388 0.827917
Si Si8 0.335543 0.175698 0.011291
O O1 0.481090 0.755860 0.840004
O O2 0.486384 0.000000 0.927570
O O3 0.500000 0.741212 0.000000
O O4 0.401014 0.807861 0.997191
O O5 0.490120 0.231223 0.338123
O O6 0.595397 0.258219 0.238177
O O7 0.546423 0.000000 0.235328
O O8 0.601309 0.247147 0.519994
O O9 0.712601 0.236806 0.429923
O O10 0.675386 0.235436 0.606388
O O11 0.656385 0.000000 0.523291
O O12 0.962618 0.500000 0.450765
O O13 0.000000 0.249785 0.500000
O O14 0.786078 0.211625 0.265649
O O15 0.701376 0.279738 0.216804
O O16 0.802519 0.220493 0.095204
O O17 0.740782 0.000000 0.192311
O O18 0.780290 0.000000 0.389672
O O19 0.348858 0.500000 0.842319
O O20 0.323639 0.763421 0.924337
O O21 0.315046 0.000000 0.028603
#
# Coordination Sequence:
#
# PCOD8098970 Si02
#       8
#     8   8   8   8   8   8   8   8
#     4   8  15  29  50  75 103 134 172 216 262 312
#     4   9  18  33  53  78 106 140 179 223 276 325
#     4   9  18  35  57  81 109 142 184 230 274 323
#     4   9  18  31  55  85 110 140 186 234 274 324
#     4  11  22  35  54  79 107 141 182 224 271 325
#     4   9  20  36  55  79 109 147 183 223 279 330
#     4  11  22  36  54  76 108 144 180 221 270 328
#     4  10  20  35  54  79 110 142 178 222 269 318
#
# _framework density 19.589227999999999
#
# number of rings (size 3 to 8) (size 9 to 14) (size 15 to 20)
#    0.000    2.500    0.000    3.000    1.750    2.000 
#    0.000    3.125    0.000   11.625    0.000    0.000 
#    0.000    0.000    0.000    0.000    0.000    0.000 
#
# Total GULP energy -396738.434145 kJ/mol
# GULP energy per Si atom -12398.076067 kJ/mol
# Density = 1.954464 g / cm^3
# Si number density = 19.589228 Si / 1000 Ang^3
#
#
#
# Elastic Constant Matrix: (Units=GPa)
#
#
# Indices 1 2 3 4 5 6 
#
# 1 121.8219 18.5600 51.4534 0.0000 10.6534 0.0000
# 2 18.5600 34.4287 11.4920 0.0000 2.6878 0.0000
# 3 51.4534 11.4920 70.1290 0.0000 1.1510 0.0000
# 4 0.0000 0.0000 0.0000 22.2072 0.0000 -0.2541
# 5 10.6534 2.6878 1.1510 0.0000 26.1946 0.0000
# 6 0.0000 0.0000 0.0000 -0.2541 0.0000 23.4070
#
#
#
# Elastic Compliance Matrix: (Units=1/GPa)
#
#
# Indices 1 2 3 4 5 6 
#
# 1 0.012857 -0.003658 -0.008760 0.000000 -0.004469 0.000000
# 2 -0.003658 0.031994 -0.002531 0.000000 -0.001684 0.000000
# 3 -0.008760 -0.002531 0.021054 0.000000 0.002897 0.000000
# 4 0.000000 0.000000 0.000000 0.045036 0.000000 0.000489
# 5 -0.004469 -0.001684 0.002897 0.000000 0.040039 0.000000
# 6 0.000000 0.000000 0.000000 0.000489 0.000000 0.042728
#
#
# Mechanical properties :
#
#
# Convention : Reuss Voigt Hill
#
# Bulk Modulus (GPa) = 27.77339 43.26559 35.51949
# Shear Modulus (GPa) = 21.22169 24.02004 22.62086
#
# Velocity S-wave (km/s) = 3.29498 3.50549 3.40186
# Velocity P-wave (km/s) = 5.35579 6.20637 5.79670
#
# Compressibility (1/GPa) = 0.03600569
#
# Stress axis : x y z
#
# Youngs Moduli (GPa) = 77.77971 31.25596 47.49680
#
# Poissons Ratio (x) = 0.11433 0.41608
# Poissons Ratio (y) = 0.28452 0.12023
# Poissons Ratio (z) = 0.68137 0.07912
#
# Static dielectric constant tensor:
#      x y z
#    x 3.749160 0.000000 0.113270 
#    y 0.000000 3.262180 0.000000 
#    z 0.113270 0.000000 3.650900 
# 
# 
# High freq. dielectric constant tensor:
#      x y z
#    x 1.767070 0.000000 0.005680 
#    y 0.000000 1.730450 0.000000 
#    z 0.005680 0.000000 1.765300 
# 
# From -- ./inp_files/243786.got.cif
#   From: 2010.06.25/outbox.cif.g09.slc.cpg/sg12_122_cif.got.tgz:243786.got - 2010.06.28 00:19:55.
