data_PCOD8098788
_publ_section_title
;
Structure prediction by ZEFSAII (Michael W. Deem and Ramdas Pophale) SiO2 
 PCOD8098788
Probable space group: C 2/M
;
_chemical_formula_sum "Si O2"
_cell_formula_units_Z 64
_cell_length_a 11.568107
_cell_length_b 17.000512
_cell_length_c 16.534090
_cell_angle_alpha 90.000000
_cell_angle_beta 86.077515
_cell_angle_gamma 90.000000
_cell_volume 3244.039037
_symmetry_space_group_name_H-M "C 2/M"
_symmetry_group_IT_number 12
_symmetry_cell_setting 'monoclinic'
loop_
_space_group_symop_operation_xyz
x,y,z
-x,y,-z
-x,-y,-z
x,-y,z
1/2+x,1/2+y,z
1/2-x,1/2+y,-z
1/2-x,1/2-y,-z
1/2+x,1/2-y,z
loop_
_atom_site_type_symbol
_atom_site_label
_atom_site_fract_x
_atom_site_fract_y
_atom_site_fract_z
Si Si1 0.614982 0.861129 0.763911
Si Si2 0.619902 0.590390 0.468265
Si Si3 0.565126 0.087007 0.347890
Si Si4 0.636318 0.594242 0.290353
Si Si5 0.259673 0.816108 0.571068
Si Si6 0.967785 0.409332 0.915907
Si Si7 0.271745 0.912162 0.814283
Si Si8 0.402200 0.312954 0.265760
O O1 0.562929 0.896728 0.682557
O O2 0.753531 0.872204 0.762812
O O3 0.570872 0.903655 0.846451
O O4 0.570001 0.772024 0.771136
O O5 0.500000 0.633099 0.500000
O O6 0.593829 0.500000 0.457545
O O7 0.661888 0.623252 0.380410
O O8 0.714754 0.603739 0.532378
O O9 0.610300 0.157947 0.405780
O O10 0.652860 0.084324 0.269916
O O11 0.562269 0.000000 0.390019
O O12 0.623300 0.500000 0.280148
O O13 0.518430 0.637420 0.272137
O O14 0.250000 0.750000 0.500000
O O15 0.175433 0.797848 0.650263
O O16 0.942519 0.500000 0.934042
O O17 0.848935 0.374619 0.883102
O O18 0.000000 0.367609 0.000000
O O19 0.162948 0.857425 0.803269
O O20 0.228679 0.000000 0.838040
#
# Coordination Sequence:
#
# PCOD8098788 Si02
#       8
#     8   8   8   8   8   8   8   8
#     4  11  23  37  61  90 123 149 196 249 295 362
#     4  10  20  35  53  75 105 144 197 249 292 343
#     4   9  19  36  58  79 108 151 197 246 299 351
#     4  11  23  39  60  85 118 162 204 248 305 365
#     4  11  22  35  57  80 112 148 200 255 304 349
#     4   9  18  37  67  94 117 150 191 238 293 357
#     4   8  16  33  58  86 114 148 198 240 277 349
#     4  11  23  35  58  83 119 159 198 244 302 354
#
# _framework density 19.728493
#
# number of rings (size 3 to 8) (size 9 to 14) (size 15 to 20)
#    0.000    2.000    1.250    3.375    7.000    1.000 
#    0.000    2.500    0.000    4.500    0.000    3.500 
#    0.000    0.000    0.000    0.000    0.000    0.000 
#
# Total GULP energy -396424.677769 kJ/mol
# GULP energy per Si atom -12388.271180 kJ/mol
# Density = 1.968359 g / cm^3
# Si number density = 19.728493 Si / 1000 Ang^3
#
#
#
# Elastic Constant Matrix: (Units=GPa)
#
#
# Indices 1 2 3 4 5 6 
#
# 1 104.5740 27.3036 40.6367 0.0000 13.8415 0.0000
# 2 27.3036 76.5206 20.3133 0.0000 13.2816 0.0000
# 3 40.6367 20.3133 92.7405 0.0000 24.4184 0.0000
# 4 0.0000 0.0000 0.0000 16.2468 0.0000 -1.9059
# 5 13.8415 13.2816 24.4184 0.0000 23.7123 0.0000
# 6 0.0000 0.0000 0.0000 -1.9059 0.0000 15.9398
#
#
#
# Elastic Compliance Matrix: (Units=1/GPa)
#
#
# Indices 1 2 3 4 5 6 
#
# 1 0.012196 -0.003023 -0.004464 0.000000 -0.000830 0.000000
# 2 -0.003023 0.015363 -0.000328 0.000000 -0.006502 0.000000
# 3 -0.004464 -0.000328 0.016568 0.000000 -0.014272 0.000000
# 4 0.000000 0.000000 0.000000 0.062426 0.000000 0.007464
# 5 -0.000830 -0.006502 -0.014272 0.000000 0.060996 0.000000
# 6 0.000000 0.000000 0.000000 0.007464 0.000000 0.063629
#
#
# Mechanical properties :
#
#
# Convention : Reuss Voigt Hill
#
# Bulk Modulus (GPa) = 35.09059 50.03804 42.56432
# Shear Modulus (GPa) = 19.50790 23.55188 21.52989
#
# Velocity S-wave (km/s) = 3.14796 3.45889 3.30708
# Velocity P-wave (km/s) = 5.57120 6.43197 6.01700
#
# Compressibility (1/GPa) = 0.02849767
#
# Stress axis : x y z
#
# Youngs Moduli (GPa) = 81.99300 65.09260 60.35591
#
# Poissons Ratio (x) = 0.19677 0.26940
# Poissons Ratio (y) = 0.24785 0.01982
# Poissons Ratio (z) = 0.36598 0.02138
#
# Static dielectric constant tensor:
#      x y z
#    x 3.645870 0.000000 0.312050 
#    y 0.000000 3.608630 0.000000 
#    z 0.312050 0.000000 3.684110 
# 
# 
# High freq. dielectric constant tensor:
#      x y z
#    x 1.767900 0.000000 0.021170 
#    y 0.000000 1.766730 0.000000 
#    z 0.021170 0.000000 1.738510 
# 
# From -- ./inp_files/206686.got.cif
#   From: 2010.06.25/outbox.cif.g09.slc.cpg/sg12_104_cif.got.tgz:206686.got - 2010.06.28 00:19:55.
