data_PCOD8098300
_publ_section_title
;
Structure prediction by ZEFSAII (Michael W. Deem and Ramdas Pophale) SiO2 
 PCOD8098300
Probable space group: C 2/M
;
_chemical_formula_sum "Si O2"
_cell_formula_units_Z 48
_cell_length_a 30.375151
_cell_length_b 8.914080
_cell_length_c 8.864083
_cell_angle_alpha 90.000000
_cell_angle_beta 89.966559
_cell_angle_gamma 90.000000
_cell_volume 2400.096552
_symmetry_space_group_name_H-M "C 2/M"
_symmetry_group_IT_number 12
_symmetry_cell_setting 'monoclinic'
loop_
_space_group_symop_operation_xyz
x,y,z
-x,y,-z
-x,-y,-z
x,-y,z
1/2+x,1/2+y,z
1/2-x,1/2+y,-z
1/2-x,1/2-y,-z
1/2+x,1/2-y,z
loop_
_atom_site_type_symbol
_atom_site_label
_atom_site_fract_x
_atom_site_fract_y
_atom_site_fract_z
Si Si1 0.326583 0.173900 0.829081
Si Si2 0.509039 0.676750 0.165351
Si Si3 0.738728 0.675128 0.656919
Si Si4 0.339913 0.177036 0.171038
Si Si5 0.919617 0.176142 0.323213
Si Si6 0.406050 0.322196 0.664668
O O1 0.277204 0.208261 0.776222
O O2 0.359652 0.265176 0.724424
O O3 0.338629 0.000000 0.812880
O O4 0.330157 0.228572 0.000761
O O5 0.514873 0.500000 0.148531
O O6 0.469493 0.715315 0.278595
O O7 0.554044 0.744591 0.234504
O O8 0.500000 0.747506 0.000000
O O9 0.731592 0.500000 0.630215
O O10 0.750000 0.750000 0.500000
O O11 0.693776 0.743904 0.716988
O O12 0.388627 0.231186 0.211348
O O13 0.335482 0.000000 0.190579
O O14 0.912118 0.232098 0.493256
O O15 0.909760 0.000000 0.303733
O O16 0.406632 0.500000 0.670866
#
# Coordination Sequence:
#
# PCOD8098300 Si02
#       6
#     8   8   8   8   8   8
#     4  10  23  40  57  80 112 147 183 228 278 329
#     4   9  17  31  53  81 112 146 185 229 275 325
#     4  11  23  40  61  85 113 146 184 226 275 329
#     4  11  23  39  58  82 112 146 186 230 276 326
#     4  10  20  35  56  83 114 147 185 229 278 330
#     4  10  20  34  56  84 112 145 185 229 276 329
#
# _framework density 19.999193999999999
#
# number of rings (size 3 to 8) (size 9 to 14) (size 15 to 20)
#    0.000    1.833    0.000    4.000    0.000    9.333 
#    0.000    0.833    0.000    5.000    0.000    0.000 
#    0.000    0.000    0.000    0.000    0.000    0.000 
#
# Total GULP energy -297716.196434 kJ/mol
# GULP energy per Si atom -12404.841518 kJ/mol
# Density = 1.995367 g / cm^3
# Si number density = 19.999194 Si / 1000 Ang^3
#
#
#
# Elastic Constant Matrix: (Units=GPa)
#
#
# Indices 1 2 3 4 5 6 
#
# 1 59.4438 15.8323 -3.2797 0.0000 1.3554 0.0000
# 2 15.8323 43.5142 21.8178 0.0000 1.5483 0.0000
# 3 -3.2797 21.8178 94.0027 0.0000 -0.2102 0.0000
# 4 0.0000 0.0000 0.0000 27.6121 0.0000 0.2367
# 5 1.3554 1.5483 -0.2102 0.0000 42.6844 0.0000
# 6 0.0000 0.0000 0.0000 0.2367 0.0000 26.9966
#
#
#
# Elastic Compliance Matrix: (Units=1/GPa)
#
#
# Indices 1 2 3 4 5 6 
#
# 1 0.019172 -0.008262 0.002586 0.000000 -0.000296 0.000000
# 2 -0.008262 0.029608 -0.007162 0.000000 -0.000847 0.000000
# 3 0.002586 -0.007162 0.012391 0.000000 0.000239 0.000000
# 4 0.000000 0.000000 0.000000 0.036219 0.000000 -0.000318
# 5 -0.000296 -0.000847 0.000239 0.000000 0.023469 0.000000
# 6 0.000000 0.000000 0.000000 -0.000318 0.000000 0.037044
#
#
# Mechanical properties :
#
#
# Convention : Reuss Voigt Hill
#
# Bulk Modulus (GPa) = 28.17253 29.52239 28.84746
# Shear Modulus (GPa) = 25.58697 30.29795 27.94246
#
# Velocity S-wave (km/s) = 3.58075 3.89647 3.74194
# Velocity P-wave (km/s) = 5.58687 5.91922 5.75544
#
# Compressibility (1/GPa) = 0.03549557
#
# Stress axis : x y z
#
# Youngs Moduli (GPa) = 52.15813 33.77450 80.70340
#
# Poissons Ratio (x) = 0.27903 -0.20868
# Poissons Ratio (y) = 0.43091 0.57801
# Poissons Ratio (z) = -0.13487 0.24190
#
# Static dielectric constant tensor:
#      x y z
#    x 3.727190 0.000000 0.175210 
#    y 0.000000 3.390530 0.000000 
#    z 0.175210 0.000000 3.859220 
# 
# 
# High freq. dielectric constant tensor:
#      x y z
#    x 1.795370 0.000000 0.002850 
#    y 0.000000 1.753750 0.000000 
#    z 0.002850 0.000000 1.799020 
# 
# From -- ./inp_files/108574.got.cif
#   From: 2010.06.25/outbox.cif.g09.slc.cpg/sg12_55_cif.got.tgz:108574.got - 2010.06.28 00:19:55.
