data_PCOD8098146
_publ_section_title
;
Structure prediction by ZEFSAII (Michael W. Deem and Ramdas Pophale) SiO2 
 PCOD8098146
Probable space group: C 2/M
;
_chemical_formula_sum "Si O2"
_cell_formula_units_Z 40
_cell_length_a 10.903278
_cell_length_b 19.031298
_cell_length_c 11.567086
_cell_angle_alpha 90.000000
_cell_angle_beta 121.065583
_cell_angle_gamma 90.000000
_cell_volume 2055.966213
_symmetry_space_group_name_H-M "C 2/M"
_symmetry_group_IT_number 12
_symmetry_cell_setting 'monoclinic'
loop_
_space_group_symop_operation_xyz
x,y,z
-x,y,-z
-x,-y,-z
x,-y,z
1/2+x,1/2+y,z
1/2-x,1/2+y,-z
1/2-x,1/2-y,-z
1/2+x,1/2-y,z
loop_
_atom_site_type_symbol
_atom_site_label
_atom_site_fract_x
_atom_site_fract_y
_atom_site_fract_z
Si Si1 0.160016 0.192153 0.390460
Si Si2 0.347622 0.339382 0.225610
Si Si3 0.330837 0.422442 0.434050
Si Si4 0.335686 0.290239 0.878004
Si Si5 0.856640 0.922720 0.004716
O O1 0.250000 0.250000 0.500000
O O2 0.208432 0.116205 0.464661
O O3 0.185793 0.198913 0.267854
O O4 0.991245 0.201026 0.336020
O O5 0.270250 0.377340 0.296215
O O6 0.242634 0.280868 0.120053
O O7 0.389484 0.398904 0.152013
O O8 0.500000 0.428991 0.500000
O O9 0.260674 0.500000 0.402222
O O10 0.263468 0.359843 0.901542
O O11 0.500000 0.284775 0.000000
O O12 0.781035 0.000000 0.969014
O O13 0.000000 0.929144 0.000000
#
# Coordination Sequence:
#
# PCOD8098146 Si02
#       5
#     8   8   8   8   8
#     4  11  21  36  56  86 113 144 186 227 278 335
#     4  11  20  37  59  82 116 146 186 234 279 331
#     4   9  19  33  55  84 111 143 183 233 280 320
#     4  11  22  37  58  84 111 148 190 228 280 332
#     4  10  20  34  55  85 114 144 186 232 281 328
#
# _framework density 19.455573999999999
#
# number of rings (size 3 to 8) (size 9 to 14) (size 15 to 20)
#    0.000    1.600    6.000    1.200    0.000    1.600 
#    0.000    0.000    0.000    6.000    0.000    2.800 
#    0.000    0.000    0.000    0.000    0.000    0.000 
#
# Total GULP energy -247804.760395 kJ/mol
# GULP energy per Si atom -12390.238020 kJ/mol
# Density = 1.941129 g / cm^3
# Si number density = 19.455574 Si / 1000 Ang^3
#
#
#
# Elastic Constant Matrix: (Units=GPa)
#
#
# Indices 1 2 3 4 5 6 
#
# 1 33.2755 33.8729 24.7055 0.0000 -6.3436 0.0000
# 2 33.8729 182.8056 62.7287 0.0000 6.1550 0.0000
# 3 24.7055 62.7287 119.6136 0.0000 -16.1781 0.0000
# 4 0.0000 0.0000 0.0000 29.9576 0.0000 -1.0750
# 5 -6.3436 6.1550 -16.1781 0.0000 26.8433 0.0000
# 6 0.0000 0.0000 0.0000 -1.0750 0.0000 18.4685
#
#
#
# Elastic Compliance Matrix: (Units=1/GPa)
#
#
# Indices 1 2 3 4 5 6 
#
# 1 0.041393 -0.006654 -0.003844 0.000000 0.008991 0.000000
# 2 -0.006654 0.008151 -0.003664 0.000000 -0.005650 0.000000
# 3 -0.003844 -0.003664 0.012049 0.000000 0.007194 0.000000
# 4 0.000000 0.000000 0.000000 0.033450 0.000000 0.001947
# 5 0.008991 -0.005650 0.007194 0.000000 0.045009 0.000000
# 6 0.000000 0.000000 0.000000 0.001947 0.000000 0.054260
#
#
# Mechanical properties :
#
#
# Convention : Reuss Voigt Hill
#
# Bulk Modulus (GPa) = 30.05831 64.25653 47.15742
# Shear Modulus (GPa) = 21.39260 29.34640 25.36950
#
# Velocity S-wave (km/s) = 3.31956 3.88800 3.61497
# Velocity P-wave (km/s) = 5.49326 7.29756 6.45873
#
# Compressibility (1/GPa) = 0.03326867
#
# Stress axis : x y z
#
# Youngs Moduli (GPa) = 24.15854 122.68732 82.99504
#
# Poissons Ratio (x) = 0.81630 0.31905
# Poissons Ratio (y) = 0.16074 0.30413
# Poissons Ratio (z) = 0.09287 0.44958
#
# Static dielectric constant tensor:
#      x y z
#    x 3.176640 0.000000 -0.303450 
#    y 0.000000 4.338330 0.000000 
#    z -0.303450 0.000000 3.818420 
# 
# 
# High freq. dielectric constant tensor:
#      x y z
#    x 1.703500 0.000000 -0.038190 
#    y 0.000000 1.774860 0.000000 
#    z -0.038190 0.000000 1.763140 
# 
# From -- ./inp_files/130858.got.cif
#   From: 2010.06.25/outbox.cif.g09.slc.cpg/sg12_66_cif.got.tgz:130858.got - 2010.06.28 00:19:55.
