data_PCOD8098563
_publ_section_title
;
Structure prediction by ZEFSAII (Michael W. Deem and Ramdas Pophale) SiO2 
 PCOD8098563
Probable space group: C 2/M
;
_chemical_formula_sum "Si O2"
_cell_formula_units_Z 56
_cell_length_a 26.211497
_cell_length_b 17.854780
_cell_length_c 8.563047
_cell_angle_alpha 90.000000
_cell_angle_beta 136.665145
_cell_angle_gamma 90.000000
_cell_volume 2750.197904
_symmetry_space_group_name_H-M "C 2/M"
_symmetry_group_IT_number 12
_symmetry_cell_setting 'monoclinic'
loop_
_space_group_symop_operation_xyz
x,y,z
-x,y,-z
-x,-y,-z
x,-y,z
1/2+x,1/2+y,z
1/2-x,1/2+y,-z
1/2-x,1/2-y,-z
1/2+x,1/2-y,z
loop_
_atom_site_type_symbol
_atom_site_label
_atom_site_fract_x
_atom_site_fract_y
_atom_site_fract_z
Si Si1 0.137096 0.086985 0.180576
Si Si2 0.651677 0.918186 0.146748
Si Si3 0.141900 0.228937 0.635816
Si Si4 0.221021 0.317717 0.539958
Si Si5 0.985305 0.199232 0.142942
Si Si6 0.313873 0.419228 0.373113
Si Si7 0.575276 0.811159 0.761751
O O1 0.208697 0.128820 0.264463
O O2 0.132987 0.098744 0.359594
O O3 0.142094 0.000000 0.145109
O O4 0.059000 0.120397 0.944073
O O5 0.655546 0.863389 0.305201
O O6 0.734027 0.927095 0.268865
O O7 0.620765 0.000000 0.128568
O O8 0.602802 0.889577 0.892395
O O9 0.183035 0.285042 0.610042
O O10 0.185528 0.149559 0.748552
O O11 0.137271 0.272295 0.789263
O O12 0.060994 0.199156 0.407402
O O13 0.250000 0.250000 0.500000
O O14 0.932112 0.259982 0.102979
O O15 0.000000 0.225163 0.000000
O O16 0.335922 0.500000 0.345049
O O17 0.500000 0.826159 0.500000
#
# Coordination Sequence:
#
# PCOD8098563 Si02
#       7
#     8   8   8   8   8   8   8
#     4  10  20  34  57  92 124 154 197 251 302 354
#     4  10  20  37  59  83 113 152 195 243 292 350
#     4  11  21  36  59  86 120 159 198 248 297 352
#     4  11  18  36  62  87 114 153 201 248 292 352
#     4  11  20  37  60  87 114 156 203 246 293 361
#     4   9  18  33  55  86 117 151 191 237 296 350
#     4  10  24  39  57  85 117 155 200 249 303 354
#
# _framework density 20.362171
#
# number of rings (size 3 to 8) (size 9 to 14) (size 15 to 20)
#    0.000    1.714    4.286    3.000    0.000    1.714 
#    0.000    2.143    0.000   11.571    0.000    0.000 
#    0.000    0.000    0.000    0.000    0.000    0.000 
#
# Total GULP energy -347008.978124 kJ/mol
# GULP energy per Si atom -12393.177790 kJ/mol
# Density = 2.031583 g / cm^3
# Si number density = 20.362171 Si / 1000 Ang^3
#
#
#
# Elastic Constant Matrix: (Units=GPa)
#
#
# Indices 1 2 3 4 5 6 
#
# 1 103.3128 56.7389 19.5827 0.0000 -9.5943 0.0000
# 2 56.7389 162.4645 37.4559 0.0000 -10.1611 0.0000
# 3 19.5827 37.4559 51.0786 0.0000 -3.0758 0.0000
# 4 0.0000 0.0000 0.0000 39.5531 0.0000 13.0631
# 5 -9.5943 -10.1611 -3.0758 0.0000 16.7847 0.0000
# 6 0.0000 0.0000 0.0000 13.0631 0.0000 34.1944
#
#
#
# Elastic Compliance Matrix: (Units=1/GPa)
#
#
# Indices 1 2 3 4 5 6 
#
# 1 0.012450 -0.003640 -0.001828 0.000000 0.004578 0.000000
# 2 -0.003640 0.008684 -0.004835 0.000000 0.002291 0.000000
# 3 -0.001828 -0.004835 0.023848 0.000000 0.000398 0.000000
# 4 0.000000 0.000000 0.000000 0.028933 0.000000 -0.011053
# 5 0.004578 0.002291 0.000398 0.000000 0.063655 0.000000
# 6 0.000000 0.000000 0.000000 -0.011053 0.000000 0.033467
#
#
# Mechanical properties :
#
#
# Convention : Reuss Voigt Hill
#
# Bulk Modulus (GPa) = 41.02360 60.49010 50.75685
# Shear Modulus (GPa) = 25.02892 31.64499 28.33695
#
# Velocity S-wave (km/s) = 3.50978 3.94649 3.73453
# Velocity P-wave (km/s) = 6.05107 7.10901 6.60127
#
# Compressibility (1/GPa) = 0.02437621
#
# Stress axis : x y z
#
# Youngs Moduli (GPa) = 80.31976 115.14865 41.93252
#
# Poissons Ratio (x) = 0.41918 0.07666
# Poissons Ratio (y) = 0.29239 0.20273
# Poissons Ratio (z) = 0.14683 0.55671
#
# Static dielectric constant tensor:
#      x y z
#    x 3.679150 0.000000 0.097920 
#    y 0.000000 4.235130 0.000000 
#    z 0.097920 0.000000 3.630730 
# 
# 
# High freq. dielectric constant tensor:
#      x y z
#    x 1.774760 0.000000 0.014840 
#    y 0.000000 1.804070 0.000000 
#    z 0.014840 0.000000 1.784370 
# 
# From -- ./inp_files/106017.got.cif
#   From: 2010.06.25/outbox.cif.g09.slc.cpg/sg12_54_cif.got.tgz:106017.got - 2010.06.28 00:19:55.
