data_PCOD8098319
_publ_section_title
;
Structure prediction by ZEFSAII (Michael W. Deem and Ramdas Pophale) SiO2 
 PCOD8098319
Probable space group: C 2/M
;
_chemical_formula_sum "Si O2"
_cell_formula_units_Z 52
_cell_length_a 13.281990
_cell_length_b 20.760572
_cell_length_c 12.251475
_cell_angle_alpha 90.000000
_cell_angle_beta 130.380987
_cell_angle_gamma 90.000000
_cell_volume 2573.387623
_symmetry_space_group_name_H-M "C 2/M"
_symmetry_group_IT_number 12
_symmetry_cell_setting 'monoclinic'
loop_
_space_group_symop_operation_xyz
x,y,z
-x,y,-z
-x,-y,-z
x,-y,z
1/2+x,1/2+y,z
1/2-x,1/2+y,-z
1/2-x,1/2-y,-z
1/2+x,1/2-y,z
loop_
_atom_site_type_symbol
_atom_site_label
_atom_site_fract_x
_atom_site_fract_y
_atom_site_fract_z
Si Si1 0.755851 0.073233 0.823259
Si Si2 0.468372 0.073523 0.692593
Si Si3 0.190508 0.340227 0.582675
Si Si4 0.115397 0.209991 0.653521
Si Si5 0.552569 0.722172 0.257902
Si Si6 0.399295 0.845206 0.828081
Si Si7 0.500000 0.348835 0.000000
O O1 0.626858 0.081312 0.807500
O O2 0.737631 0.101762 0.690650
O O3 0.796065 0.000000 0.835824
O O4 0.880206 0.109019 0.964809
O O5 0.416024 0.126702 0.570333
O O6 0.414035 0.085859 0.777497
O O7 0.430490 0.000000 0.631873
O O8 0.133905 0.281252 0.615480
O O9 0.313824 0.310873 0.598996
O O10 0.247967 0.167800 0.755729
O O11 0.000000 0.175845 0.500000
O O12 0.068655 0.212598 0.746108
O O13 0.564800 0.797949 0.246960
O O14 0.541010 0.695722 0.127884
O O15 0.500000 0.839921 0.000000
#
# Coordination Sequence:
#
# PCOD8098319 Si02
#       7
#     8   8   8   8   8   8   4
#     4  10  20  34  56  84 115 151 197 245 292 343
#     4  11  23  39  61  83 116 159 201 247 292 347
#     4  10  20  37  59  91 116 151 196 247 297 351
#     4  11  22  37  63  91 123 157 193 247 305 358
#     4  10  21  38  60  89 121 154 192 238 305 360
#     4  11  24  39  58  90 121 158 199 244 295 357
#     4  10  21  36  56  86 119 156 192 240 294 362
#
# _framework density 20.206826
#
# number of rings (size 3 to 8) (size 9 to 14) (size 15 to 20)
#    0.000    1.538    0.769    4.846    2.154    4.615 
#    0.000    0.000    0.000    5.077    0.000    0.000 
#    0.000    0.000    0.000    0.000    0.000    0.000 
#
# Total GULP energy -322190.392062 kJ/mol
# GULP energy per Si atom -12391.938156 kJ/mol
# Density = 2.016083 g / cm^3
# Si number density = 20.206826 Si / 1000 Ang^3
#
#
#
# Elastic Constant Matrix: (Units=GPa)
#
#
# Indices 1 2 3 4 5 6 
#
# 1 135.2036 33.4867 30.9686 0.0000 1.3896 0.0000
# 2 33.4867 75.9560 22.9826 0.0000 1.2006 0.0000
# 3 30.9686 22.9826 65.1543 0.0000 16.2993 0.0000
# 4 0.0000 0.0000 0.0000 13.8553 0.0000 -1.3573
# 5 1.3896 1.2006 16.2993 0.0000 30.7784 0.0000
# 6 0.0000 0.0000 0.0000 -1.3573 0.0000 18.6255
#
#
#
# Elastic Compliance Matrix: (Units=1/GPa)
#
#
# Indices 1 2 3 4 5 6 
#
# 1 0.008921 -0.002857 -0.003642 0.000000 0.001637 0.000000
# 2 -0.002857 0.015824 -0.004728 0.000000 0.002016 0.000000
# 3 -0.003642 -0.004728 0.021509 0.000000 -0.011042 0.000000
# 4 0.000000 0.000000 0.000000 0.072694 0.000000 0.005297
# 5 0.001637 0.002016 -0.011042 0.000000 0.038185 0.000000
# 6 0.000000 0.000000 0.000000 0.005297 0.000000 0.054076
#
#
# Mechanical properties :
#
#
# Convention : Reuss Voigt Hill
#
# Bulk Modulus (GPa) = 42.01654 50.13217 46.07436
# Shear Modulus (GPa) = 20.69563 25.24356 22.96959
#
# Velocity S-wave (km/s) = 3.20377 3.53832 3.37519
# Velocity P-wave (km/s) = 5.87570 6.44642 6.16767
#
# Compressibility (1/GPa) = 0.02380015
#
# Stress axis : x y z
#
# Youngs Moduli (GPa) = 112.09139 63.19604 46.49119
#
# Poissons Ratio (x) = 0.18055 0.16933
# Poissons Ratio (y) = 0.32024 0.21981
# Poissons Ratio (z) = 0.40827 0.29879
#
# Static dielectric constant tensor:
#      x y z
#    x 3.804370 0.000000 0.305610 
#    y 0.000000 3.729730 0.000000 
#    z 0.305610 0.000000 3.746750 
# 
# 
# High freq. dielectric constant tensor:
#      x y z
#    x 1.795360 0.000000 0.011000 
#    y 0.000000 1.779140 0.000000 
#    z 0.011000 0.000000 1.789600 
# 
# From -- ./inp_files/134043.got.cif
#   From: 2010.06.25/outbox.cif.g09.slc.cpg/sg12_68_cif.got.tgz:134043.got - 2010.06.28 00:19:55.
