data_PCOD8098531
_publ_section_title
;
Structure prediction by ZEFSAII (Michael W. Deem and Ramdas Pophale) SiO2 
 PCOD8098531
Probable space group: C 2/M
;
_chemical_formula_sum "Si O2"
_cell_formula_units_Z 64
_cell_length_a 27.640977
_cell_length_b 13.167899
_cell_length_c 9.344690
_cell_angle_alpha 90.000000
_cell_angle_beta 110.580116
_cell_angle_gamma 90.000000
_cell_volume 3184.159897
_symmetry_space_group_name_H-M "C 2/M"
_symmetry_group_IT_number 12
_symmetry_cell_setting 'monoclinic'
loop_
_space_group_symop_operation_xyz
x,y,z
-x,y,-z
-x,-y,-z
x,-y,z
1/2+x,1/2+y,z
1/2-x,1/2+y,-z
1/2-x,1/2-y,-z
1/2+x,1/2-y,z
loop_
_atom_site_type_symbol
_atom_site_label
_atom_site_fract_x
_atom_site_fract_y
_atom_site_fract_z
Si Si1 0.759882 0.880720 0.907478
Si Si2 0.896328 0.262501 0.636897
Si Si3 0.338080 0.884593 0.357592
Si Si4 0.497234 0.880285 0.827952
Si Si5 0.335034 0.246178 0.849658
Si Si6 0.599595 0.791440 0.813046
Si Si7 0.259780 0.617852 0.228768
Si Si8 0.378676 0.618530 0.378542
O O1 0.713145 0.834161 0.764867
O O2 0.813433 0.852545 0.886938
O O3 0.755107 0.000000 0.911988
O O4 0.757711 0.837098 0.065515
O O5 0.851213 0.327689 0.516617
O O6 0.874791 0.225394 0.766232
O O7 0.908915 0.165531 0.547516
O O8 0.944870 0.335389 0.709251
O O9 0.383923 0.872958 0.289767
O O10 0.328079 0.000000 0.386830
O O11 0.541280 0.816256 0.794784
O O12 0.500951 0.000000 0.796417
O O13 0.500000 0.861650 0.000000
O O14 0.287150 0.176990 0.741301
O O15 0.365548 0.191314 0.010087
O O16 0.604664 0.678039 0.749121
O O17 0.245658 0.500000 0.221740
O O18 0.317618 0.634812 0.349021
O O19 0.392495 0.500000 0.372839
#
# Coordination Sequence:
#
# PCOD8098531 Si02
#       8
#     8   8   8   8   8   8   8   8
#     4  10  20  34  57  88 120 157 202 248 291 349
#     4  11  25  41  59  88 126 162 197 249 311 362
#     4  10  21  37  57  89 126 158 197 246 300 363
#     4  11  24  43  66  93 123 153 194 248 306 367
#     4  12  21  35  60  89 122 159 202 247 298 352
#     4  11  21  38  66  91 114 158 210 250 297 355
#     4  10  20  34  58  91 123 160 205 245 290 356
#     4  10  23  43  64  89 124 162 203 253 303 354
#
# _framework density 20.099492999999999
#
# number of rings (size 3 to 8) (size 9 to 14) (size 15 to 20)
#    0.000    1.375    3.750    2.625    0.000    6.000 
#    0.000    6.875    0.000    0.750    0.000    0.000 
#    0.000    0.000    0.000    0.000    0.000    0.000 
#
# Total GULP energy -396718.751560 kJ/mol
# GULP energy per Si atom -12397.460986 kJ/mol
# Density = 2.005375 g / cm^3
# Si number density = 20.099493 Si / 1000 Ang^3
#
#
#
# Elastic Constant Matrix: (Units=GPa)
#
#
# Indices 1 2 3 4 5 6 
#
# 1 95.5929 24.2540 24.4530 0.0000 -5.2366 0.0000
# 2 24.2540 85.1627 25.6274 0.0000 5.1383 0.0000
# 3 24.4530 25.6274 83.0051 0.0000 4.4110 0.0000
# 4 0.0000 0.0000 0.0000 26.2514 0.0000 4.6964
# 5 -5.2366 5.1383 4.4110 0.0000 30.5462 0.0000
# 6 0.0000 0.0000 0.0000 4.6964 0.0000 25.9678
#
#
#
# Elastic Compliance Matrix: (Units=1/GPa)
#
#
# Indices 1 2 3 4 5 6 
#
# 1 0.012051 -0.002750 -0.002857 0.000000 0.002941 0.000000
# 2 -0.002750 0.013652 -0.003283 0.000000 -0.002294 0.000000
# 3 -0.002857 -0.003283 0.014007 0.000000 -0.001960 0.000000
# 4 0.000000 0.000000 0.000000 0.039367 0.000000 -0.007120
# 5 0.002941 -0.002294 -0.001960 0.000000 0.033910 0.000000
# 6 0.000000 0.000000 0.000000 -0.007120 0.000000 0.039797
#
#
# Mechanical properties :
#
#
# Convention : Reuss Voigt Hill
#
# Bulk Modulus (GPa) = 45.60100 45.82551 45.71326
# Shear Modulus (GPa) = 28.10988 29.18148 28.64568
#
# Velocity S-wave (km/s) = 3.74376 3.81445 3.77927
# Velocity P-wave (km/s) = 6.43619 6.49991 6.46813
#
# Compressibility (1/GPa) = 0.02192934
#
# Stress axis : x y z
#
# Youngs Moduli (GPa) = 82.98258 73.25144 71.39271
#
# Poissons Ratio (x) = 0.20141 0.20400
# Poissons Ratio (y) = 0.22817 0.23438
# Poissons Ratio (z) = 0.23712 0.24048
#
# Static dielectric constant tensor:
#      x y z
#    x 3.487490 0.000000 0.106220 
#    y 0.000000 3.617740 0.000000 
#    z 0.106220 0.000000 3.739590 
# 
# 
# High freq. dielectric constant tensor:
#      x y z
#    x 1.768750 0.000000 0.005410 
#    y 0.000000 1.789210 0.000000 
#    z 0.005410 0.000000 1.784790 
# 
# From -- ./inp_files/104686.got.cif
#   From: 2010.06.25/outbox.cif.g09.slc.cpg/sg12_53_cif.got.tgz:104686.got - 2010.06.28 00:19:55.
