data_PCOD8098084
_publ_section_title
;
Structure prediction by ZEFSAII (Michael W. Deem and Ramdas Pophale) SiO2 
 PCOD8098084
Probable space group: C 2/M
;
_chemical_formula_sum "Si O2"
_cell_formula_units_Z 56
_cell_length_a 28.933568
_cell_length_b 9.045105
_cell_length_c 19.984452
_cell_angle_alpha 90.000000
_cell_angle_beta 32.805004
_cell_angle_gamma 90.000000
_cell_volume 2833.558068
_symmetry_space_group_name_H-M "C 2/M"
_symmetry_group_IT_number 12
_symmetry_cell_setting 'monoclinic'
loop_
_space_group_symop_operation_xyz
x,y,z
-x,y,-z
-x,-y,-z
x,-y,z
1/2+x,1/2+y,z
1/2-x,1/2+y,-z
1/2-x,1/2-y,-z
1/2+x,1/2-y,z
loop_
_atom_site_type_symbol
_atom_site_label
_atom_site_fract_x
_atom_site_fract_y
_atom_site_fract_z
Si Si1 0.986022 0.328145 0.311917
Si Si2 0.047897 0.827439 0.782931
Si Si3 0.147033 0.172759 0.441100
Si Si4 0.628398 0.329740 0.936014
Si Si5 0.811238 0.170489 0.283348
Si Si6 0.327688 0.827240 0.868288
Si Si7 0.208188 0.827047 0.219849
O O1 0.965062 0.500000 0.340987
O O2 0.949099 0.264607 0.288327
O O3 0.939829 0.250259 0.430502
O O4 0.086798 0.297173 0.193656
O O5 0.131151 0.783631 0.723912
O O6 0.047287 0.000000 0.765740
O O7 0.965636 0.784523 0.926650
O O8 0.226308 0.231642 0.388212
O O9 0.160119 0.210411 0.347228
O O10 0.139289 0.000000 0.463274
O O11 0.649151 0.500000 0.927642
O O12 0.634174 0.299567 0.849959
O O13 0.694435 0.227991 0.895899
O O14 0.783632 0.000000 0.320886
O O15 0.341104 0.758268 0.778631
O O16 0.308064 0.000000 0.885514
O O17 0.250000 0.750000 0.000000
O O18 0.208659 0.000000 0.203316
#
# Coordination Sequence:
#
# PCOD8098084 Si02
#       7
#     8   8   8   8   8   8   8
#     4  11  25  41  57  80 111 147 188 233 277 328
#     4  10  20  34  55  83 114 150 189 230 279 331
#     4  10  22  40  60  83 111 146 189 232 277 330
#     4   9  17  32  56  85 116 149 186 228 276 332
#     4   9  18  34  57  84 114 148 187 231 277 329
#     4  11  24  41  62  88 116 147 183 224 275 333
#     4  10  21  37  59  86 115 147 184 229 280 332
#
# _framework density 19.763138000000001
#
# number of rings (size 3 to 8) (size 9 to 14) (size 15 to 20)
#    0.000    2.000    0.000    3.000    0.000   10.286 
#    0.000    2.857    0.000    4.286    0.000    0.000 
#    0.000    0.000    0.000    0.000    0.000    0.000 
#
# Total GULP energy -347346.648893 kJ/mol
# GULP energy per Si atom -12405.237460 kJ/mol
# Density = 1.971816 g / cm^3
# Si number density = 19.763138 Si / 1000 Ang^3
#
#
#
# Elastic Constant Matrix: (Units=GPa)
#
#
# Indices 1 2 3 4 5 6 
#
# 1 111.4994 51.6604 29.8335 0.0014 8.6614 0.0002
# 2 51.6604 96.9960 52.1090 0.0087 3.9099 -0.0028
# 3 29.8335 52.1090 103.4862 0.0039 3.2069 -0.0026
# 4 0.0014 0.0087 0.0039 32.7219 -0.0009 0.7799
# 5 8.6614 3.9099 3.2069 -0.0009 16.8440 -0.0001
# 6 0.0002 -0.0028 -0.0026 0.7799 -0.0001 35.2773
#
#
#
# Elastic Compliance Matrix: (Units=1/GPa)
#
#
# Indices 1 2 3 4 5 6 
#
# 1 0.012292 -0.006208 -0.000268 0.000001 -0.004829 -0.000001
# 2 -0.006208 0.017331 -0.006953 -0.000004 0.000493 0.000001
# 3 -0.000268 -0.006953 0.013265 0.000000 -0.000774 0.000000
# 4 0.000001 -0.000004 0.000000 0.030577 0.000002 -0.000676
# 5 -0.004829 0.000493 -0.000774 0.000002 0.061884 0.000000
# 6 -0.000001 0.000001 0.000000 -0.000676 0.000000 0.028362
#
#
# Mechanical properties :
#
#
# Convention : Reuss Voigt Hill
#
# Bulk Modulus (GPa) = 62.37802 64.35415 63.36608
# Shear Modulus (GPa) = 25.52170 28.86057 27.19113
#
# Velocity S-wave (km/s) = 3.59747 3.82556 3.71327
# Velocity P-wave (km/s) = 6.99193 7.22126 7.10752
#
# Compressibility (1/GPa) = 0.01603129
#
# Stress axis : x y z
#
# Youngs Moduli (GPa) = 81.35522 57.69880 75.38516
#
# Poissons Ratio (x) = 0.35820 0.02020
# Poissons Ratio (y) = 0.50506 0.52412
# Poissons Ratio (z) = 0.02180 0.40115
#
# Static dielectric constant tensor:
#      x y z
#    x 3.669360 -0.000010 0.049640 
#    y -0.000010 3.601480 0.000020 
#    z 0.049640 0.000020 3.574330 
# 
# 
# High freq. dielectric constant tensor:
#      x y z
#    x 1.773780 0.000000 0.003040 
#    y 0.000000 1.772480 0.000000 
#    z 0.003040 0.000000 1.771820 
# 
# From -- ./inp_files/329447.got.cif
#   From: 2010.06.25/outbox.cif.g09.slc.cpg/sg12_165_cif.got.tgz:329447.got - 2010.06.28 00:19:55.
