data_PCOD8098821
_publ_section_title
;
Structure prediction by ZEFSAII (Michael W. Deem and Ramdas Pophale) SiO2 
 PCOD8098821
Probable space group: C 2/M
;
_chemical_formula_sum "Si O2"
_cell_formula_units_Z 56
_cell_length_a 29.399999
_cell_length_b 8.994092
_cell_length_c 11.515832
_cell_angle_alpha 90.000000
_cell_angle_beta 70.069873
_cell_angle_gamma 90.000000
_cell_volume 2862.715447
_symmetry_space_group_name_H-M "C 2/M"
_symmetry_group_IT_number 12
_symmetry_cell_setting 'monoclinic'
loop_
_space_group_symop_operation_xyz
x,y,z
-x,y,-z
-x,-y,-z
x,-y,z
1/2+x,1/2+y,z
1/2-x,1/2+y,-z
1/2-x,1/2-y,-z
1/2+x,1/2-y,z
loop_
_atom_site_type_symbol
_atom_site_label
_atom_site_fract_x
_atom_site_fract_y
_atom_site_fract_z
Si Si1 0.216086 0.173804 0.369127
Si Si2 0.949917 0.169352 0.488351
Si Si3 0.918496 0.669553 0.876262
Si Si4 0.688118 0.326030 0.653336
Si Si5 0.365700 0.826959 0.690320
Si Si6 0.099397 0.671256 0.848258
Si Si7 0.981740 0.169189 0.203860
O O1 0.268843 0.246339 0.314994
O O2 0.191235 0.210680 0.514082
O O3 0.183424 0.239805 0.295066
O O4 0.222239 0.000000 0.343982
O O5 0.907919 0.276437 0.567412
O O6 0.951796 0.180606 0.348605
O O7 0.000000 0.225254 0.500000
O O8 0.939031 0.000000 0.537580
O O9 0.936732 0.500000 0.846528
O O10 0.879796 0.709756 0.810644
O O11 0.964023 0.776527 0.822830
O O12 0.891872 0.692170 0.022242
O O13 0.691937 0.500000 0.673490
O O14 0.637431 0.267685 0.744089
O O15 0.356388 0.000000 0.678201
O O16 0.103796 0.500000 0.807013
O O17 0.045394 0.730258 0.867733
O O18 0.983530 0.000000 0.157706
#
# Coordination Sequence:
#
# PCOD8098821 Si02
#       7
#     8   8   8   8   8   8   8
#     4  10  21  38  62  89 117 146 177 223 285 339
#     4  10  20  35  53  78 113 148 181 226 281 332
#     4  10  23  40  55  77 113 154 192 233 277 328
#     4  10  21  39  62  89 116 142 182 231 276 330
#     4  11  22  36  57  84 114 149 191 232 276 332
#     4  11  23  39  58  80 112 151 190 232 282 332
#     4  11  22  36  57  83 111 147 192 237 281 332
#
# _framework density 19.561847
#
# number of rings (size 3 to 8) (size 9 to 14) (size 15 to 20)
#    0.000    1.571    1.429    3.429    0.000   10.000 
#    0.000    0.714    0.000    0.000    0.000    0.000 
#    0.000    0.000    0.000    0.000    0.000    0.000 
#
# Total GULP energy -347379.085345 kJ/mol
# GULP energy per Si atom -12406.395905 kJ/mol
# Density = 1.951732 g / cm^3
# Si number density = 19.561847 Si / 1000 Ang^3
#
#
#
# Elastic Constant Matrix: (Units=GPa)
#
#
# Indices 1 2 3 4 5 6 
#
# 1 120.2603 54.6991 24.6830 0.0000 17.2462 0.0000
# 2 54.6991 97.8352 31.9789 0.0000 7.4194 0.0000
# 3 24.6830 31.9789 54.0603 0.0000 11.3081 0.0000
# 4 0.0000 0.0000 0.0000 23.0151 0.0000 -0.0025
# 5 17.2462 7.4194 11.3081 0.0000 26.6408 0.0000
# 6 0.0000 0.0000 0.0000 -0.0025 0.0000 40.6691
#
#
#
# Elastic Compliance Matrix: (Units=1/GPa)
#
#
# Indices 1 2 3 4 5 6 
#
# 1 0.012053 -0.006070 -0.000696 0.000000 -0.005817 0.000000
# 2 -0.006070 0.015732 -0.007068 0.000000 0.002548 0.000000
# 3 -0.000696 -0.007068 0.024682 0.000000 -0.008058 0.000000
# 4 0.000000 0.000000 0.000000 0.043450 0.000000 0.000003
# 5 -0.005817 0.002548 -0.008058 0.000000 0.044013 0.000000
# 6 0.000000 0.000000 0.000000 0.000003 0.000000 0.024589
#
#
# Mechanical properties :
#
#
# Convention : Reuss Voigt Hill
#
# Bulk Modulus (GPa) = 40.32277 54.98642 47.65460
# Shear Modulus (GPa) = 24.94358 28.78466 26.86412
#
# Velocity S-wave (km/s) = 3.57475 3.84014 3.70982
# Velocity P-wave (km/s) = 6.13972 6.91608 6.53943
#
# Compressibility (1/GPa) = 0.02479988
#
# Stress axis : x y z
#
# Youngs Moduli (GPa) = 82.96450 63.56423 40.51567
#
# Poissons Ratio (x) = 0.38586 0.02818
# Poissons Ratio (y) = 0.50363 0.28635
# Poissons Ratio (z) = 0.05771 0.44925
#
# Static dielectric constant tensor:
#      x y z
#    x 3.626930 0.000000 0.193010 
#    y 0.000000 3.642840 0.000000 
#    z 0.193010 0.000000 3.467010 
# 
# 
# High freq. dielectric constant tensor:
#      x y z
#    x 1.765420 0.000000 0.010840 
#    y 0.000000 1.772730 0.000000 
#    z 0.010840 0.000000 1.750220 
# 
# From -- ./inp_files/180734.got.cif
#   From: 2010.06.25/outbox.cif.g09.slc.cpg/sg12_91_cif.got.tgz:180734.got - 2010.06.28 00:19:55.
