data_PCOD8098554
_publ_section_title
;
Structure prediction by ZEFSAII (Michael W. Deem and Ramdas Pophale) SiO2 
 PCOD8098554
Probable space group: C 2/M
;
_chemical_formula_sum "Si O2"
_cell_formula_units_Z 64
_cell_length_a 15.316806
_cell_length_b 8.682946
_cell_length_c 30.503938
_cell_angle_alpha 90.000000
_cell_angle_beta 129.190163
_cell_angle_gamma 90.000000
_cell_volume 3144.290162
_symmetry_space_group_name_H-M "C 2/M"
_symmetry_group_IT_number 12
_symmetry_cell_setting 'monoclinic'
loop_
_space_group_symop_operation_xyz
x,y,z
-x,y,-z
-x,-y,-z
x,-y,z
1/2+x,1/2+y,z
1/2-x,1/2+y,-z
1/2-x,1/2-y,-z
1/2+x,1/2-y,z
loop_
_atom_site_type_symbol
_atom_site_label
_atom_site_fract_x
_atom_site_fract_y
_atom_site_fract_z
Si Si1 0.139327 0.323092 0.444761
Si Si2 0.753786 0.821008 0.672702
Si Si3 0.738272 0.318517 0.064119
Si Si4 0.423791 0.817907 0.055002
Si Si5 0.671118 0.679866 0.734771
Si Si6 0.320924 0.180863 0.864776
Si Si7 0.947524 0.180602 0.437305
Si Si8 0.068320 0.325199 0.326260
O O1 0.126910 0.500000 0.456381
O O2 0.250000 0.250000 0.500000
O O3 0.144424 0.312929 0.394015
O O4 0.033331 0.222617 0.426056
O O5 0.731366 0.721909 0.708690
O O6 0.666847 0.773939 0.606847
O O7 0.878361 0.782381 0.694408
O O8 0.743283 0.000000 0.680655
O O9 0.729324 0.500000 0.061364
O O10 0.850997 0.263642 0.074133
O O11 0.743616 0.258873 0.115299
O O12 0.627627 0.251903 0.005568
O O13 0.551381 0.757288 0.100123
O O14 0.420321 0.000000 0.049344
O O15 0.642187 0.500000 0.725934
O O16 0.755219 0.726692 0.800191
O O17 0.557893 0.775423 0.703931
O O18 0.320887 0.000000 0.873014
O O19 0.000000 0.232958 0.500000
O O20 0.920502 0.000000 0.428028
O O21 0.067289 0.500000 0.308771
#
# Coordination Sequence:
#
# PCOD8098554 Si02
#       8
#     8   8   8   8   8   8   8   8
#     4  11  23  38  60  90 123 158 199 248 306 371
#     4  12  25  42  65  92 122 161 205 252 311 372
#     4  10  20  34  57  90 123 159 204 253 303 355
#     4   9  19  37  58  83 122 165 201 245 304 364
#     4  11  24  43  65  90 122 163 211 263 313 370
#     4  10  22  39  60  86 118 160 206 248 304 368
#     4  11  23  39  61  90 124 159 199 249 306 369
#     4  11  24  43  65  90 121 160 204 251 310 373
#
# _framework density 20.354355000000002
#
# number of rings (size 3 to 8) (size 9 to 14) (size 15 to 20)
#    0.000    1.375    1.250    4.125    0.000   10.000 
#    0.000    1.250    0.000    0.000    0.000    0.000 
#    0.000    0.000    0.000    0.000    0.000    0.000 
#
# Total GULP energy -396977.901337 kJ/mol
# GULP energy per Si atom -12405.559417 kJ/mol
# Density = 2.030803 g / cm^3
# Si number density = 20.354355 Si / 1000 Ang^3
#
#
#
# Elastic Constant Matrix: (Units=GPa)
#
#
# Indices 1 2 3 4 5 6 
#
# 1 101.4850 14.3595 33.5675 0.0000 -6.2166 0.0000
# 2 14.3595 52.0608 28.0281 0.0000 -0.7857 0.0000
# 3 33.5675 28.0281 100.2980 0.0000 -6.3915 0.0000
# 4 0.0000 0.0000 0.0000 27.2443 0.0000 -3.3012
# 5 -6.2166 -0.7857 -6.3915 0.0000 25.5527 0.0000
# 6 0.0000 0.0000 0.0000 -3.3012 0.0000 35.2226
#
#
#
# Elastic Compliance Matrix: (Units=1/GPa)
#
#
# Indices 1 2 3 4 5 6 
#
# 1 0.011237 -0.001307 -0.003276 0.000000 0.001874 0.000000
# 2 -0.001307 0.022782 -0.006000 0.000000 -0.001118 0.000000
# 3 -0.003276 -0.006000 0.012886 0.000000 0.002242 0.000000
# 4 0.000000 0.000000 0.000000 0.037127 0.000000 0.003480
# 5 0.001874 -0.001118 0.002242 0.000000 0.040117 0.000000
# 6 0.000000 0.000000 0.000000 0.003480 0.000000 0.028717
#
#
# Mechanical properties :
#
#
# Convention : Reuss Voigt Hill
#
# Bulk Modulus (GPa) = 38.85233 45.08376 41.96804
# Shear Modulus (GPa) = 27.38029 29.46317 28.42173
#
# Velocity S-wave (km/s) = 3.67165 3.80875 3.74083
# Velocity P-wave (km/s) = 6.09131 6.44512 6.27071
#
# Compressibility (1/GPa) = 0.02573848
#
# Stress axis : x y z
#
# Youngs Moduli (GPa) = 88.99135 43.89357 77.60179
#
# Poissons Ratio (x) = 0.05739 0.25422
# Poissons Ratio (y) = 0.11635 0.46563
# Poissons Ratio (z) = 0.29154 0.26337
#
# Static dielectric constant tensor:
#      x y z
#    x 3.818250 0.000000 -0.159360 
#    y 0.000000 3.726340 0.000000 
#    z -0.159360 0.000000 3.597800 
# 
# 
# High freq. dielectric constant tensor:
#      x y z
#    x 1.807450 0.000000 -0.000750 
#    y 0.000000 1.798340 0.000000 
#    z -0.000750 0.000000 1.790980 
# 
# From -- ./inp_files/375600.got.cif
#   From: 2010.06.25/outbox.cif.g09.slc.cpg/sg12_188_cif.got.tgz:375600.got - 2010.06.28 00:19:55.
