data_PCOD8098946
_publ_section_title
;
Structure prediction by ZEFSAII (Michael W. Deem and Ramdas Pophale) SiO2 
 PCOD8098946
Probable space group: C 2/M
;
_chemical_formula_sum "Si O2"
_cell_formula_units_Z 64
_cell_length_a 23.103182
_cell_length_b 8.694304
_cell_length_c 16.598146
_cell_angle_alpha 90.000000
_cell_angle_beta 93.922592
_cell_angle_gamma 90.000000
_cell_volume 3326.194352
_symmetry_space_group_name_H-M "C 2/M"
_symmetry_group_IT_number 12
_symmetry_cell_setting 'monoclinic'
loop_
_space_group_symop_operation_xyz
x,y,z
-x,y,-z
-x,-y,-z
x,-y,z
1/2+x,1/2+y,z
1/2-x,1/2+y,-z
1/2-x,1/2-y,-z
1/2+x,1/2-y,z
loop_
_atom_site_type_symbol
_atom_site_label
_atom_site_fract_x
_atom_site_fract_y
_atom_site_fract_z
Si Si1 0.355850 0.323631 0.335460
Si Si2 0.662469 0.184163 0.275396
Si Si3 0.084296 0.320398 0.808990
Si Si4 0.782875 0.681082 0.883557
Si Si5 0.966593 0.678415 0.732579
Si Si6 0.520585 0.324933 0.588989
Si Si7 0.752943 0.818552 0.589584
Si Si8 0.827508 0.321704 0.054834
O O1 0.334597 0.500000 0.327836
O O2 0.374138 0.268965 0.248563
O O3 0.410196 0.305632 0.400527
O O4 0.304158 0.221833 0.365102
O O5 0.695279 0.248531 0.199217
O O6 0.596870 0.251052 0.260168
O O7 0.691084 0.252676 0.358497
O O8 0.663984 0.000000 0.282030
O O9 0.086053 0.500000 0.785520
O O10 0.108464 0.292795 0.901863
O O11 0.017605 0.258567 0.797501
O O12 0.785089 0.500000 0.877249
O O13 0.717638 0.733569 0.892807
O O14 0.824051 0.737126 0.962054
O O15 0.959254 0.500000 0.746984
O O16 0.987819 0.709817 0.644677
O O17 0.500000 0.274648 0.500000
O O18 0.502790 0.500000 0.608276
O O19 0.750000 0.750000 0.500000
O O20 0.759246 0.000000 0.582682
O O21 0.810349 0.500000 0.056654
#
# Coordination Sequence:
#
# PCOD8098946 Si02
#       8
#     8   8   8   8   8   8   8   8
#     4  10  20  35  54  78 107 136 172 216 264 316
#     4  10  21  38  56  77 109 144 179 218 268 323
#     4   9  17  32  53  78 108 141 179 221 265 311
#     4   9  18  32  51  77 108 142 177 219 268 315
#     4   9  19  34  52  76 104 139 178 219 264 315
#     4   9  19  34  53  76 101 131 170 217 264 311
#     4  12  26  41  57  78 105 138 176 218 266 318
#     4   9  17  30  51  78 107 138 179 224 265 313
#
# _framework density 19.241208
#
# number of rings (size 3 to 8) (size 9 to 14) (size 15 to 20)
#    0.000    2.375    0.000    2.250    1.750    4.250 
#    0.000    0.625    0.000    3.750    0.000    0.000 
#    0.000    9.000    0.000    0.000    0.000    0.000 
#
# Total GULP energy -396668.634579 kJ/mol
# GULP energy per Si atom -12395.894831 kJ/mol
# Density = 1.919741 g / cm^3
# Si number density = 19.241208 Si / 1000 Ang^3
#
#
#
# Elastic Constant Matrix: (Units=GPa)
#
#
# Indices 1 2 3 4 5 6 
#
# 1 116.2386 25.3076 63.4699 0.0000 14.0102 0.0000
# 2 25.3076 44.1165 24.9632 0.0000 4.1702 0.0000
# 3 63.4699 24.9632 115.0580 0.0000 27.3400 0.0000
# 4 0.0000 0.0000 0.0000 23.4381 0.0000 0.8582
# 5 14.0102 4.1702 27.3400 0.0000 31.9541 0.0000
# 6 0.0000 0.0000 0.0000 0.8582 0.0000 23.0115
#
#
#
# Elastic Compliance Matrix: (Units=1/GPa)
#
#
# Indices 1 2 3 4 5 6 
#
# 1 0.012858 -0.003820 -0.006330 0.000000 0.000277 0.000000
# 2 -0.003820 0.027056 -0.004169 0.000000 0.001711 0.000000
# 3 -0.006330 -0.004169 0.015437 0.000000 -0.009889 0.000000
# 4 0.000000 0.000000 0.000000 0.042724 0.000000 -0.001593
# 5 0.000277 0.001711 -0.009889 0.000000 0.039411 0.000000
# 6 0.000000 0.000000 0.000000 -0.001593 0.000000 0.043516
#
#
# Mechanical properties :
#
#
# Convention : Reuss Voigt Hill
#
# Bulk Modulus (GPa) = 37.43575 55.87717 46.65646
# Shear Modulus (GPa) = 22.87861 26.45892 24.66877
#
# Velocity S-wave (km/s) = 3.45199 3.71228 3.58450
# Velocity P-wave (km/s) = 5.94866 6.89044 6.43680
#
# Compressibility (1/GPa) = 0.02671243
#
# Stress axis : x y z
#
# Youngs Moduli (GPa) = 77.77539 36.95997 64.77841
#
# Poissons Ratio (x) = 0.14120 0.41002
# Poissons Ratio (y) = 0.29713 0.27009
# Poissons Ratio (z) = 0.49228 0.15410
#
# Static dielectric constant tensor:
#      x y z
#    x 3.752110 0.000000 0.226200 
#    y 0.000000 3.413400 0.000000 
#    z 0.226200 0.000000 3.652770 
# 
# 
# High freq. dielectric constant tensor:
#      x y z
#    x 1.750000 0.000000 0.022480 
#    y 0.000000 1.735320 0.000000 
#    z 0.022480 0.000000 1.746540 
# 
# From -- ./inp_files/281278.got.cif
#   From: 2010.06.25/outbox.cif.g09.slc.cpg/sg12_141_cif.got.tgz:281278.got - 2010.06.28 00:19:55.
