data_PCOD8098819
_publ_section_title
;
Structure prediction by ZEFSAII (Michael W. Deem and Ramdas Pophale) SiO2 
 PCOD8098819
Probable space group: C 2/M
;
_chemical_formula_sum "Si O2"
_cell_formula_units_Z 64
_cell_length_a 23.833035
_cell_length_b 8.897498
_cell_length_c 31.005865
_cell_angle_alpha 90.000000
_cell_angle_beta 149.783768
_cell_angle_gamma 90.000000
_cell_volume 3308.930438
_symmetry_space_group_name_H-M "C 2/M"
_symmetry_group_IT_number 12
_symmetry_cell_setting 'monoclinic'
loop_
_space_group_symop_operation_xyz
x,y,z
-x,y,-z
-x,-y,-z
x,-y,z
1/2+x,1/2+y,z
1/2-x,1/2+y,-z
1/2-x,1/2-y,-z
1/2+x,1/2-y,z
loop_
_atom_site_type_symbol
_atom_site_label
_atom_site_fract_x
_atom_site_fract_y
_atom_site_fract_z
Si Si1 0.812745 0.326297 0.105941
Si Si2 0.578063 0.325885 0.740486
Si Si3 0.895873 0.327292 0.067077
Si Si4 0.149052 0.324534 0.232740
Si Si5 0.164112 0.172052 0.707913
Si Si6 0.221447 0.825447 0.368345
Si Si7 0.651245 0.821781 0.406798
Si Si8 0.977347 0.673699 0.531764
O O1 0.816783 0.500000 0.121875
O O2 0.868152 0.229187 0.179788
O O3 0.882323 0.293844 0.108830
O O4 0.684717 0.277580 0.014470
O O5 0.545393 0.500000 0.723583
O O6 0.669097 0.301789 0.762760
O O7 0.467498 0.233489 0.654334
O O8 0.865277 0.500000 0.036970
O O9 0.021327 0.287975 0.136551
O O10 0.162954 0.500000 0.253545
O O11 0.221716 0.274919 0.239347
O O12 0.188741 0.226430 0.299139
O O13 0.056502 0.257044 0.619715
O O14 0.143994 0.000000 0.683102
O O15 0.156094 0.727975 0.360115
O O16 0.351604 0.797613 0.462894
O O17 0.190168 0.000000 0.352916
O O18 0.750000 0.750000 0.500000
O O19 0.659192 0.000000 0.416038
O O20 0.007272 0.500000 0.548765
O O21 0.000000 0.748292 0.500000
#
# Coordination Sequence:
#
# PCOD8098819 Si02
#       8
#     8   8   8   8   8   8   8   8
#     4  10  20  36  60  89 115 146 187 232 286 345
#     4  11  23  40  60  84 116 155 196 235 284 344
#     4   9  19  36  59  85 114 144 180 232 289 346
#     4  10  20  36  57  84 115 148 189 237 288 338
#     4  10  22  37  56  82 112 151 196 239 283 337
#     4  11  22  36  57  84 114 150 191 236 289 343
#     4  12  25  41  59  83 115 151 192 239 288 338
#     4  10  20  35  53  78 112 150 190 234 282 334
#
# _framework density 19.341597
#
# number of rings (size 3 to 8) (size 9 to 14) (size 15 to 20)
#    0.000    1.625    1.250    3.750    0.000    6.250 
#    0.000    0.625    0.000    3.750    0.000    0.000 
#    0.000    0.000    0.000    0.000    0.000    0.000 
#
# Total GULP energy -396907.573653 kJ/mol
# GULP energy per Si atom -12403.361677 kJ/mol
# Density = 1.929757 g / cm^3
# Si number density = 19.341597 Si / 1000 Ang^3
#
#
#
# Elastic Constant Matrix: (Units=GPa)
#
#
# Indices 1 2 3 4 5 6 
#
# 1 110.0446 43.0815 47.0283 0.0007 10.9887 0.0003
# 2 43.0815 85.1638 39.1914 0.0011 8.1992 0.0003
# 3 47.0283 39.1914 95.3098 0.0015 7.5512 0.0002
# 4 0.0007 0.0011 0.0015 34.5886 -0.0003 -3.3298
# 5 10.9887 8.1992 7.5512 -0.0003 24.5048 0.0001
# 6 0.0003 0.0003 0.0002 -3.3298 0.0001 25.9286
#
#
#
# Elastic Compliance Matrix: (Units=1/GPa)
#
#
# Indices 1 2 3 4 5 6 
#
# 1 0.012923 -0.004220 -0.004401 0.000000 -0.003027 0.000000
# 2 -0.004220 0.016092 -0.004365 0.000000 -0.002147 0.000000
# 3 -0.004401 -0.004365 0.014541 0.000000 -0.001047 0.000000
# 4 0.000000 0.000000 0.000000 0.029273 0.000001 0.003759
# 5 -0.003027 -0.002147 -0.001047 0.000001 0.043207 0.000000
# 6 0.000000 0.000000 0.000000 0.003759 0.000000 0.039050
#
#
# Mechanical properties :
#
#
# Convention : Reuss Voigt Hill
#
# Bulk Modulus (GPa) = 56.86974 61.01337 58.94155
# Shear Modulus (GPa) = 26.74949 27.75221 27.25085
#
# Velocity S-wave (km/s) = 3.72291 3.79205 3.75764
# Velocity P-wave (km/s) = 6.92436 7.12646 7.02614
#
# Compressibility (1/GPa) = 0.01758404
#
# Stress axis : x y z
#
# Youngs Moduli (GPa) = 77.38434 62.14174 68.76919
#
# Poissons Ratio (x) = 0.26226 0.30266
# Poissons Ratio (y) = 0.32659 0.30015
# Poissons Ratio (z) = 0.34058 0.27122
#
# Static dielectric constant tensor:
#      x y z
#    x 3.744300 0.000000 0.142890 
#    y 0.000000 3.576370 0.000000 
#    z 0.142890 0.000000 3.427000 
# 
# 
# High freq. dielectric constant tensor:
#      x y z
#    x 1.759710 0.000000 0.005030 
#    y 0.000000 1.755070 0.000000 
#    z 0.005030 0.000000 1.745280 
# 
# From -- ./inp_files/382482.got.cif
#   From: 2010.06.25/outbox.cif.g09.slc.cpg/sg12_192_cif.got.tgz:382482.got - 2010.06.28 00:19:55.
