data_PCOD8098440
_publ_section_title
;
Structure prediction by ZEFSAII (Michael W. Deem and Ramdas Pophale) SiO2 
 PCOD8098440
Probable space group: C 2/M
;
_chemical_formula_sum "Si O2"
_cell_formula_units_Z 64
_cell_length_a 30.802678
_cell_length_b 8.785447
_cell_length_c 11.226462
_cell_angle_alpha 90.000000
_cell_angle_beta 85.958706
_cell_angle_gamma 90.000000
_cell_volume 3030.498259
_symmetry_space_group_name_H-M "C 2/M"
_symmetry_group_IT_number 12
_symmetry_cell_setting 'monoclinic'
loop_
_space_group_symop_operation_xyz
x,y,z
-x,y,-z
-x,-y,-z
x,-y,z
1/2+x,1/2+y,z
1/2-x,1/2+y,-z
1/2-x,1/2-y,-z
1/2+x,1/2-y,z
loop_
_atom_site_type_symbol
_atom_site_label
_atom_site_fract_x
_atom_site_fract_y
_atom_site_fract_z
Si Si1 0.632146 0.677907 0.353956
Si Si2 0.640039 0.673232 0.899329
Si Si3 0.390530 0.176481 0.866304
Si Si4 0.740131 0.322947 0.869728
Si Si5 0.773137 0.180661 0.612988
Si Si6 0.513691 0.821364 0.123170
Si Si7 0.952282 0.829962 0.514056
Si Si8 0.436913 0.666811 0.251960
O O1 0.624348 0.500000 0.361494
O O2 0.640300 0.733346 0.218264
O O3 0.675654 0.718773 0.418972
O O4 0.585976 0.755971 0.404080
O O5 0.631512 0.500000 0.944498
O O6 0.689358 0.693081 0.849955
O O7 0.608465 0.719259 0.796762
O O8 0.629547 0.795475 0.001604
O O9 0.439531 0.244522 0.848436
O O10 0.388873 0.000000 0.835859
O O11 0.754568 0.500000 0.873002
O O12 0.761235 0.245943 0.747395
O O13 0.750000 0.250000 0.000000
O O14 0.750000 0.250000 0.500000
O O15 0.764476 0.000000 0.618267
O O16 0.476743 0.781854 0.224785
O O17 0.518602 0.000000 0.108382
O O18 0.500000 0.747711 0.000000
O O19 0.928745 0.838618 0.392485
O O20 0.000000 0.746087 0.500000
O O21 0.961267 0.000000 0.563740
O O22 0.450310 0.500000 0.200504
#
# Coordination Sequence:
#
# PCOD8098440 Si02
#       8
#     8   8   8   8   8   8   8   8
#     4  10  22  40  64  89 120 158 200 251 302 357
#     4  10  22  37  58  87 117 152 196 249 305 362
#     4  11  22  36  58  86 121 160 200 245 299 364
#     4  11  24  43  67  94 128 165 210 267 326 388
#     4  11  25  44  68  97 130 171 217 266 325 386
#     4  10  20  35  51  76 119 161 192 235 298 358
#     4   9  18  34  58  87 116 148 190 242 295 347
#     4  10  20  34  57  84 110 147 199 246 291 351
#
# _framework density 21.118639999999999
#
# number of rings (size 3 to 8) (size 9 to 14) (size 15 to 20)
#    0.000    1.750    1.250    2.625    1.750    7.250 
#    0.000    0.625    0.000    2.250    0.000    0.000 
#    0.000    0.000    0.000    0.000    0.000    0.000 
#
# Total GULP energy -396442.999929 kJ/mol
# GULP energy per Si atom -12388.843748 kJ/mol
# Density = 2.107057 g / cm^3
# Si number density = 21.118640 Si / 1000 Ang^3
#
#
#
# Elastic Constant Matrix: (Units=GPa)
#
#
# Indices 1 2 3 4 5 6 
#
# 1 141.4116 44.4079 49.1826 0.0000 3.1589 0.0000
# 2 44.4079 42.6616 31.7314 0.0000 2.7986 0.0000
# 3 49.1826 31.7314 115.4244 0.0000 10.8717 0.0000
# 4 0.0000 0.0000 0.0000 26.1945 0.0000 -0.5494
# 5 3.1589 2.7986 10.8717 0.0000 29.9904 0.0000
# 6 0.0000 0.0000 0.0000 -0.5494 0.0000 25.9117
#
#
#
# Elastic Compliance Matrix: (Units=1/GPa)
#
#
# Indices 1 2 3 4 5 6 
#
# 1 0.010836 -0.009859 -0.001953 0.000000 0.000487 0.000000
# 2 -0.009859 0.038436 -0.006342 0.000000 -0.000249 0.000000
# 3 -0.001953 -0.006342 0.011559 0.000000 -0.003393 0.000000
# 4 0.000000 0.000000 0.000000 0.038193 0.000000 0.000810
# 5 0.000487 -0.000249 -0.003393 0.000000 0.034546 0.000000
# 6 0.000000 0.000000 0.000000 0.000810 0.000000 0.038610
#
#
# Mechanical properties :
#
#
# Convention : Reuss Voigt Hill
#
# Bulk Modulus (GPa) = 40.77732 61.12682 50.95207
# Shear Modulus (GPa) = 23.07745 28.03103 25.55424
#
# Velocity S-wave (km/s) = 3.30927 3.64718 3.48233
# Velocity P-wave (km/s) = 5.82686 6.83690 6.35199
#
# Compressibility (1/GPa) = 0.02452344
#
# Stress axis : x y z
#
# Youngs Moduli (GPa) = 92.28632 26.01703 86.51408
#
# Poissons Ratio (x) = 0.25650 0.16893
# Poissons Ratio (y) = 0.90984 0.54869
# Poissons Ratio (z) = 0.18021 0.16501
#
# Static dielectric constant tensor:
#      x y z
#    x 4.151730 0.000000 0.113810 
#    y 0.000000 3.810240 0.000000 
#    z 0.113810 0.000000 3.825640 
# 
# 
# High freq. dielectric constant tensor:
#      x y z
#    x 1.848500 0.000000 0.009660 
#    y 0.000000 1.800210 0.000000 
#    z 0.009660 0.000000 1.829320 
# 
# From -- ./inp_files/187460.got.cif
#   From: 2010.06.25/outbox.cif.g09.slc.cpg/sg12_94_cif.got.tgz:187460.got - 2010.06.28 00:19:55.
