data_PCOD8098595
_publ_section_title
;
Structure prediction by ZEFSAII (Michael W. Deem and Ramdas Pophale) SiO2 
 PCOD8098595
Probable space group: C 2/M
;
_chemical_formula_sum "Si O2"
_cell_formula_units_Z 64
_cell_length_a 15.260714
_cell_length_b 8.767296
_cell_length_c 24.862660
_cell_angle_alpha 90.000000
_cell_angle_beta 72.459804
_cell_angle_gamma 90.000000
_cell_volume 3171.841174
_symmetry_space_group_name_H-M "C 2/M"
_symmetry_group_IT_number 12
_symmetry_cell_setting 'monoclinic'
loop_
_space_group_symop_operation_xyz
x,y,z
-x,y,-z
-x,-y,-z
x,-y,z
1/2+x,1/2+y,z
1/2-x,1/2+y,-z
1/2-x,1/2-y,-z
1/2+x,1/2-y,z
loop_
_atom_site_type_symbol
_atom_site_label
_atom_site_fract_x
_atom_site_fract_y
_atom_site_fract_z
Si Si1 0.366616 0.824162 0.939336
Si Si2 0.125394 0.179420 0.564989
Si Si3 0.815791 0.325066 0.064738
Si Si4 0.314714 0.673486 0.173496
Si Si5 0.513182 0.325367 0.164914
Si Si6 0.670498 0.179686 0.446753
Si Si7 0.867665 0.822046 0.755773
Si Si8 0.557533 0.179437 0.364337
O O1 0.288682 0.712948 0.931285
O O2 0.459103 0.780819 0.890671
O O3 0.339802 0.000000 0.933565
O O4 0.380549 0.797293 0.000692
O O5 0.222197 0.228421 0.574256
O O6 0.118449 0.241884 0.505840
O O7 0.043106 0.246559 0.615568
O O8 0.114894 0.000000 0.565397
O O9 0.820301 0.500000 0.083018
O O10 0.847053 0.216404 0.107280
O O11 0.278061 0.500000 0.181295
O O12 0.404055 0.691736 0.194810
O O13 0.236543 0.786812 0.208394
O O14 0.538907 0.500000 0.146876
O O15 0.564665 0.270155 0.209023
O O16 0.621502 0.236791 0.401591
O O17 0.660719 0.000000 0.456454
O O18 0.892058 0.725247 0.699267
O O19 0.878073 0.000000 0.740982
O O20 0.545400 0.000000 0.368996
#
# Coordination Sequence:
#
# PCOD8098595 Si02
#       8
#     8   8   8   8   8   8   8   8
#     4  10  20  34  58  87 116 151 191 234 286 352
#     4  10  20  36  60  90 122 155 194 239 284 338
#     4  10  20  35  56  86 120 151 185 235 294 346
#     4  11  23  40  62  87 113 151 195 238 293 357
#     4  10  23  41  61  84 116 152 190 240 299 353
#     4   9  20  38  59  86 123 161 192 231 289 345
#     4  11  24  43  62  83 114 153 196 248 295 339
#     4  11  23  39  60  85 117 157 197 239 287 347
#
# _framework density 20.177555999999999
#
# number of rings (size 3 to 8) (size 9 to 14) (size 15 to 20)
#    0.000    1.750    1.250    2.625    0.000    7.500 
#    0.000    7.500    0.000    0.000    0.000    0.000 
#    0.000    0.000    0.000    0.000    0.000    0.000 
#
# Total GULP energy -396915.624871 kJ/mol
# GULP energy per Si atom -12403.613277 kJ/mol
# Density = 2.013163 g / cm^3
# Si number density = 20.177556 Si / 1000 Ang^3
#
#
#
# Elastic Constant Matrix: (Units=GPa)
#
#
# Indices 1 2 3 4 5 6 
#
# 1 94.1360 18.2630 40.6759 0.0000 -3.4058 0.0000
# 2 18.2630 39.1112 17.9825 0.0000 0.6019 0.0000
# 3 40.6759 17.9825 96.9011 0.0000 2.6346 0.0000
# 4 0.0000 0.0000 0.0000 37.6525 0.0000 -4.0523
# 5 -3.4058 0.6019 2.6346 0.0000 8.7724 0.0000
# 6 0.0000 0.0000 0.0000 -4.0523 0.0000 28.7895
#
#
#
# Elastic Compliance Matrix: (Units=1/GPa)
#
#
# Indices 1 2 3 4 5 6 
#
# 1 0.013990 -0.004213 -0.005290 0.000000 0.007309 0.000000
# 2 -0.004213 0.029223 -0.003585 0.000000 -0.002564 0.000000
# 3 -0.005290 -0.003585 0.013364 0.000000 -0.005821 0.000000
# 4 0.000000 0.000000 0.000000 0.026967 0.000000 0.003796
# 5 0.007309 -0.002564 -0.005821 0.000000 0.118756 0.000000
# 6 0.000000 0.000000 0.000000 0.003796 0.000000 0.035269
#
#
# Mechanical properties :
#
#
# Convention : Reuss Voigt Hill
#
# Bulk Modulus (GPa) = 32.89255 42.66567 37.77911
# Shear Modulus (GPa) = 18.25623 25.25801 21.75712
#
# Velocity S-wave (km/s) = 3.01122 3.54190 3.28728
# Velocity P-wave (km/s) = 5.33168 6.15774 5.75954
#
# Compressibility (1/GPa) = 0.03040202
#
# Stress axis : x y z
#
# Youngs Moduli (GPa) = 71.47774 34.21937 74.82952
#
# Poissons Ratio (x) = 0.14418 0.39581
# Poissons Ratio (y) = 0.30115 0.26825
# Poissons Ratio (z) = 0.37808 0.12267
#
# Static dielectric constant tensor:
#      x y z
#    x 3.688660 0.000000 0.047100 
#    y 0.000000 3.617560 0.000000 
#    z 0.047100 0.000000 3.641960 
# 
# 
# High freq. dielectric constant tensor:
#      x y z
#    x 1.788260 0.000000 -0.001380 
#    y 0.000000 1.792300 0.000000 
#    z -0.001380 0.000000 1.781980 
# 
# From -- ./inp_files/359723.got.cif
#   From: 2010.06.25/outbox.cif.g09.slc.cpg/sg12_180_cif.got.tgz:359723.got - 2010.06.28 00:19:55.
