data_PCOD8098163
_publ_section_title
;
Structure prediction by ZEFSAII (Michael W. Deem and Ramdas Pophale) SiO2 
 PCOD8098163
Probable space group: C 2/M
;
_chemical_formula_sum "Si O2"
_cell_formula_units_Z 56
_cell_length_a 23.343065
_cell_length_b 9.205972
_cell_length_c 13.288655
_cell_angle_alpha 90.000000
_cell_angle_beta 75.958945
_cell_angle_gamma 90.000000
_cell_volume 2770.352082
_symmetry_space_group_name_H-M "C 2/M"
_symmetry_group_IT_number 12
_symmetry_cell_setting 'monoclinic'
loop_
_space_group_symop_operation_xyz
x,y,z
-x,y,-z
-x,-y,-z
x,-y,z
1/2+x,1/2+y,z
1/2-x,1/2+y,-z
1/2-x,1/2-y,-z
1/2+x,1/2-y,z
loop_
_atom_site_type_symbol
_atom_site_label
_atom_site_fract_x
_atom_site_fract_y
_atom_site_fract_z
Si Si1 0.995891 0.832571 0.614640
Si Si2 0.106634 0.831588 0.194628
Si Si3 0.060544 0.332902 0.028043
Si Si4 0.297951 0.166741 0.542544
Si Si5 0.835842 0.331941 0.173616
Si Si6 0.283292 0.827634 0.776303
Si Si7 0.398089 0.832724 0.349212
O O1 0.040971 0.752554 0.669706
O O2 0.000000 0.767055 0.500000
O O3 0.930287 0.810738 0.686495
O O4 0.014648 0.000000 0.604786
O O5 0.167290 0.741844 0.173261
O O6 0.121187 0.000000 0.169679
O O7 0.067675 0.771152 0.120090
O O8 0.057989 0.500000 0.065152
O O9 0.114175 0.306786 0.929624
O O10 0.000000 0.288170 0.000000
O O11 0.250000 0.250000 0.500000
O O12 0.298655 0.221804 0.656420
O O13 0.362209 0.192603 0.467519
O O14 0.279335 0.000000 0.545727
O O15 0.816315 0.500000 0.188708
O O16 0.780092 0.235124 0.165359
O O17 0.859718 0.276288 0.271290
O O18 0.283662 0.000000 0.791004
O O19 0.414164 0.000000 0.324116
#
# Coordination Sequence:
#
# PCOD8098163 Si02
#       7
#     8   8   8   8   8   8   8
#     4  10  22  39  58  84 117 154 195 238 291 351
#     4  11  24  41  62  87 119 159 196 242 300 352
#     4  10  22  42  67  91 116 152 197 245 297 352
#     4  10  20  34  55  85 120 158 197 238 287 343
#     4  10  21  38  61  88 118 153 194 242 296 350
#     4  11  23  38  59  89 122 158 200 243 293 352
#     4  10  20  35  58  87 117 152 196 242 290 347
#
# _framework density 20.214037000000001
#
# number of rings (size 3 to 8) (size 9 to 14) (size 15 to 20)
#    0.000    1.714    1.429    2.571    0.000    5.714 
#    0.000    0.000    0.000    0.000    0.000    0.000 
#    0.000    0.000    0.000    0.000    0.000    0.000 
#
# Total GULP energy -347352.029144 kJ/mol
# GULP energy per Si atom -12405.429612 kJ/mol
# Density = 2.016803 g / cm^3
# Si number density = 20.214037 Si / 1000 Ang^3
#
#
#
# Elastic Constant Matrix: (Units=GPa)
#
#
# Indices 1 2 3 4 5 6 
#
# 1 137.4526 63.9674 35.0361 0.0000 12.5873 0.0000
# 2 63.9674 84.8572 36.9331 0.0000 7.6082 0.0000
# 3 35.0361 36.9331 85.3584 0.0000 3.5336 0.0000
# 4 0.0000 0.0000 0.0000 29.7176 0.0000 3.5746
# 5 12.5873 7.6082 3.5336 0.0000 29.6834 0.0000
# 6 0.0000 0.0000 0.0000 3.5746 0.0000 40.0677
#
#
#
# Elastic Compliance Matrix: (Units=1/GPa)
#
#
# Indices 1 2 3 4 5 6 
#
# 1 0.011510 -0.007917 -0.001187 0.000000 -0.002710 0.000000
# 2 -0.007917 0.020233 -0.005456 0.000000 -0.001179 0.000000
# 3 -0.001187 -0.005456 0.014556 0.000000 0.000169 0.000000
# 4 0.000000 0.000000 0.000000 0.034015 0.000000 -0.003035
# 5 -0.002710 -0.001179 0.000169 0.000000 0.035120 0.000000
# 6 0.000000 0.000000 0.000000 -0.003035 0.000000 0.025228
#
#
# Mechanical properties :
#
#
# Convention : Reuss Voigt Hill
#
# Bulk Modulus (GPa) = 58.20812 64.39349 61.30081
# Shear Modulus (GPa) = 28.48835 31.34253 29.91544
#
# Velocity S-wave (km/s) = 3.75818 3.94195 3.85116
# Velocity P-wave (km/s) = 6.90582 7.25559 7.08287
#
# Compressibility (1/GPa) = 0.01717973
#
# Stress axis : x y z
#
# Youngs Moduli (GPa) = 86.87727 49.42374 68.69965
#
# Poissons Ratio (x) = 0.39131 0.08152
# Poissons Ratio (y) = 0.68784 0.37482
# Poissons Ratio (z) = 0.10309 0.26966
#
# Static dielectric constant tensor:
#      x y z
#    x 3.609360 0.000000 -0.041420 
#    y 0.000000 3.589340 0.000000 
#    z -0.041420 0.000000 3.812130 
# 
# 
# High freq. dielectric constant tensor:
#      x y z
#    x 1.795950 0.000000 -0.003260 
#    y 0.000000 1.782640 0.000000 
#    z -0.003260 0.000000 1.792740 
# 
# From -- ./inp_files/230902.got.cif
#   From: 2010.06.25/outbox.cif.g09.slc.cpg/sg12_116_cif.got.tgz:230902.got - 2010.06.28 00:19:55.
