data_PCOD8098185
_publ_section_title
;
Structure prediction by ZEFSAII (Michael W. Deem and Ramdas Pophale) SiO2 
 PCOD8098185
Probable space group: C 2/M
;
_chemical_formula_sum "Si O2"
_cell_formula_units_Z 64
_cell_length_a 25.195431
_cell_length_b 13.893079
_cell_length_c 14.646636
_cell_angle_alpha 90.000000
_cell_angle_beta 138.837014
_cell_angle_gamma 90.000000
_cell_volume 3374.568190
_symmetry_space_group_name_H-M "C 2/M"
_symmetry_group_IT_number 12
_symmetry_cell_setting 'monoclinic'
loop_
_space_group_symop_operation_xyz
x,y,z
-x,y,-z
-x,-y,-z
x,-y,z
1/2+x,1/2+y,z
1/2-x,1/2+y,-z
1/2-x,1/2-y,-z
1/2+x,1/2-y,z
loop_
_atom_site_type_symbol
_atom_site_label
_atom_site_fract_x
_atom_site_fract_y
_atom_site_fract_z
Si Si1 0.570253 0.610875 0.362326
Si Si2 0.414602 0.613244 0.415925
Si Si3 0.124017 0.393335 0.968925
Si Si4 0.407455 0.612621 0.905842
Si Si5 0.409732 0.108567 0.870329
Si Si6 0.201841 0.110083 0.887040
Si Si7 0.095590 0.811988 0.896629
Si Si8 0.164482 0.767254 0.341015
O O1 0.587528 0.500000 0.355590
O O2 0.608848 0.635629 0.509979
O O3 0.474182 0.626805 0.242737
O O4 0.604899 0.686056 0.336400
O O5 0.500000 0.661601 0.500000
O O6 0.421440 0.500000 0.411672
O O7 0.345934 0.654817 0.261308
O O8 0.084989 0.500000 0.899161
O O9 0.071008 0.302051 0.867548
O O10 0.139122 0.384065 0.097568
O O11 0.205119 0.382982 0.016597
O O12 0.392696 0.500000 0.880399
O O13 0.340955 0.662492 0.753897
O O14 0.500000 0.638784 0.000000
O O15 0.388627 0.650442 0.981683
O O16 0.365678 0.163639 0.731559
O O17 0.415217 0.000000 0.841989
O O18 0.500000 0.150797 0.000000
O O19 0.177958 0.171354 0.945852
O O20 0.176948 0.000000 0.873330
O O21 0.250000 0.750000 0.500000
#
# Coordination Sequence:
#
# PCOD8098185 Si02
#       8
#     8   8   8   8   8   8   8   8
#     4  11  22  36  59  88 118 155 197 244 301 358
#     4   9  17  31  52  82 118 149 184 230 285 356
#     4  10  22  37  55  81 114 150 190 245 299 347
#     4  11  22  38  61  89 123 157 197 249 304 364
#     4  10  21  41  63  80 106 155 209 249 283 338
#     4  10  20  34  55  87 120 149 186 240 304 358
#     4  12  20  35  61  88 115 152 201 245 296 363
#     4  12  25  38  55  86 123 157 193 239 300 365
#
# _framework density 18.965389999999999
#
# number of rings (size 3 to 8) (size 9 to 14) (size 15 to 20)
#    0.000    1.375    3.750    3.000    1.750    1.000 
#    0.000    0.000    0.000    0.000    0.000    2.625 
#    0.000    0.000    0.000    0.000    0.000    0.000 
#
# Total GULP energy -396604.352935 kJ/mol
# GULP energy per Si atom -12393.886029 kJ/mol
# Density = 1.892222 g / cm^3
# Si number density = 18.965390 Si / 1000 Ang^3
#
#
#
# Elastic Constant Matrix: (Units=GPa)
#
#
# Indices 1 2 3 4 5 6 
#
# 1 108.8256 29.4961 28.3818 0.0000 -15.2274 0.0000
# 2 29.4961 106.8394 42.5949 0.0000 -13.0929 0.0000
# 3 28.3818 42.5949 94.3916 0.0000 -12.4248 0.0000
# 4 0.0000 0.0000 0.0000 24.1715 0.0000 -2.2107
# 5 -15.2274 -13.0929 -12.4248 0.0000 24.0264 0.0000
# 6 0.0000 0.0000 0.0000 -2.2107 0.0000 22.1364
#
#
#
# Elastic Compliance Matrix: (Units=1/GPa)
#
#
# Indices 1 2 3 4 5 6 
#
# 1 0.010816 -0.001632 -0.001857 0.000000 0.005005 0.000000
# 2 -0.001632 0.011995 -0.004504 0.000000 0.003173 0.000000
# 3 -0.001857 -0.004504 0.013635 0.000000 0.003420 0.000000
# 4 0.000000 0.000000 0.000000 0.041752 0.000000 0.004170
# 5 0.005005 0.003173 0.003420 0.000000 0.048290 0.000000
# 6 0.000000 0.000000 0.000000 0.004170 0.000000 0.045591
#
#
# Mechanical properties :
#
#
# Convention : Reuss Voigt Hill
#
# Bulk Modulus (GPa) = 48.87759 56.77804 52.82781
# Shear Modulus (GPa) = 25.65587 28.03912 26.84750
#
# Velocity S-wave (km/s) = 3.68200 3.84922 3.76653
# Velocity P-wave (km/s) = 6.62602 7.05393 6.84332
#
# Compressibility (1/GPa) = 0.02045927
#
# Stress axis : x y z
#
# Youngs Moduli (GPa) = 92.45510 83.36688 73.33932
#
# Poissons Ratio (x) = 0.13609 0.13617
# Poissons Ratio (y) = 0.15093 0.33035
# Poissons Ratio (z) = 0.17166 0.37552
#
# Static dielectric constant tensor:
#      x y z
#    x 3.539660 0.000000 -0.116520 
#    y 0.000000 3.627070 0.000000 
#    z -0.116520 0.000000 3.546480 
# 
# 
# High freq. dielectric constant tensor:
#      x y z
#    x 1.747520 0.000000 -0.012420 
#    y 0.000000 1.736870 0.000000 
#    z -0.012420 0.000000 1.708800 
# 
# From -- ./inp_files/240704.got.cif
#   From: 2010.06.25/outbox.cif.g09.slc.cpg/sg12_121_cif.got.tgz:240704.got - 2010.06.28 00:19:55.
