data_PCOD8098119
_publ_section_title
;
Structure prediction by ZEFSAII (Michael W. Deem and Ramdas Pophale) SiO2 
 PCOD8098119
Probable space group: C 2/M
;
_chemical_formula_sum "Si O2"
_cell_formula_units_Z 56
_cell_length_a 20.018773
_cell_length_b 9.670791
_cell_length_c 14.825583
_cell_angle_alpha 90.000000
_cell_angle_beta 90.919503
_cell_angle_gamma 90.000000
_cell_volume 2869.824273
_symmetry_space_group_name_H-M "C 2/M"
_symmetry_group_IT_number 12
_symmetry_cell_setting 'monoclinic'
loop_
_space_group_symop_operation_xyz
x,y,z
-x,y,-z
-x,-y,-z
x,-y,z
1/2+x,1/2+y,z
1/2-x,1/2+y,-z
1/2-x,1/2-y,-z
1/2+x,1/2-y,z
loop_
_atom_site_type_symbol
_atom_site_label
_atom_site_fract_x
_atom_site_fract_y
_atom_site_fract_z
Si Si1 0.865344 0.346195 0.338497
Si Si2 0.670536 0.661111 0.138817
Si Si3 0.320721 0.836725 0.143828
Si Si4 0.688487 0.654277 0.513880
Si Si5 0.509706 0.151624 0.399901
Si Si6 0.421166 0.163837 0.989998
Si Si7 0.387325 0.349791 0.673623
O O1 0.833186 0.500000 0.357821
O O2 0.839174 0.283136 0.243874
O O3 0.855493 0.230687 0.413386
O O4 0.944255 0.365032 0.338409
O O5 0.661188 0.500000 0.111594
O O6 0.745728 0.713574 0.114427
O O7 0.612656 0.752858 0.092309
O O8 0.662956 0.684560 0.245883
O O9 0.320284 0.000000 0.147500
O O10 0.378499 0.787153 0.076467
O O11 0.707470 0.500000 0.548025
O O12 0.750000 0.750000 0.500000
O O13 0.652554 0.645438 0.418857
O O14 0.500000 0.219220 0.500000
O O15 0.555527 0.237764 0.334009
O O16 0.542398 0.000000 0.416858
O O17 0.413740 0.000000 0.972630
O O18 0.500000 0.203170 0.000000
O O19 0.420579 0.500000 0.691962
#
# Coordination Sequence:
#
# PCOD8098119 Si02
#       7
#     8   8   8   8   8   8   8
#     4  10  20  36  58  82 114 153 193 236 288 344
#     4  10  21  39  61  84 113 153 196 237 288 345
#     4   9  19  38  62  85 115 155 193 234 291 354
#     4  11  22  36  55  80 113 152 194 239 286 338
#     4  10  20  34  55  84 114 150 195 241 287 337
#     4  10  22  39  62  91 118 147 187 236 292 352
#     4  10  22  37  55  80 113 154 194 234 288 348
#
# _framework density 19.513390000000001
#
# number of rings (size 3 to 8) (size 9 to 14) (size 15 to 20)
#    0.000    2.000    1.429    1.714    2.000    4.571 
#    0.000    2.857    0.000    0.000    0.000    0.000 
#    0.000    0.000    0.000    0.000    0.000    0.000 
#
# Total GULP energy -346984.904140 kJ/mol
# GULP energy per Si atom -12392.318005 kJ/mol
# Density = 1.946898 g / cm^3
# Si number density = 19.513390 Si / 1000 Ang^3
#
#
#
# Elastic Constant Matrix: (Units=GPa)
#
#
# Indices 1 2 3 4 5 6 
#
# 1 128.6409 50.6738 45.5657 0.0000 -8.1326 0.0000
# 2 50.6738 93.2799 40.4661 0.0000 -8.4500 0.0000
# 3 45.5657 40.4661 105.5181 0.0000 -5.1512 0.0000
# 4 0.0000 0.0000 0.0000 13.4883 0.0000 1.5923
# 5 -8.1326 -8.4500 -5.1512 0.0000 34.6864 0.0000
# 6 0.0000 0.0000 0.0000 1.5923 0.0000 26.1836
#
#
#
# Elastic Compliance Matrix: (Units=1/GPa)
#
#
# Indices 1 2 3 4 5 6 
#
# 1 0.010582 -0.004436 -0.002820 0.000000 0.000982 0.000000
# 2 -0.004436 0.014924 -0.003708 0.000000 0.002045 0.000000
# 3 -0.002820 -0.003708 0.012129 0.000000 0.000237 0.000000
# 4 0.000000 0.000000 0.000000 0.074674 0.000000 -0.004541
# 5 0.000982 0.002045 0.000237 0.000000 0.029593 0.000000
# 6 0.000000 0.000000 0.000000 -0.004541 0.000000 0.038468
#
#
# Mechanical properties :
#
#
# Convention : Reuss Voigt Hill
#
# Bulk Modulus (GPa) = 63.67121 66.76110 65.21616
# Shear Modulus (GPa) = 24.09235 27.58723 25.83979
#
# Velocity S-wave (km/s) = 3.51758 3.76408 3.64291
# Velocity P-wave (km/s) = 7.01414 7.29234 7.15459
#
# Compressibility (1/GPa) = 0.01570569
#
# Stress axis : x y z
#
# Youngs Moduli (GPa) = 94.49859 67.00546 82.45020
#
# Poissons Ratio (x) = 0.29725 0.23255
# Poissons Ratio (y) = 0.41922 0.30572
# Poissons Ratio (z) = 0.26653 0.24845
#
# Static dielectric constant tensor:
#      x y z
#    x 3.702930 0.000000 -0.162750 
#    y 0.000000 3.927090 0.000000 
#    z -0.162750 0.000000 3.754890 
# 
# 
# High freq. dielectric constant tensor:
#      x y z
#    x 1.762030 0.000000 -0.001730 
#    y 0.000000 1.745680 0.000000 
#    z -0.001730 0.000000 1.760250 
# 
# From -- ./inp_files/230918.got.cif
#   From: 2010.06.25/outbox.cif.g09.slc.cpg/sg12_116_cif.got.tgz:230918.got - 2010.06.28 00:19:55.
