data_PCOD8098550
_publ_section_title
;
Structure prediction by ZEFSAII (Michael W. Deem and Ramdas Pophale) SiO2 
 PCOD8098550
Probable space group: C 2/M
;
_chemical_formula_sum "Si O2"
_cell_formula_units_Z 64
_cell_length_a 11.544672
_cell_length_b 29.672741
_cell_length_c 9.104175
_cell_angle_alpha 90.000000
_cell_angle_beta 93.932753
_cell_angle_gamma 90.000000
_cell_volume 3111.401051
_symmetry_space_group_name_H-M "C 2/M"
_symmetry_group_IT_number 12
_symmetry_cell_setting 'monoclinic'
loop_
_space_group_symop_operation_xyz
x,y,z
-x,y,-z
-x,-y,-z
x,-y,z
1/2+x,1/2+y,z
1/2-x,1/2+y,-z
1/2-x,1/2-y,-z
1/2+x,1/2-y,z
loop_
_atom_site_type_symbol
_atom_site_label
_atom_site_fract_x
_atom_site_fract_y
_atom_site_fract_z
Si Si1 0.198675 0.386993 0.312992
Si Si2 0.000739 0.551105 0.826781
Si Si3 0.619598 0.638278 0.167065
Si Si4 0.608215 0.736059 0.614088
Si Si5 0.774840 0.321973 0.437267
Si Si6 0.262921 0.449844 0.776739
Si Si7 0.871157 0.832946 0.146252
Si Si8 0.627914 0.550475 0.530820
O O1 0.084773 0.412364 0.249409
O O2 0.166349 0.361966 0.463260
O O3 0.249813 0.352397 0.197223
O O4 0.303063 0.422035 0.342101
O O5 0.963041 0.500000 0.780743
O O6 0.127269 0.561980 0.774365
O O7 0.000000 0.557151 0.000000
O O8 0.687029 0.656767 0.313629
O O9 0.664278 0.587940 0.129042
O O10 0.482424 0.634912 0.189271
O O11 0.642859 0.671645 0.031034
O O12 0.500000 0.727326 0.500000
O O13 0.713363 0.709691 0.549880
O O14 0.630781 0.789815 0.634180
O O15 0.595379 0.715249 0.776754
O O16 0.286109 0.500000 0.845596
O O17 0.299340 0.448453 0.611564
O O18 0.500000 0.572294 0.500000
O O19 0.612949 0.500000 0.590270
#
# Coordination Sequence:
#
# PCOD8098550 Si02
#       8
#     8   8   8   8   8   8   8   8
#     4  11  21  37  59  90 117 163 210 256 303 371
#     4  10  22  40  60  84 126 177 216 257 307 365
#     4  11  20  40  60  95 119 164 206 249 316 383
#     4  10  20  40  59  86 115 151 192 253 314 375
#     4  10  22  35  63  87 116 150 199 253 312 375
#     4  10  21  37  59  88 129 165 204 257 304 357
#     4  10  23  36  64  87 122 158 203 258 317 376
#     4  10  20  34  57  89 122 158 204 258 311 358
#
# _framework density 20.569512
#
# number of rings (size 3 to 8) (size 9 to 14) (size 15 to 20)
#    0.000    1.750    2.500    1.875    0.000    2.000 
#    0.000    4.375    0.000    0.000    0.000    0.000 
#    0.000    0.000    0.000    0.000    0.000    0.000 
#
# Total GULP energy -396667.258404 kJ/mol
# GULP energy per Si atom -12395.851825 kJ/mol
# Density = 2.052269 g / cm^3
# Si number density = 20.569512 Si / 1000 Ang^3
#
#
#
# Elastic Constant Matrix: (Units=GPa)
#
#
# Indices 1 2 3 4 5 6 
#
# 1 109.2435 46.8587 29.2264 0.0000 -4.6657 0.0000
# 2 46.8587 107.7787 33.0435 0.0000 10.8759 0.0000
# 3 29.2264 33.0435 85.6990 0.0000 3.3929 0.0000
# 4 0.0000 0.0000 0.0000 28.3836 0.0000 -6.0380
# 5 -4.6657 10.8759 3.3929 0.0000 26.8607 0.0000
# 6 0.0000 0.0000 0.0000 -6.0380 0.0000 31.5105
#
#
#
# Elastic Compliance Matrix: (Units=1/GPa)
#
#
# Indices 1 2 3 4 5 6 
#
# 1 0.012119 -0.004984 -0.002387 0.000000 0.004424 0.000000
# 2 -0.004984 0.012965 -0.003073 0.000000 -0.005727 0.000000
# 3 -0.002387 -0.003073 0.013703 0.000000 -0.000901 0.000000
# 4 0.000000 0.000000 0.000000 0.036729 0.000000 0.007038
# 5 0.004424 -0.005727 -0.000901 0.000000 0.040430 0.000000
# 6 0.000000 0.000000 0.000000 0.007038 0.000000 0.033084
#
#
# Mechanical properties :
#
#
# Convention : Reuss Voigt Hill
#
# Bulk Modulus (GPa) = 55.86213 57.88649 56.87431
# Shear Modulus (GPa) = 28.42795 30.25713 29.34254
#
# Velocity S-wave (km/s) = 3.72162 3.83948 3.78101
# Velocity P-wave (km/s) = 6.75899 6.91798 6.83895
#
# Compressibility (1/GPa) = 0.01790122
#
# Stress axis : x y z
#
# Youngs Moduli (GPa) = 82.51477 77.13080 72.97630
#
# Poissons Ratio (x) = 0.38440 0.17416
# Poissons Ratio (y) = 0.41123 0.22423
# Poissons Ratio (z) = 0.19693 0.23699
#
# Static dielectric constant tensor:
#      x y z
#    x 3.613860 0.000000 -0.158180 
#    y 0.000000 4.161330 0.000000 
#    z -0.158180 0.000000 3.572530 
# 
# 
# High freq. dielectric constant tensor:
#      x y z
#    x 1.801280 0.000000 -0.006700 
#    y 0.000000 1.805550 0.000000 
#    z -0.006700 0.000000 1.792440 
# 
# From -- ./inp_files/54740.got.cif
#   From: 2010.06.25/outbox.cif.g09.slc.cpg/sg12_28_cif.got.tgz:54740.got - 2010.06.28 00:19:55.
