data_PCOD8098466
_publ_section_title
;
Structure prediction by ZEFSAII (Michael W. Deem and Ramdas Pophale) SiO2 
 PCOD8098466
Probable space group: C 2/M
;
_chemical_formula_sum "Si O2"
_cell_formula_units_Z 48
_cell_length_a 29.495468
_cell_length_b 8.966170
_cell_length_c 16.391094
_cell_angle_alpha 90.000000
_cell_angle_beta 37.184259
_cell_angle_gamma 90.000000
_cell_volume 2619.874405
_symmetry_space_group_name_H-M "C 2/M"
_symmetry_group_IT_number 12
_symmetry_cell_setting 'monoclinic'
loop_
_space_group_symop_operation_xyz
x,y,z
-x,y,-z
-x,-y,-z
x,-y,z
1/2+x,1/2+y,z
1/2-x,1/2+y,-z
1/2-x,1/2-y,-z
1/2+x,1/2-y,z
loop_
_atom_site_type_symbol
_atom_site_label
_atom_site_fract_x
_atom_site_fract_y
_atom_site_fract_z
Si Si1 0.170864 0.173298 0.105613
Si Si2 0.552771 0.826174 0.164681
Si Si3 0.174806 0.174948 0.577204
Si Si4 0.583791 0.672394 0.395881
Si Si5 0.980535 0.825791 0.119665
Si Si6 0.603831 0.826610 0.529824
O O1 0.125106 0.244377 0.096784
O O2 0.129823 0.202633 0.249035
O O3 0.180864 0.000000 0.072386
O O4 0.250000 0.250000 0.000000
O O5 0.536275 0.764583 0.098239
O O6 0.482393 0.792913 0.324169
O O7 0.570557 0.000000 0.132708
O O8 0.250000 0.250000 0.500000
O O9 0.106025 0.214643 0.736628
O O10 0.158314 0.236747 0.511157
O O11 0.187850 0.000000 0.552873
O O12 0.500000 0.728691 0.500000
O O13 0.584505 0.500000 0.421747
O O14 0.620026 0.770353 0.415565
O O15 0.995319 0.000000 0.113011
O O16 0.000000 0.777397 0.000000
O O17 0.623265 0.000000 0.509403
#
# Coordination Sequence:
#
# PCOD8098466 Si02
#       6
#     8   8   8   8   8   8
#     4  11  23  39  58  81 114 150 184 228 279 330
#     4  10  20  35  57  84 113 146 185 228 276 330
#     4  10  20  36  58  82 113 146 181 228 282 333
#     4  10  20  36  59  84 110 143 186 230 274 326
#     4   9  19  37  60  83 107 142 187 230 274 327
#     4  10  20  34  57  86 113 144 186 230 275 329
#
# _framework density 18.321489
#
# number of rings (size 3 to 8) (size 9 to 14) (size 15 to 20)
#    0.000    2.000    1.667    2.000    0.000    4.000 
#    3.000    0.000    0.000    0.000    0.000    0.000 
#    0.000    0.000    0.000    0.000    0.000    0.000 
#
# Total GULP energy -297706.965741 kJ/mol
# GULP energy per Si atom -12404.456906 kJ/mol
# Density = 1.827979 g / cm^3
# Si number density = 18.321489 Si / 1000 Ang^3
#
#
#
# Elastic Constant Matrix: (Units=GPa)
#
#
# Indices 1 2 3 4 5 6 
#
# 1 162.1680 87.0540 74.8063 -0.0034 -10.3748 0.0014
# 2 87.0540 107.5954 59.2436 -0.0116 -7.9421 0.0059
# 3 74.8063 59.2436 83.9829 -0.0079 -12.5676 0.0054
# 4 -0.0034 -0.0116 -0.0079 27.7356 0.0012 -3.8279
# 5 -10.3748 -7.9421 -12.5676 0.0012 34.7955 -0.0004
# 6 0.0014 0.0059 0.0054 -3.8279 -0.0004 40.4953
#
#
#
# Elastic Compliance Matrix: (Units=1/GPa)
#
#
# Indices 1 2 3 4 5 6 
#
# 1 0.012875 -0.006706 -0.006757 -0.000003 -0.000132 0.000001
# 2 -0.006706 0.018696 -0.007269 0.000005 -0.000358 -0.000001
# 3 -0.006757 -0.007269 0.023790 0.000002 0.004919 -0.000002
# 4 -0.000003 0.000005 0.000002 0.036531 0.000000 0.003453
# 5 -0.000132 -0.000358 0.004919 0.000000 0.030395 0.000000
# 6 0.000001 -0.000001 -0.000002 0.003453 0.000000 0.025021
#
#
# Mechanical properties :
#
#
# Convention : Reuss Voigt Hill
#
# Bulk Modulus (GPa) = 71.96156 88.43933 80.20044
# Shear Modulus (GPa) = 25.85272 29.44809 27.65041
#
# Velocity S-wave (km/s) = 3.76048 4.01346 3.88903
# Velocity P-wave (km/s) = 7.63003 8.35780 8.00219
#
# Compressibility (1/GPa) = 0.01389631
#
# Stress axis : x y z
#
# Youngs Moduli (GPa) = 77.67023 53.48841 42.03500
#
# Poissons Ratio (x) = 0.35869 0.28405
# Poissons Ratio (y) = 0.52086 0.30554
# Poissons Ratio (z) = 0.52485 0.38879
#
# Static dielectric constant tensor:
#      x y z
#    x 3.540750 -0.000010 0.028370 
#    y -0.000010 3.430590 0.000010 
#    z 0.028370 0.000010 3.219520 
# 
# 
# High freq. dielectric constant tensor:
#      x y z
#    x 1.719510 0.000000 0.001050 
#    y 0.000000 1.720570 0.000000 
#    z 0.001050 0.000000 1.695520 
# 
# From -- ./inp_files/244694.got.cif
#   From: 2010.06.25/outbox.cif.g09.slc.cpg/sg12_123_cif.got.tgz:244694.got - 2010.06.28 00:19:55.
