data_PCOD8098045
_publ_section_title
;
Structure prediction by ZEFSAII (Michael W. Deem and Ramdas Pophale) SiO2 
 PCOD8098045
Probable space group: C 2/M
;
_chemical_formula_sum "Si O2"
_cell_formula_units_Z 56
_cell_length_a 28.863761
_cell_length_b 9.359117
_cell_length_c 13.463132
_cell_angle_alpha 90.000000
_cell_angle_beta 126.602793
_cell_angle_gamma 90.000000
_cell_volume 2919.678246
_symmetry_space_group_name_H-M "C 2/M"
_symmetry_group_IT_number 12
_symmetry_cell_setting 'monoclinic'
loop_
_space_group_symop_operation_xyz
x,y,z
-x,y,-z
-x,-y,-z
x,-y,z
1/2+x,1/2+y,z
1/2-x,1/2+y,-z
1/2-x,1/2-y,-z
1/2+x,1/2-y,z
loop_
_atom_site_type_symbol
_atom_site_label
_atom_site_fract_x
_atom_site_fract_y
_atom_site_fract_z
Si Si1 0.714019 0.335713 0.033824
Si Si2 0.748932 0.162961 0.268105
Si Si3 0.135001 0.834630 0.483386
Si Si4 0.159310 0.335039 0.318300
Si Si5 0.061708 0.667798 0.041759
Si Si6 0.487204 0.669694 0.592801
Si Si7 0.417748 0.662959 0.129862
O O1 0.734303 0.500000 0.062113
O O2 0.723683 0.269933 0.154731
O O3 0.750000 0.250000 0.000000
O O4 0.647608 0.324766 0.915067
O O5 0.817481 0.185723 0.369074
O O6 0.718677 0.193841 0.335302
O O7 0.735368 0.000000 0.217154
O O8 0.157595 0.754552 0.415769
O O9 0.074094 0.771647 0.444580
O O10 0.128439 0.000000 0.446336
O O11 0.152674 0.500000 0.339125
O O12 0.107145 0.283677 0.182108
O O13 0.064068 0.500000 0.025596
O O14 0.075992 0.741468 0.957758
O O15 0.000000 0.720349 0.000000
O O16 0.500000 0.733885 0.500000
O O17 0.484238 0.500000 0.582217
O O18 0.538890 0.720608 0.730337
O O19 0.433088 0.500000 0.121948
#
# Coordination Sequence:
#
# PCOD8098045 Si02
#       7
#     8   8   8   8   8   8   8
#     4  11  24  39  60  88 115 149 191 238 288 340
#     4  10  21  38  59  85 115 151 190 231 284 342
#     4  10  21  35  58  86 112 149 193 234 281 337
#     4  10  20  35  54  80 117 152 185 230 283 336
#     4  10  20  34  55  82 115 157 190 223 281 341
#     4   9  19  36  58  83 111 144 185 235 283 329
#     4  10  21  37  59  86 111 144 190 237 281 331
#
# _framework density 19.180195999999999
#
# number of rings (size 3 to 8) (size 9 to 14) (size 15 to 20)
#    0.000    2.000    1.429    1.714    2.000    2.571 
#    0.000    0.000    0.000    0.857    0.000    0.000 
#    0.000    0.000    0.000    0.000    0.000    0.000 
#
# Total GULP energy -347265.590533 kJ/mol
# GULP energy per Si atom -12402.342519 kJ/mol
# Density = 1.913654 g / cm^3
# Si number density = 19.180196 Si / 1000 Ang^3
#
#
#
# Elastic Constant Matrix: (Units=GPa)
#
#
# Indices 1 2 3 4 5 6 
#
# 1 103.6898 39.2213 41.6401 0.0000 8.1874 0.0000
# 2 39.2213 61.1774 36.0843 0.0000 -3.5055 0.0000
# 3 41.6401 36.0843 92.8204 0.0000 13.8310 0.0000
# 4 0.0000 0.0000 0.0000 1.7371 0.0000 1.2761
# 5 8.1874 -3.5055 13.8310 0.0000 35.0902 0.0000
# 6 0.0000 0.0000 0.0000 1.2761 0.0000 27.7634
#
#
#
# Elastic Compliance Matrix: (Units=1/GPa)
#
#
# Indices 1 2 3 4 5 6 
#
# 1 0.013796 -0.007264 -0.002951 0.000000 -0.002782 0.000000
# 2 -0.007264 0.026165 -0.008027 0.000000 0.007473 0.000000
# 3 -0.002951 -0.008027 0.016185 0.000000 -0.006493 0.000000
# 4 0.000000 0.000000 0.000000 0.595779 0.000000 -0.027385
# 5 -0.002782 0.007473 -0.006493 0.000000 0.032453 0.000000
# 6 0.000000 0.000000 0.000000 -0.027385 0.000000 0.037277
#
#
# Mechanical properties :
#
#
# Convention : Reuss Voigt Hill
#
# Bulk Modulus (GPa) = 50.85414 54.61989 52.73702
# Shear Modulus (GPa) = 6.53856 22.30095 14.41976
#
# Velocity S-wave (km/s) = 1.84836 3.41355 2.74488
# Velocity P-wave (km/s) = 5.57913 6.63894 6.13197
#
# Compressibility (1/GPa) = 0.01966408
#
# Stress axis : x y z
#
# Youngs Moduli (GPa) = 72.48260 38.21838 61.78493
#
# Poissons Ratio (x) = 0.27761 0.18232
# Poissons Ratio (y) = 0.52651 0.49593
# Poissons Ratio (z) = 0.21389 0.30677
#
# Static dielectric constant tensor:
#      x y z
#    x 3.628430 0.000000 0.146540 
#    y 0.000000 3.343980 0.000000 
#    z 0.146540 0.000000 3.416220 
# 
# 
# High freq. dielectric constant tensor:
#      x y z
#    x 1.756290 0.000000 0.011080 
#    y 0.000000 1.724570 0.000000 
#    z 0.011080 0.000000 1.755560 
# 
# From -- ./inp_files/249286.got.cif
#   From: 2010.06.25/outbox.cif.g09.slc.cpg/sg12_125_cif.got.tgz:249286.got - 2010.06.28 00:19:55.
