data_PCOD8098414
_publ_section_title
;
Structure prediction by ZEFSAII (Michael W. Deem and Ramdas Pophale) SiO2 
 PCOD8098414
Probable space group: C 2/M
;
_chemical_formula_sum "Si O2"
_cell_formula_units_Z 56
_cell_length_a 13.471434
_cell_length_b 19.500409
_cell_length_c 15.290454
_cell_angle_alpha 90.000000
_cell_angle_beta 134.693909
_cell_angle_gamma 90.000000
_cell_volume 2855.424684
_symmetry_space_group_name_H-M "C 2/M"
_symmetry_group_IT_number 12
_symmetry_cell_setting 'monoclinic'
loop_
_space_group_symop_operation_xyz
x,y,z
-x,y,-z
-x,-y,-z
x,-y,z
1/2+x,1/2+y,z
1/2-x,1/2+y,-z
1/2-x,1/2-y,-z
1/2+x,1/2-y,z
loop_
_atom_site_type_symbol
_atom_site_label
_atom_site_fract_x
_atom_site_fract_y
_atom_site_fract_z
Si Si1 0.871196 0.280976 0.352455
Si Si2 0.836842 0.575307 0.386770
Si Si3 0.554165 0.221197 0.944296
Si Si4 0.695490 0.155011 0.283092
Si Si5 0.079799 0.922636 0.691304
Si Si6 0.262581 0.576666 0.483673
Si Si7 0.873634 0.797756 0.176146
O O1 0.812787 0.359512 0.307220
O O2 0.751277 0.232857 0.318141
O O3 0.910241 0.252889 0.280046
O O4 0.000000 0.278980 0.500000
O O5 0.779491 0.500000 0.317850
O O6 0.761486 0.596142 0.430609
O O7 0.000000 0.566267 0.500000
O O8 0.453952 0.156080 0.859228
O O9 0.543739 0.274098 0.858000
O O10 0.500000 0.256989 0.000000
O O11 0.709991 0.196196 0.055869
O O12 0.804939 0.104355 0.304723
O O13 0.674166 0.128696 0.368772
O O14 0.077657 0.874975 0.775529
O O15 0.924664 0.918624 0.554896
O O16 0.116912 0.000000 0.741791
O O17 0.206100 0.500000 0.432219
#
# Coordination Sequence:
#
# PCOD8098414 Si02
#       7
#     8   8   8   8   8   8   8
#     4  10  20  34  56  90 116 147 186 245 297 350
#     4   9  20  36  52  78 121 159 191 233 293 359
#     4  11  22  41  60  83 112 160 200 255 294 333
#     4  11  21  34  59  87 113 153 202 241 291 349
#     4  10  20  37  60  88 125 157 189 242 304 364
#     4  10  21  35  55  87 126 163 188 233 307 363
#     4  10  23  40  60  86 120 153 204 245 295 354
#
# _framework density 19.611792999999999
#
# number of rings (size 3 to 8) (size 9 to 14) (size 15 to 20)
#    0.000    1.857    2.857    2.571    6.000    1.714 
#    0.000    2.143    0.000    3.857    0.000    0.000 
#    0.000    0.000    0.000    0.000    0.000    0.000 
#
# Total GULP energy -346977.076567 kJ/mol
# GULP energy per Si atom -12392.038449 kJ/mol
# Density = 1.956716 g / cm^3
# Si number density = 19.611793 Si / 1000 Ang^3
#
#
#
# Elastic Constant Matrix: (Units=GPa)
#
#
# Indices 1 2 3 4 5 6 
#
# 1 89.7892 39.6466 33.8729 0.0000 -5.7996 0.0000
# 2 39.6466 158.6264 46.3373 0.0000 -22.3708 0.0000
# 3 33.8729 46.3373 92.7295 -0.0001 -6.8746 0.0000
# 4 0.0000 0.0000 -0.0001 17.3516 -0.0001 -1.1111
# 5 -5.7996 -22.3708 -6.8746 -0.0001 27.8387 0.0000
# 6 0.0000 0.0000 0.0000 -1.1111 0.0000 26.8768
#
#
#
# Elastic Compliance Matrix: (Units=1/GPa)
#
#
# Indices 1 2 3 4 5 6 
#
# 1 0.013586 -0.002270 -0.003824 0.000000 0.000062 0.000000
# 2 -0.002270 0.008552 -0.003025 0.000000 0.005653 0.000000
# 3 -0.003824 -0.003025 0.013704 0.000000 0.000156 0.000000
# 4 0.000000 0.000000 0.000000 0.057785 0.000000 0.002389
# 5 0.000062 0.005653 0.000156 0.000000 0.040515 0.000000
# 6 0.000000 0.000000 0.000000 0.002389 0.000000 0.037306
#
#
# Mechanical properties :
#
#
# Convention : Reuss Voigt Hill
#
# Bulk Modulus (GPa) = 56.80455 64.53986 60.67221
# Shear Modulus (GPa) = 25.56831 29.16597 27.36714
#
# Velocity S-wave (km/s) = 3.61463 3.86056 3.73962
# Velocity P-wave (km/s) = 6.81528 7.26994 7.04628
#
# Compressibility (1/GPa) = 0.01760422
#
# Stress axis : x y z
#
# Youngs Moduli (GPa) = 73.60494 116.92623 72.96972
#
# Poissons Ratio (x) = 0.26541 0.27903
# Poissons Ratio (y) = 0.16707 0.22077
# Poissons Ratio (z) = 0.28146 0.35375
#
# Static dielectric constant tensor:
#      x y z
#    x 3.767640 0.000000 -0.026390 
#    y 0.000000 3.861230 0.000000 
#    z -0.026390 0.000000 3.502650 
# 
# 
# High freq. dielectric constant tensor:
#      x y z
#    x 1.773490 0.000000 0.003760 
#    y 0.000000 1.760120 0.000000 
#    z 0.003760 0.000000 1.739070 
# 
# From -- ./inp_files/217736.got.cif
#   From: 2010.06.25/outbox.cif.g09.slc.cpg/sg12_109_cif.got.tgz:217736.got - 2010.06.28 00:19:55.
