data_PCOD8098068
_publ_section_title
;
Structure prediction by ZEFSAII (Michael W. Deem and Ramdas Pophale) SiO2 
 PCOD8098068
Probable space group: C 2/M
;
_chemical_formula_sum "Si O2"
_cell_formula_units_Z 48
_cell_length_a 31.932159
_cell_length_b 10.230856
_cell_length_c 23.335247
_cell_angle_alpha 90.000000
_cell_angle_beta 18.695349
_cell_angle_gamma 90.000000
_cell_volume 2443.597123
_symmetry_space_group_name_H-M "C 2/M"
_symmetry_group_IT_number 12
_symmetry_cell_setting 'monoclinic'
loop_
_space_group_symop_operation_xyz
x,y,z
-x,y,-z
-x,-y,-z
x,-y,z
1/2+x,1/2+y,z
1/2-x,1/2+y,-z
1/2-x,1/2-y,-z
1/2+x,1/2-y,z
loop_
_atom_site_type_symbol
_atom_site_label
_atom_site_fract_x
_atom_site_fract_y
_atom_site_fract_z
Si Si1 0.577654 0.648525 0.751822
Si Si2 0.587605 0.351897 0.441618
Si Si3 0.727831 0.357659 0.954723
Si Si4 0.706925 0.348651 0.854791
Si Si5 0.465011 0.766979 0.705713
Si Si6 0.640929 0.851445 0.573967
O O1 0.581795 0.500000 0.721805
O O2 0.572927 0.749132 0.704969
O O3 0.703306 0.675093 0.628889
O O4 0.447555 0.666943 0.959106
O O5 0.500000 0.314424 0.500000
O O6 0.640274 0.500000 0.366716
O O7 0.705869 0.248277 0.296582
O O8 0.507445 0.343756 0.605130
O O9 0.667264 0.500000 0.025279
O O10 0.630889 0.283692 0.121475
O O11 0.729390 0.294127 0.889966
O O12 0.876242 0.369270 0.785675
O O13 0.752141 0.500000 0.787633
O O14 0.588807 0.832364 0.576754
O O15 0.610778 0.000000 0.633251
#
# Coordination Sequence:
#
# PCOD8098068 Si02
#       6
#     8   8   8   8   8   8
#     4   9  19  37  58  84 116 152 189 231 287 337
#     4  11  24  40  57  83 118 156 190 231 286 345
#     4  10  20  34  55  83 112 147 188 233 285 339
#     4  10  20  38  60  82 112 151 191 234 281 340
#     4  11  21  36  55  84 118 150 186 236 284 338
#     4  10  20  34  58  88 116 146 190 240 282 333
#
# _framework density 19.643173999999998
#
# number of rings (size 3 to 8) (size 9 to 14) (size 15 to 20)
#    0.000    1.833    3.333    1.000    0.000    3.000 
#    0.000    0.833    0.000    4.000    0.000    0.000 
#    0.000    0.000    0.000    0.000    0.000    0.000 
#
# Total GULP energy -297407.280264 kJ/mol
# GULP energy per Si atom -12391.970011 kJ/mol
# Density = 1.959847 g / cm^3
# Si number density = 19.643174 Si / 1000 Ang^3
#
#
#
# Elastic Constant Matrix: (Units=GPa)
#
#
# Indices 1 2 3 4 5 6 
#
# 1 76.4797 13.7236 22.1487 -0.0002 -21.5549 0.0000
# 2 13.7236 98.9058 41.2170 -0.0012 -2.3393 0.0004
# 3 22.1487 41.2170 70.4666 -0.0006 -17.9650 0.0002
# 4 -0.0002 -0.0012 -0.0006 23.3316 0.0002 -2.0187
# 5 -21.5549 -2.3393 -17.9650 0.0002 31.1754 0.0000
# 6 0.0000 0.0004 0.0002 -2.0187 0.0000 16.4204
#
#
#
# Elastic Compliance Matrix: (Units=1/GPa)
#
#
# Indices 1 2 3 4 5 6 
#
# 1 0.016790 -0.001313 -0.001846 0.000000 0.010446 0.000000
# 2 -0.001313 0.013936 -0.009030 0.000001 -0.005066 0.000000
# 3 -0.001846 -0.009030 0.022923 0.000000 0.011256 0.000000
# 4 0.000000 0.000001 0.000000 0.043321 0.000000 0.005326
# 5 0.010446 -0.005066 0.011256 0.000000 0.045405 0.000000
# 6 0.000000 0.000000 0.000000 0.005326 0.000000 0.061555
#
#
# Mechanical properties :
#
#
# Convention : Reuss Voigt Hill
#
# Bulk Modulus (GPa) = 34.16487 44.44783 39.30635
# Shear Modulus (GPa) = 21.00266 25.43634 23.21950
#
# Velocity S-wave (km/s) = 3.27342 3.60240 3.44185
# Velocity P-wave (km/s) = 5.63184 6.32296 5.98738
#
# Compressibility (1/GPa) = 0.02926983
#
# Stress axis : x y z
#
# Youngs Moduli (GPa) = 59.56008 71.75547 43.62476
#
# Poissons Ratio (x) = 0.09424 0.08052
# Poissons Ratio (y) = 0.07822 0.39394
# Poissons Ratio (z) = 0.10994 0.64797
#
# Static dielectric constant tensor:
#      x y z
#    x 3.678060 0.000000 -0.295510 
#    y 0.000000 3.489100 0.000000 
#    z -0.295510 0.000000 3.569170 
# 
# 
# High freq. dielectric constant tensor:
#      x y z
#    x 1.754200 0.000000 -0.019020 
#    y 0.000000 1.760180 0.000000 
#    z -0.019020 0.000000 1.761180 
# 
# From -- ./inp_files/330003.got.cif
#   From: 2010.06.25/outbox.cif.g09.slc.cpg/sg12_166_cif.got.tgz:330003.got - 2010.06.28 00:19:55.
