data_PCOD8098559
_publ_section_title
;
Structure prediction by ZEFSAII (Michael W. Deem and Ramdas Pophale) SiO2 
 PCOD8098559
Probable space group: C 2/M
;
_chemical_formula_sum "Si O2"
_cell_formula_units_Z 56
_cell_length_a 21.688784
_cell_length_b 14.224668
_cell_length_c 13.944804
_cell_angle_alpha 90.000000
_cell_angle_beta 138.687681
_cell_angle_gamma 90.000000
_cell_volume 2840.148545
_symmetry_space_group_name_H-M "C 2/M"
_symmetry_group_IT_number 12
_symmetry_cell_setting 'monoclinic'
loop_
_space_group_symop_operation_xyz
x,y,z
-x,y,-z
-x,-y,-z
x,-y,z
1/2+x,1/2+y,z
1/2-x,1/2+y,-z
1/2-x,1/2-y,-z
1/2+x,1/2-y,z
loop_
_atom_site_type_symbol
_atom_site_label
_atom_site_fract_x
_atom_site_fract_y
_atom_site_fract_z
Si Si1 0.043738 0.716520 0.655202
Si Si2 0.748267 0.183619 0.907406
Si Si3 0.404439 0.391311 0.746159
Si Si4 0.238184 0.394236 0.413069
Si Si5 0.623673 0.107742 0.463021
Si Si6 0.711133 0.278332 0.252867
Si Si7 0.575472 0.603945 0.817888
O O1 0.140301 0.656575 0.761314
O O2 0.062695 0.820635 0.718494
O O3 0.000000 0.728892 0.500000
O O4 0.975610 0.658517 0.644180
O O5 0.793448 0.233214 0.866727
O O6 0.750000 0.250000 0.000000
O O7 0.818500 0.099120 0.017140
O O8 0.389553 0.500000 0.758180
O O9 0.332034 0.362871 0.577652
O O10 0.382320 0.327446 0.813453
O O11 0.507750 0.371138 0.828086
O O12 0.247830 0.500000 0.384358
O O13 0.151256 0.385886 0.383845
O O14 0.222848 0.326670 0.305839
O O15 0.700498 0.156955 0.618823
O O16 0.615583 0.000000 0.487611
O O17 0.550521 0.500000 0.748520
#
# Coordination Sequence:
#
# PCOD8098559 Si02
#       7
#     8   8   8   8   8   8   8
#     4  11  21  39  60  86 115 154 206 243 282 341
#     4  10  24  40  54  79 118 157 200 235 280 343
#     4   9  18  32  55  88 115 143 185 234 298 357
#     4   9  18  32  56  90 120 142 183 243 300 351
#     4  10  20  34  57  91 118 145 189 244 298 342
#     4  11  18  34  58  83 116 154 188 238 295 345
#     4  10  22  40  60  84 121 156 188 241 298 349
#
# _framework density 19.717279000000001
#
# number of rings (size 3 to 8) (size 9 to 14) (size 15 to 20)
#    0.000    2.000    1.429    4.714    0.000    2.857 
#    0.000    4.286    0.000    0.857    0.000    9.000 
#    0.000    0.000    0.000    0.000    0.000    0.000 
#
# Total GULP energy -347101.980697 kJ/mol
# GULP energy per Si atom -12396.499311 kJ/mol
# Density = 1.967240 g / cm^3
# Si number density = 19.717279 Si / 1000 Ang^3
#
#
#
# Elastic Constant Matrix: (Units=GPa)
#
#
# Indices 1 2 3 4 5 6 
#
# 1 85.4407 38.4161 47.3888 0.0000 9.6968 0.0000
# 2 38.4161 96.2879 34.4268 0.0000 -0.3166 0.0000
# 3 47.3888 34.4268 87.0472 0.0000 13.6344 0.0000
# 4 0.0000 0.0000 0.0000 17.9732 0.0000 8.3698
# 5 9.6968 -0.3166 13.6344 0.0000 44.6800 0.0000
# 6 0.0000 0.0000 0.0000 8.3698 0.0000 21.7772
#
#
#
# Elastic Compliance Matrix: (Units=1/GPa)
#
#
# Indices 1 2 3 4 5 6 
#
# 1 0.018299 -0.004464 -0.007950 0.000000 -0.001577 0.000000
# 2 -0.004464 0.013298 -0.003146 0.000000 0.002023 0.000000
# 3 -0.007950 -0.003146 0.017636 0.000000 -0.003679 0.000000
# 4 0.000000 0.000000 0.000000 0.067767 0.000000 -0.026045
# 5 -0.001577 0.002023 -0.003679 0.000000 0.023861 0.000000
# 6 0.000000 0.000000 0.000000 -0.026045 0.000000 0.055930
#
#
# Mechanical properties :
#
#
# Convention : Reuss Voigt Hill
#
# Bulk Modulus (GPa) = 55.20452 56.58210 55.89331
# Shear Modulus (GPa) = 21.37223 26.78903 24.08063
#
# Velocity S-wave (km/s) = 3.29589 3.69000 3.49850
# Velocity P-wave (km/s) = 6.52247 6.84936 6.68792
#
# Compressibility (1/GPa) = 0.01811446
#
# Stress axis : x y z
#
# Youngs Moduli (GPa) = 54.64705 75.19978 56.70098
#
# Poissons Ratio (x) = 0.33567 0.45076
# Poissons Ratio (y) = 0.24393 0.17839
# Poissons Ratio (z) = 0.43443 0.23658
#
# Static dielectric constant tensor:
#      x y z
#    x 3.849680 0.000000 0.369860 
#    y 0.000000 3.518510 0.000000 
#    z 0.369860 0.000000 3.657160 
# 
# 
# High freq. dielectric constant tensor:
#      x y z
#    x 1.779240 0.000000 0.015880 
#    y 0.000000 1.759230 0.000000 
#    z 0.015880 0.000000 1.748330 
# 
# From -- ./inp_files/225369.got.cif
#   From: 2010.06.25/outbox.cif.g09.slc.cpg/sg12_113_cif.got.tgz:225369.got - 2010.06.28 00:19:55.
