data_PCOD8098340
_publ_section_title
;
Structure prediction by ZEFSAII (Michael W. Deem and Ramdas Pophale) SiO2 
 PCOD8098340
Probable space group: C 2/M
;
_chemical_formula_sum "Si O2"
_cell_formula_units_Z 56
_cell_length_a 10.009380
_cell_length_b 24.985011
_cell_length_c 16.391152
_cell_angle_alpha 90.000000
_cell_angle_beta 128.748665
_cell_angle_gamma 90.000000
_cell_volume 3196.940848
_symmetry_space_group_name_H-M "C 2/M"
_symmetry_group_IT_number 12
_symmetry_cell_setting 'monoclinic'
loop_
_space_group_symop_operation_xyz
x,y,z
-x,y,-z
-x,-y,-z
x,-y,z
1/2+x,1/2+y,z
1/2-x,1/2+y,-z
1/2-x,1/2-y,-z
1/2+x,1/2-y,z
loop_
_atom_site_type_symbol
_atom_site_label
_atom_site_fract_x
_atom_site_fract_y
_atom_site_fract_z
Si Si1 0.919787 0.500000 0.558974
Si Si2 0.965213 0.193051 0.577564
Si Si3 0.022981 0.000000 0.413397
Si Si4 0.432047 0.184486 0.559688
Si Si5 0.310534 0.398856 0.280734
Si Si6 0.803508 0.063220 0.937495
Si Si7 0.199709 0.559012 0.073708
Si Si8 0.000400 0.403922 0.289913
O O1 0.719725 0.500000 0.464975
O O2 0.974913 0.448819 0.632274
O O3 0.000000 0.500000 0.500000
O O4 0.771330 0.180891 0.526962
O O5 0.003628 0.255805 0.601961
O O6 0.000000 0.172946 0.500000
O O7 0.096722 0.158553 0.681110
O O8 0.000000 0.000000 0.500000
O O9 0.941886 0.053491 0.346578
O O10 0.500000 0.161229 0.500000
O O11 0.499867 0.152209 0.663171
O O12 0.252035 0.401154 0.165183
O O13 0.151116 0.405519 0.280924
O O14 0.683009 0.090869 0.824105
O O15 0.772350 0.000000 0.918660
O O16 0.754763 0.084300 0.008546
O O17 0.000000 0.079426 0.000000
O O18 0.285383 0.500000 0.118018
O O19 0.000000 0.551272 0.000000
#
# Coordination Sequence:
#
# PCOD8098340 Si02
#       8
#     4   8   4   8   8   8   8   8
#     4  12  26  36  52  86 130 151 182 233 294 356
#     4  10  20  38  58  84 115 153 198 235 278 339
#     4  12  22  34  54  87 118 151 183 225 287 349
#     4  10  22  37  58  84 116 154 196 238 278 341
#     4  12  21  35  62  87 115 153 195 238 283 345
#     4  10  22  38  58  82 118 152 191 236 284 348
#     4  10  20  34  56  85 113 147 195 235 273 337
#     4  12  21  38  61  83 115 160 190 233 297 343
#
# _framework density 17.516746000000001
#
# number of rings (size 3 to 8) (size 9 to 14) (size 15 to 20)
#    0.000    1.143    5.714    1.714    0.000    2.286 
#    0.000    0.000    0.000    1.714    0.000    0.000 
#    0.000    0.000    0.000    0.000    0.000    0.000 
#
# Total GULP energy -347217.348384 kJ/mol
# GULP energy per Si atom -12400.619585 kJ/mol
# Density = 1.747688 g / cm^3
# Si number density = 17.516746 Si / 1000 Ang^3
#
#
#
# Elastic Constant Matrix: (Units=GPa)
#
#
# Indices 1 2 3 4 5 6 
#
# 1 131.7704 22.8527 58.0869 0.0000 -6.0594 0.0000
# 2 22.8527 69.7699 52.1681 0.0000 -1.6813 0.0000
# 3 58.0869 52.1681 130.4102 0.0000 -6.3085 0.0000
# 4 0.0000 0.0000 0.0000 13.8569 0.0000 -8.8083
# 5 -6.0594 -1.6813 -6.3085 0.0000 32.7718 0.0000
# 6 0.0000 0.0000 0.0000 -8.8083 0.0000 11.0915
#
#
#
# Elastic Compliance Matrix: (Units=1/GPa)
#
#
# Indices 1 2 3 4 5 6 
#
# 1 0.009472 0.000058 -0.004197 0.000000 0.000947 0.000000
# 2 0.000058 0.020459 -0.008235 0.000000 -0.000525 0.000000
# 3 -0.004197 -0.008235 0.012894 0.000000 0.001284 0.000000
# 4 0.000000 0.000000 0.000000 0.145733 0.000000 0.115733
# 5 0.000947 -0.000525 0.001284 0.000000 0.030909 0.000000
# 6 0.000000 0.000000 0.000000 0.115733 0.000000 0.182068
#
#
# Mechanical properties :
#
#
# Convention : Reuss Voigt Hill
#
# Bulk Modulus (GPa) = 55.31834 66.46287 60.89060
# Shear Modulus (GPa) = 11.56579 24.80023 18.18301
#
# Velocity S-wave (km/s) = 2.57236 3.76680 3.22535
# Velocity P-wave (km/s) = 6.36172 7.54607 6.97907
#
# Compressibility (1/GPa) = 0.01807719
#
# Stress axis : x y z
#
# Youngs Moduli (GPa) = 105.57048 48.87834 77.55619
#
# Poissons Ratio (x) = -0.00284 0.32547
# Poissons Ratio (y) = -0.00613 0.63871
# Poissons Ratio (z) = 0.44303 0.40254
#
# Static dielectric constant tensor:
#      x y z
#    x 3.437240 0.000000 -0.017760 
#    y 0.000000 3.192460 0.000000 
#    z -0.017760 0.000000 3.218610 
# 
# 
# High freq. dielectric constant tensor:
#      x y z
#    x 1.693370 0.000000 -0.003090 
#    y 0.000000 1.659290 0.000000 
#    z -0.003090 0.000000 1.674630 
# 
# From -- ./inp_files/201017.got.cif
#   From: 2010.06.25/outbox.cif.g09.slc.cpg/sg12_101_cif.got.tgz:201017.got - 2010.06.28 00:19:55.
