data_PCOD8098294
_publ_section_title
;
Structure prediction by ZEFSAII (Michael W. Deem and Ramdas Pophale) SiO2 
 PCOD8098294
Probable space group: C 2/M
;
_chemical_formula_sum "Si O2"
_cell_formula_units_Z 56
_cell_length_a 21.330838
_cell_length_b 8.969908
_cell_length_c 15.113430
_cell_angle_alpha 90.000000
_cell_angle_beta 87.300020
_cell_angle_gamma 90.000000
_cell_volume 2888.527876
_symmetry_space_group_name_H-M "C 2/M"
_symmetry_group_IT_number 12
_symmetry_cell_setting 'monoclinic'
loop_
_space_group_symop_operation_xyz
x,y,z
-x,y,-z
-x,-y,-z
x,-y,z
1/2+x,1/2+y,z
1/2-x,1/2+y,-z
1/2-x,1/2-y,-z
1/2+x,1/2-y,z
loop_
_atom_site_type_symbol
_atom_site_label
_atom_site_fract_x
_atom_site_fract_y
_atom_site_fract_z
Si Si1 0.293229 0.330393 0.871172
Si Si2 0.992245 0.176867 0.722052
Si Si3 0.556132 0.823121 0.561513
Si Si4 0.363577 0.172146 0.712743
Si Si5 0.172262 0.170235 0.931821
Si Si6 0.032772 0.823446 0.910645
Si Si7 0.687484 0.171717 0.471141
O O1 0.295719 0.500000 0.836263
O O2 0.329070 0.222487 0.803097
O O3 0.221446 0.279695 0.882832
O O4 0.327420 0.315207 0.962546
O O5 0.925499 0.231975 0.691468
O O6 0.046539 0.246465 0.657355
O O7 0.000444 0.233405 0.822692
O O8 0.996484 0.000000 0.716136
O O9 0.500000 0.771648 0.500000
O O10 0.623589 0.767187 0.520834
O O11 0.554772 0.000000 0.572580
O O12 0.317097 0.197295 0.633660
O O13 0.383535 0.000000 0.719155
O O14 0.105109 0.224896 0.902479
O O15 0.187155 0.000000 0.903010
O O16 0.027466 0.000000 0.917564
O O17 0.000000 0.752252 0.000000
O O18 0.750000 0.250000 0.500000
O O19 0.694682 0.000000 0.494939
#
# Coordination Sequence:
#
# PCOD8098294 Si02
#       7
#     8   8   8   8   8   8   8
#     4  10  20  34  56  84 111 145 194 243 283 335
#     4  11  22  35  59  92 115 144 197 250 288 336
#     4  10  20  41  64  82 115 158 196 234 293 363
#     4  11  22  39  59  81 113 153 191 229 290 360
#     4   9  18  35  56  78 112 155 191 231 289 348
#     4   9  18  34  55  80 115 153 188 231 286 343
#     4  10  23  41  62  86 115 153 192 239 295 355
#
# _framework density 19.387038
#
# number of rings (size 3 to 8) (size 9 to 14) (size 15 to 20)
#    0.000    2.000    1.429    2.143    0.000    6.000 
#    0.000    5.714    0.000    3.000    0.000    0.000 
#    0.000    0.000    0.000    0.000    0.000    0.000 
#
# Total GULP energy -347251.035301 kJ/mol
# GULP energy per Si atom -12401.822689 kJ/mol
# Density = 1.934291 g / cm^3
# Si number density = 19.387038 Si / 1000 Ang^3
#
#
#
# Elastic Constant Matrix: (Units=GPa)
#
#
# Indices 1 2 3 4 5 6 
#
# 1 118.2781 31.8652 52.5022 0.0000 7.8171 0.0000
# 2 31.8652 45.2380 41.7028 0.0000 2.6121 0.0000
# 3 52.5022 41.7028 71.6741 0.0000 -17.0949 0.0000
# 4 0.0000 0.0000 0.0000 32.8040 0.0000 -4.2741
# 5 7.8171 2.6121 -17.0949 0.0000 28.3809 0.0000
# 6 0.0000 0.0000 0.0000 -4.2741 0.0000 30.2779
#
#
#
# Elastic Compliance Matrix: (Units=1/GPa)
#
#
# Indices 1 2 3 4 5 6 
#
# 1 0.017555 0.011142 -0.024219 0.000000 -0.020449 0.000000
# 2 0.011142 0.076112 -0.064051 0.000000 -0.048654 0.000000
# 3 -0.024219 -0.064051 0.084029 0.000000 0.063180 0.000000
# 4 0.000000 0.000000 0.000000 0.031055 0.000000 0.004384
# 5 -0.020449 -0.048654 0.063180 0.000000 0.083401 0.000000
# 6 0.000000 0.000000 0.000000 0.004384 0.000000 0.033646
#
#
# Mechanical properties :
#
#
# Convention : Reuss Voigt Hill
#
# Bulk Modulus (GPa) = 42.66301 54.14783 48.40542
# Shear Modulus (GPa) = 10.24865 25.56724 17.90794
#
# Velocity S-wave (km/s) = 2.30170 3.63544 3.04255
# Velocity P-wave (km/s) = 5.39606 6.75370 6.11269
#
# Compressibility (1/GPa) = 0.02343951
#
# Stress axis : x y z
#
# Youngs Moduli (GPa) = 56.96342 13.13854 11.90060
#
# Poissons Ratio (x) = -0.14639 0.28822
# Poissons Ratio (y) = -0.63467 0.76224
# Poissons Ratio (z) = 1.37962 0.84154
#
# Static dielectric constant tensor:
#      x y z
#    x 3.618660 0.000000 -0.086780 
#    y 0.000000 3.373680 0.000000 
#    z -0.086780 0.000000 3.681200 
# 
# 
# High freq. dielectric constant tensor:
#      x y z
#    x 1.760150 0.000000 -0.005860 
#    y 0.000000 1.738540 0.000000 
#    z -0.005860 0.000000 1.759890 
# 
# From -- ./inp_files/230967.got.cif
#   From: 2010.06.25/outbox.cif.g09.slc.cpg/sg12_116_cif.got.tgz:230967.got - 2010.06.28 00:19:55.
