data_PCOD8098343
_publ_section_title
;
Structure prediction by ZEFSAII (Michael W. Deem and Ramdas Pophale) SiO2 
 PCOD8098343
Probable space group: C 2/M
;
_chemical_formula_sum "Si O2"
_cell_formula_units_Z 56
_cell_length_a 23.134920
_cell_length_b 9.253780
_cell_length_c 31.059447
_cell_angle_alpha 90.000000
_cell_angle_beta 154.423040
_cell_angle_gamma 90.000000
_cell_volume 2870.688990
_symmetry_space_group_name_H-M "C 2/M"
_symmetry_group_IT_number 12
_symmetry_cell_setting 'monoclinic'
loop_
_space_group_symop_operation_xyz
x,y,z
-x,y,-z
-x,-y,-z
x,-y,z
1/2+x,1/2+y,z
1/2-x,1/2+y,-z
1/2-x,1/2-y,-z
1/2+x,1/2-y,z
loop_
_atom_site_type_symbol
_atom_site_label
_atom_site_fract_x
_atom_site_fract_y
_atom_site_fract_z
Si Si1 0.376656 0.664640 0.101369
Si Si2 0.651071 0.330767 0.594106
Si Si3 0.121301 0.167177 0.209903
Si Si4 0.680941 0.666024 0.840888
Si Si5 0.049781 0.166794 0.986602
Si Si6 0.543346 0.168171 0.355182
Si Si7 0.295868 0.333109 0.467715
O O1 0.355040 0.500000 0.072028
O O2 0.509509 0.726434 0.168037
O O3 0.394583 0.678488 0.164399
O O4 0.250000 0.750000 0.000000
O O5 0.500000 0.277008 0.500000
O O6 0.662833 0.500000 0.610098
O O7 0.742586 0.254102 0.691195
O O8 0.700821 0.287940 0.579866
O O9 0.071822 0.194194 0.128025
O O10 0.151528 0.000000 0.238905
O O11 0.693727 0.500000 0.834796
O O12 0.595756 0.753339 0.748663
O O13 0.827105 0.733629 0.944141
O O14 0.096152 0.000000 0.016431
O O15 0.000000 0.212913 0.000000
O O16 0.598525 0.233823 0.436456
O O17 0.647580 0.194961 0.386411
O O18 0.514415 0.000000 0.342955
O O19 0.337787 0.500000 0.502262
#
# Coordination Sequence:
#
# PCOD8098343 Si02
#       7
#     8   8   8   8   8   8   8
#     4  10  20  34  56  85 114 146 186 232 284 337
#     4  10  22  39  59  83 112 148 190 234 283 338
#     4  10  21  38  59  84 114 147 187 238 286 333
#     4  11  22  35  55  85 116 148 187 232 283 341
#     4  10  22  40  59  80 112 152 192 232 276 335
#     4  10  20  34  57  84 112 148 185 229 285 341
#     4   9  19  37  57  81 112 145 185 235 286 336
#
# _framework density 19.507512999999999
#
# number of rings (size 3 to 8) (size 9 to 14) (size 15 to 20)
#    0.000    2.000    1.429    1.714    0.000    4.571 
#    0.000    2.857    0.000    0.000    0.000    0.000 
#    0.000    0.000    0.000    0.000    0.000    0.000 
#
# Total GULP energy -347330.329524 kJ/mol
# GULP energy per Si atom -12404.654626 kJ/mol
# Density = 1.946311 g / cm^3
# Si number density = 19.507513 Si / 1000 Ang^3
#
#
#
# Elastic Constant Matrix: (Units=GPa)
#
#
# Indices 1 2 3 4 5 6 
#
# 1 89.8775 26.3725 34.8721 0.0017 -4.8821 0.0002
# 2 26.3725 82.9948 62.4573 -0.0040 -4.8691 -0.0001
# 3 34.8721 62.4573 137.0662 -0.0056 -1.9724 -0.0001
# 4 0.0017 -0.0040 -0.0056 40.6083 -0.0013 -2.2637
# 5 -4.8821 -4.8691 -1.9724 -0.0013 24.6962 0.0002
# 6 0.0002 -0.0001 -0.0001 -2.2637 0.0002 22.8353
#
#
#
# Elastic Compliance Matrix: (Units=1/GPa)
#
#
# Indices 1 2 3 4 5 6 
#
# 1 0.012746 -0.002312 -0.002162 -0.000001 0.001891 0.000000
# 2 -0.002312 0.018974 -0.008020 0.000001 0.002643 0.000000
# 3 -0.002162 -0.008020 0.011484 0.000001 -0.001091 0.000000
# 4 -0.000001 0.000001 0.000001 0.024762 0.000001 0.002455
# 5 0.001891 0.002643 -0.001091 0.000001 0.041300 0.000000
# 6 0.000000 0.000000 0.000000 0.002455 0.000000 0.044035
#
#
# Mechanical properties :
#
#
# Convention : Reuss Voigt Hill
#
# Bulk Modulus (GPa) = 54.89433 61.92694 58.41063
# Shear Modulus (GPa) = 27.12054 30.04371 28.58213
#
# Velocity S-wave (km/s) = 3.73267 3.92868 3.83193
# Velocity P-wave (km/s) = 6.83946 7.23833 7.04172
#
# Compressibility (1/GPa) = 0.01821682
#
# Stress axis : x y z
#
# Youngs Moduli (GPa) = 78.45391 52.70419 87.07482
#
# Poissons Ratio (x) = 0.12187 0.18826
# Poissons Ratio (y) = 0.18141 0.69830
# Poissons Ratio (z) = 0.16962 0.42266
#
# Static dielectric constant tensor:
#      x y z
#    x 3.622890 0.000000 -0.003070 
#    y 0.000000 3.520130 0.000000 
#    z -0.003070 0.000000 3.436490 
# 
# 
# High freq. dielectric constant tensor:
#      x y z
#    x 1.756930 0.000000 -0.005760 
#    y 0.000000 1.757300 0.000000 
#    z -0.005760 0.000000 1.761370 
# 
# From -- ./inp_files/380752.got.cif
#   From: 2010.06.25/outbox.cif.g09.slc.cpg/sg12_191_cif.got.tgz:380752.got - 2010.06.28 00:19:55.
