data_PCOD8098747
_publ_section_title
;
Structure prediction by ZEFSAII (Michael W. Deem and Ramdas Pophale) SiO2 
 PCOD8098747
Probable space group: C 2/M
;
_chemical_formula_sum "Si O2"
_cell_formula_units_Z 44
_cell_length_a 11.921329
_cell_length_b 22.986088
_cell_length_c 14.326269
_cell_angle_alpha 90.000000
_cell_angle_beta 38.569065
_cell_angle_gamma 90.000000
_cell_volume 2447.539605
_symmetry_space_group_name_H-M "C 2/M"
_symmetry_group_IT_number 12
_symmetry_cell_setting 'monoclinic'
loop_
_space_group_symop_operation_xyz
x,y,z
-x,y,-z
-x,-y,-z
x,-y,z
1/2+x,1/2+y,z
1/2-x,1/2+y,-z
1/2-x,1/2-y,-z
1/2+x,1/2-y,z
loop_
_atom_site_type_symbol
_atom_site_label
_atom_site_fract_x
_atom_site_fract_y
_atom_site_fract_z
Si Si1 0.287980 0.170344 0.632307
Si Si2 0.587007 0.659695 0.574235
Si Si3 0.856710 0.066017 0.809443
Si Si4 0.076057 0.934013 0.849048
Si Si5 0.247185 0.295084 0.719774
Si Si6 0.500000 0.866935 0.000000
O O1 0.500000 0.175652 0.500000
O O2 0.225865 0.172700 0.565970
O O3 0.231626 0.112019 0.723367
O O4 0.200062 0.227837 0.734188
O O5 0.501738 0.595553 0.645407
O O6 0.695283 0.667061 0.408017
O O7 0.413541 0.702890 0.685639
O O8 0.916905 0.072436 0.877713
O O9 0.845563 0.000000 0.783642
O O10 0.659871 0.093317 0.933545
O O11 0.155298 0.000000 0.795166
O O12 0.000000 0.918966 0.000000
O O13 0.067395 0.325317 0.873438
#
# Coordination Sequence:
#
# PCOD8098747 Si02
#       6
#     8   8   8   8   8   4
#     4  11  21  33  57  79 101 142 179 213 258 312
#     4   9  19  37  52  75 106 139 171 218 264 300
#     4   9  18  36  57  77 104 140 175 214 261 309
#     4   9  20  38  55  77 110 139 172 216 261 306
#     4  10  20  35  52  75 112 137 170 217 264 307
#     4  10  21  34  52  82 107 136 170 220 258 312
#
# _framework density 17.977236999999999
#
# number of rings (size 3 to 8) (size 9 to 14) (size 15 to 20)
#    0.000    2.364    1.818    0.818    1.273    1.818 
#    0.000   10.909    0.000    0.000    0.000    0.000 
#    0.000    0.000    0.000    0.000    0.000    0.000 
#
# Total GULP energy -272700.530376 kJ/mol
# GULP energy per Si atom -12395.478653 kJ/mol
# Density = 1.793632 g / cm^3
# Si number density = 17.977237 Si / 1000 Ang^3
#
#
#
# Elastic Constant Matrix: (Units=GPa)
#
#
# Indices 1 2 3 4 5 6 
#
# 1 86.9768 48.0607 32.7150 -0.0023 -3.2395 0.0009
# 2 48.0607 143.7522 66.1693 -0.0015 1.2449 0.0009
# 3 32.7150 66.1693 87.5477 -0.0039 4.7125 0.0056
# 4 -0.0023 -0.0015 -0.0039 14.7438 0.0004 -5.2713
# 5 -3.2395 1.2449 4.7125 0.0004 25.5704 -0.0029
# 6 0.0009 0.0009 0.0056 -5.2713 -0.0029 20.0038
#
#
#
# Elastic Compliance Matrix: (Units=1/GPa)
#
#
# Indices 1 2 3 4 5 6 
#
# 1 0.014670 -0.003588 -0.002908 0.000001 0.002569 0.000001
# 2 -0.003588 0.011570 -0.007422 -0.000001 0.000350 0.000002
# 3 -0.002908 -0.007422 0.018301 0.000002 -0.003380 -0.000005
# 4 0.000001 -0.000001 0.000002 0.074880 0.000001 0.019732
# 5 0.002569 0.000350 -0.003380 0.000001 0.040039 0.000007
# 6 0.000001 0.000002 -0.000005 0.019732 0.000007 0.055190
#
#
# Mechanical properties :
#
#
# Convention : Reuss Voigt Hill
#
# Bulk Modulus (GPa) = 59.87042 68.01853 63.94447
# Shear Modulus (GPa) = 20.15691 23.48570 21.82130
#
# Velocity S-wave (km/s) = 3.35213 3.61835 3.48779
# Velocity P-wave (km/s) = 6.95400 7.44142 7.20184
#
# Compressibility (1/GPa) = 0.01670274
#
# Stress axis : x y z
#
# Youngs Moduli (GPa) = 68.16851 86.43397 54.64221
#
# Poissons Ratio (x) = 0.31013 0.15891
# Poissons Ratio (y) = 0.24460 0.40557
# Poissons Ratio (z) = 0.19824 0.64155
#
# Static dielectric constant tensor:
#      x y z
#    x 3.452990 0.000000 0.036480 
#    y 0.000000 3.579550 0.000000 
#    z 0.036480 0.000000 3.173800 
# 
# 
# High freq. dielectric constant tensor:
#      x y z
#    x 1.702400 0.000000 0.000410 
#    y 0.000000 1.706020 0.000000 
#    z 0.000410 0.000000 1.681910 
# 
# From -- ./inp_files/207526.got.cif
#   From: 2010.06.25/outbox.cif.g09.slc.cpg/sg12_104_cif.got.tgz:207526.got - 2010.06.28 00:19:55.
