data_PCOD8098626
_publ_section_title
;
Structure prediction by ZEFSAII (Michael W. Deem and Ramdas Pophale) SiO2 
 PCOD8098626
Probable space group: C 2/M
;
_chemical_formula_sum "Si O2"
_cell_formula_units_Z 64
_cell_length_a 18.583562
_cell_length_b 14.405751
_cell_length_c 25.056633
_cell_angle_alpha 90.000000
_cell_angle_beta 28.213943
_cell_angle_gamma 90.000000
_cell_volume 3171.269082
_symmetry_space_group_name_H-M "C 2/M"
_symmetry_group_IT_number 12
_symmetry_cell_setting 'monoclinic'
loop_
_space_group_symop_operation_xyz
x,y,z
-x,y,-z
-x,-y,-z
x,-y,z
1/2+x,1/2+y,z
1/2-x,1/2+y,-z
1/2-x,1/2-y,-z
1/2+x,1/2-y,z
loop_
_atom_site_type_symbol
_atom_site_label
_atom_site_fract_x
_atom_site_fract_y
_atom_site_fract_z
Si Si1 0.428765 0.893251 0.961104
Si Si2 0.272635 0.103615 0.582308
Si Si3 0.546061 0.394541 0.823471
Si Si4 0.000907 0.773501 0.439499
Si Si5 0.807050 0.755601 0.841209
Si Si6 0.705918 0.896415 0.060524
Si Si7 0.827043 0.245418 0.180113
Si Si8 0.382642 0.677235 0.411015
O O1 0.422137 0.884808 0.901130
O O2 0.580791 0.842251 0.881671
O O3 0.435881 0.000000 0.975173
O O4 0.276061 0.848176 0.084559
O O5 0.147709 0.137888 0.707050
O O6 0.413366 0.174678 0.492760
O O7 0.187394 0.096050 0.580131
O O8 0.333776 0.000000 0.555080
O O9 0.585644 0.500000 0.812402
O O10 0.571603 0.333721 0.859426
O O11 0.368787 0.381472 0.924901
O O12 0.929651 0.846080 0.442171
O O13 0.000000 0.815265 0.500000
O O14 0.175640 0.756590 0.313136
O O15 0.824086 0.677713 0.874528
O O16 0.708878 0.713838 0.856526
O O17 0.973665 0.779684 0.712428
O O18 0.697825 0.000000 0.090762
O O19 0.250000 0.750000 0.500000
#
# Coordination Sequence:
#
# PCOD8098626 Si02
#       8
#     8   8   8   8   8   8   8   8
#     4  11  24  40  61  88 118 158 208 251 292 347
#     4  10  20  36  61  90 119 152 196 250 296 347
#     4  10  20  34  58  92 123 155 197 242 298 360
#     4  10  20  37  59  84 118 156 196 240 293 360
#     4  11  22  37  61  86 121 159 198 243 300 354
#     4  10  22  38  59  89 120 154 197 245 296 356
#     4  11  23  37  57  89 120 162 196 242 302 357
#     4   9  21  37  57  88 115 154 195 236 292 349
#
# _framework density 20.181194999999999
#
# number of rings (size 3 to 8) (size 9 to 14) (size 15 to 20)
#    0.000    1.750    2.500    1.500    1.750    3.750 
#    0.000    8.125    0.000    1.500    0.000    0.000 
#    0.000    0.000    0.000    0.000    0.000    0.000 
#
# Total GULP energy -396628.509545 kJ/mol
# GULP energy per Si atom -12394.640923 kJ/mol
# Density = 2.013526 g / cm^3
# Si number density = 20.181195 Si / 1000 Ang^3
#
#
#
# Elastic Constant Matrix: (Units=GPa)
#
#
# Indices 1 2 3 4 5 6 
#
# 1 88.0393 16.3092 27.8846 -0.0081 6.9694 -0.0014
# 2 16.3092 64.5074 35.6445 0.0114 2.6554 0.0025
# 3 27.8846 35.6445 98.8489 0.0181 0.0150 0.0030
# 4 -0.0081 0.0114 0.0181 10.7626 -0.0045 -8.8909
# 5 6.9694 2.6554 0.0150 -0.0045 32.4427 -0.0015
# 6 -0.0014 0.0025 0.0030 -8.8909 -0.0015 12.3843
#
#
#
# Elastic Compliance Matrix: (Units=1/GPa)
#
#
# Indices 1 2 3 4 5 6 
#
# 1 0.012812 -0.001416 -0.003103 0.000042 -0.002635 0.000032
# 2 -0.001416 0.019598 -0.006667 -0.000033 -0.001297 -0.000026
# 3 -0.003103 -0.006667 0.013396 -0.000047 0.001206 -0.000036
# 4 0.000042 -0.000033 -0.000047 0.228329 0.000033 0.163921
# 5 -0.002635 -0.001297 0.001206 0.000033 0.031495 0.000028
# 6 0.000032 -0.000026 -0.000036 0.163921 0.000028 0.198430
#
#
# Mechanical properties :
#
#
# Convention : Reuss Voigt Hill
#
# Bulk Modulus (GPa) = 42.67525 45.67469 44.17497
# Shear Modulus (GPa) = 9.35904 22.55506 15.95705
#
# Velocity S-wave (km/s) = 2.15582 3.34672 2.81497
# Velocity P-wave (km/s) = 5.23342 6.13315 5.70106
#
# Compressibility (1/GPa) = 0.02343279
#
# Stress axis : x y z
#
# Youngs Moduli (GPa) = 78.04944 51.02689 74.65019
#
# Poissons Ratio (x) = 0.07226 0.23166
# Poissons Ratio (y) = 0.11053 0.49770
# Poissons Ratio (z) = 0.24221 0.34020
#
# Static dielectric constant tensor:
#      x y z
#    x 4.547120 -0.000100 0.080510 
#    y -0.000100 3.534640 0.000010 
#    z 0.080510 0.000010 3.725280 
# 
# 
# High freq. dielectric constant tensor:
#      x y z
#    x 1.808040 0.000000 -0.002730 
#    y 0.000000 1.760590 0.000000 
#    z -0.002730 0.000000 1.792420 
# 
# From -- ./inp_files/343995.got.cif
#   From: 2010.06.25/outbox.cif.g09.slc.cpg/sg12_172_cif.got.tgz:343995.got - 2010.06.28 00:19:55.
