data_PCOD8098847
_publ_section_title
;
Structure prediction by ZEFSAII (Michael W. Deem and Ramdas Pophale) SiO2 
 PCOD8098847
Probable space group: C 2/M
;
_chemical_formula_sum "Si O2"
_cell_formula_units_Z 48
_cell_length_a 27.885735
_cell_length_b 8.793720
_cell_length_c 11.391977
_cell_angle_alpha 90.000000
_cell_angle_beta 103.465098
_cell_angle_gamma 90.000000
_cell_volume 2716.744350
_symmetry_space_group_name_H-M "C 2/M"
_symmetry_group_IT_number 12
_symmetry_cell_setting 'monoclinic'
loop_
_space_group_symop_operation_xyz
x,y,z
-x,y,-z
-x,-y,-z
x,-y,z
1/2+x,1/2+y,z
1/2-x,1/2+y,-z
1/2-x,1/2-y,-z
1/2+x,1/2-y,z
loop_
_atom_site_type_symbol
_atom_site_label
_atom_site_fract_x
_atom_site_fract_y
_atom_site_fract_z
Si Si1 0.677208 0.677233 0.411933
Si Si2 0.777650 0.323344 0.342116
Si Si3 0.496727 0.667425 0.137222
Si Si4 0.792476 0.821337 0.101593
Si Si5 0.094755 0.677768 0.213634
Si Si6 0.108856 0.179195 0.971318
O O1 0.674239 0.500000 0.440808
O O2 0.721533 0.711283 0.347074
O O3 0.685072 0.769232 0.536104
O O4 0.626652 0.732622 0.326742
O O5 0.786104 0.500000 0.322225
O O6 0.789154 0.230710 0.232649
O O7 0.507155 0.500000 0.197241
O O8 0.537310 0.785004 0.208510
O O9 0.500000 0.657407 0.000000
O O10 0.440505 0.720153 0.132207
O O11 0.786308 0.000000 0.091828
O O12 0.750000 0.750000 0.000000
O O13 0.845070 0.769796 0.080267
O O14 0.103942 0.500000 0.232783
O O15 0.110635 0.729014 0.093340
O O16 0.109565 0.000000 0.002610
#
# Coordination Sequence:
#
# PCOD8098847 Si02
#       6
#     8   8   8   8   8   8
#     4  10  20  35  54  73  98 133 168 202 243 295
#     4  10  21  36  53  75 101 129 165 207 249 291
#     4   8  15  30  49  68  95 131 167 203 245 293
#     4  11  22  35  52  75 103 135 169 202 242 293
#     4  11  20  29  48  78 105 128 162 208 253 293
#     4   9  19  34  50  70 100 137 171 202 241 295
#
# _framework density 17.668205
#
# number of rings (size 3 to 8) (size 9 to 14) (size 15 to 20)
#    0.000    2.167    0.000    5.000    0.000   10.333 
#    0.000    0.000    0.000    1.000    0.000    7.000 
#    0.000    0.000    0.000    0.000    0.000    0.000 
#
# Total GULP energy -297602.816865 kJ/mol
# GULP energy per Si atom -12400.117369 kJ/mol
# Density = 1.762799 g / cm^3
# Si number density = 17.668205 Si / 1000 Ang^3
#
#
#
# Elastic Constant Matrix: (Units=GPa)
#
#
# Indices 1 2 3 4 5 6 
#
# 1 129.1746 33.8470 51.3762 0.0000 10.4005 0.0000
# 2 33.8470 50.5323 15.8162 0.0000 0.8400 0.0000
# 3 51.3762 15.8162 67.3174 0.0000 7.3717 0.0000
# 4 0.0000 0.0000 0.0000 32.2268 0.0000 3.5107
# 5 10.4005 0.8400 7.3717 0.0000 25.9317 0.0000
# 6 0.0000 0.0000 0.0000 3.5107 0.0000 26.4617
#
#
#
# Elastic Compliance Matrix: (Units=1/GPa)
#
#
# Indices 1 2 3 4 5 6 
#
# 1 0.012696 -0.005956 -0.008003 0.000000 -0.002624 0.000000
# 2 -0.005956 0.024168 -0.001351 0.000000 0.001990 0.000000
# 3 -0.008003 -0.001351 0.021596 0.000000 -0.002886 0.000000
# 4 0.000000 0.000000 0.000000 0.031485 0.000000 -0.004177
# 5 -0.002624 0.001990 -0.002886 0.000000 0.040371 0.000000
# 6 0.000000 0.000000 0.000000 -0.004177 0.000000 0.038345
#
#
# Mechanical properties :
#
#
# Convention : Reuss Voigt Hill
#
# Bulk Modulus (GPa) = 35.91756 49.90035 42.90895
# Shear Modulus (GPa) = 23.97374 26.65637 25.31506
#
# Velocity S-wave (km/s) = 3.68759 3.88844 3.78934
# Velocity P-wave (km/s) = 6.20517 6.96163 6.59426
#
# Compressibility (1/GPa) = 0.02784154
#
# Stress axis : x y z
#
# Youngs Moduli (GPa) = 78.76308 41.37671 46.30416
#
# Poissons Ratio (x) = 0.24642 0.37058
# Poissons Ratio (y) = 0.46908 0.06256
# Poissons Ratio (z) = 0.63035 0.05590
#
# Static dielectric constant tensor:
#      x y z
#    x 3.601900 0.000000 -0.541270 
#    y 0.000000 3.311040 0.000000 
#    z -0.541270 0.000000 -3.899800 
# 
# 
# High freq. dielectric constant tensor:
#      x y z
#    x 1.687140 0.000000 0.018870 
#    y 0.000000 1.690120 0.000000 
#    z 0.018870 0.000000 1.659540 
# 
# From -- ./inp_files/172396.got.cif
#   From: 2010.06.25/outbox.cif.g09.slc.cpg/sg12_87_cif.got.tgz:172396.got - 2010.06.28 00:19:55.
