data_PCOD8098279
_publ_section_title
;
Structure prediction by ZEFSAII (Michael W. Deem and Ramdas Pophale) SiO2 
 PCOD8098279
Probable space group: C 2/M
;
_chemical_formula_sum "Si O2"
_cell_formula_units_Z 44
_cell_length_a 9.254318
_cell_length_b 9.510756
_cell_length_c 26.843180
_cell_angle_alpha 90.000000
_cell_angle_beta 118.916902
_cell_angle_gamma 90.000000
_cell_volume 2068.050921
_symmetry_space_group_name_H-M "C 2/M"
_symmetry_group_IT_number 12
_symmetry_cell_setting 'monoclinic'
loop_
_space_group_symop_operation_xyz
x,y,z
-x,y,-z
-x,-y,-z
x,-y,z
1/2+x,1/2+y,z
1/2-x,1/2+y,-z
1/2-x,1/2-y,-z
1/2+x,1/2-y,z
loop_
_atom_site_type_symbol
_atom_site_label
_atom_site_fract_x
_atom_site_fract_y
_atom_site_fract_z
Si Si1 0.879109 0.660611 0.630274
Si Si2 0.346016 0.651132 0.076268
Si Si3 0.568528 0.158902 0.564218
Si Si4 0.500000 0.715915 0.000000
Si Si5 0.928667 0.161509 0.260448
Si Si6 0.382284 0.338209 0.807014
O O1 0.870907 0.500000 0.648994
O O2 0.704717 0.735622 0.607847
O O3 0.920090 0.661739 0.578681
O O4 0.016817 0.747041 0.683161
O O5 0.334448 0.500000 0.099394
O O6 0.157366 0.699883 0.046432
O O7 0.472443 0.731373 0.134130
O O8 0.423384 0.632111 0.033706
O O9 0.500000 0.212187 0.500000
O O10 0.640953 0.000000 0.571481
O O11 0.769928 0.234743 0.209657
O O12 0.071967 0.164819 0.243367
O O13 0.890385 0.000000 0.269841
O O14 0.339565 0.500000 0.815786
#
# Coordination Sequence:
#
# PCOD8098279 Si02
#       6
#     8   8   8   4   8   8
#     4  11  23  38  60  88 116 150 191 234 283 337
#     4  10  20  36  56  80 111 145 182 228 278 330
#     4  10  22  40  60  85 118 153 190 234 282 334
#     4  10  20  34  56  84 110 142 184 224 276 336
#     4  11  23  39  59  84 113 149 191 234 283 337
#     4  10  22  39  58  82 114 149 188 234 282 334
#
# _framework density 21.276071999999999
#
# number of rings (size 3 to 8) (size 9 to 14) (size 15 to 20)
#    0.000    1.636    0.000    4.364    0.000    7.636 
#    0.000    4.545    0.000    0.000    0.000    0.000 
#    0.000    0.000    0.000    0.000    0.000    0.000 
#
# Total GULP energy -272654.464447 kJ/mol
# GULP energy per Si atom -12393.384748 kJ/mol
# Density = 2.122765 g / cm^3
# Si number density = 21.276072 Si / 1000 Ang^3
#
#
#
# Elastic Constant Matrix: (Units=GPa)
#
#
# Indices 1 2 3 4 5 6 
#
# 1 68.3217 26.8364 4.6134 0.0000 14.5881 0.0000
# 2 26.8364 121.5139 33.7785 0.0000 22.6962 0.0000
# 3 4.6134 33.7785 95.9235 0.0000 15.4966 0.0000
# 4 0.0000 0.0000 0.0000 -32.7468 0.0000 -188.2018
# 5 14.5881 22.6962 15.4966 0.0000 42.4588 0.0000
# 6 0.0000 0.0000 0.0000 -188.2018 0.0000 -593.9498
#
#
#
# Elastic Compliance Matrix: (Units=1/GPa)
#
#
# Indices 1 2 3 4 5 6 
#
# 1 0.016756 -0.003155 0.001023 0.000000 -0.004444 0.000000
# 2 -0.003155 0.010381 -0.002957 0.000000 -0.003386 0.000000
# 3 0.001023 -0.002957 0.011921 0.000000 -0.003122 0.000000
# 4 0.000000 0.000000 0.000000 0.037192 0.000000 -0.011785
# 5 -0.004444 -0.003386 -0.003122 0.000000 0.028028 0.000000
# 6 0.000000 0.000000 0.000000 -0.011785 0.000000 0.002051
#
#
# Mechanical properties :
#
#
# Convention : Reuss Voigt Hill
#
# Bulk Modulus (GPa) = 34.62550 46.24619 40.43584
# Shear Modulus (GPa) = 39.64105 -102.14549 -31.25222
#
# Velocity S-wave (km/s) = 4.32113 -6.93641 -3.83677
# Velocity P-wave (km/s) = 6.41919 6.50909 0.76233
#
# Compressibility (1/GPa) = 0.02888045
#
# Stress axis : x y z
#
# Youngs Moduli (GPa) = 59.68147 96.33401 83.88332
#
# Poissons Ratio (x) = 0.30392 -0.08581
# Poissons Ratio (y) = 0.18829 0.24802
# Poissons Ratio (z) = -0.06105 0.28483
#
# Static dielectric constant tensor:
#      x y z
#    x 3.684910 0.000000 0.044020 
#    y 0.000000 3.809000 0.000000 
#    z 0.044020 0.000000 3.909970 
# 
# 
# High freq. dielectric constant tensor:
#      x y z
#    x 1.830770 0.000000 -0.000250 
#    y 0.000000 1.826640 0.000000 
#    z -0.000250 0.000000 1.848410 
# 
# From -- ./inp_files/371869.got.cif
#   From: 2010.06.25/outbox.cif.g09.slc.cpg/sg12_186_cif.got.tgz:371869.got - 2010.06.28 00:19:55.
