data_PCOD8098297
_publ_section_title
;
Structure prediction by ZEFSAII (Michael W. Deem and Ramdas Pophale) SiO2 
 PCOD8098297
Probable space group: C 2/M
;
_chemical_formula_sum "Si O2"
_cell_formula_units_Z 48
_cell_length_a 28.088286
_cell_length_b 9.601607
_cell_length_c 9.975165
_cell_angle_alpha 90.000000
_cell_angle_beta 90.253242
_cell_angle_gamma 90.000000
_cell_volume 2690.202739
_symmetry_space_group_name_H-M "C 2/M"
_symmetry_group_IT_number 12
_symmetry_cell_setting 'monoclinic'
loop_
_space_group_symop_operation_xyz
x,y,z
-x,y,-z
-x,-y,-z
x,-y,z
1/2+x,1/2+y,z
1/2-x,1/2+y,-z
1/2-x,1/2-y,-z
1/2+x,1/2-y,z
loop_
_atom_site_type_symbol
_atom_site_label
_atom_site_fract_x
_atom_site_fract_y
_atom_site_fract_z
Si Si1 0.625836 0.337886 0.267288
Si Si2 0.478201 0.662517 0.640733
Si Si3 0.971501 0.657073 0.135912
Si Si4 0.376427 0.840118 0.002200
Si Si5 0.272833 0.337751 0.617761
Si Si6 0.725205 0.157588 0.891294
O O1 0.627922 0.500000 0.227280
O O2 0.578240 0.303444 0.351864
O O3 0.626912 0.252051 0.130398
O O4 0.671690 0.298054 0.357828
O O5 0.500000 0.712911 0.500000
O O6 0.487598 0.500000 0.662516
O O7 0.505927 0.741392 0.756623
O O8 0.971529 0.500000 0.193925
O O9 0.918670 0.709473 0.099823
O O10 0.000000 0.664843 0.000000
O O11 0.384293 0.000000 0.955681
O O12 0.330985 0.823819 0.096358
O O13 0.267694 0.500000 0.582777
O O14 0.250000 0.250000 0.500000
O O15 0.241947 0.294760 0.745917
O O16 0.741585 0.000000 0.918008
O O17 0.750000 0.250000 0.000000
#
# Coordination Sequence:
#
# PCOD8098297 Si02
#       6
#     8   8   8   8   8   8
#     4  10  20  36  57  79 108 145 184 227 275 326
#     4  10  22  38  56  81 113 147 185 228 274 327
#     4  10  20  35  55  82 112 142 182 227 270 323
#     4  10  20  34  56  84 112 142 181 228 274 323
#     4  10  22  38  55  80 112 145 181 223 272 327
#     4  10  20  35  56  82 110 140 180 226 270 320
#
# _framework density 17.842521999999999
#
# number of rings (size 3 to 8) (size 9 to 14) (size 15 to 20)
#    0.000    2.000    3.333    0.000    0.000    4.000 
#    0.000    0.000    0.000    0.000    0.000    0.000 
#    0.000    0.000    0.000    0.000    0.000    0.000 
#
# Total GULP energy -297605.966044 kJ/mol
# GULP energy per Si atom -12400.248585 kJ/mol
# Density = 1.780191 g / cm^3
# Si number density = 17.842522 Si / 1000 Ang^3
#
#
#
# Elastic Constant Matrix: (Units=GPa)
#
#
# Indices 1 2 3 4 5 6 
#
# 1 157.2030 52.4551 80.5269 0.0000 8.6846 0.0000
# 2 52.4551 61.3212 61.0468 0.0000 10.8088 0.0000
# 3 80.5269 61.0468 122.5164 0.0000 4.1855 0.0000
# 4 0.0000 0.0000 0.0000 50.5011 0.0000 6.3593
# 5 8.6846 10.8088 4.1855 0.0000 32.8503 0.0000
# 6 0.0000 0.0000 0.0000 6.3593 0.0000 28.1081
#
#
#
# Elastic Compliance Matrix: (Units=1/GPa)
#
#
# Indices 1 2 3 4 5 6 
#
# 1 0.010085 -0.003793 -0.004711 0.000000 -0.000818 0.000000
# 2 -0.003793 0.036420 -0.015346 0.000000 -0.009025 0.000000
# 3 -0.004711 -0.015346 0.018772 0.000000 0.003903 0.000000
# 4 0.000000 0.000000 0.000000 0.020382 0.000000 -0.004611
# 5 -0.000818 -0.009025 0.003903 0.000000 0.033130 0.000000
# 6 0.000000 0.000000 0.000000 -0.004611 0.000000 0.036620
#
#
# Mechanical properties :
#
#
# Convention : Reuss Voigt Hill
#
# Bulk Modulus (GPa) = 56.89081 81.01092 68.95086
# Shear Modulus (GPa) = 23.92714 32.09271 28.00992
#
# Velocity S-wave (km/s) = 3.66596 4.24567 3.96642
# Velocity P-wave (km/s) = 7.06210 8.33883 7.72688
#
# Compressibility (1/GPa) = 0.01757753
#
# Stress axis : x y z
#
# Youngs Moduli (GPa) = 99.15582 27.45719 53.27215
#
# Poissons Ratio (x) = 0.10415 0.25095
# Poissons Ratio (y) = 0.37611 0.81751
# Poissons Ratio (z) = 0.46710 0.42135
#
# Static dielectric constant tensor:
#      x y z
#    x 4.336520 0.000000 -0.276620 
#    y 0.000000 3.347880 0.000000 
#    z -0.276620 0.000000 3.113750 
# 
# 
# High freq. dielectric constant tensor:
#      x y z
#    x 1.713220 0.000000 -0.005330 
#    y 0.000000 1.689030 0.000000 
#    z -0.005330 0.000000 1.679180 
# 
# From -- ./inp_files/94526.got.cif
#   From: 2010.06.25/outbox.cif.g09.slc.cpg/sg12_48_cif.got.tgz:94526.got - 2010.06.28 00:19:55.
