data_PCOD8098898
_publ_section_title
;
Structure prediction by ZEFSAII (Michael W. Deem and Ramdas Pophale) SiO2 
 PCOD8098898
Probable space group: C 2/M
;
_chemical_formula_sum "Si O2"
_cell_formula_units_Z 64
_cell_length_a 29.892412
_cell_length_b 9.455650
_cell_length_c 14.334513
_cell_angle_alpha 90.000000
_cell_angle_beta 58.517878
_cell_angle_gamma 90.000000
_cell_volume 3455.286717
_symmetry_space_group_name_H-M "C 2/M"
_symmetry_group_IT_number 12
_symmetry_cell_setting 'monoclinic'
loop_
_space_group_symop_operation_xyz
x,y,z
-x,y,-z
-x,-y,-z
x,-y,z
1/2+x,1/2+y,z
1/2-x,1/2+y,-z
1/2-x,1/2-y,-z
1/2+x,1/2-y,z
loop_
_atom_site_type_symbol
_atom_site_label
_atom_site_fract_x
_atom_site_fract_y
_atom_site_fract_z
Si Si1 0.667143 0.837497 0.821302
Si Si2 0.034420 0.163241 0.547854
Si Si3 0.292646 0.163995 0.896911
Si Si4 0.913856 0.664242 0.246607
Si Si5 0.114493 0.338079 0.073482
Si Si6 0.510331 0.335079 0.201958
Si Si7 0.371524 0.837156 0.493001
Si Si8 0.269760 0.164475 0.712239
O O1 0.619421 0.790298 0.806965
O O2 0.717933 0.747778 0.740644
O O3 0.681187 0.000000 0.786941
O O4 0.651547 0.810528 0.944676
O O5 0.088355 0.248093 0.488704
O O6 0.000000 0.220439 0.500000
O O7 0.001556 0.190637 0.676901
O O8 0.048923 0.000000 0.519068
O O9 0.350912 0.195706 0.872658
O O10 0.291515 0.209291 0.790102
O O11 0.278792 0.000000 0.925647
O O12 0.250000 0.250000 0.000000
O O13 0.930480 0.500000 0.224990
O O14 0.878663 0.696889 0.376045
O O15 0.966266 0.758178 0.187860
O O16 0.093962 0.500000 0.096763
O O17 0.066327 0.231884 0.119329
O O18 0.511238 0.500000 0.174694
O O19 0.312956 0.796188 0.587554
O O20 0.383113 0.000000 0.502804
O O21 0.255715 0.000000 0.725902
#
# Coordination Sequence:
#
# PCOD8098898 Si02
#       8
#     8   8   8   8   8   8   8   8
#     4  10  21  37  57  79 103 140 185 219 257 313
#     4   9  19  35  52  75 106 138 174 216 260 310
#     4  10  20  35  54  76 107 143 176 216 262 311
#     4   9  19  38  59  77 104 140 178 221 262 308
#     4  10  21  36  54  78 108 141 178 217 259 312
#     4  10  21  36  55  80 108 138 175 218 267 316
#     4   9  19  35  54  78 106 137 174 215 261 313
#     4  10  21  35  53  81 112 139 173 219 267 313
#
# _framework density 18.522341000000001
#
# number of rings (size 3 to 8) (size 9 to 14) (size 15 to 20)
#    0.000    2.375    1.250    0.375    1.750    3.750 
#    0.000    2.500    0.000    0.000    0.000    0.000 
#    0.000    0.000    0.000    0.000    0.000    0.000 
#
# Total GULP energy -396912.364745 kJ/mol
# GULP energy per Si atom -12403.511398 kJ/mol
# Density = 1.848018 g / cm^3
# Si number density = 18.522341 Si / 1000 Ang^3
#
#
#
# Elastic Constant Matrix: (Units=GPa)
#
#
# Indices 1 2 3 4 5 6 
#
# 1 111.4280 50.9493 21.7914 0.0000 -6.0634 0.0000
# 2 50.9493 68.9108 25.5048 0.0000 -15.1220 0.0000
# 3 21.7914 25.5048 36.2100 0.0000 -13.3586 0.0000
# 4 0.0000 0.0000 0.0000 27.4148 0.0000 -7.6411
# 5 -6.0634 -15.1220 -13.3586 0.0000 33.5552 0.0000
# 6 0.0000 0.0000 0.0000 -7.6411 0.0000 37.8898
#
#
#
# Elastic Compliance Matrix: (Units=1/GPa)
#
#
# Indices 1 2 3 4 5 6 
#
# 1 0.013857 -0.010015 -0.002376 0.000000 -0.002955 0.000000
# 2 -0.010015 0.027315 -0.010947 0.000000 0.006142 0.000000
# 3 -0.002376 -0.010947 0.040766 0.000000 0.010867 0.000000
# 4 0.000000 0.000000 0.000000 0.038649 0.000000 0.007794
# 5 -0.002955 0.006142 0.010867 0.000000 0.036362 0.000000
# 6 0.000000 0.000000 0.000000 0.007794 0.000000 0.027964
#
#
# Mechanical properties :
#
#
# Convention : Reuss Voigt Hill
#
# Bulk Modulus (GPa) = 28.35749 45.89332 37.12540
# Shear Modulus (GPa) = 20.54717 27.65886 24.10301
#
# Velocity S-wave (km/s) = 3.33426 3.86848 3.61126
# Velocity P-wave (km/s) = 5.49237 6.69213 6.12171
#
# Compressibility (1/GPa) = 0.03526406
#
# Stress axis : x y z
#
# Youngs Moduli (GPa) = 72.16434 36.60959 24.53028
#
# Poissons Ratio (x) = 0.36663 0.05828
# Poissons Ratio (y) = 0.72269 0.26853
# Poissons Ratio (z) = 0.17144 0.40076
#
# Static dielectric constant tensor:
#      x y z
#    x 3.426280 0.000000 0.129670 
#    y 0.000000 3.380380 0.000000 
#    z 0.129670 0.000000 3.400090 
# 
# 
# High freq. dielectric constant tensor:
#      x y z
#    x 1.723090 0.000000 0.003150 
#    y 0.000000 1.715350 0.000000 
#    z 0.003150 0.000000 1.715660 
# 
# From -- ./inp_files/249096.got.cif
#   From: 2010.06.25/outbox.cif.g09.slc.cpg/sg12_125_cif.got.tgz:249096.got - 2010.06.28 00:19:55.
