data_PCOD8098717
_publ_section_title
;
Structure prediction by ZEFSAII (Michael W. Deem and Ramdas Pophale) SiO2 
 PCOD8098717
Probable space group: C 2/M
;
_chemical_formula_sum "Si O2"
_cell_formula_units_Z 56
_cell_length_a 30.011097
_cell_length_b 9.098652
_cell_length_c 16.722004
_cell_angle_alpha 90.000000
_cell_angle_beta 134.432016
_cell_angle_gamma 90.000000
_cell_volume 3260.581763
_symmetry_space_group_name_H-M "C 2/M"
_symmetry_group_IT_number 12
_symmetry_cell_setting 'monoclinic'
loop_
_space_group_symop_operation_xyz
x,y,z
-x,y,-z
-x,-y,-z
x,-y,z
1/2+x,1/2+y,z
1/2-x,1/2+y,-z
1/2-x,1/2-y,-z
1/2+x,1/2-y,z
loop_
_atom_site_type_symbol
_atom_site_label
_atom_site_fract_x
_atom_site_fract_y
_atom_site_fract_z
Si Si1 0.318739 0.668613 0.232746
Si Si2 0.193363 0.826942 0.108188
Si Si3 0.490972 0.825661 0.693107
Si Si4 0.443252 0.328503 0.484339
Si Si5 0.878585 0.829585 0.141451
Si Si6 0.401885 0.173993 0.907474
Si Si7 0.475321 0.173274 0.850352
O O1 0.299323 0.500000 0.222187
O O2 0.263931 0.772815 0.193269
O O3 0.379262 0.709586 0.360179
O O4 0.331897 0.698145 0.156166
O O5 0.160925 0.755329 0.144816
O O6 0.193449 0.000000 0.118388
O O7 0.156740 0.777422 0.982514
O O8 0.444725 0.759620 0.569146
O O9 0.560577 0.767301 0.768300
O O10 0.464438 0.773107 0.746110
O O11 0.492153 0.000000 0.687400
O O12 0.500000 0.275012 0.500000
O O13 0.450202 0.500000 0.512170
O O14 0.898809 0.000000 0.163139
O O15 0.418402 0.221631 0.836785
O O16 0.391709 0.000000 0.902325
O O17 0.458318 0.232898 0.034259
O O18 0.480776 0.000000 0.861835
#
# Coordination Sequence:
#
# PCOD8098717 Si02
#       7
#     8   8   8   8   8   8   8
#     4  10  21  37  55  70  97 145 185 205 244 312
#     4  11  22  33  50  79 111 135 167 218 265 299
#     4  11  20  31  53  82 108 132 168 217 262 297
#     4  10  20  37  56  73 100 139 178 214 252 305
#     4  10  20  35  51  73 106 143 173 204 253 312
#     4   9  16  32  54  73 102 139 174 204 247 317
#     4   8  16  30  51  78 103 134 171 210 252 304
#
# _framework density 17.174849999999999
#
# number of rings (size 3 to 8) (size 9 to 14) (size 15 to 20)
#    0.000    2.143    2.857    2.143    0.000    2.000 
#    0.000    2.857    0.000    0.857    0.000    0.000 
#    0.000    0.000    0.000    0.000    0.000    0.000 
#
# Total GULP energy -347212.760924 kJ/mol
# GULP energy per Si atom -12400.455747 kJ/mol
# Density = 1.713576 g / cm^3
# Si number density = 17.174850 Si / 1000 Ang^3
#
#
#
# Elastic Constant Matrix: (Units=GPa)
#
#
# Indices 1 2 3 4 5 6 
#
# 1 120.3463 42.1916 46.7981 0.0000 -8.5562 0.0000
# 2 42.1916 52.5406 31.1341 0.0000 -1.4630 0.0000
# 3 46.7981 31.1341 73.9807 0.0000 -8.7230 0.0000
# 4 0.0000 0.0000 0.0000 27.7536 0.0000 1.1966
# 5 -8.5562 -1.4630 -8.7230 0.0000 26.7682 0.0000
# 6 0.0000 0.0000 0.0000 1.1966 0.0000 25.9569
#
#
#
# Elastic Compliance Matrix: (Units=1/GPa)
#
#
# Indices 1 2 3 4 5 6 
#
# 1 0.012955 -0.007512 -0.004778 0.000000 0.002174 0.000000
# 2 -0.007512 0.029834 -0.008210 0.000000 -0.003446 0.000000
# 3 -0.004778 -0.008210 0.020551 0.000000 0.004721 0.000000
# 4 0.000000 0.000000 0.000000 0.036103 0.000000 -0.001664
# 5 0.002174 -0.003446 0.004721 0.000000 0.039403 0.000000
# 6 0.000000 0.000000 0.000000 -0.001664 0.000000 0.038602
#
#
# Mechanical properties :
#
#
# Convention : Reuss Voigt Hill
#
# Bulk Modulus (GPa) = 44.75949 54.12392 49.44170
# Shear Modulus (GPa) = 22.13426 24.54532 23.33979
#
# Velocity S-wave (km/s) = 3.59382 3.78450 3.69040
# Velocity P-wave (km/s) = 6.58319 7.11888 6.85627
#
# Compressibility (1/GPa) = 0.02234163
#
# Stress axis : x y z
#
# Youngs Moduli (GPa) = 77.18876 33.51864 48.65961
#
# Poissons Ratio (x) = 0.25179 0.23247
# Poissons Ratio (y) = 0.57983 0.39949
# Poissons Ratio (z) = 0.36877 0.27519
#
# Static dielectric constant tensor:
#      x y z
#    x 3.305630 0.000000 -0.264500 
#    y 0.000000 3.048920 0.000000 
#    z -0.264500 0.000000 3.241280 
# 
# 
# High freq. dielectric constant tensor:
#      x y z
#    x 1.663560 0.000000 -0.012540 
#    y 0.000000 1.651340 0.000000 
#    z -0.012540 0.000000 1.648510 
# 
# From -- ./inp_files/238873.got.cif
#   From: 2010.06.25/outbox.cif.g09.slc.cpg/sg12_120_cif.got.tgz:238873.got - 2010.06.28 00:19:55.
