data_PCOD8098908
_publ_section_title
;
Structure prediction by ZEFSAII (Michael W. Deem and Ramdas Pophale) SiO2 
 PCOD8098908
Probable space group: C 2/M
;
_chemical_formula_sum "Si O2"
_cell_formula_units_Z 64
_cell_length_a 14.465308
_cell_length_b 9.032689
_cell_length_c 27.011606
_cell_angle_alpha 90.000000
_cell_angle_beta 74.604565
_cell_angle_gamma 90.000000
_cell_volume 3402.708071
_symmetry_space_group_name_H-M "C 2/M"
_symmetry_group_IT_number 12
_symmetry_cell_setting 'monoclinic'
loop_
_space_group_symop_operation_xyz
x,y,z
-x,y,-z
-x,-y,-z
x,-y,z
1/2+x,1/2+y,z
1/2-x,1/2+y,-z
1/2-x,1/2-y,-z
1/2+x,1/2-y,z
loop_
_atom_site_type_symbol
_atom_site_label
_atom_site_fract_x
_atom_site_fract_y
_atom_site_fract_z
Si Si1 0.784741 0.171395 0.921019
Si Si2 0.407883 0.669388 0.366810
Si Si3 0.200256 0.674464 0.363539
Si Si4 0.338695 0.175414 0.813883
Si Si5 0.238426 0.674743 0.740685
Si Si6 0.609907 0.670972 0.992422
Si Si7 0.530525 0.328649 0.441351
Si Si8 0.530113 0.171929 0.733436
O O1 0.827903 0.265955 0.870579
O O2 0.678280 0.229579 0.948524
O O3 0.776147 0.000000 0.907387
O O4 0.859081 0.194699 0.955279
O O5 0.417419 0.500000 0.350349
O O6 0.298573 0.722174 0.376608
O O7 0.439944 0.698516 0.418416
O O8 0.478088 0.754536 0.319326
O O9 0.191894 0.500000 0.355923
O O10 0.193661 0.755134 0.311313
O O11 0.117657 0.728153 0.411533
O O12 0.260442 0.252668 0.790237
O O13 0.443744 0.224383 0.780492
O O14 0.323823 0.000000 0.814897
O O15 0.256097 0.500000 0.739867
O O16 0.128617 0.717530 0.745876
O O17 0.622389 0.500000 0.974912
O O18 0.500000 0.722334 0.000000
O O19 0.500000 0.275973 0.500000
O O20 0.562634 0.500000 0.436603
O O21 0.524557 0.000000 0.724071
#
# Coordination Sequence:
#
# PCOD8098908 Si02
#       8
#     8   8   8   8   8   8   8   8
#     4  10  21  36  55  82 112 143 181 221 265 316
#     4   9  19  35  54  75 102 136 172 213 260 312
#     4  10  20  35  54  77 104 135 173 215 262 314
#     4  11  22  36  54  79 113 146 176 218 266 309
#     4  10  20  36  56  79 106 138 177 216 260 315
#     4   9  19  38  61  82 107 142 183 225 268 313
#     4  10  21  36  53  75 103 136 174 215 262 314
#     4   9  20  36  54  77 105 138 175 214 258 312
#
# _framework density 18.808547999999998
#
# number of rings (size 3 to 8) (size 9 to 14) (size 15 to 20)
#    0.000    2.250    0.000    2.250    0.000    7.000 
#    0.000    2.500    0.000    0.000    0.000    0.000 
#    0.000    0.000    0.000    0.000    0.000    0.000 
#
# Total GULP energy -396910.535274 kJ/mol
# GULP energy per Si atom -12403.454227 kJ/mol
# Density = 1.876574 g / cm^3
# Si number density = 18.808548 Si / 1000 Ang^3
#
#
#
# Elastic Constant Matrix: (Units=GPa)
#
#
# Indices 1 2 3 4 5 6 
#
# 1 84.2515 29.8291 34.2126 0.0000 1.8189 0.0000
# 2 29.8291 64.0512 35.3920 0.0000 3.5601 0.0000
# 3 34.2126 35.3920 104.9412 0.0000 5.9676 0.0000
# 4 0.0000 0.0000 0.0000 35.6513 0.0000 -1.2851
# 5 1.8189 3.5601 5.9676 0.0000 20.4789 0.0000
# 6 0.0000 0.0000 0.0000 -1.2851 0.0000 22.7272
#
#
#
# Elastic Compliance Matrix: (Units=1/GPa)
#
#
# Indices 1 2 3 4 5 6 
#
# 1 0.015002 -0.005280 -0.003139 0.000000 0.000500 0.000000
# 2 -0.005280 0.021091 -0.005297 0.000000 -0.001654 0.000000
# 3 -0.003139 -0.005297 0.012478 0.000000 -0.002436 0.000000
# 4 0.000000 0.000000 0.000000 0.028107 0.000000 0.001589
# 5 0.000500 -0.001654 -0.002436 0.000000 0.049784 0.000000
# 6 0.000000 0.000000 0.000000 0.001589 0.000000 0.044090
#
#
# Mechanical properties :
#
#
# Convention : Reuss Voigt Hill
#
# Bulk Modulus (GPa) = 47.30848 50.23461 48.77155
# Shear Modulus (GPa) = 24.38670 26.02550 25.20610
#
# Velocity S-wave (km/s) = 3.60471 3.72385 3.66476
# Velocity P-wave (km/s) = 6.52169 6.72725 6.62527
#
# Compressibility (1/GPa) = 0.02113786
#
# Stress axis : x y z
#
# Youngs Moduli (GPa) = 66.65581 47.41448 80.14392
#
# Poissons Ratio (x) = 0.25036 0.25155
# Poissons Ratio (y) = 0.35196 0.42456
# Poissons Ratio (z) = 0.20921 0.25118
#
# Static dielectric constant tensor:
#      x y z
#    x 3.620180 0.000000 0.031180 
#    y 0.000000 3.462940 0.000000 
#    z 0.031180 0.000000 3.421870 
# 
# 
# High freq. dielectric constant tensor:
#      x y z
#    x 1.737400 0.000000 0.002390 
#    y 0.000000 1.734860 0.000000 
#    z 0.002390 0.000000 1.726650 
# 
# From -- ./inp_files/359702.got.cif
#   From: 2010.06.25/outbox.cif.g09.slc.cpg/sg12_180_cif.got.tgz:359702.got - 2010.06.28 00:19:55.
