data_PCOD8098707
_publ_section_title
;
Structure prediction by ZEFSAII (Michael W. Deem and Ramdas Pophale) SiO2 
 PCOD8098707
Probable space group: C 2/M
;
_chemical_formula_sum "Si O2"
_cell_formula_units_Z 64
_cell_length_a 23.724178
_cell_length_b 9.108187
_cell_length_c 20.052562
_cell_angle_alpha 90.000000
_cell_angle_beta 57.930998
_cell_angle_gamma 90.000000
_cell_volume 3671.860748
_symmetry_space_group_name_H-M "C 2/M"
_symmetry_group_IT_number 12
_symmetry_cell_setting 'monoclinic'
loop_
_space_group_symop_operation_xyz
x,y,z
-x,y,-z
-x,-y,-z
x,-y,z
1/2+x,1/2+y,z
1/2-x,1/2+y,-z
1/2-x,1/2-y,-z
1/2+x,1/2-y,z
loop_
_atom_site_type_symbol
_atom_site_label
_atom_site_fract_x
_atom_site_fract_y
_atom_site_fract_z
Si Si1 0.923551 0.172130 0.904052
Si Si2 0.694649 0.830121 0.733735
Si Si3 0.429372 0.327971 0.749698
Si Si4 0.714377 0.330934 0.203117
Si Si5 0.298579 0.832580 0.420757
Si Si6 0.214922 0.174432 0.960114
Si Si7 0.554384 0.830427 0.681948
Si Si8 0.932891 0.827471 0.186998
O O1 0.916338 0.233081 0.832957
O O2 0.995420 0.212851 0.892017
O O3 0.918470 0.000000 0.898653
O O4 0.862787 0.225020 0.988670
O O5 0.758851 0.801826 0.739196
O O6 0.708358 0.769358 0.650537
O O7 0.630351 0.750542 0.807585
O O8 0.675381 0.000000 0.741038
O O9 0.446679 0.500000 0.736834
O O10 0.363749 0.292163 0.747719
O O11 0.492101 0.236799 0.679325
O O12 0.725094 0.500000 0.174562
O O13 0.754724 0.228427 0.127844
O O14 0.250000 0.750000 0.500000
O O15 0.374565 0.817194 0.400275
O O16 0.275420 0.000000 0.434984
O O17 0.223235 0.000000 0.960470
O O18 0.250000 0.250000 0.000000
O O19 0.560801 0.728523 0.742086
O O20 0.540579 0.000000 0.709368
O O21 0.919886 0.000000 0.193865
#
# Coordination Sequence:
#
# PCOD8098707 Si02
#       8
#     8   8   8   8   8   8   8   8
#     4   8  15  28  45  66  93 122 160 207 248 285
#     4   9  19  35  52  72 101 131 161 202 249 294
#     4   9  16  29  48  69  94 128 167 201 243 290
#     4  10  20  35  51  69  99 135 167 205 252 298
#     4   9  18  32  52  78 102 126 156 196 243 291
#     4  11  20  32  48  70  99 130 170 214 255 297
#     4   9  17  29  46  73 103 125 156 201 244 283
#     4   9  16  29  49  69  92 126 165 203 245 293
#
# _framework density 17.429856000000001
#
# number of rings (size 3 to 8) (size 9 to 14) (size 15 to 20)
#    0.000    2.750    1.250    2.625    0.000    3.500 
#    0.000    2.500    0.000    4.500    0.000    5.250 
#    0.000    0.000    0.000    0.000    0.000    0.000 
#
# Total GULP energy -396482.655327 kJ/mol
# GULP energy per Si atom -12390.082979 kJ/mol
# Density = 1.739018 g / cm^3
# Si number density = 17.429856 Si / 1000 Ang^3
#
#
#
# Elastic Constant Matrix: (Units=GPa)
#
#
# Indices 1 2 3 4 5 6 
#
# 1 120.8677 39.7893 52.2181 0.0000 -22.5008 0.0000
# 2 39.7893 56.6287 39.3302 -0.0010 -10.9250 0.0019
# 3 52.2181 39.3302 87.4447 0.0000 -20.1400 0.0001
# 4 0.0000 -0.0010 0.0000 26.1731 0.0000 -6.6860
# 5 -22.5008 -10.9250 -20.1400 0.0000 24.8608 -0.0001
# 6 0.0000 0.0019 0.0001 -6.6860 -0.0001 25.8689
#
#
#
# Elastic Compliance Matrix: (Units=1/GPa)
#
#
# Indices 1 2 3 4 5 6 
#
# 1 0.012789 -0.005059 -0.003943 0.000000 0.006157 0.000000
# 2 -0.005059 0.027797 -0.009494 0.000001 -0.000055 -0.000002
# 3 -0.003943 -0.009494 0.020011 0.000000 0.008471 0.000001
# 4 0.000000 0.000001 0.000000 0.040908 0.000000 0.010573
# 5 0.006157 -0.000055 0.008471 0.000000 0.052634 0.000000
# 6 0.000000 -0.000002 0.000001 0.010573 0.000000 0.041389
#
#
# Mechanical properties :
#
#
# Convention : Reuss Voigt Hill
#
# Bulk Modulus (GPa) = 42.36473 58.62404 50.49438
# Shear Modulus (GPa) = 20.79960 24.28747 22.54354
#
# Velocity S-wave (km/s) = 3.45821 3.73693 3.60027
# Velocity P-wave (km/s) = 6.34856 7.23373 6.80555
#
# Compressibility (1/GPa) = 0.02360454
#
# Stress axis : x y z
#
# Youngs Moduli (GPa) = 78.19327 35.97545 49.97131
#
# Poissons Ratio (x) = 0.18201 0.19705
# Poissons Ratio (y) = 0.39560 0.47441
# Poissons Ratio (z) = 0.30834 0.34154
#
# Static dielectric constant tensor:
#      x y z
#    x 3.549650 0.000000 -0.471880 
#    y 0.000000 3.276790 0.000000 
#    z -0.471880 0.000000 3.301070 
# 
# 
# High freq. dielectric constant tensor:
#      x y z
#    x 1.670430 0.000000 -0.035910 
#    y 0.000000 1.667740 0.000000 
#    z -0.035910 0.000000 1.640420 
# 
# From -- ./inp_files/348523.got.cif
#   From: 2010.06.25/outbox.cif.g09.slc.cpg/sg12_175_cif.got.tgz:348523.got - 2010.06.28 00:19:55.
