data_PCOD8098958
_publ_section_title
;
Structure prediction by ZEFSAII (Michael W. Deem and Ramdas Pophale) SiO2 
 PCOD8098958
Probable space group: C 2/M
;
_chemical_formula_sum "Si O2"
_cell_formula_units_Z 56
_cell_length_a 19.901386
_cell_length_b 14.818585
_cell_length_c 9.649062
_cell_angle_alpha 90.000000
_cell_angle_beta 85.268002
_cell_angle_gamma 90.000000
_cell_volume 2835.909203
_symmetry_space_group_name_H-M "C 2/M"
_symmetry_group_IT_number 12
_symmetry_cell_setting 'monoclinic'
loop_
_space_group_symop_operation_xyz
x,y,z
-x,y,-z
-x,-y,-z
x,-y,z
1/2+x,1/2+y,z
1/2-x,1/2+y,-z
1/2-x,1/2-y,-z
1/2+x,1/2-y,z
loop_
_atom_site_type_symbol
_atom_site_label
_atom_site_fract_x
_atom_site_fract_y
_atom_site_fract_z
Si Si1 0.070016 0.100010 0.060822
Si Si2 0.249888 0.763396 0.162484
Si Si3 0.656817 0.399782 0.499514
Si Si4 0.171459 0.899737 0.805547
Si Si5 0.922355 0.397233 0.555769
Si Si6 0.895370 0.778474 0.709334
Si Si7 0.696737 0.895815 0.637288
O O1 0.057671 0.172235 0.185970
O O2 0.092371 0.000000 0.111973
O O3 0.123131 0.135423 0.936612
O O4 0.000000 0.088457 0.000000
O O5 0.264280 0.664691 0.221213
O O6 0.177602 0.797367 0.216887
O O7 0.302867 0.835446 0.221372
O O8 0.250000 0.750000 0.000000
O O9 0.645634 0.500000 0.440216
O O10 0.634740 0.397652 0.663461
O O11 0.604454 0.331084 0.436750
O O12 0.736218 0.373838 0.465060
O O13 0.197922 0.000000 0.833926
O O14 0.907940 0.500000 0.608937
O O15 0.912570 0.326841 0.684463
O O16 0.870238 0.371869 0.441087
O O17 0.000000 0.387673 0.500000
O O18 0.694089 0.000000 0.683356
#
# Coordination Sequence:
#
# PCOD8098958 Si02
#       7
#     8   8   8   8   8   8   8
#     4  10  22  39  56  77 113 155 186 221 281 351
#     4  11  21  34  54  87 117 146 187 234 284 352
#     4   9  18  33  58  89 114 139 181 234 290 346
#     4  10  20  35  54  78 113 149 180 226 281 334
#     4  10  22  40  60  84 113 153 201 245 287 332
#     4  11  21  36  59  86 112 149 187 240 286 341
#     4   9  19  36  58  83 115 150 187 237 295 343
#
# _framework density 19.746755
#
# number of rings (size 3 to 8) (size 9 to 14) (size 15 to 20)
#    0.000    2.000    1.429    2.143    0.000    7.429 
#    0.000    0.000    0.000    4.714    0.000    0.000 
#    0.000    0.000    0.000    0.000    0.000    0.000 
#
# Total GULP energy -346955.411384 kJ/mol
# GULP energy per Si atom -12391.264692 kJ/mol
# Density = 1.970181 g / cm^3
# Si number density = 19.746755 Si / 1000 Ang^3
#
#
#
# Elastic Constant Matrix: (Units=GPa)
#
#
# Indices 1 2 3 4 5 6 
#
# 1 48.9895 25.6587 18.9258 0.0000 12.5886 0.0000
# 2 25.6587 125.7252 68.3134 0.0000 12.3450 0.0000
# 3 18.9258 68.3134 111.3990 0.0000 14.8680 0.0000
# 4 0.0000 0.0000 0.0000 38.6042 0.0000 1.2591
# 5 12.5886 12.3450 14.8680 0.0000 16.5843 0.0000
# 6 0.0000 0.0000 0.0000 1.2591 0.0000 24.1276
#
#
#
# Elastic Compliance Matrix: (Units=1/GPa)
#
#
# Indices 1 2 3 4 5 6 
#
# 1 0.026914 -0.003830 0.000139 0.000000 -0.017703 0.000000
# 2 -0.003830 0.012576 -0.007043 0.000000 -0.000140 0.000000
# 3 0.000139 -0.007043 0.014297 0.000000 -0.007681 0.000000
# 4 0.000000 0.000000 0.000000 0.025948 0.000000 -0.001354
# 5 -0.017703 -0.000140 -0.007681 0.000000 0.080726 0.000000
# 6 0.000000 0.000000 0.000000 -0.001354 0.000000 0.041517
#
#
# Mechanical properties :
#
#
# Convention : Reuss Voigt Hill
#
# Bulk Modulus (GPa) = 30.94093 56.87884 43.90988
# Shear Modulus (GPa) = 21.34765 27.41094 24.37929
#
# Velocity S-wave (km/s) = 3.29153 3.72980 3.51750
# Velocity P-wave (km/s) = 5.49076 6.88587 6.22750
#
# Compressibility (1/GPa) = 0.03231965
#
# Stress axis : x y z
#
# Youngs Moduli (GPa) = 37.15547 79.51748 69.94512
#
# Poissons Ratio (x) = 0.30455 -0.00972
# Poissons Ratio (y) = 0.14230 0.49259
# Poissons Ratio (z) = -0.00516 0.56000
#
# Static dielectric constant tensor:
#      x y z
#    x 3.501240 0.000000 0.134850 
#    y 0.000000 4.331780 0.000000 
#    z 0.134850 0.000000 3.793930 
# 
# 
# High freq. dielectric constant tensor:
#      x y z
#    x 1.746530 0.000000 0.010400 
#    y 0.000000 1.783780 0.000000 
#    z 0.010400 0.000000 1.761570 
# 
# From -- ./inp_files/86368.got.cif
#   From: 2010.06.25/outbox.cif.g09.slc.cpg/sg12_44_cif.got.tgz:86368.got - 2010.06.28 00:19:55.
