data_PCOD8098196
_publ_section_title
;
Structure prediction by ZEFSAII (Michael W. Deem and Ramdas Pophale) SiO2 
 PCOD8098196
Probable space group: C 2/M
;
_chemical_formula_sum "Si O2"
_cell_formula_units_Z 56
_cell_length_a 9.167857
_cell_length_b 12.666544
_cell_length_c 28.702225
_cell_angle_alpha 90.000000
_cell_angle_beta 61.372063
_cell_angle_gamma 90.000000
_cell_volume 2925.580849
_symmetry_space_group_name_H-M "C 2/M"
_symmetry_group_IT_number 12
_symmetry_cell_setting 'monoclinic'
loop_
_space_group_symop_operation_xyz
x,y,z
-x,y,-z
-x,-y,-z
x,-y,z
1/2+x,1/2+y,z
1/2-x,1/2+y,-z
1/2-x,1/2-y,-z
1/2+x,1/2-y,z
loop_
_atom_site_type_symbol
_atom_site_label
_atom_site_fract_x
_atom_site_fract_y
_atom_site_fract_z
Si Si1 0.016920 0.884052 0.047667
Si Si2 0.736394 0.121385 0.675737
Si Si3 0.548068 0.877961 0.801288
Si Si4 0.840080 0.384052 0.047667
Si Si5 0.070960 0.750000 0.619360
Si Si6 0.713218 0.250000 0.857854
Si Si7 0.905906 0.378285 0.562729
O O1 0.211960 0.891480 0.025360
O O2 0.936848 0.824438 0.103461
O O3 0.933672 0.000000 0.058351
O O4 0.000000 0.827624 0.000000
O O5 0.642224 0.129256 0.738517
O O6 0.619805 0.176625 0.655310
O O7 0.914266 0.176625 0.655310
O O8 0.765379 0.000000 0.656414
O O9 0.661731 0.819453 0.821658
O O10 0.373294 0.819453 0.821658
O O11 0.519532 0.000000 0.820312
O O12 0.891275 0.500000 0.058351
O O13 0.752769 0.324438 0.103461
O O14 0.000000 0.327624 0.000000
O O15 0.227593 0.823457 0.583449
O O16 0.022059 0.676543 0.583449
O O17 0.877873 0.500000 0.581417
O O18 0.000000 0.368539 0.500000
#
# Coordination Sequence:
#
# PCOD8098196 Si02
#       7
#     8   8   8   8   8   8   8
#     4  10  22  38  57  82 110 141 181 223 272 343
#     4  10  21  39  59  83 114 150 198 247 290 340
#     4  11  25  41  61  88 115 147 192 243 291 344
#     4  10  22  38  57  82 110 141 181 223 272 343
#     4  10  20  36  60  84 116 160 202 240 290 344
#     4  12  22  40  60  82 112 150 180 230 294 338
#     4  10  20  34  55  88 125 159 198 243 291 342
#
# _framework density 19.141497999999999
#
# number of rings (size 3 to 8) (size 9 to 14) (size 15 to 20)
#    0.000    1.571    1.429    3.429    2.000    1.143 
#    0.000    0.000    0.000   13.714    0.000    0.000 
#    0.000    0.000    0.000    0.000    0.000    0.000 
#
# Total GULP energy -347088.802288 kJ/mol
# GULP energy per Si atom -12396.028653 kJ/mol
# Density = 1.909793 g / cm^3
# Si number density = 19.141498 Si / 1000 Ang^3
#
#
#
# Elastic Constant Matrix: (Units=GPa)
#
#
# Indices 1 2 3 4 5 6 
#
# 1 141.4121 75.1583 54.2657 0.0000 0.8533 0.0000
# 2 75.1583 157.8308 61.6635 0.0000 0.4451 0.0000
# 3 54.2657 61.6635 97.9341 0.0000 0.5813 0.0000
# 4 0.0000 0.0000 0.0000 34.2050 0.0000 -0.0150
# 5 0.8533 0.4451 0.5813 0.0000 30.6500 0.0000
# 6 0.0000 0.0000 0.0000 -0.0150 0.0000 33.7425
#
#
#
# Elastic Compliance Matrix: (Units=1/GPa)
#
#
# Indices 1 2 3 4 5 6 
#
# 1 0.010286 -0.003543 -0.003468 0.000000 -0.000169 0.000000
# 2 -0.003543 0.009623 -0.004096 0.000000 0.000037 0.000000
# 3 -0.003468 -0.004096 0.014712 0.000000 -0.000123 0.000000
# 4 0.000000 0.000000 0.000000 0.029236 0.000000 0.000013
# 5 -0.000169 0.000037 -0.000123 0.000000 0.032633 0.000000
# 6 0.000000 0.000000 0.000000 0.000013 0.000000 0.029636
#
#
# Mechanical properties :
#
#
# Convention : Reuss Voigt Hill
#
# Bulk Modulus (GPa) = 80.59441 86.59466 83.59453
# Shear Modulus (GPa) = 32.79181 33.45880 33.12530
#
# Velocity S-wave (km/s) = 4.14348 4.18541 4.16450
# Velocity P-wave (km/s) = 8.06767 8.28820 8.17868
#
# Compressibility (1/GPa) = 0.01240781
#
# Stress axis : x y z
#
# Youngs Moduli (GPa) = 97.21624 103.91407 67.96952
#
# Poissons Ratio (x) = 0.36816 0.23571
# Poissons Ratio (y) = 0.34443 0.27842
# Poissons Ratio (z) = 0.33714 0.42567
#
# Static dielectric constant tensor:
#      x y z
#    x 3.467060 0.000000 0.003200 
#    y 0.000000 3.834880 0.000000 
#    z 0.003200 0.000000 3.370320 
# 
# 
# High freq. dielectric constant tensor:
#      x y z
#    x 1.753860 0.000000 0.000440 
#    y 0.000000 1.769810 0.000000 
#    z 0.000440 0.000000 1.740430 
# 
# From -- ./inp_files/332838.got.cif
#   From: 2010.06.25/outbox.cif.g09.slc.cpg/sg12_167_cif.got.tgz:332838.got - 2010.06.28 00:19:55.
