data_PCOD8098178
_publ_section_title
;
Structure prediction by ZEFSAII (Michael W. Deem and Ramdas Pophale) SiO2 
 PCOD8098178
Probable space group: C 2/M
;
_chemical_formula_sum "Si O2"
_cell_formula_units_Z 56
_cell_length_a 19.115754
_cell_length_b 15.034714
_cell_length_c 17.704319
_cell_angle_alpha 90.000000
_cell_angle_beta 32.911616
_cell_angle_gamma 90.000000
_cell_volume 2764.656851
_symmetry_space_group_name_H-M "C 2/M"
_symmetry_group_IT_number 12
_symmetry_cell_setting 'monoclinic'
loop_
_space_group_symop_operation_xyz
x,y,z
-x,y,-z
-x,-y,-z
x,-y,z
1/2+x,1/2+y,z
1/2-x,1/2+y,-z
1/2-x,1/2-y,-z
1/2+x,1/2-y,z
loop_
_atom_site_type_symbol
_atom_site_label
_atom_site_fract_x
_atom_site_fract_y
_atom_site_fract_z
Si Si1 0.025857 0.849092 0.249717
Si Si2 0.276046 0.599234 0.389120
Si Si3 0.352421 0.899583 0.113388
Si Si4 0.716279 0.214403 0.686121
Si Si5 0.445206 0.599230 0.471239
Si Si6 0.295827 0.100494 0.995993
Si Si7 0.448292 0.840326 0.298873
O O1 0.167840 0.847220 0.081725
O O2 0.917178 0.898185 0.298855
O O3 0.049038 0.899801 0.309137
O O4 0.979582 0.750758 0.312404
O O5 0.260706 0.500000 0.366823
O O6 0.266793 0.677668 0.334111
O O7 0.162625 0.608978 0.554263
O O8 0.288284 0.823965 0.224593
O O9 0.335736 0.865964 0.043119
O O10 0.293918 0.000000 0.179240
O O11 0.500000 0.904165 0.000000
O O12 0.836498 0.165455 0.538545
O O13 0.594283 0.183542 0.747941
O O14 0.500000 0.636661 0.500000
O O15 0.390796 0.500000 0.533333
O O16 0.250666 0.000000 0.039627
O O17 0.417753 0.106321 0.828997
#
# Coordination Sequence:
#
# PCOD8098178 Si02
#       7
#     8   8   8   8   8   8   8
#     4  11  21  37  53  85 118 147 186 238 288 343
#     4  11  22  38  61  83 111 152 201 244 278 327
#     4  10  20  34  55  86 121 153 184 224 285 355
#     4  11  20  36  56  83 115 150 196 232 282 336
#     4  11  21  33  55  85 116 148 181 228 290 346
#     4  11  22  35  56  87 119 151 184 228 292 349
#     4  11  21  37  57  83 115 155 193 231 283 341
#
# _framework density 20.255680000000002
#
# number of rings (size 3 to 8) (size 9 to 14) (size 15 to 20)
#    0.000    1.143    4.286    4.286    0.000    3.429 
#    0.000    0.000    0.000    0.857    0.000    0.000 
#    0.000    0.000    0.000    0.000    0.000    0.000 
#
# Total GULP energy -346928.720956 kJ/mol
# GULP energy per Si atom -12390.311463 kJ/mol
# Density = 2.020958 g / cm^3
# Si number density = 20.255680 Si / 1000 Ang^3
#
#
#
# Elastic Constant Matrix: (Units=GPa)
#
#
# Indices 1 2 3 4 5 6 
#
# 1 57.2194 30.4361 31.6104 0.0000 -9.8588 0.0000
# 2 30.4361 123.8416 30.0207 0.0000 -1.9637 0.0000
# 3 31.6104 30.0207 104.8393 0.0004 -19.5648 -0.0003
# 4 0.0000 0.0000 0.0004 30.3754 -0.0001 -1.9029
# 5 -9.8588 -1.9637 -19.5648 -0.0001 35.0042 0.0001
# 6 0.0000 0.0000 -0.0003 -1.9029 0.0001 24.4150
#
#
#
# Elastic Compliance Matrix: (Units=1/GPa)
#
#
# Indices 1 2 3 4 5 6 
#
# 1 0.023238 -0.004421 -0.005097 0.000000 0.003448 0.000000
# 2 -0.004421 0.009550 -0.001713 0.000000 -0.001667 0.000000
# 3 -0.005097 -0.001713 0.012593 0.000000 0.005507 0.000000
# 4 0.000000 0.000000 0.000000 0.033083 0.000000 0.002578
# 5 0.003448 -0.001667 0.005507 0.000000 0.032524 0.000000
# 6 0.000000 0.000000 0.000000 0.002578 0.000000 0.041159
#
#
# Mechanical properties :
#
#
# Convention : Reuss Voigt Hill
#
# Bulk Modulus (GPa) = 43.63004 52.22609 47.92806
# Shear Modulus (GPa) = 27.43493 30.88111 29.15802
#
# Velocity S-wave (km/s) = 3.68425 3.90880 3.79819
# Velocity P-wave (km/s) = 6.29958 6.79787 6.55346
#
# Compressibility (1/GPa) = 0.02291999
#
# Stress axis : x y z
#
# Youngs Moduli (GPa) = 43.03270 104.71098 79.40626
#
# Poissons Ratio (x) = 0.46291 0.40475
# Poissons Ratio (y) = 0.19024 0.13600
# Poissons Ratio (z) = 0.21935 0.17934
#
# Static dielectric constant tensor:
#      x y z
#    x 3.432730 0.000000 -0.211660 
#    y 0.000000 3.671530 0.000000 
#    z -0.211660 0.000000 3.775660 
# 
# 
# High freq. dielectric constant tensor:
#      x y z
#    x 1.761780 0.000000 -0.025360 
#    y 0.000000 1.784700 0.000000 
#    z -0.025360 0.000000 1.798960 
# 
# From -- ./inp_files/284491.got.cif
#   From: 2010.06.25/outbox.cif.g09.slc.cpg/sg12_143_cif.got.tgz:284491.got - 2010.06.28 00:19:55.
