data_PCOD8098254
_publ_section_title
;
Structure prediction by ZEFSAII (Michael W. Deem and Ramdas Pophale) SiO2 
 PCOD8098254
Probable space group: C 2/M
;
_chemical_formula_sum "Si O2"
_cell_formula_units_Z 40
_cell_length_a 8.927182
_cell_length_b 26.161925
_cell_length_c 16.598647
_cell_angle_alpha 90.000000
_cell_angle_beta 150.594298
_cell_angle_gamma 90.000000
_cell_volume 1903.398935
_symmetry_space_group_name_H-M "C 2/M"
_symmetry_group_IT_number 12
_symmetry_cell_setting 'monoclinic'
loop_
_space_group_symop_operation_xyz
x,y,z
-x,y,-z
-x,-y,-z
x,-y,z
1/2+x,1/2+y,z
1/2-x,1/2+y,-z
1/2-x,1/2-y,-z
1/2+x,1/2-y,z
loop_
_atom_site_type_symbol
_atom_site_label
_atom_site_fract_x
_atom_site_fract_y
_atom_site_fract_z
Si Si1 0.771051 0.790064 0.318860
Si Si2 0.235729 0.500000 0.681637
Si Si3 0.854152 0.910157 0.181148
Si Si4 0.646163 0.295475 0.820624
Si Si5 0.756632 0.097948 0.315422
Si Si6 0.627240 0.000000 0.323764
O O1 0.527665 0.744876 0.205612
O O2 0.948550 0.786272 0.317077
O O3 0.599560 0.845842 0.238194
O O4 0.000000 0.784010 0.500000
O O5 0.444233 0.449549 0.775087
O O6 0.000000 0.500000 0.500000
O O7 0.036934 0.500000 0.668461
O O8 0.941793 0.852975 0.193266
O O9 0.920924 0.915356 0.307878
O O10 0.500000 0.921923 0.000000
O O11 0.000000 0.285922 0.000000
O O12 0.000000 0.101505 0.500000
O O13 0.523355 0.051551 0.227316
O O14 0.000000 0.000000 0.500000
#
# Coordination Sequence:
#
# PCOD8098254 Si02
#       6
#     8   4   8   8   8   4
#     4  10  20  34  56  83 111 147 190 234 279 330
#     4  12  23  36  62  91 111 150 198 235 284 344
#     4  10  22  40  59  83 118 154 191 237 284 336
#     4  10  21  37  57  82 115 152 186 229 286 338
#     4   9  18  36  58  79 112 154 187 232 289 335
#     4  10  20  36  57  83 114 144 181 235 287 336
#
# _framework density 21.015038000000001
#
# number of rings (size 3 to 8) (size 9 to 14) (size 15 to 20)
#    0.000    2.000    0.000    4.500    0.000    2.400 
#    0.000    2.000    0.000    0.000    0.000    0.000 
#    0.000    0.000    0.000    0.000    0.000    0.000 
#
# Total GULP energy -247851.424604 kJ/mol
# GULP energy per Si atom -12392.571230 kJ/mol
# Density = 2.096721 g / cm^3
# Si number density = 21.015038 Si / 1000 Ang^3
#
#
#
# Elastic Constant Matrix: (Units=GPa)
#
#
# Indices 1 2 3 4 5 6 
#
# 1 104.6563 68.3672 15.9907 -0.0009 10.7114 0.0000
# 2 68.3672 200.4185 24.5261 -0.0010 33.2409 -0.0002
# 3 15.9907 24.5261 46.3121 -0.0043 2.2871 -0.0003
# 4 -0.0009 -0.0010 -0.0043 16.9226 -0.0013 4.1882
# 5 10.7114 33.2409 2.2871 -0.0013 30.5522 -0.0002
# 6 0.0000 -0.0002 -0.0003 4.1882 -0.0002 26.8838
#
#
#
# Elastic Compliance Matrix: (Units=1/GPa)
#
#
# Indices 1 2 3 4 5 6 
#
# 1 0.012502 -0.004022 -0.002194 0.000000 0.000157 0.000000
# 2 -0.004022 0.007799 -0.002401 -0.000001 -0.006896 0.000000
# 3 -0.002194 -0.002401 0.023542 0.000006 0.001619 -0.000001
# 4 0.000000 -0.000001 0.000006 0.061462 0.000003 -0.009575
# 5 0.000157 -0.006896 0.001619 0.000003 0.040057 0.000000
# 6 0.000000 0.000000 -0.000001 -0.009575 0.000000 0.038689
#
#
# Mechanical properties :
#
#
# Convention : Reuss Voigt Hill
#
# Bulk Modulus (GPa) = 37.58299 63.23944 50.41122
# Shear Modulus (GPa) = 23.79197 31.03859 27.41528
#
# Velocity S-wave (km/s) = 3.36838 3.84731 3.61578
# Velocity P-wave (km/s) = 5.74897 7.06353 6.43988
#
# Compressibility (1/GPa) = 0.02660778
#
# Stress axis : x y z
#
# Youngs Moduli (GPa) = 79.98867 128.21963 42.47759
#
# Poissons Ratio (x) = 0.51573 0.09321
# Poissons Ratio (y) = 0.32173 0.10199
# Poissons Ratio (z) = 0.17552 0.30785
#
# Static dielectric constant tensor:
#      x y z
#    x 3.704010 0.000000 -0.264190 
#    y 0.000000 4.968130 0.000000 
#    z -0.264190 0.000000 3.501880 
# 
# 
# High freq. dielectric constant tensor:
#      x y z
#    x 1.812130 0.000000 -0.032700 
#    y 0.000000 1.856230 0.000000 
#    z -0.032700 0.000000 1.793630 
# 
# From -- ./inp_files/259788.got.cif
#   From: 2010.06.25/outbox.cif.g09.slc.cpg/sg12_130_cif.got.tgz:259788.got - 2010.06.28 00:19:55.
