data_PCOD8098678
_publ_section_title
;
Structure prediction by ZEFSAII (Michael W. Deem and Ramdas Pophale) SiO2 
 PCOD8098678
Probable space group: C 2/M
;
_chemical_formula_sum "Si O2"
_cell_formula_units_Z 56
_cell_length_a 8.695561
_cell_length_b 13.329252
_cell_length_c 28.183364
_cell_angle_alpha 90.000000
_cell_angle_beta 54.942512
_cell_angle_gamma 90.000000
_cell_volume 2673.962372
_symmetry_space_group_name_H-M "C 2/M"
_symmetry_group_IT_number 12
_symmetry_cell_setting 'monoclinic'
loop_
_space_group_symop_operation_xyz
x,y,z
-x,y,-z
-x,-y,-z
x,-y,z
1/2+x,1/2+y,z
1/2-x,1/2+y,-z
1/2-x,1/2-y,-z
1/2+x,1/2-y,z
loop_
_atom_site_type_symbol
_atom_site_label
_atom_site_fract_x
_atom_site_fract_y
_atom_site_fract_z
Si Si1 0.156737 0.817474 0.441074
Si Si2 0.515407 0.671638 0.629066
Si Si3 0.196819 0.500000 0.528854
Si Si4 0.284764 0.000000 0.586540
Si Si5 0.141061 0.748079 0.174439
Si Si6 0.135347 0.386721 0.019158
Si Si7 0.043762 0.800614 0.092585
Si Si8 0.731425 0.876745 0.759363
O O1 0.362611 0.772378 0.395688
O O2 0.070039 0.855014 0.406999
O O3 0.000000 0.752055 0.500000
O O4 0.191754 0.906826 0.470896
O O5 0.666891 0.595332 0.623149
O O6 0.344857 0.671513 0.695709
O O7 0.194227 0.500000 0.473203
O O8 0.977031 0.500000 0.582488
O O9 0.105419 0.819398 0.135650
O O10 0.322148 0.679966 0.130363
O O11 0.176057 0.827852 0.210317
O O12 0.977032 0.666918 0.212127
O O13 0.102256 0.500000 0.042075
O O14 0.091454 0.315476 0.071148
O O15 0.349694 0.373906 0.962740
O O16 0.000000 0.355911 0.000000
O O17 0.733450 0.000000 0.760119
#
# Coordination Sequence:
#
# PCOD8098678 Si02
#       8
#     8   8   4   4   8   8   8   8
#     4  12  24  40  64  97 131 170 207 264 335 419
#     4  12  24  42  66  90 128 167 215 274 336 394
#     4  11  24  39  60  99 130 169 212 253 327 417
#     4  11  23  40  63  90 133 166 213 264 322 406
#     4  10  23  42  67  93 129 174 225 278 330 385
#     4  10  20  34  61  97 133 176 215 253 328 400
#     4  10  20  39  61  94 137 168 209 275 318 383
#     4  11  25  47  70  94 126 174 228 284 337 388
#
# _framework density 20.942702000000001
#
# number of rings (size 3 to 8) (size 9 to 14) (size 15 to 20)
#    0.000    1.143    3.571    2.786    2.000    3.429 
#    0.000    2.857    0.000    0.000    0.000    0.000 
#    0.000    0.000    0.000    0.000    0.000    0.000 
#
# Total GULP energy -346986.142668 kJ/mol
# GULP energy per Si atom -12392.362238 kJ/mol
# Density = 2.089504 g / cm^3
# Si number density = 20.942702 Si / 1000 Ang^3
#
#
#
# Elastic Constant Matrix: (Units=GPa)
#
#
# Indices 1 2 3 4 5 6 
#
# 1 114.6461 23.3308 51.1836 0.0000 -18.4885 0.0000
# 2 23.3308 88.0547 31.8175 0.0000 -4.0454 0.0000
# 3 51.1836 31.8175 139.4760 0.0000 -16.6814 0.0000
# 4 0.0000 0.0000 0.0000 19.4143 0.0000 2.9000
# 5 -18.4885 -4.0454 -16.6814 0.0000 25.6364 0.0000
# 6 0.0000 0.0000 0.0000 2.9000 0.0000 31.8193
#
#
#
# Elastic Compliance Matrix: (Units=1/GPa)
#
#
# Indices 1 2 3 4 5 6 
#
# 1 0.011396 -0.001626 -0.003100 0.000000 0.005945 0.000000
# 2 -0.001626 0.012609 -0.002366 0.000000 -0.000723 0.000000
# 3 -0.003100 -0.002366 0.009255 0.000000 0.003413 0.000000
# 4 0.000000 0.000000 0.000000 0.052219 0.000000 -0.004759
# 5 0.005945 -0.000723 0.003413 0.000000 0.045401 0.000000
# 6 0.000000 0.000000 0.000000 -0.004759 0.000000 0.031861
#
#
# Mechanical properties :
#
#
# Convention : Reuss Voigt Hill
#
# Bulk Modulus (GPa) = 52.42202 61.64893 57.03548
# Shear Modulus (GPa) = 27.27974 31.09698 29.18836
#
# Velocity S-wave (km/s) = 3.61306 3.85757 3.73731
# Velocity P-wave (km/s) = 6.51852 7.02438 6.77617
#
# Compressibility (1/GPa) = 0.01907595
#
# Stress axis : x y z
#
# Youngs Moduli (GPa) = 87.74880 79.30706 108.04598
#
# Poissons Ratio (x) = 0.12897 0.33495
# Poissons Ratio (y) = 0.14270 0.25565
# Poissons Ratio (z) = 0.27203 0.18765
#
# Static dielectric constant tensor:
#      x y z
#    x 4.155500 0.000000 -0.288170 
#    y 0.000000 3.369360 0.000000 
#    z -0.288170 0.000000 4.007690 
# 
# 
# High freq. dielectric constant tensor:
#      x y z
#    x 1.837330 0.000000 -0.012940 
#    y 0.000000 1.797500 0.000000 
#    z -0.012940 0.000000 1.830760 
# 
# From -- ./inp_files/372363.got.cif
#   From: 2010.06.25/outbox.cif.g09.slc.cpg/sg12_187_cif.got.tgz:372363.got - 2010.06.28 00:19:55.
