data_PCOD8098619
_publ_section_title
;
Structure prediction by ZEFSAII (Michael W. Deem and Ramdas Pophale) SiO2 
 PCOD8098619
Probable space group: C 2/M
;
_chemical_formula_sum "Si O2"
_cell_formula_units_Z 48
_cell_length_a 28.298027
_cell_length_b 18.228414
_cell_length_c 9.896737
_cell_angle_alpha 90.000000
_cell_angle_beta 152.537520
_cell_angle_gamma 90.000000
_cell_volume 2354.268064
_symmetry_space_group_name_H-M "C 2/M"
_symmetry_group_IT_number 12
_symmetry_cell_setting 'monoclinic'
loop_
_space_group_symop_operation_xyz
x,y,z
-x,y,-z
-x,-y,-z
x,-y,z
1/2+x,1/2+y,z
1/2-x,1/2+y,-z
1/2-x,1/2-y,-z
1/2+x,1/2-y,z
loop_
_atom_site_type_symbol
_atom_site_label
_atom_site_fract_x
_atom_site_fract_y
_atom_site_fract_z
Si Si1 0.380175 0.084408 0.708656
Si Si2 0.730891 0.168120 0.808341
Si Si3 0.584590 0.586197 0.614138
Si Si4 0.916975 0.086825 0.688052
Si Si5 0.383414 0.797195 0.216704
Si Si6 0.812267 0.414552 0.835356
O O1 0.320833 0.138690 0.458502
O O2 0.350953 0.106266 0.785793
O O3 0.349774 0.000000 0.599677
O O4 0.500000 0.096789 0.000000
O O5 0.642679 0.188202 0.692209
O O6 0.801092 0.104395 0.049388
O O7 0.803506 0.237105 0.957034
O O8 0.500000 0.620256 0.500000
O O9 0.572897 0.500000 0.577804
O O10 0.565760 0.620310 0.417593
O O11 0.805967 0.108660 0.459711
O O12 0.930883 0.000000 0.717854
O O13 0.000000 0.122134 0.000000
O O14 0.500000 0.768335 0.500000
O O15 0.375311 0.870937 0.108220
O O16 0.828379 0.500000 0.909074
#
# Coordination Sequence:
#
# PCOD8098619 Si02
#       6
#     8   8   8   8   8   8
#     4  10  22  40  64  94 124 158 203 251 300 356
#     4  11  23  40  62  87 125 160 200 251 305 362
#     4  10  20  34  58  90 120 156 201 247 302 361
#     4   9  18  33  53  83 120 152 190 242 296 354
#     4  11  24  42  62  86 120 161 205 253 306 366
#     4  10  21  39  62  89 120 156 203 255 306 361
#
# _framework density 20.388501999999999
#
# number of rings (size 3 to 8) (size 9 to 14) (size 15 to 20)
#    0.000    1.833    1.667    2.000    2.333    1.667 
#    0.000    0.833    0.000    0.000    0.000    0.000 
#    0.000    0.000    0.000    0.000    0.000    0.000 
#
# Total GULP energy -297623.476836 kJ/mol
# GULP energy per Si atom -12400.978201 kJ/mol
# Density = 2.034210 g / cm^3
# Si number density = 20.388502 Si / 1000 Ang^3
#
#
#
# Elastic Constant Matrix: (Units=GPa)
#
#
# Indices 1 2 3 4 5 6 
#
# 1 171.9978 45.4542 62.5693 0.0000 9.8619 0.0000
# 2 45.4542 69.4452 42.1701 0.0000 -9.1427 0.0000
# 3 62.5693 42.1701 98.6693 0.0000 -2.8748 0.0000
# 4 0.0000 0.0000 0.0000 26.5973 0.0000 -7.1848
# 5 9.8619 -9.1427 -2.8748 0.0000 35.4212 0.0000
# 6 0.0000 0.0000 0.0000 -7.1848 0.0000 4.8924
#
#
#
# Elastic Compliance Matrix: (Units=1/GPa)
#
#
# Indices 1 2 3 4 5 6 
#
# 1 0.008383 -0.003601 -0.003881 0.000000 -0.003578 0.000000
# 2 -0.003601 0.021688 -0.006809 0.000000 0.006048 0.000000
# 3 -0.003881 -0.006809 0.015523 0.000000 0.000583 0.000000
# 4 0.000000 0.000000 0.000000 0.062321 0.000000 0.091521
# 5 -0.003578 0.006048 0.000583 0.000000 0.030836 0.000000
# 6 0.000000 0.000000 0.000000 0.091521 0.000000 0.338800
#
#
# Mechanical properties :
#
#
# Convention : Reuss Voigt Hill
#
# Bulk Modulus (GPa) = 58.78565 71.16661 64.97613
# Shear Modulus (GPa) = 9.76936 26.04343 17.90639
#
# Velocity S-wave (km/s) = 2.19135 3.57789 2.96676
# Velocity P-wave (km/s) = 5.94121 7.21453 6.60861
#
# Compressibility (1/GPa) = 0.01701095
#
# Stress axis : x y z
#
# Youngs Moduli (GPa) = 119.29348 46.10807 64.42023
#
# Poissons Ratio (x) = 0.16605 0.25001
# Poissons Ratio (y) = 0.42960 0.43866
# Poissons Ratio (z) = 0.46296 0.31397
#
# Static dielectric constant tensor:
#      x y z
#    x 4.039150 0.000000 -0.008810 
#    y 0.000000 3.520940 0.000000 
#    z -0.008810 0.000000 3.682380 
# 
# 
# High freq. dielectric constant tensor:
#      x y z
#    x 1.814340 0.000000 0.005070 
#    y 0.000000 1.781140 0.000000 
#    z 0.005070 0.000000 1.793390 
# 
# From -- ./inp_files/106583.got.cif
#   From: 2010.06.25/outbox.cif.g09.slc.cpg/sg12_54_cif.got.tgz:106583.got - 2010.06.28 00:19:55.
