data_PCOD8098997
_publ_section_title
;
Structure prediction by ZEFSAII (Michael W. Deem and Ramdas Pophale) SiO2 
 PCOD8098997
Probable space group: C 2/M
;
_chemical_formula_sum "Si O2"
_cell_formula_units_Z 64
_cell_length_a 8.787618
_cell_length_b 21.363626
_cell_length_c 16.757083
_cell_angle_alpha 90.000000
_cell_angle_beta 93.114879
_cell_angle_gamma 90.000000
_cell_volume 3141.249647
_symmetry_space_group_name_H-M "C 2/M"
_symmetry_group_IT_number 12
_symmetry_cell_setting 'monoclinic'
loop_
_space_group_symop_operation_xyz
x,y,z
-x,y,-z
-x,-y,-z
x,-y,z
1/2+x,1/2+y,z
1/2-x,1/2+y,-z
1/2-x,1/2-y,-z
1/2+x,1/2-y,z
loop_
_atom_site_type_symbol
_atom_site_label
_atom_site_fract_x
_atom_site_fract_y
_atom_site_fract_z
Si Si1 0.315261 0.253636 0.185721
Si Si2 0.076355 0.159378 0.230918
Si Si3 0.264650 0.574720 0.647723
Si Si4 0.001948 0.070462 0.092265
Si Si5 0.661105 0.930804 0.143782
Si Si6 0.552287 0.811025 0.086072
Si Si7 0.429027 0.074287 0.685938
Si Si8 0.826870 0.568323 0.521563
O O1 0.205485 0.213452 0.240044
O O2 0.409833 0.308200 0.234302
O O3 0.435009 0.206766 0.150770
O O4 0.219044 0.285051 0.111898
O O5 0.098105 0.110490 0.303748
O O6 0.095051 0.121352 0.147135
O O7 0.291927 0.500000 0.652644
O O8 0.263463 0.599916 0.555349
O O9 0.106531 0.593886 0.686701
O O10 0.835001 0.068066 0.124019
O O11 0.073829 0.000000 0.099961
O O12 0.000000 0.092690 0.000000
O O13 0.563850 0.886493 0.082829
O O14 0.645676 0.903214 0.233497
O O15 0.588781 0.000000 0.136869
O O16 0.500000 0.783989 0.000000
O O17 0.331356 0.103749 0.608040
O O18 0.418565 0.000000 0.676077
O O19 0.752087 0.500000 0.530953
O O20 0.000000 0.559738 0.500000
#
# Coordination Sequence:
#
# PCOD8098997 Si02
#       8
#     8   8   8   8   8   8   8   8
#     4  10  24  38  54  78 104 142 188 232 278 310
#     4  11  21  38  57  78 109 144 184 234 269 326
#     4   9  16  28  54  89 115 142 178 218 271 330
#     4  10  22  38  56  77 107 143 178 221 282 337
#     4  10  20  35  54  81 112 145 175 213 277 336
#     4  11  22  38  57  79 103 138 182 234 274 321
#     4   8  14  27  48  80 120 148 173 211 265 330
#     4   7  11  22  44  79 118 145 170 211 261 321
#
# _framework density 20.374057000000001
#
# number of rings (size 3 to 8) (size 9 to 14) (size 15 to 20)
#    0.000    2.500    1.250    3.000    1.750    2.250 
#    0.000    0.625    0.000    0.750    0.000   28.000 
#    0.000    0.000    0.000    0.000    0.000    0.000 
#
# Total GULP energy -396458.475925 kJ/mol
# GULP energy per Si atom -12389.327373 kJ/mol
# Density = 2.032768 g / cm^3
# Si number density = 20.374057 Si / 1000 Ang^3
#
#
#
# Elastic Constant Matrix: (Units=GPa)
#
#
# Indices 1 2 3 4 5 6 
#
# 1 73.1648 29.7790 30.3073 0.0000 16.0510 0.0000
# 2 29.7790 78.2732 22.1552 0.0000 18.8024 0.0000
# 3 30.3073 22.1552 84.2748 0.0000 20.8511 0.0000
# 4 0.0000 0.0000 0.0000 12.4722 0.0000 6.6720
# 5 16.0510 18.8024 20.8511 0.0000 33.1322 0.0000
# 6 0.0000 0.0000 0.0000 6.6720 0.0000 18.9784
#
#
#
# Elastic Compliance Matrix: (Units=1/GPa)
#
#
# Indices 1 2 3 4 5 6 
#
# 1 0.018218 -0.004889 -0.004464 0.000000 -0.003242 0.000000
# 2 -0.004889 0.016439 -0.000997 0.000000 -0.006334 0.000000
# 3 -0.004464 -0.000997 0.015467 0.000000 -0.007005 0.000000
# 4 0.000000 0.000000 0.000000 0.098750 0.000000 -0.034716
# 5 -0.003242 -0.006334 -0.007005 0.000000 0.039756 0.000000
# 6 0.000000 0.000000 0.000000 -0.034716 0.000000 0.064896
#
#
# Mechanical properties :
#
#
# Convention : Reuss Voigt Hill
#
# Bulk Modulus (GPa) = 33.98506 44.46619 39.22563
# Shear Modulus (GPa) = 17.60362 23.14798 20.37580
#
# Velocity S-wave (km/s) = 2.94261 3.37434 3.16584
# Velocity P-wave (km/s) = 5.31621 6.08719 5.71471
#
# Compressibility (1/GPa) = 0.02942469
#
# Stress axis : x y z
#
# Youngs Moduli (GPa) = 54.89079 60.83031 64.65517
#
# Poissons Ratio (x) = 0.29738 0.28864
# Poissons Ratio (y) = 0.26834 0.06444
# Poissons Ratio (z) = 0.24505 0.06062
#
# Static dielectric constant tensor:
#      x y z
#    x 3.498130 0.000000 0.136710 
#    y 0.000000 3.740040 0.000000 
#    z 0.136710 0.000000 3.911680 
# 
# 
# High freq. dielectric constant tensor:
#      x y z
#    x 1.776350 0.000000 0.009240 
#    y 0.000000 1.774310 0.000000 
#    z 0.009240 0.000000 1.788810 
# 
# From -- ./inp_files/258100.got.cif
#   From: 2010.06.25/outbox.cif.g09.slc.cpg/sg12_130_cif.got.tgz:258100.got - 2010.06.28 00:19:55.
