data_PCOD8098431
_publ_section_title
;
Structure prediction by ZEFSAII (Michael W. Deem and Ramdas Pophale) SiO2 
 PCOD8098431
Probable space group: C 2/M
;
_chemical_formula_sum "Si O2"
_cell_formula_units_Z 56
_cell_length_a 14.675686
_cell_length_b 9.010788
_cell_length_c 21.975755
_cell_angle_alpha 90.000000
_cell_angle_beta 105.841934
_cell_angle_gamma 90.000000
_cell_volume 2795.686005
_symmetry_space_group_name_H-M "C 2/M"
_symmetry_group_IT_number 12
_symmetry_cell_setting 'monoclinic'
loop_
_space_group_symop_operation_xyz
x,y,z
-x,y,-z
-x,-y,-z
x,-y,z
1/2+x,1/2+y,z
1/2-x,1/2+y,-z
1/2-x,1/2-y,-z
1/2+x,1/2-y,z
loop_
_atom_site_type_symbol
_atom_site_label
_atom_site_fract_x
_atom_site_fract_y
_atom_site_fract_z
Si Si1 0.873696 0.170327 0.059581
Si Si2 0.982923 0.668812 0.172103
Si Si3 0.459870 0.325270 0.401423
Si Si4 0.372040 0.173731 0.271781
Si Si5 0.308807 0.168819 0.797194
Si Si6 0.348347 0.674399 0.499546
Si Si7 0.304278 0.669864 0.920249
O O1 0.795662 0.284274 0.069624
O O2 0.969183 0.221417 0.111638
O O3 0.849120 0.000000 0.071740
O O4 0.883353 0.185977 0.988074
O O5 0.963453 0.500000 0.147927
O O6 0.089682 0.683326 0.217178
O O7 0.912867 0.716995 0.213346
O O8 0.454108 0.500000 0.390542
O O9 0.437122 0.244311 0.334921
O O10 0.566696 0.279275 0.439475
O O11 0.382752 0.277515 0.438379
O O12 0.265367 0.235280 0.254819
O O13 0.370396 0.000000 0.282510
O O14 0.327443 0.223905 0.868920
O O15 0.272393 0.000000 0.792302
O O16 0.331325 0.500000 0.499043
O O17 0.250000 0.750000 0.500000
O O18 0.297287 0.500000 0.895952
#
# Coordination Sequence:
#
# PCOD8098431 Si02
#       7
#     8   8   8   8   8   8   8
#     4  10  20  34  57  83 108 145 189 234 295 357
#     4  10  23  40  57  80 114 149 189 242 295 346
#     4   9  20  39  60  85 120 160 193 229 281 341
#     4  11  23  40  60  84 116 154 194 243 287 332
#     4  11  23  39  59  83 111 152 195 236 295 355
#     4   9  19  37  62  91 123 156 192 234 280 327
#     4  10  20  35  55  82 113 143 184 241 295 349
#
# _framework density 20.030861999999999
#
# number of rings (size 3 to 8) (size 9 to 14) (size 15 to 20)
#    0.000    2.000    1.429    2.571    0.000    6.286 
#    0.000    8.571    0.000    0.000    0.000    0.000 
#    0.000    0.000    0.000    0.000    0.000    0.000 
#
# Total GULP energy -347166.089902 kJ/mol
# GULP energy per Si atom -12398.788925 kJ/mol
# Density = 1.998527 g / cm^3
# Si number density = 20.030862 Si / 1000 Ang^3
#
#
#
# Elastic Constant Matrix: (Units=GPa)
#
#
# Indices 1 2 3 4 5 6 
#
# 1 78.8434 29.2706 22.2233 0.0000 23.2380 0.0000
# 2 29.2706 72.8403 49.0617 0.0000 8.1858 0.0000
# 3 22.2233 49.0617 109.8183 0.0000 20.2615 0.0000
# 4 0.0000 0.0000 0.0000 37.1576 0.0000 3.0300
# 5 23.2380 8.1858 20.2615 0.0000 20.5859 0.0000
# 6 0.0000 0.0000 0.0000 3.0300 0.0000 30.3289
#
#
#
# Elastic Compliance Matrix: (Units=1/GPa)
#
#
# Indices 1 2 3 4 5 6 
#
# 1 0.022479 -0.008981 0.004259 0.000000 -0.025996 0.000000
# 2 -0.008981 0.023243 -0.010669 0.000000 0.011396 0.000000
# 3 0.004259 -0.010669 0.016025 0.000000 -0.016338 0.000000
# 4 0.000000 0.000000 0.000000 0.027133 0.000000 -0.002711
# 5 -0.025996 0.011396 -0.016338 0.000000 0.089471 0.000000
# 6 0.000000 0.000000 0.000000 -0.002711 0.000000 0.033243
#
#
# Mechanical properties :
#
#
# Convention : Reuss Voigt Hill
#
# Bulk Modulus (GPa) = 32.29331 51.40146 41.84739
# Shear Modulus (GPa) = 19.78661 28.34423 24.06542
#
# Velocity S-wave (km/s) = 3.14635 3.76577 3.46991
# Velocity P-wave (km/s) = 5.41813 6.68018 6.08198
#
# Compressibility (1/GPa) = 0.03096616
#
# Stress axis : x y z
#
# Youngs Moduli (GPa) = 44.48648 43.02382 62.40323
#
# Poissons Ratio (x) = 0.38638 -0.26580
# Poissons Ratio (y) = 0.39951 0.66579
# Poissons Ratio (z) = -0.18949 0.45903
#
# Static dielectric constant tensor:
#      x y z
#    x 3.568210 0.000000 0.098970 
#    y 0.000000 3.575910 0.000000 
#    z 0.098970 0.000000 3.694600 
# 
# 
# High freq. dielectric constant tensor:
#      x y z
#    x 1.774550 0.000000 0.012190 
#    y 0.000000 1.784290 0.000000 
#    z 0.012190 0.000000 1.779770 
# 
# From -- ./inp_files/339021.got.cif
#   From: 2010.06.25/outbox.cif.g09.slc.cpg/sg12_170_cif.got.tgz:339021.got - 2010.06.28 00:19:55.
