data_PCOD8098672
_publ_section_title
;
Structure prediction by ZEFSAII (Michael W. Deem and Ramdas Pophale) SiO2 
 PCOD8098672
Probable space group: C 2/M
;
_chemical_formula_sum "Si O2"
_cell_formula_units_Z 48
_cell_length_a 12.107630
_cell_length_b 14.864628
_cell_length_c 21.794637
_cell_angle_alpha 90.000000
_cell_angle_beta 142.373919
_cell_angle_gamma 90.000000
_cell_volume 2394.708109
_symmetry_space_group_name_H-M "C 2/M"
_symmetry_group_IT_number 12
_symmetry_cell_setting 'monoclinic'
loop_
_space_group_symop_operation_xyz
x,y,z
-x,y,-z
-x,-y,-z
x,-y,z
1/2+x,1/2+y,z
1/2-x,1/2+y,-z
1/2-x,1/2-y,-z
1/2+x,1/2-y,z
loop_
_atom_site_type_symbol
_atom_site_label
_atom_site_fract_x
_atom_site_fract_y
_atom_site_fract_z
Si Si1 0.207524 0.308004 0.112441
Si Si2 0.571258 0.395983 0.465145
Si Si3 0.755628 0.500000 0.889254
Si Si4 0.051659 0.500000 0.911686
Si Si5 0.507824 0.899367 0.345782
Si Si6 0.536054 0.840072 0.808929
Si Si7 0.805524 0.232623 0.290505
O O1 0.328335 0.400736 0.160471
O O2 0.297939 0.229809 0.110716
O O3 0.210165 0.275306 0.183027
O O4 0.000000 0.324950 0.000000
O O5 0.500000 0.364415 0.500000
O O6 0.522810 0.500000 0.433061
O O7 0.782604 0.376757 0.552089
O O8 0.466286 0.339948 0.367233
O O9 0.918052 0.500000 0.910821
O O10 0.765773 0.500000 0.968625
O O11 0.035808 0.411009 0.864019
O O12 0.454851 0.892068 0.251140
O O13 0.389759 0.831994 0.335289
O O14 0.463543 0.000000 0.348537
O O15 0.348614 0.783992 0.726681
#
# Coordination Sequence:
#
# PCOD8098672 Si02
#       7
#     8   8   4   4   8   8   8
#     4  11  23  40  59  89 118 151 201 241 291 347
#     4  10  20  34  61  94 115 150 197 240 287 350
#     4  11  20  38  58  83 110 153 194 248 286 334
#     4  11  20  36  59  82 113 151 196 244 287 335
#     4  10  21  39  60  88 121 151 193 238 294 350
#     4  11  22  37  64  85 114 159 193 242 292 346
#     4  11  22  36  62  88 119 155 191 247 290 339
#
# _framework density 20.044198000000002
#
# number of rings (size 3 to 8) (size 9 to 14) (size 15 to 20)
#    0.000    1.333    5.833    0.500    2.333    2.667 
#    1.500    0.417    0.000    0.500    0.000    0.000 
#    0.000    0.000    0.000    0.000    0.000    0.000 
#
# Total GULP energy -297341.025023 kJ/mol
# GULP energy per Si atom -12389.209376 kJ/mol
# Density = 1.999858 g / cm^3
# Si number density = 20.044198 Si / 1000 Ang^3
#
#
#
# Elastic Constant Matrix: (Units=GPa)
#
#
# Indices 1 2 3 4 5 6 
#
# 1 43.1523 44.0159 8.9557 0.0000 2.3061 0.0000
# 2 44.0159 134.7223 35.8269 0.0000 13.9007 0.0000
# 3 8.9557 35.8269 62.4481 0.0000 1.9180 0.0001
# 4 0.0000 0.0000 0.0000 28.8649 0.0000 8.1690
# 5 2.3061 13.9007 1.9180 0.0000 20.5699 0.0000
# 6 0.0000 0.0000 0.0001 8.1690 0.0000 8.5107
#
#
#
# Elastic Compliance Matrix: (Units=1/GPa)
#
#
# Indices 1 2 3 4 5 6 
#
# 1 0.035280 -0.012497 0.001978 0.000000 0.004305 0.000000
# 2 -0.012497 0.013844 -0.005923 0.000000 -0.007403 0.000000
# 3 0.001978 -0.005923 0.019066 0.000000 0.002003 0.000000
# 4 0.000000 0.000000 0.000000 0.047565 0.000000 -0.045655
# 5 0.004305 -0.007403 0.002003 0.000000 0.052948 0.000000
# 6 0.000000 0.000000 0.000000 -0.045655 0.000000 0.161320
#
#
# Mechanical properties :
#
#
# Convention : Reuss Voigt Hill
#
# Bulk Modulus (GPa) = 28.32342 46.43553 37.37947
# Shear Modulus (GPa) = 13.34484 21.69071 17.51778
#
# Velocity S-wave (km/s) = 2.58305 3.29316 2.95948
# Velocity P-wave (km/s) = 4.80181 6.13814 5.51063
#
# Compressibility (1/GPa) = 0.03530647
#
# Stress axis : x y z
#
# Youngs Moduli (GPa) = 28.34467 72.23088 52.44855
#
# Poissons Ratio (x) = 0.90265 -0.10373
# Poissons Ratio (y) = 0.35421 0.31066
# Poissons Ratio (z) = -0.05606 0.42784
#
# Static dielectric constant tensor:
#      x y z
#    x 3.464700 0.000000 -0.012090 
#    y 0.000000 4.017190 0.000000 
#    z -0.012090 0.000000 3.577160 
# 
# 
# High freq. dielectric constant tensor:
#      x y z
#    x 1.755910 0.000000 -0.011600 
#    y 0.000000 1.799890 0.000000 
#    z -0.011600 0.000000 1.770950 
# 
# From -- ./inp_files/204605.got.cif
#   From: 2010.06.25/outbox.cif.g09.slc.cpg/sg12_103_cif.got.tgz:204605.got - 2010.06.28 00:19:55.
