data_PCOD8098752
_publ_section_title
;
Structure prediction by ZEFSAII (Michael W. Deem and Ramdas Pophale) SiO2 
 PCOD8098752
Probable space group: C 2/M
;
_chemical_formula_sum "Si O2"
_cell_formula_units_Z 40
_cell_length_a 14.278570
_cell_length_b 17.275437
_cell_length_c 21.761260
_cell_angle_alpha 90.000000
_cell_angle_beta 158.044862
_cell_angle_gamma 90.000000
_cell_volume 2006.922554
_symmetry_space_group_name_H-M "C 2/M"
_symmetry_group_IT_number 12
_symmetry_cell_setting 'monoclinic'
loop_
_space_group_symop_operation_xyz
x,y,z
-x,y,-z
-x,-y,-z
x,-y,z
1/2+x,1/2+y,z
1/2-x,1/2+y,-z
1/2-x,1/2-y,-z
1/2+x,1/2-y,z
loop_
_atom_site_type_symbol
_atom_site_label
_atom_site_fract_x
_atom_site_fract_y
_atom_site_fract_z
Si Si1 0.458893 0.689829 0.609755
Si Si2 0.685391 0.320062 0.167623
Si Si3 0.303275 0.410166 0.012857
Si Si4 0.236137 0.911026 0.871155
Si Si5 0.069877 0.409596 0.320027
O O1 0.250000 0.750000 0.500000
O O2 0.697565 0.740678 0.733194
O O3 0.525204 0.640028 0.710362
O O4 0.342892 0.632459 0.487480
O O5 0.541631 0.361877 0.135211
O O6 0.895455 0.378274 0.269046
O O7 0.500000 0.295881 0.000000
O O8 0.374520 0.500000 0.050057
O O9 0.240770 0.385578 0.043991
O O10 0.057615 0.391727 0.822974
O O11 0.153472 0.000000 0.815352
O O12 0.500000 0.896397 0.000000
O O13 0.112664 0.500000 0.356221
#
# Coordination Sequence:
#
# PCOD8098752 Si02
#       5
#     8   8   8   8   8
#     4  10  20  35  52  77 114 148 175 214 270 324
#     4   9  17  32  54  81 111 142 179 222 269 322
#     4   9  18  35  60  84 104 136 184 230 270 315
#     4  10  21  39  60  79 105 144 187 226 265 319
#     4   9  17  32  55  82 109 139 179 226 272 316
#
# _framework density 19.931013
#
# number of rings (size 3 to 8) (size 9 to 14) (size 15 to 20)
#    0.000    2.600    0.000    1.800    0.000    2.400 
#    0.000   23.000    0.000   15.600    0.000    0.000 
#    0.000    0.000    0.000    0.000    0.000    0.600 
#
# Total GULP energy -247945.180638 kJ/mol
# GULP energy per Si atom -12397.259032 kJ/mol
# Density = 1.988565 g / cm^3
# Si number density = 19.931013 Si / 1000 Ang^3
#
#
#
# Elastic Constant Matrix: (Units=GPa)
#
#
# Indices 1 2 3 4 5 6 
#
# 1 125.7703 53.4365 60.7825 -0.0335 -13.2650 0.0097
# 2 53.4365 121.1749 89.0845 -0.1022 -6.9280 0.0401
# 3 60.7825 89.0845 134.9023 -0.1419 -11.9377 0.0126
# 4 -0.0335 -0.1022 -0.1419 54.9560 -0.0174 3.9721
# 5 -13.2650 -6.9280 -11.9377 -0.0174 20.1442 0.0000
# 6 0.0097 0.0401 0.0126 3.9721 0.0000 20.0126
#
#
#
# Elastic Compliance Matrix: (Units=1/GPa)
#
#
# Indices 1 2 3 4 5 6 
#
# 1 0.010856 -0.002386 -0.002908 -0.000004 0.004605 0.000002
# 2 -0.002386 0.016576 -0.010032 0.000005 -0.001815 -0.000027
# 3 -0.002908 -0.010032 0.015696 0.000021 0.003937 0.000007
# 4 -0.000004 0.000005 0.000021 0.018461 0.000027 -0.003664
# 5 0.004605 -0.001815 0.003937 0.000027 0.054383 -0.000006
# 6 0.000002 -0.000027 0.000007 -0.003664 -0.000006 0.050696
#
#
# Mechanical properties :
#
#
# Convention : Reuss Voigt Hill
#
# Bulk Modulus (GPa) = 80.15368 87.60604 83.87986
# Shear Modulus (GPa) = 24.81653 30.92549 27.87101
#
# Velocity S-wave (km/s) = 3.53246 3.94334 3.74354
# Velocity P-wave (km/s) = 7.54589 8.04881 7.80141
#
# Compressibility (1/GPa) = 0.01247603
#
# Stress axis : x y z
#
# Youngs Moduli (GPa) = 92.11597 60.32798 63.71009
#
# Poissons Ratio (x) = 0.14394 0.18528
# Poissons Ratio (y) = 0.21979 0.63913
# Poissons Ratio (z) = 0.26789 0.60520
#
# Static dielectric constant tensor:
#      x y z
#    x 3.748130 0.001580 -0.010370 
#    y 0.001580 4.001010 -0.000380 
#    z -0.010370 -0.000380 4.074320 
# 
# 
# High freq. dielectric constant tensor:
#      x y z
#    x 1.742440 0.000000 -0.000260 
#    y 0.000000 1.795730 -0.000010 
#    z -0.000260 -0.000010 1.785380 
# 
# From -- ./inp_files/60808.got.cif
#   From: 2010.06.25/outbox.cif.g09.slc.cpg/sg12_31_cif.got.tgz:60808.got - 2010.06.28 00:19:55.
