data_PCOD8098326
_publ_section_title
;
Structure prediction by ZEFSAII (Michael W. Deem and Ramdas Pophale) SiO2 
 PCOD8098326
Probable space group: C 2/M
;
_chemical_formula_sum "Si O2"
_cell_formula_units_Z 56
_cell_length_a 14.712814
_cell_length_b 9.313995
_cell_length_c 26.251489
_cell_angle_alpha 90.000000
_cell_angle_beta 124.862762
_cell_angle_gamma 90.000000
_cell_volume 2951.730752
_symmetry_space_group_name_H-M "C 2/M"
_symmetry_group_IT_number 12
_symmetry_cell_setting 'monoclinic'
loop_
_space_group_symop_operation_xyz
x,y,z
-x,y,-z
-x,-y,-z
x,-y,z
1/2+x,1/2+y,z
1/2-x,1/2+y,-z
1/2-x,1/2-y,-z
1/2+x,1/2-y,z
loop_
_atom_site_type_symbol
_atom_site_label
_atom_site_fract_x
_atom_site_fract_y
_atom_site_fract_z
Si Si1 0.467445 0.336809 0.638016
Si Si2 0.833542 0.166590 0.851045
Si Si3 0.182915 0.667090 0.709480
Si Si4 0.655249 0.666519 0.498852
Si Si5 0.717056 0.832506 0.066914
Si Si6 0.765224 0.668733 0.387681
Si Si7 0.413793 0.665056 0.055168
O O1 0.494250 0.500000 0.661034
O O2 0.569574 0.242805 0.689596
O O3 0.452933 0.320201 0.571876
O O4 0.357322 0.287348 0.632743
O O5 0.778774 0.208150 0.779844
O O6 0.775198 0.261037 0.875494
O O7 0.962983 0.203958 0.887743
O O8 0.815063 0.000000 0.858492
O O9 0.157372 0.500000 0.701545
O O10 0.223782 0.717146 0.667116
O O11 0.687191 0.500000 0.516675
O O12 0.750000 0.750000 0.500000
O O13 0.642716 0.743255 0.549839
O O14 0.833665 0.801934 0.076818
O O15 0.692093 0.000000 0.064534
O O16 0.617030 0.762068 0.003062
O O17 0.786619 0.500000 0.402682
O O18 0.403196 0.500000 0.034371
#
# Coordination Sequence:
#
# PCOD8098326 Si02
#       7
#     8   8   8   8   8   8   8
#     4   9  19  35  54  76 104 135 169 215 268 314
#     4  10  21  37  54  74 105 144 179 210 252 308
#     4  10  22  37  53  75 103 139 182 217 250 304
#     4   9  17  31  53  79 104 133 170 214 265 316
#     4  10  20  34  56  85 109 132 169 216 260 302
#     4   9  19  36  55  76 104 138 174 215 262 312
#     4   9  19  36  57  79 106 140 172 206 256 312
#
# _framework density 18.971920000000001
#
# number of rings (size 3 to 8) (size 9 to 14) (size 15 to 20)
#    0.000    2.571    0.000    2.143    0.000    8.571 
#    0.000    5.714    0.000    0.000    0.000    0.000 
#    0.000    0.000    0.000    0.000    0.000    0.000 
#
# Total GULP energy -347194.352490 kJ/mol
# GULP energy per Si atom -12399.798303 kJ/mol
# Density = 1.892874 g / cm^3
# Si number density = 18.971920 Si / 1000 Ang^3
#
#
#
# Elastic Constant Matrix: (Units=GPa)
#
#
# Indices 1 2 3 4 5 6 
#
# 1 59.2932 24.2294 29.0839 0.0000 -0.2598 0.0000
# 2 24.2294 64.9605 40.4436 0.0000 -2.6195 0.0000
# 3 29.0839 40.4436 94.2286 0.0000 -4.1808 0.0000
# 4 0.0000 0.0000 0.0000 32.7553 0.0000 -0.2274
# 5 -0.2598 -2.6195 -4.1808 0.0000 29.1941 0.0000
# 6 0.0000 0.0000 0.0000 -0.2274 0.0000 28.6380
#
#
#
# Elastic Compliance Matrix: (Units=1/GPa)
#
#
# Indices 1 2 3 4 5 6 
#
# 1 0.021113 -0.005225 -0.004314 0.000000 -0.000899 0.000000
# 2 -0.005225 0.022311 -0.007927 0.000000 0.000820 0.000000
# 3 -0.004314 -0.007927 0.015411 0.000000 0.001457 0.000000
# 4 0.000000 0.000000 0.000000 0.030531 0.000000 0.000242
# 5 -0.000899 0.000820 0.001457 0.000000 0.034528 0.000000
# 6 0.000000 0.000000 0.000000 0.000242 0.000000 0.034921
#
#
# Mechanical properties :
#
#
# Convention : Reuss Voigt Hill
#
# Bulk Modulus (GPa) = 41.83592 45.11067 43.47329
# Shear Modulus (GPa) = 24.78763 26.43250 25.61007
#
# Velocity S-wave (km/s) = 3.61854 3.73667 3.67808
# Velocity P-wave (km/s) = 6.28950 6.51507 6.40328
#
# Compressibility (1/GPa) = 0.02390291
#
# Stress axis : x y z
#
# Youngs Moduli (GPa) = 47.36522 44.82040 64.88941
#
# Poissons Ratio (x) = 0.23420 0.27990
# Poissons Ratio (y) = 0.24750 0.51437
# Poissons Ratio (z) = 0.20431 0.35529
#
# Static dielectric constant tensor:
#      x y z
#    x 3.372940 0.000000 -0.102860 
#    y 0.000000 3.501630 0.000000 
#    z -0.102860 0.000000 3.712290 
# 
# 
# High freq. dielectric constant tensor:
#      x y z
#    x 1.731170 0.000000 -0.003760 
#    y 0.000000 1.735770 0.000000 
#    z -0.003760 0.000000 1.735460 
# 
# From -- ./inp_files/339011.got.cif
#   From: 2010.06.25/outbox.cif.g09.slc.cpg/sg12_170_cif.got.tgz:339011.got - 2010.06.28 00:19:55.
