data_PCOD8098470
_publ_section_title
;
Structure prediction by ZEFSAII (Michael W. Deem and Ramdas Pophale) SiO2 
 PCOD8098470
Probable space group: C 2/M
;
_chemical_formula_sum "Si O2"
_cell_formula_units_Z 60
_cell_length_a 22.367633
_cell_length_b 14.067140
_cell_length_c 18.308746
_cell_angle_alpha 90.000000
_cell_angle_beta 30.440793
_cell_angle_gamma 90.000000
_cell_volume 2918.707215
_symmetry_space_group_name_H-M "C 2/M"
_symmetry_group_IT_number 12
_symmetry_cell_setting 'monoclinic'
loop_
_space_group_symop_operation_xyz
x,y,z
-x,y,-z
-x,-y,-z
x,-y,z
1/2+x,1/2+y,z
1/2-x,1/2+y,-z
1/2-x,1/2-y,-z
1/2+x,1/2-y,z
loop_
_atom_site_type_symbol
_atom_site_label
_atom_site_fract_x
_atom_site_fract_y
_atom_site_fract_z
Si Si1 0.896386 0.102829 0.476090
Si Si2 0.996201 0.398572 0.739073
Si Si3 0.505521 0.612185 0.852047
Si Si4 0.500000 0.737834 0.000000
Si Si5 0.697468 0.886827 0.789736
Si Si6 0.595281 0.297619 0.190119
Si Si7 0.265430 0.359579 0.469768
Si Si8 0.201743 0.604971 0.951991
O O1 0.814021 0.148570 0.624777
O O2 0.821486 0.091715 0.480944
O O3 0.018442 0.155428 0.335107
O O4 0.932897 0.000000 0.466248
O O5 0.956398 0.500000 0.745970
O O6 0.136796 0.401166 0.591186
O O7 0.937611 0.311585 0.758666
O O8 0.938540 0.391521 0.881576
O O9 0.470117 0.500000 0.895059
O O10 0.468592 0.668535 0.964649
O O11 0.439328 0.663186 0.853537
O O12 0.647201 0.620584 0.690553
O O13 0.599985 0.811150 0.867169
O O14 0.720789 0.866739 0.849368
O O15 0.665959 0.000000 0.808071
O O16 0.732047 0.319841 0.064236
O O17 0.250000 0.250000 0.500000
O O18 0.253759 0.500000 0.912642
#
# Coordination Sequence:
#
# PCOD8098470 Si02
#       8
#     8   8   8   4   8   8   8   8
#     4  10  20  34  57  86 116 153 192 236 291 348
#     4  11  22  35  57  88 120 152 192 241 296 350
#     4  11  23  39  61  87 117 157 197 245 295 347
#     4  12  24  38  58  84 124 154 196 240 298 360
#     4  10  23  38  57  87 122 159 192 237 301 353
#     4  11  21  39  63  87 119 153 201 245 288 344
#     4  11  19  36  58  86 118 152 194 239 294 349
#     4  10  22  39  59  88 118 154 198 241 292 350
#
# _framework density 20.557047000000001
#
# number of rings (size 3 to 8) (size 9 to 14) (size 15 to 20)
#    0.000    1.333    2.667    5.600    1.867    0.533 
#    0.000    2.000    0.000    0.800    0.000    0.933 
#    0.000    0.400    0.000    0.000    0.000    0.000 
#
# Total GULP energy -371662.529094 kJ/mol
# GULP energy per Si atom -12388.750970 kJ/mol
# Density = 2.051026 g / cm^3
# Si number density = 20.557047 Si / 1000 Ang^3
#
#
#
# Elastic Constant Matrix: (Units=GPa)
#
#
# Indices 1 2 3 4 5 6 
#
# 1 42.4243 13.2218 6.7538 0.0001 -0.7134 0.0000
# 2 13.2218 116.6904 -2.4602 0.0001 1.2114 0.0000
# 3 6.7538 -2.4602 78.1976 0.0001 8.7351 0.0000
# 4 0.0001 0.0001 0.0001 -24.7336 -0.0001 -49.5547
# 5 -0.7134 1.2114 8.7351 -0.0001 31.3763 0.0000
# 6 0.0000 0.0000 0.0000 -49.5547 0.0000 -33.9701
#
#
#
# Elastic Compliance Matrix: (Units=1/GPa)
#
#
# Indices 1 2 3 4 5 6 
#
# 1 0.024873 -0.002883 -0.002389 0.000000 0.001342 0.000000
# 2 -0.002883 0.008915 0.000594 0.000000 -0.000575 0.000000
# 3 -0.002389 0.000594 0.013440 0.000000 -0.003819 0.000000
# 4 0.000000 0.000000 0.000000 0.021028 0.000000 -0.030675
# 5 0.001342 -0.000575 -0.003819 0.000000 0.032987 0.000000
# 6 0.000000 0.000000 0.000000 -0.030675 0.000000 0.015310
#
#
# Mechanical properties :
#
#
# Convention : Reuss Voigt Hill
#
# Bulk Modulus (GPa) = 26.40492 30.26037 28.33265
# Shear Modulus (GPa) = 36.09277 9.18766 22.64022
#
# Velocity S-wave (km/s) = 4.19470 2.11638 3.32224
# Velocity P-wave (km/s) = 6.02771 4.55239 5.34123
#
# Compressibility (1/GPa) = 0.03787173
#
# Stress axis : x y z
#
# Youngs Moduli (GPa) = 40.20488 112.17325 74.40645
#
# Poissons Ratio (x) = 0.32334 0.17774
# Poissons Ratio (y) = 0.11589 -0.04417
# Poissons Ratio (z) = 0.09604 -0.06659
#
# Static dielectric constant tensor:
#      x y z
#    x 3.662980 0.000000 -0.314140 
#    y 0.000000 4.170930 0.000000 
#    z -0.314140 0.000000 4.239770 
# 
# 
# High freq. dielectric constant tensor:
#      x y z
#    x 1.755790 0.000000 -0.005120 
#    y 0.000000 1.825310 0.000000 
#    z -0.005120 0.000000 1.820290 
# 
# From -- ./inp_files/289887.got.cif
#   From: 2010.06.25/outbox.cif.g09.slc.cpg/sg12_145_cif.got.tgz:289887.got - 2010.06.28 00:19:55.
