data_PCOD8098535
_publ_section_title
;
Structure prediction by ZEFSAII (Michael W. Deem and Ramdas Pophale) SiO2 
 PCOD8098535
Probable space group: C 2/M
;
_chemical_formula_sum "Si O2"
_cell_formula_units_Z 64
_cell_length_a 30.068754
_cell_length_b 8.894714
_cell_length_c 16.030374
_cell_angle_alpha 90.000000
_cell_angle_beta 46.963959
_cell_angle_gamma 90.000000
_cell_volume 3133.744814
_symmetry_space_group_name_H-M "C 2/M"
_symmetry_group_IT_number 12
_symmetry_cell_setting 'monoclinic'
loop_
_space_group_symop_operation_xyz
x,y,z
-x,y,-z
-x,-y,-z
x,-y,z
1/2+x,1/2+y,z
1/2-x,1/2+y,-z
1/2-x,1/2-y,-z
1/2+x,1/2-y,z
loop_
_atom_site_type_symbol
_atom_site_label
_atom_site_fract_x
_atom_site_fract_y
_atom_site_fract_z
Si Si1 0.461091 0.673391 0.904595
Si Si2 0.084157 0.670723 0.190907
Si Si3 0.970895 0.672455 0.452256
Si Si4 0.590590 0.823267 0.724757
Si Si5 0.131402 0.828209 0.833397
Si Si6 0.636641 0.677265 0.498112
Si Si7 0.737733 0.175389 0.266369
Si Si8 0.206095 0.676230 0.122700
O O1 0.478897 0.500000 0.870087
O O2 0.414719 0.721537 0.890654
O O3 0.521402 0.771836 0.824301
O O4 0.427865 0.701280 0.034568
O O5 0.094931 0.500000 0.147333
O O6 0.136689 0.718225 0.188435
O O7 0.018820 0.687803 0.316890
O O8 0.949367 0.500000 0.491359
O O9 0.913084 0.773901 0.506355
O O10 0.000000 0.733634 0.500000
O O11 0.629244 0.780269 0.756733
O O12 0.622552 0.748585 0.605129
O O13 0.591266 0.000000 0.709954
O O14 0.191081 0.793585 0.811082
O O15 0.131648 0.000000 0.801280
O O16 0.637020 0.500000 0.507287
O O17 0.701892 0.733776 0.383099
O O18 0.719980 0.237719 0.197547
O O19 0.721336 0.000000 0.295605
O O20 0.218177 0.500000 0.105049
O O21 0.250000 0.750000 0.000000
#
# Coordination Sequence:
#
# PCOD8098535 Si02
#       8
#     8   8   8   8   8   8   8   8
#     4  11  22  39  64  94 128 161 201 258 316 371
#     4  10  20  34  57  88 122 162 205 247 299 364
#     4  10  20  37  61  87 119 161 204 247 303 366
#     4  12  25  42  65  92 124 164 207 254 317 380
#     4  10  23  42  65  92 122 161 209 259 315 373
#     4  12  25  41  63  92 126 162 207 263 313 364
#     4  10  22  43  66  89 124 170 213 254 311 376
#     4  10  21  38  61  91 126 168 212 254 303 363
#
# _framework density 20.42285
#
# number of rings (size 3 to 8) (size 9 to 14) (size 15 to 20)
#    0.000    1.375    1.250    4.500    0.000    7.750 
#    0.000    1.250    0.000    0.000    0.000    0.000 
#    0.000    0.000    0.000    0.000    0.000    0.000 
#
# Total GULP energy -396989.301052 kJ/mol
# GULP energy per Si atom -12405.915658 kJ/mol
# Density = 2.037637 g / cm^3
# Si number density = 20.422850 Si / 1000 Ang^3
#
#
#
# Elastic Constant Matrix: (Units=GPa)
#
#
# Indices 1 2 3 4 5 6 
#
# 1 102.6634 38.3783 33.7328 0.0000 12.5864 0.0000
# 2 38.3783 105.0023 49.4200 0.0003 5.7393 -0.0003
# 3 33.7328 49.4200 104.6421 -0.0003 4.0064 0.0000
# 4 0.0000 0.0003 -0.0003 34.7364 -0.0001 1.5715
# 5 12.5864 5.7393 4.0064 -0.0001 37.7420 0.0000
# 6 0.0000 -0.0003 0.0000 1.5715 0.0000 35.3081
#
#
#
# Elastic Compliance Matrix: (Units=1/GPa)
#
#
# Indices 1 2 3 4 5 6 
#
# 1 0.012075 -0.003163 -0.002272 0.000000 -0.003305 0.000000
# 2 -0.003163 0.013134 -0.005168 0.000000 -0.000394 0.000000
# 3 -0.002272 -0.005168 0.012722 0.000000 0.000193 0.000000
# 4 0.000000 0.000000 0.000000 0.028846 0.000000 -0.001284
# 5 -0.003305 -0.000394 0.000193 0.000000 0.027637 0.000000
# 6 0.000000 0.000000 0.000000 -0.001284 0.000000 0.028379
#
#
# Mechanical properties :
#
#
# Convention : Reuss Voigt Hill
#
# Bulk Modulus (GPa) = 59.79422 61.70778 60.75100
# Shear Modulus (GPa) = 33.42822 34.27574 33.85198
#
# Velocity S-wave (km/s) = 4.05013 4.10115 4.07572
# Velocity P-wave (km/s) = 7.15633 7.25993 7.20832
#
# Compressibility (1/GPa) = 0.01672403
#
# Stress axis : x y z
#
# Youngs Moduli (GPa) = 82.81728 76.14037 78.60375
#
# Poissons Ratio (x) = 0.24086 0.17858
# Poissons Ratio (y) = 0.26198 0.40621
# Poissons Ratio (z) = 0.18816 0.39348
#
# Static dielectric constant tensor:
#      x y z
#    x 3.904010 0.000000 0.043340 
#    y 0.000000 3.660080 0.000000 
#    z 0.043340 0.000000 3.760270 
# 
# 
# High freq. dielectric constant tensor:
#      x y z
#    x 1.810020 0.000000 0.003730 
#    y 0.000000 1.787810 0.000000 
#    z 0.003730 0.000000 1.805220 
# 
# From -- ./inp_files/249869.got.cif
#   From: 2010.06.25/outbox.cif.g09.slc.cpg/sg12_125_cif.got.tgz:249869.got - 2010.06.28 00:19:55.
