data_PCOD8098904
_publ_section_title
;
Structure prediction by ZEFSAII (Michael W. Deem and Ramdas Pophale) SiO2 
 PCOD8098904
Probable space group: C 2/M
;
_chemical_formula_sum "Si O2"
_cell_formula_units_Z 56
_cell_length_a 12.610717
_cell_length_b 13.845710
_cell_length_c 27.888293
_cell_angle_alpha 90.000000
_cell_angle_beta 139.011834
_cell_angle_gamma 90.000000
_cell_volume 3193.865700
_symmetry_space_group_name_H-M "C 2/M"
_symmetry_group_IT_number 12
_symmetry_cell_setting 'monoclinic'
loop_
_space_group_symop_operation_xyz
x,y,z
-x,y,-z
-x,-y,-z
x,-y,z
1/2+x,1/2+y,z
1/2-x,1/2+y,-z
1/2-x,1/2-y,-z
1/2+x,1/2-y,z
loop_
_atom_site_type_symbol
_atom_site_label
_atom_site_fract_x
_atom_site_fract_y
_atom_site_fract_z
Si Si1 0.306114 0.750780 0.811247
Si Si2 0.546237 0.247303 0.291097
Si Si3 0.131541 0.889591 0.084457
Si Si4 0.384893 0.291926 0.581786
Si Si5 0.926173 0.500000 0.405178
Si Si6 0.001278 0.610943 0.810706
Si Si7 0.267500 0.500000 0.570368
Si Si8 0.681172 0.182952 0.673628
O O1 0.396498 0.686342 0.881933
O O2 0.420797 0.833953 0.828657
O O3 0.251567 0.677904 0.750979
O O4 0.135402 0.792884 0.773216
O O5 0.608586 0.228135 0.366669
O O6 0.557141 0.152302 0.260725
O O7 0.669686 0.324581 0.311824
O O8 0.306219 0.877178 0.119502
O O9 0.109956 0.000000 0.095697
O O10 0.000000 0.863157 0.000000
O O11 0.250000 0.250000 0.500000
O O12 0.363457 0.405024 0.585760
O O13 0.566398 0.276490 0.622635
O O14 0.765586 0.500000 0.384020
O O15 0.930350 0.590858 0.371731
O O16 0.089911 0.500000 0.489393
O O17 0.947090 0.500000 0.795265
#
# Coordination Sequence:
#
# PCOD8098904 Si02
#       8
#     8   8   8   8   4   8   4   8
#     4   9  19  34  56  79 105 139 178 214 261 303
#     4   9  19  37  49  75 104 134 170 221 261 307
#     4   9  18  33  55  83 113 143 173 211 256 307
#     4  11  21  36  53  74 105 133 176 221 266 322
#     4  11  20  34  58  75  97 137 176 218 281 305
#     4   9  18  36  57  78 108 141 177 212 259 313
#     4  11  22  36  54  76  99 140 173 218 278 326
#     4  10  20  35  54  77 103 133 173 225 260 317
#
# _framework density 17.533611000000001
#
# number of rings (size 3 to 8) (size 9 to 14) (size 15 to 20)
#    0.000    2.286    2.857    0.000    1.000    1.143 
#   18.000    0.000    0.000    1.286    0.000    0.000 
#    0.000    0.000    0.000    0.000    0.000    0.000 
#
# Total GULP energy -346885.292364 kJ/mol
# GULP energy per Si atom -12388.760442 kJ/mol
# Density = 1.749370 g / cm^3
# Si number density = 17.533611 Si / 1000 Ang^3
#
#
#
# Elastic Constant Matrix: (Units=GPa)
#
#
# Indices 1 2 3 4 5 6 
#
# 1 92.1331 51.7779 41.5873 0.0000 3.7330 0.0000
# 2 51.7779 119.6408 51.7072 0.0000 -3.1465 0.0000
# 3 41.5873 51.7072 117.5933 0.0000 -8.7827 0.0000
# 4 0.0000 0.0000 0.0000 26.4921 0.0000 0.2804
# 5 3.7330 -3.1465 -8.7827 0.0000 19.1773 0.0000
# 6 0.0000 0.0000 0.0000 0.2804 0.0000 27.2769
#
#
#
# Elastic Compliance Matrix: (Units=1/GPa)
#
#
# Indices 1 2 3 4 5 6 
#
# 1 0.015747 -0.005401 -0.003613 0.000000 -0.005606 0.000000
# 2 -0.005401 0.012175 -0.003330 0.000000 0.001524 0.000000
# 3 -0.003613 -0.003330 0.011656 0.000000 0.005495 0.000000
# 4 0.000000 0.000000 0.000000 0.037751 0.000000 -0.000388
# 5 -0.005606 0.001524 0.005495 0.000000 0.056003 0.000000
# 6 0.000000 0.000000 0.000000 -0.000388 0.000000 0.036665
#
#
# Mechanical properties :
#
#
# Convention : Reuss Voigt Hill
#
# Bulk Modulus (GPa) = 67.15348 68.83467 67.99408
# Shear Modulus (GPa) = 25.04412 26.87557 25.95984
#
# Velocity S-wave (km/s) = 3.78345 3.91935 3.85200
# Velocity P-wave (km/s) = 7.58083 7.73470 7.65815
#
# Compressibility (1/GPa) = 0.01489126
#
# Stress axis : x y z
#
# Youngs Moduli (GPa) = 63.50377 82.13648 85.79264
#
# Poissons Ratio (x) = 0.44362 0.30995
# Poissons Ratio (y) = 0.34299 0.28565
# Poissons Ratio (z) = 0.22943 0.27347
#
# Static dielectric constant tensor:
#      x y z
#    x 3.539270 0.000000 0.098330 
#    y 0.000000 3.151040 0.000000 
#    z 0.098330 0.000000 3.250200 
# 
# 
# High freq. dielectric constant tensor:
#      x y z
#    x 1.681690 0.000000 0.005330 
#    y 0.000000 1.660260 0.000000 
#    z 0.005330 0.000000 1.676270 
# 
# From -- ./inp_files/358258.got.cif
#   From: 2010.06.25/outbox.cif.g09.slc.cpg/sg12_180_cif.got.tgz:358258.got - 2010.06.28 00:19:55.
