data_PCOD8098436
_publ_section_title
;
Structure prediction by ZEFSAII (Michael W. Deem and Ramdas Pophale) SiO2 
 PCOD8098436
Probable space group: C 2/M
;
_chemical_formula_sum "Si O2"
_cell_formula_units_Z 64
_cell_length_a 9.326835
_cell_length_b 24.747029
_cell_length_c 15.732170
_cell_angle_alpha 90.000000
_cell_angle_beta 69.900352
_cell_angle_gamma 90.000000
_cell_volume 3410.013909
_symmetry_space_group_name_H-M "C 2/M"
_symmetry_group_IT_number 12
_symmetry_cell_setting 'monoclinic'
loop_
_space_group_symop_operation_xyz
x,y,z
-x,y,-z
-x,-y,-z
x,-y,z
1/2+x,1/2+y,z
1/2-x,1/2+y,-z
1/2-x,1/2-y,-z
1/2+x,1/2-y,z
loop_
_atom_site_type_symbol
_atom_site_label
_atom_site_fract_x
_atom_site_fract_y
_atom_site_fract_z
Si Si1 0.331376 0.825801 0.032713
Si Si2 0.664494 0.938116 0.481958
Si Si3 0.450845 0.564029 0.313698
Si Si4 0.143765 0.099634 0.419224
Si Si5 0.297254 0.707982 0.113020
Si Si6 0.734320 0.721351 0.412292
Si Si7 0.537377 0.653156 0.181406
Si Si8 0.442384 0.754136 0.706761
O O1 0.348092 0.765924 0.068005
O O2 0.210594 0.858426 0.115222
O O3 0.500000 0.852861 0.000000
O O4 0.271266 0.827355 0.948805
O O5 0.500000 0.909196 0.500000
O O6 0.799403 0.914739 0.394187
O O7 0.707522 0.930321 0.572586
O O8 0.647183 0.000000 0.461237
O O9 0.449286 0.500000 0.297551
O O10 0.607997 0.582329 0.329873
O O11 0.458106 0.596521 0.223391
O O12 0.162525 0.162576 0.434882
O O13 0.000000 0.076348 0.500000
O O14 0.447165 0.680121 0.121371
O O15 0.166398 0.711359 0.210591
O O16 0.750000 0.750000 0.500000
O O17 0.621063 0.755533 0.376162
O O18 0.894455 0.716683 0.330126
O O19 0.538443 0.693105 0.262443
#
# Coordination Sequence:
#
# PCOD8098436 Si02
#       8
#     8   8   8   8   8   8   8   8
#     4  10  20  34  58  88 111 141 180 224 278 348
#     4   9  19  35  55  79 105 138 195 257 290 315
#     4  10  21  37  60  81 105 147 196 240 286 337
#     4  10  20  35  54  73 104 148 199 238 278 323
#     4  10  20  34  57  83 114 146 182 227 276 333
#     4  12  24  35  49  75 118 162 191 225 273 335
#     4  11  21  36  57  81 117 142 181 235 290 334
#     4  11  22  36  52  78 116 156 192 229 267 337
#
# _framework density 18.768249999999998
#
# number of rings (size 3 to 8) (size 9 to 14) (size 15 to 20)
#    0.000    1.625    2.500    4.125    3.500    3.500 
#    0.000    0.000    0.000    1.875    0.000    0.000 
#    0.000    0.000    0.000    0.000    0.000    0.000 
#
# Total GULP energy -396707.401909 kJ/mol
# GULP energy per Si atom -12397.106310 kJ/mol
# Density = 1.872553 g / cm^3
# Si number density = 18.768250 Si / 1000 Ang^3
#
#
#
# Elastic Constant Matrix: (Units=GPa)
#
#
# Indices 1 2 3 4 5 6 
#
# 1 130.8254 22.9799 40.0121 0.0000 -3.0696 0.0000
# 2 22.9799 52.5658 29.8379 0.0000 -0.8812 0.0000
# 3 40.0121 29.8379 81.8815 0.0000 6.3534 0.0000
# 4 0.0000 0.0000 0.0000 15.3730 0.0000 -1.6383
# 5 -3.0696 -0.8812 6.3534 0.0000 37.6999 0.0000
# 6 0.0000 0.0000 0.0000 -1.6383 0.0000 19.2475
#
#
#
# Elastic Compliance Matrix: (Units=1/GPa)
#
#
# Indices 1 2 3 4 5 6 
#
# 1 0.009195 -0.001747 -0.003963 0.000000 0.001376 0.000000
# 2 -0.001747 0.024476 -0.008206 0.000000 0.001813 0.000000
# 3 -0.003963 -0.008206 0.017407 0.000000 -0.003448 0.000000
# 4 0.000000 0.000000 0.000000 0.065644 0.000000 0.005587
# 5 0.001376 0.001813 -0.003448 0.000000 0.027261 0.000000
# 6 0.000000 0.000000 0.000000 0.005587 0.000000 0.052430
#
#
# Mechanical properties :
#
#
# Convention : Reuss Voigt Hill
#
# Bulk Modulus (GPa) = 43.01916 50.10363 46.56140
# Shear Modulus (GPa) = 21.55215 25.96027 23.75621
#
# Velocity S-wave (km/s) = 3.39238 3.72318 3.56162
# Velocity P-wave (km/s) = 6.18994 6.72582 6.46343
#
# Compressibility (1/GPa) = 0.02324546
#
# Stress axis : x y z
#
# Youngs Moduli (GPa) = 108.75356 40.85653 57.44684
#
# Poissons Ratio (x) = 0.07137 0.22769
# Poissons Ratio (y) = 0.18999 0.47141
# Poissons Ratio (z) = 0.43104 0.33527
#
# Static dielectric constant tensor:
#      x y z
#    x 3.846920 0.000000 -0.003950 
#    y 0.000000 2.995610 0.000000 
#    z -0.003950 0.000000 3.490720 
# 
# 
# High freq. dielectric constant tensor:
#      x y z
#    x 1.749060 0.000000 0.003150 
#    y 0.000000 1.679050 0.000000 
#    z 0.003150 0.000000 1.723910 
# 
# From -- ./inp_files/199800.got.cif
#   From: 2010.06.25/outbox.cif.g09.slc.cpg/sg12_100_cif.got.tgz:199800.got - 2010.06.28 00:19:55.
