data_PCOD8098547
_publ_section_title
;
Structure prediction by ZEFSAII (Michael W. Deem and Ramdas Pophale) SiO2 
 PCOD8098547
Probable space group: C 2/M
;
_chemical_formula_sum "Si O2"
_cell_formula_units_Z 64
_cell_length_a 15.040424
_cell_length_b 8.892035
_cell_length_c 30.597964
_cell_angle_alpha 90.000000
_cell_angle_beta 127.765518
_cell_angle_gamma 90.000000
_cell_volume 3234.958282
_symmetry_space_group_name_H-M "C 2/M"
_symmetry_group_IT_number 12
_symmetry_cell_setting 'monoclinic'
loop_
_space_group_symop_operation_xyz
x,y,z
-x,y,-z
-x,-y,-z
x,-y,z
1/2+x,1/2+y,z
1/2-x,1/2+y,-z
1/2-x,1/2-y,-z
1/2+x,1/2-y,z
loop_
_atom_site_type_symbol
_atom_site_label
_atom_site_fract_x
_atom_site_fract_y
_atom_site_fract_z
Si Si1 0.258820 0.821464 0.330573
Si Si2 0.597293 0.333872 0.559340
Si Si3 0.823322 0.326318 0.868315
Si Si4 0.299078 0.838232 0.554923
Si Si5 0.676709 0.324086 0.739695
Si Si6 0.439464 0.181034 0.674202
Si Si7 0.766068 0.176827 0.937660
Si Si8 0.578703 0.176901 0.948633
O O1 0.372151 0.773731 0.391018
O O2 0.272793 0.765748 0.285689
O O3 0.147625 0.744636 0.316554
O O4 0.246198 0.000000 0.328502
O O5 0.500000 0.259455 0.500000
O O6 0.557337 0.500000 0.564084
O O7 0.706494 0.356491 0.563731
O O8 0.819796 0.500000 0.880579
O O9 0.763905 0.297121 0.804649
O O10 0.757345 0.235449 0.885698
O O11 0.951539 0.269362 0.902233
O O12 0.250000 0.750000 0.500000
O O13 0.404327 0.768900 0.613662
O O14 0.333764 0.000000 0.546274
O O15 0.662410 0.500000 0.724093
O O16 0.559028 0.254195 0.719785
O O17 0.443375 0.000000 0.679012
O O18 0.653340 0.227003 0.929429
O O19 0.779367 0.000000 0.941198
O O20 0.875865 0.245662 0.993826
O O21 0.586451 0.000000 0.958292
#
# Coordination Sequence:
#
# PCOD8098547 Si02
#       8
#     8   8   8   8   8   8   8   8
#     4  11  23  40  61  87 117 153 196 243 296 355
#     4   9  19  36  56  81 111 147 186 230 288 351
#     4  10  22  39  58  83 115 154 199 240 289 350
#     4   9  19  33  52  80 110 140 176 224 283 346
#     4  11  24  41  62  87 116 158 205 250 301 355
#     4  10  22  42  62  84 115 153 195 242 297 357
#     4  10  20  34  57  89 120 153 195 242 291 339
#     4   9  19  37  58  82 118 160 194 232 289 350
#
# _framework density 19.783871000000001
#
# number of rings (size 3 to 8) (size 9 to 14) (size 15 to 20)
#    0.000    2.125    0.000    3.375    1.750    7.250 
#    0.000    1.250    0.000    0.000    0.000    0.000 
#    0.000    0.000    0.000    0.000    0.000    0.000 
#
# Total GULP energy -396728.720169 kJ/mol
# GULP energy per Si atom -12397.772505 kJ/mol
# Density = 1.973884 g / cm^3
# Si number density = 19.783871 Si / 1000 Ang^3
#
#
#
# Elastic Constant Matrix: (Units=GPa)
#
#
# Indices 1 2 3 4 5 6 
#
# 1 79.3151 30.3932 42.9397 0.0000 -3.3021 0.0000
# 2 30.3932 76.8748 38.4290 0.0000 -4.4556 0.0000
# 3 42.9397 38.4290 103.4873 0.0000 -1.7797 0.0000
# 4 0.0000 0.0000 0.0000 17.3697 0.0000 2.3859
# 5 -3.3021 -4.4556 -1.7797 0.0000 31.2022 0.0000
# 6 0.0000 0.0000 0.0000 2.3859 0.0000 28.2012
#
#
#
# Elastic Compliance Matrix: (Units=1/GPa)
#
#
# Indices 1 2 3 4 5 6 
#
# 1 0.017220 -0.003917 -0.005674 0.000000 0.000939 0.000000
# 2 -0.003917 0.016983 -0.004651 0.000000 0.001745 0.000000
# 3 -0.005674 -0.004651 0.013736 0.000000 -0.000481 0.000000
# 4 0.000000 0.000000 0.000000 0.058248 0.000000 -0.004928
# 5 0.000939 0.001745 -0.000481 0.000000 0.032370 0.000000
# 6 0.000000 0.000000 0.000000 -0.004928 0.000000 0.035876
#
#
# Mechanical properties :
#
#
# Convention : Reuss Voigt Hill
#
# Bulk Modulus (GPa) = 51.40270 53.68900 52.54585
# Shear Modulus (GPa) = 23.87724 25.21563 24.54643
#
# Velocity S-wave (km/s) = 3.47782 3.57396 3.52622
# Velocity P-wave (km/s) = 6.49350 6.65039 6.57241
#
# Compressibility (1/GPa) = 0.01945423
#
# Stress axis : x y z
#
# Youngs Moduli (GPa) = 58.07182 58.88220 72.79954
#
# Poissons Ratio (x) = 0.23065 0.41309
# Poissons Ratio (y) = 0.22747 0.33860
# Poissons Ratio (z) = 0.32952 0.27387
#
# Static dielectric constant tensor:
#      x y z
#    x 3.612610 0.000000 0.149560 
#    y 0.000000 3.532480 0.000000 
#    z 0.149560 0.000000 3.820730 
# 
# 
# High freq. dielectric constant tensor:
#      x y z
#    x 1.772330 0.000000 0.002620 
#    y 0.000000 1.770100 0.000000 
#    z 0.002620 0.000000 1.773680 
# 
# From -- ./inp_files/375549.got.cif
#   From: 2010.06.25/outbox.cif.g09.slc.cpg/sg12_188_cif.got.tgz:375549.got - 2010.06.28 00:19:55.
