data_PCOD8098599
_publ_section_title
;
Structure prediction by ZEFSAII (Michael W. Deem and Ramdas Pophale) SiO2 
 PCOD8098599
Probable space group: C 2/M
;
_chemical_formula_sum "Si O2"
_cell_formula_units_Z 48
_cell_length_a 20.341634
_cell_length_b 8.958159
_cell_length_c 26.880116
_cell_angle_alpha 90.000000
_cell_angle_beta 147.648697
_cell_angle_gamma 90.000000
_cell_volume 2621.066179
_symmetry_space_group_name_H-M "C 2/M"
_symmetry_group_IT_number 12
_symmetry_cell_setting 'monoclinic'
loop_
_space_group_symop_operation_xyz
x,y,z
-x,y,-z
-x,-y,-z
x,-y,z
1/2+x,1/2+y,z
1/2-x,1/2+y,-z
1/2-x,1/2-y,-z
1/2+x,1/2-y,z
loop_
_atom_site_type_symbol
_atom_site_label
_atom_site_fract_x
_atom_site_fract_y
_atom_site_fract_z
Si Si1 0.888927 0.670839 0.223910
Si Si2 0.746232 0.825726 0.050378
Si Si3 0.477289 0.674313 0.427959
Si Si4 0.375542 0.176215 0.563174
Si Si5 0.508860 0.174277 0.062564
Si Si6 0.252615 0.826423 0.236887
O O1 0.883928 0.500000 0.203553
O O2 0.857934 0.770759 0.156417
O O3 0.790048 0.702821 0.203774
O O4 0.023830 0.712679 0.330197
O O5 0.761316 0.000000 0.052903
O O6 0.750000 0.750000 0.000000
O O7 0.617632 0.781437 0.992627
O O8 0.500000 0.706894 0.500000
O O9 0.483165 0.500000 0.418937
O O10 0.581021 0.757120 0.461736
O O11 0.342318 0.736147 0.330255
O O12 0.250000 0.250000 0.500000
O O13 0.358819 0.000000 0.545688
O O14 0.615454 0.267157 0.157923
O O15 0.539713 0.000000 0.087191
O O16 0.500000 0.224098 0.000000
O O17 0.261899 0.000000 0.256550
#
# Coordination Sequence:
#
# PCOD8098599 Si02
#       6
#     8   8   8   8   8   8
#     4   9  19  36  57  82 112 146 185 229 279 333
#     4  11  23  38  57  81 113 150 185 229 282 332
#     4  10  21  38  60  85 116 153 188 233 288 337
#     4  10  21  38  61  88 115 149 191 236 283 338
#     4  10  20  36  58  84 111 144 188 232 273 331
#     4  10  20  34  58  88 114 146 186 234 282 332
#
# _framework density 18.313157
#
# number of rings (size 3 to 8) (size 9 to 14) (size 15 to 20)
#    0.000    2.000    1.667    3.000    0.000    6.333 
#    3.000    0.000    0.000    0.000    0.000    0.000 
#    0.000    0.000    0.000    0.000    0.000    0.000 
#
# Total GULP energy -297685.806163 kJ/mol
# GULP energy per Si atom -12403.575257 kJ/mol
# Density = 1.827148 g / cm^3
# Si number density = 18.313157 Si / 1000 Ang^3
#
#
#
# Elastic Constant Matrix: (Units=GPa)
#
#
# Indices 1 2 3 4 5 6 
#
# 1 113.5212 73.3218 78.1314 0.0000 -5.1400 -0.0001
# 2 73.3218 106.9429 76.5676 0.0000 -3.8232 -0.0003
# 3 78.1314 76.5676 130.5125 -0.0001 0.6648 -0.0001
# 4 0.0000 0.0000 -0.0001 36.6161 0.0000 0.3285
# 5 -5.1400 -3.8232 0.6648 0.0000 30.9551 0.0000
# 6 -0.0001 -0.0003 -0.0001 0.3285 0.0000 33.0380
#
#
#
# Elastic Compliance Matrix: (Units=1/GPa)
#
#
# Indices 1 2 3 4 5 6 
#
# 1 0.018474 -0.008036 -0.006356 0.000000 0.002212 0.000000
# 2 -0.008036 0.019769 -0.006793 0.000000 0.001253 0.000000
# 3 -0.006356 -0.006793 0.015464 0.000000 -0.002227 0.000000
# 4 0.000000 0.000000 0.000000 0.027313 0.000000 -0.000272
# 5 0.002212 0.001253 -0.002227 0.000000 0.032875 0.000000
# 6 0.000000 0.000000 0.000000 -0.000272 0.000000 0.030271
#
#
# Mechanical properties :
#
#
# Convention : Reuss Voigt Hill
#
# Bulk Modulus (GPa) = 88.21731 89.66868 88.94299
# Shear Modulus (GPa) = 26.27195 28.31889 27.29542
#
# Velocity S-wave (km/s) = 3.79171 3.93666 3.86486
# Velocity P-wave (km/s) = 8.21252 8.35065 8.28188
#
# Compressibility (1/GPa) = 0.01133564
#
# Stress axis : x y z
#
# Youngs Moduli (GPa) = 54.12893 50.58327 64.66584
#
# Poissons Ratio (x) = 0.40651 0.41103
# Poissons Ratio (y) = 0.43500 0.43930
# Poissons Ratio (z) = 0.34406 0.34363
#
# Static dielectric constant tensor:
#      x y z
#    x 3.279920 0.000000 0.182690 
#    y 0.000000 3.433040 0.000000 
#    z 0.182690 0.000000 3.623350 
# 
# 
# High freq. dielectric constant tensor:
#      x y z
#    x 1.696480 0.000000 0.003200 
#    y 0.000000 1.721540 0.000000 
#    z 0.003200 0.000000 1.717270 
# 
# From -- ./inp_files/221664.got.cif
#   From: 2010.06.25/outbox.cif.g09.slc.cpg/sg12_111_cif.got.tgz:221664.got - 2010.06.28 00:19:55.
