data_PCOD8098142
_publ_section_title
;
Structure prediction by ZEFSAII (Michael W. Deem and Ramdas Pophale) SiO2 
 PCOD8098142
Probable space group: C 2/M
;
_chemical_formula_sum "Si O2"
_cell_formula_units_Z 64
_cell_length_a 14.728807
_cell_length_b 27.091268
_cell_length_c 13.291791
_cell_angle_alpha 90.000000
_cell_angle_beta 38.829283
_cell_angle_gamma 90.000000
_cell_volume 3325.441863
_symmetry_space_group_name_H-M "C 2/M"
_symmetry_group_IT_number 12
_symmetry_cell_setting 'monoclinic'
loop_
_space_group_symop_operation_xyz
x,y,z
-x,y,-z
-x,-y,-z
x,-y,z
1/2+x,1/2+y,z
1/2-x,1/2+y,-z
1/2-x,1/2-y,-z
1/2+x,1/2-y,z
loop_
_atom_site_type_symbol
_atom_site_label
_atom_site_fract_x
_atom_site_fract_y
_atom_site_fract_z
Si Si1 0.422154 0.819551 0.171833
Si Si2 0.924161 0.210494 0.171210
Si Si3 0.573852 0.558019 0.831827
Si Si4 0.079689 0.632260 0.213116
Si Si5 0.104661 0.128828 0.131555
Si Si6 0.603536 0.054848 0.503893
Si Si7 0.857940 0.825962 0.687723
Si Si8 0.639354 0.216001 0.317110
O O1 0.412463 0.764944 0.231090
O O2 0.509414 0.855796 0.167432
O O3 0.265420 0.843264 0.284254
O O4 0.500000 0.814601 0.000000
O O5 0.761211 0.191567 0.285193
O O6 0.016128 0.175662 0.164673
O O7 0.000000 0.213353 0.000000
O O8 0.553711 0.500000 0.845620
O O9 0.492294 0.580832 0.805921
O O10 0.742002 0.573687 0.673421
O O11 0.500000 0.578513 0.000000
O O12 0.091392 0.680916 0.269379
O O13 0.972964 0.591427 0.351854
O O14 0.244352 0.615558 0.053340
O O15 0.130367 0.137664 0.227201
O O16 0.500000 0.051195 0.500000
O O17 0.621060 0.000000 0.537635
O O18 0.812786 0.770407 0.764948
O O19 0.000000 0.828678 0.500000
O O20 0.500000 0.227813 0.500000
#
# Coordination Sequence:
#
# PCOD8098142 Si02
#       8
#     8   8   8   8   8   8   8   8
#     4  10  21  38  56  81 118 162 201 238 282 334
#     4  10  20  34  55  84 122 155 192 240 287 344
#     4  10  23  42  64  90 120 149 183 233 295 357
#     4  12  23  35  61  88 115 156 200 238 286 348
#     4  12  23  35  60  88 114 155 201 238 289 347
#     4  10  23  42  63  90 121 149 181 234 299 355
#     4  10  23  40  55  80 120 161 201 246 284 330
#     4  10  22  36  53  85 123 155 193 239 290 346
#
# _framework density 19.245563000000001
#
# number of rings (size 3 to 8) (size 9 to 14) (size 15 to 20)
#    0.000    1.500    2.500    2.250    5.250    2.500 
#    0.000    3.750    0.000    1.500    0.000    0.000 
#    0.000    0.000    0.000    0.000    0.000    0.000 
#
# Total GULP energy -396553.309019 kJ/mol
# GULP energy per Si atom -12392.290907 kJ/mol
# Density = 1.920176 g / cm^3
# Si number density = 19.245563 Si / 1000 Ang^3
#
#
#
# Elastic Constant Matrix: (Units=GPa)
#
#
# Indices 1 2 3 4 5 6 
#
# 1 115.8498 36.9871 39.7623 0.0000 -22.7468 0.0000
# 2 36.9871 58.0018 37.1060 0.0000 -2.8777 0.0000
# 3 39.7623 37.1060 101.0311 0.0000 -22.2909 0.0000
# 4 0.0000 0.0000 0.0000 26.5134 0.0000 -9.1114
# 5 -22.7468 -2.8777 -22.2909 0.0000 35.3608 0.0000
# 6 0.0000 0.0000 0.0000 -9.1114 0.0000 27.1019
#
#
#
# Elastic Compliance Matrix: (Units=1/GPa)
#
#
# Indices 1 2 3 4 5 6 
#
# 1 0.012562 -0.007176 -0.000760 0.000000 0.007018 0.000000
# 2 -0.007176 0.027116 -0.008905 0.000000 -0.008023 0.000000
# 3 -0.000760 -0.008905 0.015332 0.000000 0.008452 0.000000
# 4 0.000000 0.000000 0.000000 0.042643 0.000000 0.014336
# 5 0.007018 -0.008023 0.008452 0.000000 0.037469 0.000000
# 6 0.000000 0.000000 0.000000 0.014336 0.000000 0.041717
#
#
# Mechanical properties :
#
#
# Convention : Reuss Voigt Hill
#
# Bulk Modulus (GPa) = 46.88665 55.84371 51.36518
# Shear Modulus (GPa) = 22.97475 28.53038 25.75256
#
# Velocity S-wave (km/s) = 3.45884 3.85442 3.66198
# Velocity P-wave (km/s) = 6.35348 6.99201 6.68038
#
# Compressibility (1/GPa) = 0.02132803
#
# Stress axis : x y z
#
# Youngs Moduli (GPa) = 79.60726 36.87916 65.22221
#
# Poissons Ratio (x) = 0.26465 0.04956
# Poissons Ratio (y) = 0.57127 0.58078
# Poissons Ratio (z) = 0.06049 0.32840
#
# Static dielectric constant tensor:
#      x y z
#    x 4.664610 0.000000 -0.983310 
#    y 0.000000 3.636700 0.000000 
#    z -0.983310 0.000000 3.956820 
# 
# 
# High freq. dielectric constant tensor:
#      x y z
#    x 1.755200 0.000000 -0.027140 
#    y 0.000000 1.726600 0.000000 
#    z -0.027140 0.000000 1.752140 
# 
# From -- ./inp_files/149723.got.cif
#   From: 2010.06.25/outbox.cif.g09.slc.cpg/sg12_75_cif.got.tgz:149723.got - 2010.06.28 00:19:55.
