data_PCOD8098783
_publ_section_title
;
Structure prediction by ZEFSAII (Michael W. Deem and Ramdas Pophale) SiO2 
 PCOD8098783
Probable space group: C 2/M
;
_chemical_formula_sum "Si O2"
_cell_formula_units_Z 64
_cell_length_a 20.254956
_cell_length_b 8.936024
_cell_length_c 19.680081
_cell_angle_alpha 90.000000
_cell_angle_beta 89.699960
_cell_angle_gamma 90.000000
_cell_volume 3562.021671
_symmetry_space_group_name_H-M "C 2/M"
_symmetry_group_IT_number 12
_symmetry_cell_setting 'monoclinic'
loop_
_space_group_symop_operation_xyz
x,y,z
-x,y,-z
-x,-y,-z
x,-y,z
1/2+x,1/2+y,z
1/2-x,1/2+y,-z
1/2-x,1/2-y,-z
1/2+x,1/2-y,z
loop_
_atom_site_type_symbol
_atom_site_label
_atom_site_fract_x
_atom_site_fract_y
_atom_site_fract_z
Si Si1 0.680010 0.675410 0.073086
Si Si2 0.566032 0.322829 0.665420
Si Si3 0.190215 0.672758 0.418652
Si Si4 0.928080 0.323393 0.679205
Si Si5 0.685388 0.677042 0.918955
Si Si6 0.675810 0.173386 0.575770
Si Si7 0.076939 0.824027 0.817928
Si Si8 0.070631 0.176564 0.179852
O O1 0.692841 0.500000 0.077741
O O2 0.744140 0.756728 0.102647
O O3 0.617361 0.724713 0.117762
O O4 0.666459 0.725351 0.995668
O O5 0.558549 0.500000 0.659954
O O6 0.494876 0.251216 0.651286
O O7 0.617535 0.265239 0.610485
O O8 0.590953 0.274543 0.740387
O O9 0.209216 0.500000 0.407911
O O10 0.129656 0.721711 0.372117
O O11 0.253619 0.770169 0.397321
O O12 0.169344 0.704461 0.495938
O O13 0.938656 0.500000 0.682791
O O14 0.906708 0.261870 0.752703
O O15 0.689637 0.500000 0.912051
O O16 0.630587 0.747740 0.868658
O O17 0.668115 0.000000 0.594134
O O18 0.003421 0.773106 0.839880
O O19 0.082719 0.000000 0.825045
O O20 0.073438 0.000000 0.194879
#
# Coordination Sequence:
#
# PCOD8098783 Si02
#       8
#     8   8   8   8   8   8   8   8
#     4   9  18  31  48  71  98 126 158 200 245 289
#     4  10  20  35  53  75 105 134 164 206 252 296
#     4   9  20  37  54  74 102 133 166 208 251 292
#     4  10  20  35  54  75 100 132 170 207 246 295
#     4   9  17  31  50  70  94 127 164 198 238 290
#     4  10  20  35  55  77 101 131 168 207 248 297
#     4   8  16  31  50  70  93 125 163 201 238 282
#     4   9  18  33  50  71  99 127 160 204 250 291
#
# _framework density 17.967324000000001
#
# number of rings (size 3 to 8) (size 9 to 14) (size 15 to 20)
#    0.000    2.750    0.000    1.875    0.000    4.000 
#    0.000   11.875    0.000    0.000    0.000    7.000 
#    0.000    0.000    0.000    0.000    0.000    0.000 
#
# Total GULP energy -396812.285059 kJ/mol
# GULP energy per Si atom -12400.383908 kJ/mol
# Density = 1.792643 g / cm^3
# Si number density = 17.967324 Si / 1000 Ang^3
#
#
#
# Elastic Constant Matrix: (Units=GPa)
#
#
# Indices 1 2 3 4 5 6 
#
# 1 92.2792 34.5761 46.9702 0.0000 10.7418 0.0000
# 2 34.5761 46.7642 22.7998 0.0000 1.6366 0.0000
# 3 46.9702 22.7998 58.2605 0.0000 9.9929 0.0000
# 4 0.0000 0.0000 0.0000 25.6536 0.0000 -2.0692
# 5 10.7418 1.6366 9.9929 0.0000 40.8713 0.0000
# 6 0.0000 0.0000 0.0000 -2.0692 0.0000 32.7558
#
#
#
# Elastic Compliance Matrix: (Units=1/GPa)
#
#
# Indices 1 2 3 4 5 6 
#
# 1 0.021214 -0.009198 -0.013162 0.000000 -0.001989 0.000000
# 2 -0.009198 0.030507 -0.004935 0.000000 0.002402 0.000000
# 3 -0.013162 -0.004935 0.030353 0.000000 -0.003764 0.000000
# 4 0.000000 0.000000 0.000000 0.039181 0.000000 0.002475
# 5 -0.001989 0.002402 -0.003764 0.000000 0.025814 0.000000
# 6 0.000000 0.000000 0.000000 0.002475 0.000000 0.030685
#
#
# Mechanical properties :
#
#
# Convention : Reuss Voigt Hill
#
# Bulk Modulus (GPa) = 36.38647 45.11067 40.74857
# Shear Modulus (GPa) = 20.70343 26.05332 23.37837
#
# Velocity S-wave (km/s) = 3.39821 3.81207 3.61107
# Velocity P-wave (km/s) = 5.97432 6.67363 6.33364
#
# Compressibility (1/GPa) = 0.02748275
#
# Stress axis : x y z
#
# Youngs Moduli (GPa) = 47.13772 32.77962 32.94591
#
# Poissons Ratio (x) = 0.30152 0.43365
# Poissons Ratio (y) = 0.43359 0.16258
# Poissons Ratio (z) = 0.62044 0.16176
#
# Static dielectric constant tensor:
#      x y z
#    x 3.453940 0.000000 0.084230 
#    y 0.000000 3.207350 0.000000 
#    z 0.084230 0.000000 3.438830 
# 
# 
# High freq. dielectric constant tensor:
#      x y z
#    x 1.702130 0.000000 0.000200 
#    y 0.000000 1.685360 0.000000 
#    z 0.000200 0.000000 1.694700 
# 
# From -- ./inp_files/314194.got.cif
#   From: 2010.06.25/outbox.cif.g09.slc.cpg/sg12_158_cif.got.tgz:314194.got - 2010.06.28 00:19:55.
