data_PCOD8098691
_publ_section_title
;
Structure prediction by ZEFSAII (Michael W. Deem and Ramdas Pophale) SiO2 
 PCOD8098691
Probable space group: C 2/M
;
_chemical_formula_sum "Si O2"
_cell_formula_units_Z 44
_cell_length_a 9.930343
_cell_length_b 19.850866
_cell_length_c 11.357256
_cell_angle_alpha 90.000000
_cell_angle_beta 101.923088
_cell_angle_gamma 90.000000
_cell_volume 2190.508912
_symmetry_space_group_name_H-M "C 2/M"
_symmetry_group_IT_number 12
_symmetry_cell_setting 'monoclinic'
loop_
_space_group_symop_operation_xyz
x,y,z
-x,y,-z
-x,-y,-z
x,-y,z
1/2+x,1/2+y,z
1/2-x,1/2+y,-z
1/2-x,1/2-y,-z
1/2+x,1/2-y,z
loop_
_atom_site_type_symbol
_atom_site_label
_atom_site_fract_x
_atom_site_fract_y
_atom_site_fract_z
Si Si1 0.000000 0.610228 0.500000
Si Si2 0.594722 0.000000 0.809989
Si Si3 0.157200 0.000000 0.983266
Si Si4 0.531390 0.862572 0.242371
Si Si5 0.002866 0.000000 0.637889
Si Si6 0.690922 0.000000 0.577052
Si Si7 0.172309 0.888626 0.795928
Si Si8 0.398784 0.261063 0.084067
O O1 0.991264 0.650497 0.373953
O O2 0.141151 0.567234 0.500736
O O3 0.515617 0.932002 0.829197
O O4 0.591133 0.000000 0.669934
O O5 0.749533 0.000000 0.885016
O O6 0.198030 0.066025 0.916091
O O7 0.000000 0.000000 0.000000
O O8 0.694143 0.862857 0.250017
O O9 0.453063 0.805569 0.156436
O O10 0.000000 0.000000 0.500000
O O11 0.076620 0.932163 0.692465
O O12 0.845777 0.000000 0.650585
O O13 0.095927 0.820761 0.820063
O O14 0.500000 0.283689 0.000000
O O15 0.250000 0.250000 0.000000
#
# Coordination Sequence:
#
# PCOD8098691 Si02
#       8
#     4   4   4   8   4   4   8   8
#     4   9  20  40  66  90 130 163 218 276 320 407
#     4  10  20  34  65  91 119 160 212 272 321 391
#     4  11  22  37  60  95 128 158 213 276 331 399
#     4  11  23  42  64  96 124 173 223 270 340 392
#     4  11  22  39  67  97 130 165 218 282 334 394
#     4   9  18  36  60  95 126 163 202 263 344 385
#     4  11  24  41  63  94 130 174 217 272 338 402
#     4  12  25  44  65  92 138 177 221 272 335 407
#
# _framework density 20.086656000000001
#
# number of rings (size 3 to 8) (size 9 to 14) (size 15 to 20)
#    0.000    1.273    1.818    5.455    0.000    3.636 
#    1.636    0.909    0.000    0.000    0.000    0.000 
#    0.000    0.000    0.000    0.000    0.000    0.000 
#
# Total GULP energy -272629.671203 kJ/mol
# GULP energy per Si atom -12392.257782 kJ/mol
# Density = 2.004094 g / cm^3
# Si number density = 20.086656 Si / 1000 Ang^3
#
#
#
# Elastic Constant Matrix: (Units=GPa)
#
#
# Indices 1 2 3 4 5 6 
#
# 1 141.1375 51.1501 52.1323 0.0000 4.9360 0.0000
# 2 51.1501 144.0181 48.6372 0.0000 3.9566 0.0000
# 3 52.1323 48.6372 105.3027 0.0000 4.9653 0.0000
# 4 0.0000 0.0000 0.0000 26.1456 0.0000 -2.9423
# 5 4.9360 3.9566 4.9653 0.0000 40.0813 0.0000
# 6 0.0000 0.0000 0.0000 -2.9423 0.0000 24.2732
#
#
#
# Elastic Compliance Matrix: (Units=1/GPa)
#
#
# Indices 1 2 3 4 5 6 
#
# 1 0.009159 -0.002033 -0.003572 0.000000 -0.000485 0.000000
# 2 -0.002033 0.008683 -0.002993 0.000000 -0.000236 0.000000
# 3 -0.003572 -0.002993 0.012687 0.000000 -0.000836 0.000000
# 4 0.000000 0.000000 0.000000 0.038776 0.000000 0.004700
# 5 -0.000485 -0.000236 -0.000836 0.000000 0.025136 0.000000
# 6 0.000000 0.000000 0.000000 0.004700 0.000000 0.041767
#
#
# Mechanical properties :
#
#
# Convention : Reuss Voigt Hill
#
# Bulk Modulus (GPa) = 75.00824 77.14417 76.07621
# Shear Modulus (GPa) = 31.67610 34.00261 32.83935
#
# Velocity S-wave (km/s) = 3.97542 4.11882 4.04776
# Velocity P-wave (km/s) = 7.64822 7.81720 7.73318
#
# Compressibility (1/GPa) = 0.01333187
#
# Stress axis : x y z
#
# Youngs Moduli (GPa) = 109.18779 115.16972 78.82284
#
# Poissons Ratio (x) = 0.23415 0.28157
# Poissons Ratio (y) = 0.22199 0.23590
# Poissons Ratio (z) = 0.39005 0.34468
#
# Static dielectric constant tensor:
#      x y z
#    x 3.504010 0.000000 -0.085350 
#    y 0.000000 3.733530 0.000000 
#    z -0.085350 0.000000 3.670720 
# 
# 
# High freq. dielectric constant tensor:
#      x y z
#    x 1.790770 0.000000 -0.001130 
#    y 0.000000 1.775840 0.000000 
#    z -0.001130 0.000000 1.795530 
# 
# From -- ./inp_files/120901.got.cif
#   From: 2010.06.25/outbox.cif.g09.slc.cpg/sg12_61_cif.got.tgz:120901.got - 2010.06.28 00:19:55.
