data_PCOD8098954
_publ_section_title
;
Structure prediction by ZEFSAII (Michael W. Deem and Ramdas Pophale) SiO2 
 PCOD8098954
Probable space group: C 2/M
;
_chemical_formula_sum "Si O2"
_cell_formula_units_Z 64
_cell_length_a 23.813421
_cell_length_b 8.856383
_cell_length_c 30.968080
_cell_angle_alpha 90.000000
_cell_angle_beta 149.855341
_cell_angle_gamma 90.000000
_cell_volume 3279.866225
_symmetry_space_group_name_H-M "C 2/M"
_symmetry_group_IT_number 12
_symmetry_cell_setting 'monoclinic'
loop_
_space_group_symop_operation_xyz
x,y,z
-x,y,-z
-x,-y,-z
x,-y,z
1/2+x,1/2+y,z
1/2-x,1/2+y,-z
1/2-x,1/2-y,-z
1/2+x,1/2-y,z
loop_
_atom_site_type_symbol
_atom_site_label
_atom_site_fract_x
_atom_site_fract_y
_atom_site_fract_z
Si Si1 0.756937 0.825744 0.619249
Si Si2 0.355929 0.321326 0.775611
Si Si3 0.802983 0.674535 0.096262
Si Si4 0.816201 0.821122 0.275068
Si Si5 0.089363 0.675193 0.922412
Si Si6 0.027040 0.178034 0.470764
Si Si7 0.646580 0.675655 0.407113
Si Si8 0.587759 0.822510 0.741024
O O1 0.809288 0.761622 0.698456
O O2 0.643616 0.741185 0.531146
O O3 0.843562 0.799212 0.637878
O O4 0.727251 0.000000 0.605107
O O5 0.345043 0.500000 0.772147
O O6 0.289748 0.243761 0.770358
O O7 0.483876 0.274254 0.865695
O O8 0.766105 0.500000 0.071717
O O9 0.881923 0.710882 0.108175
O O10 0.872505 0.718579 0.184628
O O11 0.692311 0.776575 0.021201
O O12 0.821497 0.749416 0.231042
O O13 0.928848 0.769155 0.374053
O O14 0.804544 0.000000 0.264339
O O15 0.062623 0.500000 0.912077
O O16 0.000000 0.244779 0.500000
O O17 0.037153 0.000000 0.479371
O O18 0.642901 0.500000 0.416847
O O19 0.750000 0.750000 0.500000
O O20 0.533147 0.751148 0.348155
O O21 0.580235 0.000000 0.728322
#
# Coordination Sequence:
#
# PCOD8098954 Si02
#       8
#     8   8   8   8   8   8   8   8
#     4  10  22  36  55  82 112 148 191 238 285 337
#     4  11  22  37  57  84 116 150 188 236 290 340
#     4   9  20  39  62  89 119 152 187 228 284 345
#     4  11  23  39  58  82 114 153 196 241 286 340
#     4  10  20  36  62  92 119 147 184 233 285 340
#     4  10  20  35  54  78 109 148 191 237 286 335
#     4  11  23  39  57  83 117 154 195 239 287 337
#     4  11  23  40  61  85 116 155 195 234 284 344
#
# _framework density 19.512992000000001
#
# number of rings (size 3 to 8) (size 9 to 14) (size 15 to 20)
#    0.000    1.625    1.250    3.375    0.000    6.250 
#    0.000    0.625    0.000    3.750    0.000    0.000 
#    0.000    0.000    0.000    0.000    0.000    0.000 
#
# Total GULP energy -396988.209745 kJ/mol
# GULP energy per Si atom -12405.881555 kJ/mol
# Density = 1.946858 g / cm^3
# Si number density = 19.512992 Si / 1000 Ang^3
#
#
#
# Elastic Constant Matrix: (Units=GPa)
#
#
# Indices 1 2 3 4 5 6 
#
# 1 110.3531 44.1401 47.4102 0.0002 6.2569 -0.0002
# 2 44.1401 75.6339 44.2463 0.0012 0.7079 -0.0015
# 3 47.4102 44.2463 96.9251 -0.0004 6.8846 -0.0001
# 4 0.0002 0.0012 -0.0004 32.7088 -0.0001 5.2540
# 5 6.2569 0.7079 6.8846 -0.0001 28.0933 0.0001
# 6 -0.0002 -0.0015 -0.0001 5.2540 0.0001 35.2010
#
#
#
# Elastic Compliance Matrix: (Units=1/GPa)
#
#
# Indices 1 2 3 4 5 6 
#
# 1 0.012906 -0.005317 -0.003756 0.000000 -0.001820 0.000000
# 2 -0.005317 0.020300 -0.006833 -0.000001 0.002347 0.000001
# 3 -0.003756 -0.006833 0.015471 0.000000 -0.002783 0.000000
# 4 0.000000 -0.000001 0.000000 0.031324 0.000000 -0.004675
# 5 -0.001820 0.002347 -0.002783 0.000000 0.036624 0.000000
# 6 0.000000 0.000001 0.000000 -0.004675 0.000000 0.029106
#
#
# Mechanical properties :
#
#
# Convention : Reuss Voigt Hill
#
# Bulk Modulus (GPa) = 59.29573 61.61170 60.45372
# Shear Modulus (GPa) = 27.29790 29.00833 28.15311
#
# Velocity S-wave (km/s) = 3.74433 3.85985 3.80253
# Velocity P-wave (km/s) = 7.01050 7.17690 7.09418
#
# Compressibility (1/GPa) = 0.01686462
#
# Stress axis : x y z
#
# Youngs Moduli (GPa) = 77.48587 49.26102 64.63599
#
# Poissons Ratio (x) = 0.26194 0.24277
# Poissons Ratio (y) = 0.41202 0.44164
# Poissons Ratio (z) = 0.29104 0.33659
#
# Static dielectric constant tensor:
#      x y z
#    x 3.659060 0.000000 -0.089330 
#    y 0.000000 3.532590 0.000000 
#    z -0.089330 0.000000 3.473720 
# 
# 
# High freq. dielectric constant tensor:
#      x y z
#    x 1.766610 0.000000 0.001000 
#    y 0.000000 1.764520 0.000000 
#    z 0.001000 0.000000 1.753200 
# 
# From -- ./inp_files/382407.got.cif
#   From: 2010.06.25/outbox.cif.g09.slc.cpg/sg12_192_cif.got.tgz:382407.got - 2010.06.28 00:19:55.
