data_PCOD8098985
_publ_section_title
;
Structure prediction by ZEFSAII (Michael W. Deem and Ramdas Pophale) SiO2 
 PCOD8098985
Probable space group: C 2/M
;
_chemical_formula_sum "Si O2"
_cell_formula_units_Z 48
_cell_length_a 12.719944
_cell_length_b 15.860268
_cell_length_c 14.229864
_cell_angle_alpha 90.000000
_cell_angle_beta 124.726795
_cell_angle_gamma 90.000000
_cell_volume 2359.411427
_symmetry_space_group_name_H-M "C 2/M"
_symmetry_group_IT_number 12
_symmetry_cell_setting 'monoclinic'
loop_
_space_group_symop_operation_xyz
x,y,z
-x,y,-z
-x,-y,-z
x,-y,z
1/2+x,1/2+y,z
1/2-x,1/2+y,-z
1/2-x,1/2-y,-z
1/2+x,1/2-y,z
loop_
_atom_site_type_symbol
_atom_site_label
_atom_site_fract_x
_atom_site_fract_y
_atom_site_fract_z
Si Si1 0.916166 0.702552 0.372154
Si Si2 0.615456 0.905065 0.377974
Si Si3 0.964664 0.670715 0.846526
Si Si4 0.820045 0.596805 0.941674
Si Si5 0.291570 0.596871 0.635279
Si Si6 0.442955 0.323084 0.210095
O O1 0.778371 0.665869 0.333708
O O2 0.901307 0.770445 0.281412
O O3 0.000000 0.743161 0.500000
O O4 0.992941 0.620708 0.376448
O O5 0.623882 0.850539 0.287931
O O6 0.742705 0.890439 0.503708
O O7 0.599006 0.000000 0.337213
O O8 0.875572 0.660789 0.891785
O O9 0.016133 0.765130 0.857085
O O10 0.091164 0.610865 0.920919
O O11 0.829769 0.500000 0.913168
O O12 0.674108 0.620692 0.886847
O O13 0.266147 0.500000 0.655046
O O14 0.441948 0.613989 0.707727
#
# Coordination Sequence:
#
# PCOD8098985 Si02
#       6
#     8   8   8   8   8   8
#     4   9  19  33  53  78 107 143 180 213 254 313
#     4   9  17  32  55  80 106 139 180 219 256 308
#     4  10  21  37  57  78 103 140 184 221 256 306
#     4  11  22  38  58  79 105 139 180 222 264 310
#     4  10  20  35  54  80 112 141 170 212 267 318
#     4  11  22  35  55  82 111 138 171 218 270 317
#
# _framework density 20.344056999999999
#
# number of rings (size 3 to 8) (size 9 to 14) (size 15 to 20)
#    0.000    2.000    0.000    4.500    0.000    9.333 
#    0.000    0.000    0.000    4.000    0.000   17.500 
#    0.000    0.000    0.000    0.000    0.000    0.000 
#
# Total GULP energy -297523.764737 kJ/mol
# GULP energy per Si atom -12396.823531 kJ/mol
# Density = 2.029775 g / cm^3
# Si number density = 20.344057 Si / 1000 Ang^3
#
#
#
# Elastic Constant Matrix: (Units=GPa)
#
#
# Indices 1 2 3 4 5 6 
#
# 1 67.8575 26.6224 32.6206 0.0000 19.2496 0.0000
# 2 26.6224 72.8801 25.0897 0.0000 3.4839 0.0000
# 3 32.6206 25.0897 68.1783 0.0000 11.8787 0.0000
# 4 0.0000 0.0000 0.0000 24.9340 0.0000 5.5924
# 5 19.2496 3.4839 11.8787 0.0000 39.6342 0.0000
# 6 0.0000 0.0000 0.0000 5.5924 0.0000 24.6979
#
#
#
# Elastic Compliance Matrix: (Units=1/GPa)
#
#
# Indices 1 2 3 4 5 6 
#
# 1 0.022809 -0.005355 -0.007485 0.000000 -0.008364 0.000000
# 2 -0.005355 0.016974 -0.004091 0.000000 0.002335 0.000000
# 3 -0.007485 -0.004091 0.020108 0.000000 -0.002032 0.000000
# 4 0.000000 0.000000 0.000000 0.042252 0.000000 -0.009567
# 5 -0.008364 0.002335 -0.002032 0.000000 0.029696 0.000000
# 6 0.000000 0.000000 0.000000 -0.009567 0.000000 0.042655
#
#
# Mechanical properties :
#
#
# Convention : Reuss Voigt Hill
#
# Bulk Modulus (GPa) = 38.41976 41.95348 40.18662
# Shear Modulus (GPa) = 23.03796 26.15877 24.59836
#
# Velocity S-wave (km/s) = 3.36879 3.58972 3.48101
# Velocity P-wave (km/s) = 5.83590 6.15209 5.99608
#
# Compressibility (1/GPa) = 0.02602827
#
# Stress axis : x y z
#
# Youngs Moduli (GPa) = 43.84330 58.91317 49.73089
#
# Poissons Ratio (x) = 0.31549 0.37224
# Poissons Ratio (y) = 0.23479 0.20346
# Poissons Ratio (z) = 0.32817 0.24102
#
# Static dielectric constant tensor:
#      x y z
#    x 3.457290 0.000000 0.073030 
#    y 0.000000 3.548660 0.000000 
#    z 0.073030 0.000000 3.999120 
# 
# 
# High freq. dielectric constant tensor:
#      x y z
#    x 1.779980 0.000000 0.012410 
#    y 0.000000 1.788510 0.000000 
#    z 0.012410 0.000000 1.799690 
# 
# From -- ./inp_files/131060.got.cif
#   From: 2010.06.25/outbox.cif.g09.slc.cpg/sg12_66_cif.got.tgz:131060.got - 2010.06.28 00:19:55.
