data_PCOD8098065
_publ_section_title
;
Structure prediction by ZEFSAII (Michael W. Deem and Ramdas Pophale) SiO2 
 PCOD8098065
Probable space group: C 2/M
;
_chemical_formula_sum "Si O2"
_cell_formula_units_Z 40
_cell_length_a 17.964420
_cell_length_b 16.763655
_cell_length_c 12.035096
_cell_angle_alpha 90.000000
_cell_angle_beta 144.346086
_cell_angle_gamma 90.000000
_cell_volume 2112.596008
_symmetry_space_group_name_H-M "C 2/M"
_symmetry_group_IT_number 12
_symmetry_cell_setting 'monoclinic'
loop_
_space_group_symop_operation_xyz
x,y,z
-x,y,-z
-x,-y,-z
x,-y,z
1/2+x,1/2+y,z
1/2-x,1/2+y,-z
1/2-x,1/2-y,-z
1/2+x,1/2-y,z
loop_
_atom_site_type_symbol
_atom_site_label
_atom_site_fract_x
_atom_site_fract_y
_atom_site_fract_z
Si Si1 0.394979 0.593855 0.282896
Si Si2 0.314836 0.408234 0.734767
Si Si3 0.954439 0.153227 0.109351
Si Si4 0.165022 0.693989 0.973028
Si Si5 0.474431 0.906223 0.594318
O O1 0.500000 0.619444 0.500000
O O2 0.371545 0.500000 0.254228
O O3 0.441506 0.622420 0.218793
O O4 0.262216 0.636562 0.157869
O O5 0.331212 0.500000 0.720993
O O6 0.399493 0.355808 0.753319
O O7 0.168738 0.381183 0.545912
O O8 0.360723 0.398124 0.917565
O O9 0.918065 0.246917 0.050616
O O10 0.071744 0.638959 0.790043
O O11 0.250000 0.750000 0.000000
O O12 0.500000 0.878907 0.500000
O O13 0.497170 0.000000 0.635828
#
# Coordination Sequence:
#
# PCOD8098065 Si02
#       5
#     8   8   8   8   8
#     4  10  20  35  56  78 106 147 186 219 259 318
#     4  10  20  36  60  83 106 140 181 228 276 321
#     4  10  20  34  55  83 112 140 176 225 274 322
#     4  10  21  33  50  77 109 141 174 220 269 317
#     4  10  20  35  57  82 108 141 183 229 273 319
#
# _framework density 18.934049999999999
#
# number of rings (size 3 to 8) (size 9 to 14) (size 15 to 20)
#    0.000    2.000    0.000    5.400    0.000    8.800 
#    0.000    2.000    0.000    0.000    0.000   11.200 
#    0.000    0.000    0.000    0.000    0.000    0.000 
#
# Total GULP energy -247971.680510 kJ/mol
# GULP energy per Si atom -12398.584025 kJ/mol
# Density = 1.889096 g / cm^3
# Si number density = 18.934050 Si / 1000 Ang^3
#
#
#
# Elastic Constant Matrix: (Units=GPa)
#
#
# Indices 1 2 3 4 5 6 
#
# 1 93.9510 50.8133 54.9410 0.0000 16.0576 0.0000
# 2 50.8133 91.9223 67.9980 0.0000 19.3939 0.0000
# 3 54.9410 67.9980 153.8113 0.0000 24.3687 0.0000
# 4 0.0000 0.0000 0.0000 15.6576 0.0000 19.1426
# 5 16.0576 19.3939 24.3687 0.0000 30.5393 0.0000
# 6 0.0000 0.0000 0.0000 19.1426 0.0000 27.3055
#
#
#
# Elastic Compliance Matrix: (Units=1/GPa)
#
#
# Indices 1 2 3 4 5 6 
#
# 1 0.016018 -0.006548 -0.002463 0.000000 -0.002299 0.000000
# 2 -0.006548 0.019604 -0.005610 0.000000 -0.004530 0.000000
# 3 -0.002463 -0.005610 0.010407 0.000000 -0.003447 0.000000
# 4 0.000000 0.000000 0.000000 0.446902 0.000000 -0.313302
# 5 -0.002299 -0.004530 -0.003447 0.000000 0.039581 0.000000
# 6 0.000000 0.000000 0.000000 -0.313302 0.000000 0.256264
#
#
# Mechanical properties :
#
#
# Convention : Reuss Voigt Hill
#
# Bulk Modulus (GPa) = 59.56487 76.35436 67.95961
# Shear Modulus (GPa) = 6.07081 25.76263 15.91672
#
# Velocity S-wave (km/s) = 1.79255 3.69270 2.90252
# Velocity P-wave (km/s) = 5.98429 7.65476 6.87049
#
# Compressibility (1/GPa) = 0.01678842
#
# Stress axis : x y z
#
# Youngs Moduli (GPa) = 62.42823 51.00977 96.08516
#
# Poissons Ratio (x) = 0.33401 0.23663
# Poissons Ratio (y) = 0.40877 0.53905
# Poissons Ratio (z) = 0.15374 0.28617
#
# Static dielectric constant tensor:
#      x y z
#    x 3.426050 0.000000 0.266570 
#    y 0.000000 3.865300 0.000000 
#    z 0.266570 0.000000 3.606110 
# 
# 
# High freq. dielectric constant tensor:
#      x y z
#    x 1.717120 0.000000 0.017260 
#    y 0.000000 1.744700 0.000000 
#    z 0.017260 0.000000 1.743740 
# 
# From -- ./inp_files/155755.got.cif
#   From: 2010.06.25/outbox.cif.g09.slc.cpg/sg12_78_cif.got.tgz:155755.got - 2010.06.28 00:19:55.
