data_PCOD8098137
_publ_section_title
;
Structure prediction by ZEFSAII (Michael W. Deem and Ramdas Pophale) SiO2 
 PCOD8098137
Probable space group: C 2/M
;
_chemical_formula_sum "Si O2"
_cell_formula_units_Z 64
_cell_length_a 22.362180
_cell_length_b 18.116290
_cell_length_c 19.289964
_cell_angle_alpha 90.000000
_cell_angle_beta 154.986630
_cell_angle_gamma 90.000000
_cell_volume 3304.306646
_symmetry_space_group_name_H-M "C 2/M"
_symmetry_group_IT_number 12
_symmetry_cell_setting 'monoclinic'
loop_
_space_group_symop_operation_xyz
x,y,z
-x,y,-z
-x,-y,-z
x,-y,z
1/2+x,1/2+y,z
1/2-x,1/2+y,-z
1/2-x,1/2-y,-z
1/2+x,1/2-y,z
loop_
_atom_site_type_symbol
_atom_site_label
_atom_site_fract_x
_atom_site_fract_y
_atom_site_fract_z
Si Si1 0.732389 0.205475 0.587616
Si Si2 0.530025 0.803823 0.107196
Si Si3 0.342185 0.175788 0.338639
Si Si4 0.719185 0.325449 0.798656
Si Si5 0.897140 0.914394 0.694623
Si Si6 0.240178 0.085830 0.691314
Si Si7 0.967237 0.162376 0.630928
Si Si8 0.591303 0.584581 0.030920
O O1 0.876153 0.252548 0.745215
O O2 0.699625 0.167616 0.625743
O O3 0.759953 0.138447 0.562406
O O4 0.603573 0.257705 0.426506
O O5 0.609500 0.880888 0.175086
O O6 0.500000 0.765999 0.000000
O O7 0.382635 0.814959 0.992824
O O8 0.500000 0.143832 0.500000
O O9 0.337374 0.260405 0.310155
O O10 0.237695 0.129020 0.180227
O O11 0.710353 0.398632 0.741339
O O12 0.627864 0.328848 0.772754
O O13 0.972850 0.889830 0.703617
O O14 0.849177 0.000000 0.639510
O O15 0.006575 0.901727 0.871605
O O16 0.116404 0.122949 0.517921
O O17 0.244006 0.000000 0.680512
O O18 0.632040 0.500000 0.084352
O O19 0.500000 0.613118 0.000000
#
# Coordination Sequence:
#
# PCOD8098137 Si02
#       8
#     8   8   8   8   8   8   8   8
#     4  11  20  37  62  88 117 155 198 248 292 352
#     4   9  18  32  56  85 116 148 194 247 294 336
#     4  12  20  35  63  93 122 146 190 257 303 352
#     4  11  20  34  57  90 117 155 195 243 297 351
#     4  11  24  40  62  88 117 160 206 245 290 352
#     4  10  20  34  55  84 117 159 203 243 291 350
#     4  11  22  39  58  86 124 158 195 243 296 353
#     4  10  22  39  62  87 113 154 205 249 297 351
#
# _framework density 19.368662
#
# number of rings (size 3 to 8) (size 9 to 14) (size 15 to 20)
#    0.000    1.375    6.250    1.875    0.000    4.000 
#    0.000    2.500    2.750    0.000    0.000    0.000 
#    0.000    0.000    0.000    0.000    0.000    0.000 
#
# Total GULP energy -396804.008484 kJ/mol
# GULP energy per Si atom -12400.125265 kJ/mol
# Density = 1.932458 g / cm^3
# Si number density = 19.368662 Si / 1000 Ang^3
#
#
#
# Elastic Constant Matrix: (Units=GPa)
#
#
# Indices 1 2 3 4 5 6 
#
# 1 118.1469 39.3323 37.5811 0.0045 22.2901 0.0016
# 2 39.3323 105.7140 22.2441 0.0068 17.9942 0.0057
# 3 37.5811 22.2441 74.9651 0.0096 26.3609 0.0064
# 4 0.0045 0.0068 0.0096 18.0561 0.0064 -4.5062
# 5 22.2901 17.9942 26.3609 0.0064 33.5639 0.0045
# 6 0.0016 0.0057 0.0064 -4.5062 0.0045 21.7075
#
#
#
# Elastic Compliance Matrix: (Units=1/GPa)
#
#
# Indices 1 2 3 4 5 6 
#
# 1 0.011154 -0.002867 -0.003698 0.000002 -0.002966 0.000002
# 2 -0.002867 0.011279 -0.000625 -0.000002 -0.003652 -0.000002
# 3 -0.003698 -0.000625 0.019891 -0.000006 -0.012831 -0.000004
# 4 0.000002 -0.000002 -0.000006 0.058409 -0.000008 0.012125
# 5 -0.002966 -0.003652 -0.012831 -0.000008 0.043799 -0.000006
# 6 0.000002 -0.000002 -0.000004 0.012125 -0.000006 0.048584
#
#
# Mechanical properties :
#
#
# Convention : Reuss Voigt Hill
#
# Bulk Modulus (GPa) = 35.78648 55.23790 45.51219
# Shear Modulus (GPa) = 23.06141 27.97675 25.51908
#
# Velocity S-wave (km/s) = 3.45433 3.80469 3.63374
# Velocity P-wave (km/s) = 5.86741 6.91969 6.41516
#
# Compressibility (1/GPa) = 0.02794351
#
# Stress axis : x y z
#
# Youngs Moduli (GPa) = 89.65016 88.65690 50.27408
#
# Poissons Ratio (x) = 0.25419 0.18592
# Poissons Ratio (y) = 0.25704 0.03144
# Poissons Ratio (z) = 0.33154 0.05545
#
# Static dielectric constant tensor:
#      x y z
#    x 3.526270 0.000000 0.191880 
#    y 0.000000 3.567700 0.000000 
#    z 0.191880 0.000000 3.552350 
# 
# 
# High freq. dielectric constant tensor:
#      x y z
#    x 1.741090 0.000000 0.009310 
#    y 0.000000 1.751140 0.000000 
#    z 0.009310 0.000000 1.744060 
# 
# From -- ./inp_files/285215.got.cif
#   From: 2010.06.25/outbox.cif.g09.slc.cpg/sg12_143_cif.got.tgz:285215.got - 2010.06.28 00:19:55.
