data_PCOD8098114
_publ_section_title
;
Structure prediction by ZEFSAII (Michael W. Deem and Ramdas Pophale) SiO2 
 PCOD8098114
Probable space group: C 2/M
;
_chemical_formula_sum "Si O2"
_cell_formula_units_Z 40
_cell_length_a 18.301770
_cell_length_b 8.940653
_cell_length_c 18.552673
_cell_angle_alpha 90.000000
_cell_angle_beta 136.396336
_cell_angle_gamma 90.000000
_cell_volume 2093.666702
_symmetry_space_group_name_H-M "C 2/M"
_symmetry_group_IT_number 12
_symmetry_cell_setting 'monoclinic'
loop_
_space_group_symop_operation_xyz
x,y,z
-x,y,-z
-x,-y,-z
x,-y,z
1/2+x,1/2+y,z
1/2-x,1/2+y,-z
1/2-x,1/2-y,-z
1/2+x,1/2-y,z
loop_
_atom_site_type_symbol
_atom_site_label
_atom_site_fract_x
_atom_site_fract_y
_atom_site_fract_z
Si Si1 0.362505 0.826063 0.087892
Si Si2 0.921096 0.835807 0.510062
Si Si3 0.586406 0.172303 0.711846
Si Si4 0.971390 0.825830 0.897254
Si Si5 0.746812 0.322916 0.720343
O O1 0.408657 0.798851 0.200042
O O2 0.440683 0.753903 0.086947
O O3 0.350258 0.000000 0.061714
O O4 0.250000 0.750000 0.000000
O O5 0.809293 0.782184 0.396287
O O6 0.000000 0.848110 0.500000
O O7 0.968309 0.721089 0.602224
O O8 0.909309 0.000000 0.537710
O O9 0.677879 0.267068 0.738689
O O10 0.604457 0.000000 0.704660
O O11 0.858436 0.757125 0.798594
O O12 0.969781 0.000000 0.877328
O O13 0.000000 0.796187 0.000000
O O14 0.761071 0.500000 0.738779
#
# Coordination Sequence:
#
# PCOD8098114 Si02
#       5
#     8   8   8   8   8
#     4  11  24  40  58  82 111 144 183 225 272 327
#     4   8  16  31  52  80 111 144 183 223 265 318
#     4  10  20  34  55  84 114 144 183 227 268 318
#     4  11  24  40  58  82 110 141 182 229 275 326
#     4  10  20  35  57  84 113 146 184 224 269 323
#
# _framework density 19.105238
#
# number of rings (size 3 to 8) (size 9 to 14) (size 15 to 20)
#    0.000    2.000    0.000    4.800    0.000   14.000 
#    0.000    1.000    0.000    0.000    0.000    0.000 
#    0.000    0.000    0.000    0.000    0.000    0.000 
#
# Total GULP energy -248000.294561 kJ/mol
# GULP energy per Si atom -12400.014728 kJ/mol
# Density = 1.906175 g / cm^3
# Si number density = 19.105238 Si / 1000 Ang^3
#
#
#
# Elastic Constant Matrix: (Units=GPa)
#
#
# Indices 1 2 3 4 5 6 
#
# 1 100.2969 72.3301 59.5413 0.0000 4.3739 0.0000
# 2 72.3301 126.7431 91.8877 0.0000 -9.2455 0.0000
# 3 59.5413 91.8877 153.7093 0.0000 9.2994 0.0000
# 4 0.0000 0.0000 0.0000 40.4244 0.0000 8.2897
# 5 4.3739 -9.2455 9.2994 0.0000 26.2352 0.0000
# 6 0.0000 0.0000 0.0000 8.2897 0.0000 61.8630
#
#
#
# Elastic Compliance Matrix: (Units=1/GPa)
#
#
# Indices 1 2 3 4 5 6 
#
# 1 0.018063 -0.010614 -0.000249 0.000000 -0.006664 0.000000
# 2 -0.010614 0.022041 -0.009853 0.000000 0.013029 0.000000
# 3 -0.000249 -0.009853 0.012978 0.000000 -0.008031 0.000000
# 4 0.000000 0.000000 0.000000 0.025437 0.000000 -0.003409
# 5 -0.006664 0.013029 -0.008031 0.000000 0.046666 0.000000
# 6 0.000000 0.000000 0.000000 -0.003409 0.000000 0.016622
#
#
# Mechanical properties :
#
#
# Convention : Reuss Voigt Hill
#
# Bulk Modulus (GPa) = 85.83129 92.02974 88.93051
# Shear Modulus (GPa) = 26.72066 36.17053 31.44560
#
# Velocity S-wave (km/s) = 3.74385 4.35584 4.06139
# Velocity P-wave (km/s) = 7.98195 8.57743 8.28504
#
# Compressibility (1/GPa) = 0.01165076
#
# Stress axis : x y z
#
# Youngs Moduli (GPa) = 55.36153 45.37005 77.05301
#
# Poissons Ratio (x) = 0.48156 0.01916
# Poissons Ratio (y) = 0.58761 0.75920
# Poissons Ratio (z) = 0.01377 0.44703
#
# Static dielectric constant tensor:
#      x y z
#    x 3.201100 0.000000 -0.042820 
#    y 0.000000 3.700760 0.000000 
#    z -0.042820 0.000000 4.024030 
# 
# 
# High freq. dielectric constant tensor:
#      x y z
#    x 1.717420 0.000000 -0.000020 
#    y 0.000000 1.757560 0.000000 
#    z -0.000020 0.000000 1.764180 
# 
# From -- ./inp_files/238095.got.cif
#   From: 2010.06.25/outbox.cif.g09.slc.cpg/sg12_120_cif.got.tgz:238095.got - 2010.06.28 00:19:55.
