data_PCOD8098736
_publ_section_title
;
Structure prediction by ZEFSAII (Michael W. Deem and Ramdas Pophale) SiO2 
 PCOD8098736
Probable space group: C 2/M
;
_chemical_formula_sum "Si O2"
_cell_formula_units_Z 56
_cell_length_a 19.515117
_cell_length_b 9.441240
_cell_length_c 27.582777
_cell_angle_alpha 90.000000
_cell_angle_beta 141.824065
_cell_angle_gamma 90.000000
_cell_volume 3141.099262
_symmetry_space_group_name_H-M "C 2/M"
_symmetry_group_IT_number 12
_symmetry_cell_setting 'monoclinic'
loop_
_space_group_symop_operation_xyz
x,y,z
-x,y,-z
-x,-y,-z
x,-y,z
1/2+x,1/2+y,z
1/2-x,1/2+y,-z
1/2-x,1/2-y,-z
1/2+x,1/2-y,z
loop_
_atom_site_type_symbol
_atom_site_label
_atom_site_fract_x
_atom_site_fract_y
_atom_site_fract_z
Si Si1 0.436621 0.153858 0.514750
Si Si2 0.360683 0.161717 0.058832
Si Si3 0.806151 0.335894 0.187654
Si Si4 0.391678 0.837427 0.966608
Si Si5 0.993735 0.336552 0.771070
Si Si6 0.148243 0.330854 0.679740
Si Si7 0.772623 0.830435 0.653527
O O1 0.500000 0.131150 0.500000
O O2 0.523987 0.233340 0.599292
O O3 0.318813 0.228103 0.436542
O O4 0.408627 0.000000 0.521635
O O5 0.447764 0.216558 0.147017
O O6 0.328557 0.000000 0.052685
O O7 0.250000 0.250000 0.000000
O O8 0.415793 0.178355 0.036980
O O9 0.771914 0.500000 0.167803
O O10 0.715003 0.251560 0.107144
O O11 0.924880 0.312926 0.228893
O O12 0.811544 0.276435 0.245563
O O13 0.369464 0.000000 0.939699
O O14 0.500000 0.777378 0.000000
O O15 0.957607 0.500000 0.755467
O O16 0.887310 0.240572 0.702882
O O17 0.136926 0.500000 0.673021
O O18 0.236380 0.283236 0.687775
O O19 0.782787 0.000000 0.656281
#
# Coordination Sequence:
#
# PCOD8098736 Si02
#       7
#     8   8   8   8   8   8   8
#     4   7  11  24  47  73  98 122 155 200 242 279
#     4  10  20  36  54  71  95 130 167 198 237 289
#     4  10  20  35  52  72  99 130 164 199 240 289
#     4  10  22  37  53  73  98 128 162 202 247 291
#     4  10  21  34  48  70 102 133 158 193 244 293
#     4   8  15  29  51  76  98 124 161 205 245 279
#     4   9  17  30  52  78  97 122 165 206 237 280
#
# _framework density 17.828153
#
# number of rings (size 3 to 8) (size 9 to 14) (size 15 to 20)
#    0.000    2.857    1.429    1.714    2.000    1.429 
#    0.000    0.714    0.000    4.714    0.000    0.000 
#    0.000    0.000    0.000    0.000    0.000    0.000 
#
# Total GULP energy -346986.975404 kJ/mol
# GULP energy per Si atom -12392.391979 kJ/mol
# Density = 1.778758 g / cm^3
# Si number density = 17.828153 Si / 1000 Ang^3
#
#
#
# Elastic Constant Matrix: (Units=GPa)
#
#
# Indices 1 2 3 4 5 6 
#
# 1 62.2596 15.9511 10.7628 0.0000 8.4564 0.0000
# 2 15.9511 31.7090 19.9391 0.0000 11.2934 0.0000
# 3 10.7628 19.9391 63.8447 0.0000 14.6815 0.0000
# 4 0.0000 0.0000 0.0000 15.5772 0.0000 3.3705
# 5 8.4564 11.2934 14.6815 0.0000 32.5249 0.0000
# 6 0.0000 0.0000 0.0000 3.3705 0.0000 19.4172
#
#
#
# Elastic Compliance Matrix: (Units=1/GPa)
#
#
# Indices 1 2 3 4 5 6 
#
# 1 0.018530 -0.008680 0.000002 0.000000 -0.001805 0.000000
# 2 -0.008680 0.045841 -0.010837 0.000000 -0.008769 0.000000
# 3 0.000002 -0.010837 0.020288 0.000000 -0.005396 0.000000
# 4 0.000000 0.000000 0.000000 0.066701 0.000000 -0.011578
# 5 -0.001805 -0.008769 -0.005396 0.000000 0.036695 0.000000
# 6 0.000000 0.000000 0.000000 -0.011578 0.000000 0.053511
#
#
# Mechanical properties :
#
#
# Convention : Reuss Voigt Hill
#
# Bulk Modulus (GPa) = 21.91572 27.90216 24.90894
# Shear Modulus (GPa) = 16.90301 20.91454 18.90878
#
# Velocity S-wave (km/s) = 3.08248 3.42880 3.26024
# Velocity P-wave (km/s) = 4.99883 5.60001 5.30794
#
# Compressibility (1/GPa) = 0.04562934
#
# Stress axis : x y z
#
# Youngs Moduli (GPa) = 53.96519 21.81470 49.29089
#
# Poissons Ratio (x) = 0.18936 -0.00010
# Poissons Ratio (y) = 0.46843 0.53415
# Poissons Ratio (z) = -0.00011 0.23640
#
# Static dielectric constant tensor:
#      x y z
#    x 3.303230 0.000000 -0.167030 
#    y 0.000000 2.947970 0.000000 
#    z -0.167030 0.000000 3.653360 
# 
# 
# High freq. dielectric constant tensor:
#      x y z
#    x 1.680930 0.000000 -0.001900 
#    y 0.000000 1.649470 0.000000 
#    z -0.001900 0.000000 1.702470 
# 
# From -- ./inp_files/276933.got.cif
#   From: 2010.06.25/outbox.cif.g09.slc.cpg/sg12_139_cif.got.tgz:276933.got - 2010.06.28 00:19:55.
