data_PCOD8098773
_publ_section_title
;
Structure prediction by ZEFSAII (Michael W. Deem and Ramdas Pophale) SiO2 
 PCOD8098773
Probable space group: C 2/M
;
_chemical_formula_sum "Si O2"
_cell_formula_units_Z 56
_cell_length_a 30.496796
_cell_length_b 9.261627
_cell_length_c 18.831924
_cell_angle_alpha 90.000000
_cell_angle_beta 142.414654
_cell_angle_gamma 90.000000
_cell_volume 3244.330540
_symmetry_space_group_name_H-M "C 2/M"
_symmetry_group_IT_number 12
_symmetry_cell_setting 'monoclinic'
loop_
_space_group_symop_operation_xyz
x,y,z
-x,y,-z
-x,-y,-z
x,-y,z
1/2+x,1/2+y,z
1/2-x,1/2+y,-z
1/2-x,1/2-y,-z
1/2+x,1/2-y,z
loop_
_atom_site_type_symbol
_atom_site_label
_atom_site_fract_x
_atom_site_fract_y
_atom_site_fract_z
Si Si1 0.651527 0.165662 0.145985
Si Si2 0.435906 0.337071 0.861845
Si Si3 0.958889 0.331202 0.267315
Si Si4 0.044798 0.167584 0.490004
Si Si5 0.528869 0.168547 0.879063
Si Si6 0.802141 0.670403 0.120308
Si Si7 0.296931 0.334261 0.256869
O O1 0.633094 0.260888 0.191348
O O2 0.733923 0.195732 0.232141
O O3 0.638309 0.000000 0.149974
O O4 0.601676 0.207158 0.014827
O O5 0.415101 0.500000 0.814739
O O6 0.460503 0.253846 0.822651
O O7 0.500000 0.330909 0.000000
O O8 0.973359 0.500000 0.292378
O O9 0.959452 0.280818 0.186487
O O10 0.883092 0.287774 0.204019
O O11 0.021869 0.250481 0.389832
O O12 0.128643 0.198421 0.608455
O O13 0.000000 0.226814 0.500000
O O14 0.027760 0.000000 0.456918
O O15 0.511212 0.000000 0.861610
O O16 0.788594 0.500000 0.098664
O O17 0.785871 0.726295 0.177850
O O18 0.750000 0.750000 0.000000
O O19 0.294029 0.500000 0.225555
#
# Coordination Sequence:
#
# PCOD8098773 Si02
#       7
#     8   8   8   8   8   8   8
#     4   9  17  31  52  74 101 135 167 202 247 303
#     4   9  17  29  47  74 105 131 160 201 249 303
#     4  10  21  35  52  74 101 134 174 215 251 299
#     4  10  20  35  54  74  99 134 175 216 258 300
#     4   9  17  31  50  73 100 132 168 203 248 303
#     4  11  22  34  50  74 104 136 168 206 255 304
#     4  10  20  35  53  74 102 135 173 212 251 301
#
# _framework density 17.260878999999999
#
# number of rings (size 3 to 8) (size 9 to 14) (size 15 to 20)
#    0.000    2.286    1.429    1.714    0.000    6.571 
#    0.000    2.857    0.000    0.857    0.000    0.000 
#    0.000    0.000    0.000    0.000    0.000    0.000 
#
# Total GULP energy -347284.336875 kJ/mol
# GULP energy per Si atom -12403.012031 kJ/mol
# Density = 1.722159 g / cm^3
# Si number density = 17.260879 Si / 1000 Ang^3
#
#
#
# Elastic Constant Matrix: (Units=GPa)
#
#
# Indices 1 2 3 4 5 6 
#
# 1 100.0587 41.1725 31.9402 0.0000 20.7517 0.0000
# 2 41.1725 66.5296 35.4279 0.0000 8.0482 0.0000
# 3 31.9402 35.4279 74.2725 0.0000 14.8052 0.0000
# 4 0.0000 0.0000 0.0000 27.3622 0.0000 -5.1393
# 5 20.7517 8.0482 14.8052 0.0000 18.2422 0.0000
# 6 0.0000 0.0000 0.0000 -5.1393 0.0000 27.2633
#
#
#
# Elastic Compliance Matrix: (Units=1/GPa)
#
#
# Indices 1 2 3 4 5 6 
#
# 1 0.016619 -0.008385 -0.000138 0.000000 -0.015093 0.000000
# 2 -0.008385 0.024406 -0.009294 0.000000 0.006314 0.000000
# 3 -0.000138 -0.009294 0.020410 0.000000 -0.012306 0.000000
# 4 0.000000 0.000000 0.000000 0.037888 0.000000 0.007142
# 5 -0.015093 0.006314 -0.012306 0.000000 0.079190 0.000000
# 6 0.000000 0.000000 0.000000 0.007142 0.000000 0.038026
#
#
# Mechanical properties :
#
#
# Convention : Reuss Voigt Hill
#
# Bulk Modulus (GPa) = 38.76142 50.88245 44.82193
# Shear Modulus (GPa) = 19.17375 23.39489 21.28432
#
# Velocity S-wave (km/s) = 3.33651 3.68553 3.51536
# Velocity P-wave (km/s) = 6.11131 6.90314 6.51926
#
# Compressibility (1/GPa) = 0.02579885
#
# Stress axis : x y z
#
# Youngs Moduli (GPa) = 60.17196 40.97421 48.99592
#
# Poissons Ratio (x) = 0.34358 0.00678
# Poissons Ratio (y) = 0.50456 0.45537
# Poissons Ratio (z) = 0.00833 0.38082
#
# Static dielectric constant tensor:
#      x y z
#    x 3.319550 0.000000 0.036650 
#    y 0.000000 3.214570 0.000000 
#    z 0.036650 0.000000 3.023130 
# 
# 
# High freq. dielectric constant tensor:
#      x y z
#    x 1.671350 0.000000 0.003850 
#    y 0.000000 1.667560 0.000000 
#    z 0.003850 0.000000 1.641490 
# 
# From -- ./inp_files/280877.got.cif
#   From: 2010.06.25/outbox.cif.g09.slc.cpg/sg12_141_cif.got.tgz:280877.got - 2010.06.28 00:19:55.
