data_PCOD8098500
_publ_section_title
;
Structure prediction by ZEFSAII (Michael W. Deem and Ramdas Pophale) SiO2 
 PCOD8098500
Probable space group: C 2/M
;
_chemical_formula_sum "Si O2"
_cell_formula_units_Z 48
_cell_length_a 9.041184
_cell_length_b 19.072452
_cell_length_c 21.461856
_cell_angle_alpha 90.000000
_cell_angle_beta 137.073080
_cell_angle_gamma 90.000000
_cell_volume 2520.505565
_symmetry_space_group_name_H-M "C 2/M"
_symmetry_group_IT_number 12
_symmetry_cell_setting 'monoclinic'
loop_
_space_group_symop_operation_xyz
x,y,z
-x,y,-z
-x,-y,-z
x,-y,z
1/2+x,1/2+y,z
1/2-x,1/2+y,-z
1/2-x,1/2-y,-z
1/2+x,1/2-y,z
loop_
_atom_site_type_symbol
_atom_site_label
_atom_site_fract_x
_atom_site_fract_y
_atom_site_fract_z
Si Si1 0.655107 0.417057 0.254755
Si Si2 0.020182 0.417377 0.270318
Si Si3 0.411928 0.682122 0.404594
Si Si4 0.271942 0.578418 0.927670
Si Si5 0.723868 0.921391 0.055224
Si Si6 0.762020 0.326202 0.402331
O O1 0.639136 0.500000 0.257161
O O2 0.444704 0.387278 0.151188
O O3 0.662245 0.384599 0.325907
O O4 0.873983 0.396904 0.284961
O O5 0.064665 0.500000 0.280947
O O6 0.251389 0.380844 0.340293
O O7 0.900932 0.386833 0.171870
O O8 0.500000 0.665904 0.500000
O O9 0.603925 0.685053 0.412695
O O10 0.283782 0.755717 0.367896
O O11 0.314081 0.500000 0.912216
O O12 0.500000 0.620435 0.000000
O O13 0.194211 0.575111 0.972960
O O14 0.715789 0.000000 0.080879
O O15 0.500000 0.879263 0.000000
O O16 0.000000 0.349667 0.500000
#
# Coordination Sequence:
#
# PCOD8098500 Si02
#       6
#     8   8   8   8   8   8
#     4  10  20  35  56  86 119 150 184 230 280 322
#     4  10  20  34  57  87 118 148 186 232 276 324
#     4  11  23  41  63  83 107 144 187 229 279 339
#     4   9  15  28  49  76 110 151 187 219 267 322
#     4   9  17  28  47  76 114 151 185 224 267 323
#     4  11  23  41  63  82 108 145 186 229 278 341
#
# _framework density 19.043799
#
# number of rings (size 3 to 8) (size 9 to 14) (size 15 to 20)
#    0.000    2.000    1.667    4.000    2.333    1.333 
#    0.000    0.000    0.000    2.000    0.000    0.000 
#    0.000    0.000    0.000    0.000    0.000    0.000 
#
# Total GULP energy -297332.349740 kJ/mol
# GULP energy per Si atom -12388.847906 kJ/mol
# Density = 1.900045 g / cm^3
# Si number density = 19.043799 Si / 1000 Ang^3
#
#
#
# Elastic Constant Matrix: (Units=GPa)
#
#
# Indices 1 2 3 4 5 6 
#
# 1 145.5831 33.0594 56.6558 0.0000 8.8613 0.0000
# 2 33.0594 40.5603 44.4896 0.0000 2.2621 0.0001
# 3 56.6558 44.4896 99.5290 0.0000 -4.0900 0.0004
# 4 0.0000 0.0000 0.0000 -2.2016 -0.0002 0.8496
# 5 8.8613 2.2621 -4.0900 -0.0002 36.3827 -0.0003
# 6 0.0000 0.0001 0.0004 0.8496 -0.0003 12.7387
#
#
#
# Elastic Compliance Matrix: (Units=1/GPa)
#
#
# Indices 1 2 3 4 5 6 
#
# 1 0.009276 -0.002970 -0.004057 0.000000 -0.002531 0.000000
# 2 -0.002970 0.050428 -0.021047 0.000002 -0.004778 0.000000
# 3 -0.004057 -0.021047 0.021961 -0.000001 0.004765 0.000000
# 4 0.000000 0.000002 -0.000001 -0.442826 -0.000002 0.029534
# 5 -0.002531 -0.004778 0.004765 -0.000002 0.028935 0.000001
# 6 0.000000 0.000000 0.000000 0.029534 0.000001 0.076531
#
#
# Mechanical properties :
#
#
# Convention : Reuss Voigt Hill
#
# Bulk Modulus (GPa) = 39.18951 61.56466 50.37708
# Shear Modulus (GPa) = -26.17216 19.48181 -3.34517
#
# Velocity S-wave (km/s) = -3.71120 3.20191 -1.32679
# Velocity P-wave (km/s) = 1.50310 6.78732 4.91564
#
# Compressibility (1/GPa) = 0.02551704
#
# Stress axis : x y z
#
# Youngs Moduli (GPa) = 107.80378 19.83039 45.53604
#
# Poissons Ratio (x) = 0.05889 0.18474
# Poissons Ratio (y) = 0.32013 0.95841
# Poissons Ratio (z) = 0.43735 0.41737
#
# Static dielectric constant tensor:
#      x y z
#    x 4.258680 0.000000 -0.207150 
#    y 0.000000 3.093920 0.000000 
#    z -0.207150 0.000000 3.845210 
# 
# 
# High freq. dielectric constant tensor:
#      x y z
#    x 1.755400 0.000000 0.002970 
#    y 0.000000 1.685250 0.000000 
#    z 0.002970 0.000000 1.757610 
# 
# From -- ./inp_files/257912.got.cif
#   From: 2010.06.25/outbox.cif.g09.slc.cpg/sg12_129_cif.got.tgz:257912.got - 2010.06.28 00:19:55.
