data_PCOD8098594
_publ_section_title
;
Structure prediction by ZEFSAII (Michael W. Deem and Ramdas Pophale) SiO2 
 PCOD8098594
Probable space group: C 2/M
;
_chemical_formula_sum "Si O2"
_cell_formula_units_Z 64
_cell_length_a 25.308215
_cell_length_b 9.088250
_cell_length_c 14.732151
_cell_angle_alpha 90.000000
_cell_angle_beta 81.731984
_cell_angle_gamma 90.000000
_cell_volume 3353.284161
_symmetry_space_group_name_H-M "C 2/M"
_symmetry_group_IT_number 12
_symmetry_cell_setting 'monoclinic'
loop_
_space_group_symop_operation_xyz
x,y,z
-x,y,-z
-x,-y,-z
x,-y,z
1/2+x,1/2+y,z
1/2-x,1/2+y,-z
1/2-x,1/2-y,-z
1/2+x,1/2-y,z
loop_
_atom_site_type_symbol
_atom_site_label
_atom_site_fract_x
_atom_site_fract_y
_atom_site_fract_z
Si Si1 0.958504 0.825183 0.782463
Si Si2 0.227282 0.332221 0.590972
Si Si3 0.930669 0.828533 0.158818
Si Si4 0.847579 0.669579 0.071427
Si Si5 0.754040 0.174828 0.786433
Si Si6 0.498015 0.167601 0.398981
Si Si7 0.610988 0.836646 0.668129
Si Si8 0.149977 0.671994 0.136604
O O1 0.967950 0.767883 0.677814
O O2 0.906542 0.749751 0.835294
O O3 0.008241 0.779474 0.835654
O O4 0.951505 0.000000 0.780733
O O5 0.244225 0.500000 0.576620
O O6 0.250000 0.250000 0.500000
O O7 0.248168 0.275059 0.683327
O O8 0.164240 0.307486 0.599289
O O9 0.903871 0.751217 0.078420
O O10 0.894236 0.785070 0.253156
O O11 0.928019 0.000000 0.142004
O O12 0.858272 0.500000 0.088413
O O13 0.798524 0.727199 0.145351
O O14 0.832016 0.698296 0.971235
O O15 0.806042 0.256054 0.810217
O O16 0.761400 0.000000 0.794875
O O17 0.500000 0.232092 0.500000
O O18 0.436037 0.173982 0.391526
O O19 0.520009 0.000000 0.389028
O O20 0.613074 0.000000 0.713404
O O21 0.144488 0.500000 0.160956
#
# Coordination Sequence:
#
# PCOD8098594 Si02
#       8
#     8   8   8   8   8   8   8   8
#     4  10  22  39  56  81 120 157 189 236 294 346
#     4  10  21  36  56  83 114 152 192 234 288 341
#     4  10  20  34  58  87 112 145 191 237 281 336
#     4  10  21  39  62  86 115 151 193 237 291 353
#     4  10  21  40  61  82 116 156 192 238 295 349
#     4   9  18  33  57  86 112 145 193 241 285 341
#     4   9  17  34  55  75 109 150 184 230 287 338
#     4  11  24  39  59  87 116 153 197 242 289 346
#
# _framework density 19.085767000000001
#
# number of rings (size 3 to 8) (size 9 to 14) (size 15 to 20)
#    0.000    2.125    1.250    1.500    0.000    5.750 
#    0.000    3.750    0.000    0.000    0.000    0.000 
#    0.000    0.000    0.000    0.000    0.000    0.000 
#
# Total GULP energy -396765.811602 kJ/mol
# GULP energy per Si atom -12398.931613 kJ/mol
# Density = 1.904233 g / cm^3
# Si number density = 19.085767 Si / 1000 Ang^3
#
#
#
# Elastic Constant Matrix: (Units=GPa)
#
#
# Indices 1 2 3 4 5 6 
#
# 1 115.4694 50.3581 56.1295 0.0000 -3.5549 0.0000
# 2 50.3581 66.6352 40.8497 0.0000 -0.6720 0.0000
# 3 56.1295 40.8497 116.0804 0.0000 -0.5529 0.0000
# 4 0.0000 0.0000 0.0000 29.1620 0.0000 2.8601
# 5 -3.5549 -0.6720 -0.5529 0.0000 24.8221 0.0000
# 6 0.0000 0.0000 0.0000 2.8601 0.0000 31.7869
#
#
#
# Elastic Compliance Matrix: (Units=1/GPa)
#
#
# Indices 1 2 3 4 5 6 
#
# 1 0.014278 -0.008346 -0.003959 0.000000 0.001731 0.000000
# 2 -0.008346 0.024017 -0.004419 0.000000 -0.000643 0.000000
# 3 -0.003959 -0.004419 0.012082 0.000000 -0.000417 0.000000
# 4 0.000000 0.000000 0.000000 0.034596 0.000000 -0.003113
# 5 0.001731 -0.000643 -0.000417 0.000000 0.040508 0.000000
# 6 0.000000 0.000000 0.000000 -0.003113 0.000000 0.031740
#
#
# Mechanical properties :
#
#
# Convention : Reuss Voigt Hill
#
# Bulk Modulus (GPa) = 59.06945 65.87330 62.47137
# Shear Modulus (GPa) = 25.46980 27.21071 26.34026
#
# Velocity S-wave (km/s) = 3.65703 3.77995 3.71900
# Velocity P-wave (km/s) = 6.98917 7.32393 7.15851
#
# Compressibility (1/GPa) = 0.01692922
#
# Stress axis : x y z
#
# Youngs Moduli (GPa) = 70.03993 41.63729 82.76736
#
# Poissons Ratio (x) = 0.34749 0.32764
# Poissons Ratio (y) = 0.58454 0.36578
# Poissons Ratio (z) = 0.27726 0.18401
#
# Static dielectric constant tensor:
#      x y z
#    x 3.681820 0.000000 0.133980 
#    y 0.000000 3.485950 0.000000 
#    z 0.133980 0.000000 3.489810 
# 
# 
# High freq. dielectric constant tensor:
#      x y z
#    x 1.748410 0.000000 0.008510 
#    y 0.000000 1.736440 0.000000 
#    z 0.008510 0.000000 1.741460 
# 
# From -- ./inp_files/238813.got.cif
#   From: 2010.06.25/outbox.cif.g09.slc.cpg/sg12_120_cif.got.tgz:238813.got - 2010.06.28 00:19:55.
