data_PCOD8098650
_publ_section_title
;
Structure prediction by ZEFSAII (Michael W. Deem and Ramdas Pophale) SiO2 
 PCOD8098650
Probable space group: C 2/M
;
_chemical_formula_sum "Si O2"
_cell_formula_units_Z 36
_cell_length_a 8.851780
_cell_length_b 14.681975
_cell_length_c 21.268287
_cell_angle_alpha 90.000000
_cell_angle_beta 144.728190
_cell_angle_gamma 90.000000
_cell_volume 1596.123560
_symmetry_space_group_name_H-M "C 2/M"
_symmetry_group_IT_number 12
_symmetry_cell_setting 'monoclinic'
loop_
_space_group_symop_operation_xyz
x,y,z
-x,y,-z
-x,-y,-z
x,-y,z
1/2+x,1/2+y,z
1/2-x,1/2+y,-z
1/2-x,1/2-y,-z
1/2+x,1/2-y,z
loop_
_atom_site_type_symbol
_atom_site_label
_atom_site_fract_x
_atom_site_fract_y
_atom_site_fract_z
Si Si1 0.093421 0.500000 0.828780
Si Si2 0.662249 0.500000 0.960531
Si Si3 0.503836 0.815693 0.262755
Si Si4 0.821912 0.000000 0.666586
Si Si5 0.000000 0.848819 0.500000
Si Si6 0.019129 0.849987 0.186641
Si Si7 0.286001 0.500000 0.516262
O O1 0.382022 0.500000 0.898150
O O2 0.938753 0.412076 0.751703
O O3 0.107909 0.500000 0.909831
O O4 0.683382 0.406753 0.926430
O O5 0.779024 0.787075 0.389902
O O6 0.282063 0.826346 0.239101
O O7 0.406481 0.744436 0.176347
O O8 0.928491 0.909870 0.734890
O O9 0.933818 0.000000 0.633583
O O10 0.514423 0.000000 0.568751
O O11 0.849044 0.909828 0.499087
#
# Coordination Sequence:
#
# PCOD8098650 Si02
#       7
#     4   4   8   4   4   8   4
#     4   9  18  39  64  86 110 158 194 245 294 357
#     4   8  18  39  66  83 114 152 197 239 307 345
#     4  11  23  38  59  87 124 154 202 236 292 344
#     4  10  20  39  56  79 115 159 196 245 281 346
#     4  11  22  36  56  89 120 164 190 243 278 353
#     4  10  22  39  58  89 118 154 196 247 286 355
#     4  10  20  34  60  80 111 159 208 232 286 333
#
# _framework density 22.554642999999999
#
# number of rings (size 3 to 8) (size 9 to 14) (size 15 to 20)
#    0.000    2.000    2.222    2.000    3.111    3.556 
#    0.000    0.000    0.000    1.333    0.000    0.000 
#    0.000    0.000    0.000    0.000    0.000    0.000 
#
# Total GULP energy -223142.306299 kJ/mol
# GULP energy per Si atom -12396.794794 kJ/mol
# Density = 2.250331 g / cm^3
# Si number density = 22.554643 Si / 1000 Ang^3
#
#
#
# Elastic Constant Matrix: (Units=GPa)
#
#
# Indices 1 2 3 4 5 6 
#
# 1 74.6325 28.6561 19.9815 0.0003 -32.1102 0.0001
# 2 28.6561 120.2183 16.3296 0.0002 -24.3628 0.0001
# 3 19.9815 16.3296 84.7486 0.0004 -31.0277 0.0001
# 4 0.0003 0.0002 0.0004 27.4041 0.0003 -24.0302
# 5 -32.1102 -24.3628 -31.0277 0.0003 34.8416 0.0001
# 6 0.0001 0.0001 0.0001 -24.0302 0.0001 38.2603
#
#
#
# Elastic Compliance Matrix: (Units=1/GPa)
#
#
# Indices 1 2 3 4 5 6 
#
# 1 0.023011 -0.001209 0.003357 -0.000001 0.023351 -0.000001
# 2 -0.001209 0.009803 0.000739 0.000000 0.006398 0.000000
# 3 0.003357 0.000739 0.018083 -0.000001 0.019714 -0.000001
# 4 -0.000001 0.000000 -0.000001 0.081225 -0.000004 0.051015
# 5 0.023351 0.006398 0.019714 -0.000004 0.072252 -0.000002
# 6 -0.000001 0.000000 -0.000001 0.051015 -0.000002 0.058178
#
#
# Mechanical properties :
#
#
# Convention : Reuss Voigt Hill
#
# Bulk Modulus (GPa) = 17.64589 45.50376 31.57483
# Shear Modulus (GPa) = 18.13765 34.41001 26.27383
#
# Velocity S-wave (km/s) = 2.83886 3.91017 3.41676
# Velocity P-wave (km/s) = 4.31116 6.37217 5.44016
#
# Compressibility (1/GPa) = 0.05667041
#
# Stress axis : x y z
#
# Youngs Moduli (GPa) = 43.45720 102.01339 55.29918
#
# Poissons Ratio (x) = 0.12332 -0.18562
# Poissons Ratio (y) = 0.05253 -0.04085
# Poissons Ratio (z) = -0.14587 -0.07536
#
# Static dielectric constant tensor:
#      x y z
#    x 4.084870 0.000000 -0.499430 
#    y 0.000000 4.152400 0.000000 
#    z -0.499430 0.000000 4.142890 
# 
# 
# High freq. dielectric constant tensor:
#      x y z
#    x 1.891360 0.000000 -0.022540 
#    y 0.000000 1.878920 0.000000 
#    z -0.022540 0.000000 1.880340 
# 
# From -- ./inp_files/300122.got.cif
#   From: 2010.06.25/outbox.cif.g09.slc.cpg/sg12_151_cif.got.tgz:300122.got - 2010.06.28 00:19:55.
