data_PCOD8098975
_publ_section_title
;
Structure prediction by ZEFSAII (Michael W. Deem and Ramdas Pophale) SiO2 
 PCOD8098975
Probable space group: C 2/M
;
_chemical_formula_sum "Si O2"
_cell_formula_units_Z 56
_cell_length_a 22.480671
_cell_length_b 9.082712
_cell_length_c 15.784003
_cell_angle_alpha 90.000000
_cell_angle_beta 118.734935
_cell_angle_gamma 90.000000
_cell_volume 2825.978519
_symmetry_space_group_name_H-M "C 2/M"
_symmetry_group_IT_number 12
_symmetry_cell_setting 'monoclinic'
loop_
_space_group_symop_operation_xyz
x,y,z
-x,y,-z
-x,-y,-z
x,-y,z
1/2+x,1/2+y,z
1/2-x,1/2+y,-z
1/2-x,1/2-y,-z
1/2+x,1/2-y,z
loop_
_atom_site_type_symbol
_atom_site_label
_atom_site_fract_x
_atom_site_fract_y
_atom_site_fract_z
Si Si1 0.825453 0.326117 0.214241
Si Si2 0.812923 0.327482 0.873042
Si Si3 0.827185 0.330349 0.408266
Si Si4 0.192194 0.671263 0.325367
Si Si5 0.441874 0.331128 0.023986
Si Si6 0.450363 0.669331 0.223217
Si Si7 0.421780 0.828128 0.624221
O O1 0.823087 0.500000 0.198076
O O2 0.753210 0.257867 0.139391
O O3 0.844084 0.283586 0.323815
O O4 0.880986 0.255763 0.191428
O O5 0.802398 0.500000 0.881581
O O6 0.826322 0.290881 0.783889
O O7 0.876568 0.271318 0.969726
O O8 0.806898 0.500000 0.398779
O O9 0.762533 0.245196 0.400760
O O10 0.892563 0.296944 0.510578
O O11 0.202413 0.500000 0.347931
O O12 0.131661 0.730321 0.342734
O O13 0.421942 0.500000 0.990293
O O14 0.470004 0.313945 0.138210
O O15 0.500000 0.275454 0.000000
O O16 0.440413 0.500000 0.242213
O O17 0.509375 0.737602 0.320877
O O18 0.438020 0.000000 0.648960
#
# Coordination Sequence:
#
# PCOD8098975 Si02
#       7
#     8   8   8   8   8   8   8
#     4  10  21  39  59  79 108 146 185 223 267 317
#     4  10  20  35  58  86 113 142 179 223 270 320
#     4   9  19  34  55  81 108 144 186 223 262 318
#     4   9  18  32  53  83 115 143 175 221 272 321
#     4  10  22  40  60  83 111 142 177 218 268 327
#     4  11  24  39  56  80 108 140 182 228 270 318
#     4  10  20  35  54  79 112 147 182 221 270 322
#
# _framework density 19.816144999999999
#
# number of rings (size 3 to 8) (size 9 to 14) (size 15 to 20)
#    0.000    2.143    0.000    2.571    0.000    4.857 
#    0.000    2.857    0.000    0.000    0.000    0.000 
#    0.000    0.000    0.000    0.000    0.000    0.000 
#
# Total GULP energy -347340.423989 kJ/mol
# GULP energy per Si atom -12405.015142 kJ/mol
# Density = 1.977104 g / cm^3
# Si number density = 19.816145 Si / 1000 Ang^3
#
#
#
# Elastic Constant Matrix: (Units=GPa)
#
#
# Indices 1 2 3 4 5 6 
#
# 1 109.6800 45.6375 28.7346 0.0000 11.2450 0.0000
# 2 45.6375 83.4216 33.4951 0.0000 12.9623 0.0000
# 3 28.7346 33.4951 73.1416 0.0000 18.0060 0.0000
# 4 0.0000 0.0000 0.0000 28.0163 0.0000 5.6043
# 5 11.2450 12.9623 18.0060 0.0000 29.4761 0.0000
# 6 0.0000 0.0000 0.0000 5.6043 0.0000 35.6678
#
#
#
# Elastic Compliance Matrix: (Units=1/GPa)
#
#
# Indices 1 2 3 4 5 6 
#
# 1 0.012085 -0.005700 -0.001906 0.000000 -0.000939 0.000000
# 2 -0.005700 0.017571 -0.005226 0.000000 -0.002360 0.000000
# 3 -0.001906 -0.005226 0.018914 0.000000 -0.008528 0.000000
# 4 0.000000 0.000000 0.000000 0.036852 0.000000 -0.005790
# 5 -0.000939 -0.002360 -0.008528 0.000000 0.040532 0.000000
# 6 0.000000 0.000000 0.000000 -0.005790 0.000000 0.028946
#
#
# Mechanical properties :
#
#
# Convention : Reuss Voigt Hill
#
# Bulk Modulus (GPa) = 43.65925 53.55307 48.60616
# Shear Modulus (GPa) = 26.56767 29.19043 27.87905
#
# Velocity S-wave (km/s) = 3.66554 3.84221 3.75492
# Velocity P-wave (km/s) = 6.32415 6.83865 6.58643
#
# Compressibility (1/GPa) = 0.02290465
#
# Stress axis : x y z
#
# Youngs Moduli (GPa) = 82.74822 56.91300 52.87131
#
# Poissons Ratio (x) = 0.32440 0.10078
# Poissons Ratio (y) = 0.47166 0.27632
# Poissons Ratio (z) = 0.15773 0.29744
#
# Static dielectric constant tensor:
#      x y z
#    x 3.579060 0.000000 -0.081340 
#    y 0.000000 3.560520 0.000000 
#    z -0.081340 0.000000 3.583860 
# 
# 
# High freq. dielectric constant tensor:
#      x y z
#    x 1.771610 0.000000 -0.000110 
#    y 0.000000 1.772040 0.000000 
#    z -0.000110 0.000000 1.773820 
# 
# From -- ./inp_files/239045.got.cif
#   From: 2010.06.25/outbox.cif.g09.slc.cpg/sg12_120_cif.got.tgz:239045.got - 2010.06.28 00:19:55.
