data_PCOD8098591
_publ_section_title
;
Structure prediction by ZEFSAII (Michael W. Deem and Ramdas Pophale) SiO2 
 PCOD8098591
Probable space group: C 2/M
;
_chemical_formula_sum "Si O2"
_cell_formula_units_Z 56
_cell_length_a 19.590293
_cell_length_b 8.710530
_cell_length_c 16.749978
_cell_angle_alpha 90.000000
_cell_angle_beta 106.448787
_cell_angle_gamma 90.000000
_cell_volume 2741.268120
_symmetry_space_group_name_H-M "C 2/M"
_symmetry_group_IT_number 12
_symmetry_cell_setting 'monoclinic'
loop_
_space_group_symop_operation_xyz
x,y,z
-x,y,-z
-x,-y,-z
x,-y,z
1/2+x,1/2+y,z
1/2-x,1/2+y,-z
1/2-x,1/2-y,-z
1/2+x,1/2-y,z
loop_
_atom_site_type_symbol
_atom_site_label
_atom_site_fract_x
_atom_site_fract_y
_atom_site_fract_z
Si Si1 0.196571 0.179356 0.802420
Si Si2 0.326389 0.818856 0.504397
Si Si3 0.397895 0.180239 0.363651
Si Si4 0.842237 0.817623 0.876008
Si Si5 0.622578 0.679985 0.938181
Si Si6 0.522807 0.682252 0.179380
Si Si7 0.040508 0.182000 0.365367
O O1 0.139778 0.265338 0.729292
O O2 0.275128 0.240203 0.810816
O O3 0.180293 0.217334 0.889478
O O4 0.189966 0.000000 0.781672
O O5 0.250000 0.750000 0.500000
O O6 0.348420 0.772456 0.421765
O O7 0.384878 0.752225 0.583382
O O8 0.322535 0.000000 0.513740
O O9 0.475054 0.259857 0.398174
O O10 0.410791 0.000000 0.365228
O O11 0.909312 0.761916 0.847436
O O12 0.832131 0.000000 0.870961
O O13 0.851429 0.751511 0.968874
O O14 0.611931 0.500000 0.946706
O O15 0.546915 0.751992 0.886734
O O16 0.517824 0.500000 0.178764
O O17 0.527104 0.741989 0.271147
O O18 0.045485 0.000000 0.372565
#
# Coordination Sequence:
#
# PCOD8098591 Si02
#       7
#     8   8   8   8   8   8   8
#     4  11  22  37  58  86 122 158 200 253 303 358
#     4  11  26  45  66  94 126 157 197 247 301 363
#     4  11  24  43  65  89 120 160 205 249 297 361
#     4  10  20  34  58  86 118 160 203 249 301 355
#     4   9  17  34  58  85 115 156 206 250 295 352
#     4   9  18  34  58  88 119 153 199 246 290 348
#     4  11  22  40  66  94 126 161 200 247 299 357
#
# _framework density 20.428502000000002
#
# number of rings (size 3 to 8) (size 9 to 14) (size 15 to 20)
#    0.000    1.714    1.429    3.000    2.000    5.714 
#    0.000    1.429    0.000    0.857    0.000    0.000 
#    0.000    0.000    0.000    0.000    0.000    0.000 
#
# Total GULP energy -347278.586942 kJ/mol
# GULP energy per Si atom -12402.806676 kJ/mol
# Density = 2.038201 g / cm^3
# Si number density = 20.428502 Si / 1000 Ang^3
#
#
#
# Elastic Constant Matrix: (Units=GPa)
#
#
# Indices 1 2 3 4 5 6 
#
# 1 146.2458 34.0962 44.2242 0.0000 13.6507 0.0000
# 2 34.0962 39.4154 30.4135 0.0000 -1.9244 0.0000
# 3 44.2242 30.4135 89.7198 0.0000 6.1256 0.0000
# 4 0.0000 0.0000 0.0000 28.2810 0.0000 4.3191
# 5 13.6507 -1.9244 6.1256 0.0000 40.2004 0.0000
# 6 0.0000 0.0000 0.0000 4.3191 0.0000 31.3755
#
#
#
# Elastic Compliance Matrix: (Units=1/GPa)
#
#
# Indices 1 2 3 4 5 6 
#
# 1 0.009309 -0.006543 -0.002156 0.000000 -0.003146 0.000000
# 2 -0.006543 0.039438 -0.010534 0.000000 0.005715 0.000000
# 3 -0.002156 -0.010534 0.015929 0.000000 -0.002200 0.000000
# 4 0.000000 0.000000 0.000000 0.036119 0.000000 -0.004972
# 5 -0.003146 0.005715 -0.002200 0.000000 0.026552 0.000000
# 6 0.000000 0.000000 0.000000 -0.004972 0.000000 0.032556
#
#
# Mechanical properties :
#
#
# Convention : Reuss Voigt Hill
#
# Bulk Modulus (GPa) = 38.15179 54.76098 46.45639
# Shear Modulus (GPa) = 24.14236 31.08118 27.61177
#
# Velocity S-wave (km/s) = 3.44146 3.90482 3.68044
# Velocity P-wave (km/s) = 5.87434 6.86983 6.39149
#
# Compressibility (1/GPa) = 0.02621109
#
# Stress axis : x y z
#
# Youngs Moduli (GPa) = 107.42654 25.35652 62.77691
#
# Poissons Ratio (x) = 0.16590 0.13533
# Poissons Ratio (y) = 0.70285 0.66129
# Poissons Ratio (z) = 0.23159 0.26710
#
# Static dielectric constant tensor:
#      x y z
#    x 3.959470 0.000000 0.113830 
#    y 0.000000 3.392260 0.000000 
#    z 0.113830 0.000000 4.058230 
# 
# 
# High freq. dielectric constant tensor:
#      x y z
#    x 1.814620 0.000000 0.002950 
#    y 0.000000 1.771070 0.000000 
#    z 0.002950 0.000000 1.809590 
# 
# From -- ./inp_files/275667.got.cif
#   From: 2010.06.25/outbox.cif.g09.slc.cpg/sg12_138_cif.got.tgz:275667.got - 2010.06.28 00:19:55.
