data_PCOD8098493
_publ_section_title
;
Structure prediction by ZEFSAII (Michael W. Deem and Ramdas Pophale) SiO2 
 PCOD8098493
Probable space group: C 2/M
;
_chemical_formula_sum "Si O2"
_cell_formula_units_Z 56
_cell_length_a 26.717230
_cell_length_b 8.867327
_cell_length_c 11.814020
_cell_angle_alpha 90.000000
_cell_angle_beta 77.087212
_cell_angle_gamma 90.000000
_cell_volume 2728.084857
_symmetry_space_group_name_H-M "C 2/M"
_symmetry_group_IT_number 12
_symmetry_cell_setting 'monoclinic'
loop_
_space_group_symop_operation_xyz
x,y,z
-x,y,-z
-x,-y,-z
x,-y,z
1/2+x,1/2+y,z
1/2-x,1/2+y,-z
1/2-x,1/2-y,-z
1/2+x,1/2-y,z
loop_
_atom_site_type_symbol
_atom_site_label
_atom_site_fract_x
_atom_site_fract_y
_atom_site_fract_z
Si Si1 0.861422 0.821860 0.439432
Si Si2 0.751223 0.674963 0.121430
Si Si3 0.521661 0.322060 0.607296
Si Si4 0.442975 0.177185 0.020382
Si Si5 0.932647 0.324418 0.773742
Si Si6 0.851016 0.674637 0.215536
Si Si7 0.164873 0.320558 0.317177
O O1 0.836132 0.769450 0.334486
O O2 0.831929 0.742904 0.557528
O O3 0.920271 0.766077 0.408129
O O4 0.856091 0.000000 0.456710
O O5 0.736232 0.500000 0.118474
O O6 0.807763 0.695847 0.143096
O O7 0.712258 0.757610 0.223868
O O8 0.750000 0.750000 0.000000
O O9 0.500000 0.259473 0.500000
O O10 0.518196 0.500000 0.614934
O O11 0.486909 0.254896 0.723853
O O12 0.404124 0.240576 0.135347
O O13 0.447661 0.000000 0.037631
O O14 0.500000 0.250524 0.000000
O O15 0.418084 0.211564 0.910634
O O16 0.940822 0.500000 0.749180
O O17 0.887598 0.262384 0.715626
O O18 0.856476 0.500000 0.247245
O O19 0.167692 0.500000 0.316906
#
# Coordination Sequence:
#
# PCOD8098493 Si02
#       7
#     8   8   8   8   8   8   8
#     4  11  23  39  60  88 123 161 203 248 304 366
#     4  11  24  43  67  92 121 158 200 249 304 360
#     4  10  20  35  54  81 123 164 196 238 296 359
#     4   9  17  32  56  85 116 148 186 238 293 345
#     4  10  20  34  57  87 116 153 203 251 296 353
#     4  10  22  41  63  87 120 159 200 248 301 356
#     4  11  23  39  61  89 120 156 205 256 302 359
#
# _framework density 20.527221000000001
#
# number of rings (size 3 to 8) (size 9 to 14) (size 15 to 20)
#    0.000    1.714    1.429    3.000    0.000    7.143 
#    0.000    0.714    0.000    2.571    0.000    0.000 
#    0.000    0.000    0.000    0.000    0.000    0.000 
#
# Total GULP energy -347281.860994 kJ/mol
# GULP energy per Si atom -12402.923607 kJ/mol
# Density = 2.048050 g / cm^3
# Si number density = 20.527221 Si / 1000 Ang^3
#
#
#
# Elastic Constant Matrix: (Units=GPa)
#
#
# Indices 1 2 3 4 5 6 
#
# 1 73.6336 35.2529 49.7195 0.0000 -4.7824 0.0000
# 2 35.2529 67.3889 47.9937 0.0000 -2.6869 0.0000
# 3 49.7195 47.9937 159.6294 0.0000 -8.6640 0.0000
# 4 0.0000 0.0000 0.0000 31.3890 0.0000 -5.6918
# 5 -4.7824 -2.6869 -8.6640 0.0000 40.4067 0.0000
# 6 0.0000 0.0000 0.0000 -5.6918 0.0000 25.3910
#
#
#
# Elastic Compliance Matrix: (Units=1/GPa)
#
#
# Indices 1 2 3 4 5 6 
#
# 1 0.019898 -0.007627 -0.003849 0.000000 0.001023 0.000000
# 2 -0.007627 0.021806 -0.004200 0.000000 -0.000353 0.000000
# 3 -0.003849 -0.004200 0.008788 0.000000 0.001150 0.000000
# 4 0.000000 0.000000 0.000000 0.033208 0.000000 0.007444
# 5 0.001023 -0.000353 0.001150 0.000000 0.025092 0.000000
# 6 0.000000 0.000000 0.000000 0.007444 0.000000 0.041053
#
#
# Mechanical properties :
#
#
# Convention : Reuss Voigt Hill
#
# Bulk Modulus (GPa) = 52.24452 62.95379 57.59916
# Shear Modulus (GPa) = 26.65576 30.61641 28.63608
#
# Velocity S-wave (km/s) = 3.60746 3.86619 3.73906
# Velocity P-wave (km/s) = 6.54662 7.11793 6.83824
#
# Compressibility (1/GPa) = 0.01914076
#
# Stress axis : x y z
#
# Youngs Moduli (GPa) = 50.25743 45.85874 113.78667
#
# Poissons Ratio (x) = 0.34977 0.43795
# Poissons Ratio (y) = 0.38332 0.47787
# Poissons Ratio (z) = 0.19343 0.19259
#
# Static dielectric constant tensor:
#      x y z
#    x 3.850540 0.000000 0.019160 
#    y 0.000000 3.497520 0.000000 
#    z 0.019160 0.000000 3.653750 
# 
# 
# High freq. dielectric constant tensor:
#      x y z
#    x 1.804850 0.000000 0.000990 
#    y 0.000000 1.782010 0.000000 
#    z 0.000990 0.000000 1.818550 
# 
# From -- ./inp_files/180689.got.cif
#   From: 2010.06.25/outbox.cif.g09.slc.cpg/sg12_91_cif.got.tgz:180689.got - 2010.06.28 00:19:55.
