data_PCOD8098250
_publ_section_title
;
Structure prediction by ZEFSAII (Michael W. Deem and Ramdas Pophale) SiO2 
 PCOD8098250
Probable space group: C 2/M
;
_chemical_formula_sum "Si O2"
_cell_formula_units_Z 64
_cell_length_a 32.216649
_cell_length_b 8.967779
_cell_length_c 10.925768
_cell_angle_alpha 90.000000
_cell_angle_beta 91.259504
_cell_angle_gamma 90.000000
_cell_volume 3155.820525
_symmetry_space_group_name_H-M "C 2/M"
_symmetry_group_IT_number 12
_symmetry_cell_setting 'monoclinic'
loop_
_space_group_symop_operation_xyz
x,y,z
-x,y,-z
-x,-y,-z
x,-y,z
1/2+x,1/2+y,z
1/2-x,1/2+y,-z
1/2-x,1/2-y,-z
1/2+x,1/2-y,z
loop_
_atom_site_type_symbol
_atom_site_label
_atom_site_fract_x
_atom_site_fract_y
_atom_site_fract_z
Si Si1 0.024155 0.323524 0.622655
Si Si2 0.889150 0.169067 0.364274
Si Si3 0.343948 0.329822 0.606978
Si Si4 0.891141 0.671770 0.813558
Si Si5 0.686229 0.325759 0.798587
Si Si6 0.018088 0.322438 0.129282
Si Si7 0.690855 0.173472 0.052932
Si Si8 0.737463 0.324138 0.270655
O O1 0.021461 0.500000 0.621079
O O2 0.072240 0.278267 0.620600
O O3 0.000000 0.260958 0.500000
O O4 0.005165 0.261722 0.749571
O O5 0.855147 0.193933 0.467515
O O6 0.861619 0.202775 0.242603
O O7 0.906127 0.000000 0.366285
O O8 0.346340 0.500000 0.649592
O O9 0.378711 0.244618 0.685380
O O10 0.296997 0.273289 0.631076
O O11 0.897147 0.500000 0.783445
O O12 0.934820 0.737144 0.862663
O O13 0.857034 0.701011 0.914770
O O14 0.693706 0.500000 0.823459
O O15 0.719757 0.265865 0.700453
O O16 0.696084 0.225979 0.915886
O O17 0.015010 0.500000 0.126792
O O18 0.000000 0.257786 0.000000
O O19 0.720477 0.275029 0.136892
O O20 0.703118 0.000000 0.067788
O O21 0.746120 0.500000 0.273937
#
# Coordination Sequence:
#
# PCOD8098250 Si02
#       8
#     8   8   8   8   8   8   8   8
#     4  10  21  37  60  87 113 146 192 240 282 335
#     4  10  23  40  57  80 112 150 185 225 279 335
#     4   9  19  37  58  79 106 142 182 224 275 331
#     4   9  18  33  56  83 107 138 182 227 273 326
#     4  11  23  37  53  77 113 149 184 228 277 327
#     4   9  18  32  53  81 114 146 178 227 287 335
#     4  10  20  34  56  83 111 145 187 228 273 331
#     4  10  20  36  58  82 108 142 185 229 278 331
#
# _framework density 20.279986999999998
#
# number of rings (size 3 to 8) (size 9 to 14) (size 15 to 20)
#    0.000    2.250    0.000    2.250    1.750    4.250 
#    0.000    0.625    0.000    0.750    0.000    0.000 
#    0.000    0.000    0.000    0.000    0.000    0.000 
#
# Total GULP energy -396708.838395 kJ/mol
# GULP energy per Si atom -12397.151200 kJ/mol
# Density = 2.023383 g / cm^3
# Si number density = 20.279987 Si / 1000 Ang^3
#
#
#
# Elastic Constant Matrix: (Units=GPa)
#
#
# Indices 1 2 3 4 5 6 
#
# 1 112.0715 20.2789 27.2374 0.0000 1.0790 0.0000
# 2 20.2789 33.6601 14.4917 0.0000 -0.9840 0.0000
# 3 27.2374 14.4917 77.9002 0.0000 -5.6885 0.0000
# 4 0.0000 0.0000 0.0000 19.1317 0.0000 -3.0252
# 5 1.0790 -0.9840 -5.6885 0.0000 19.5480 0.0000
# 6 0.0000 0.0000 0.0000 -3.0252 0.0000 25.9522
#
#
#
# Elastic Compliance Matrix: (Units=1/GPa)
#
#
# Indices 1 2 3 4 5 6 
#
# 1 0.010571 -0.005189 -0.002853 0.000000 -0.001675 0.000000
# 2 -0.005189 0.034843 -0.004616 0.000000 0.000697 0.000000
# 3 -0.002853 -0.004616 0.015007 0.000000 0.004292 0.000000
# 4 0.000000 0.000000 0.000000 0.053251 0.000000 0.006207
# 5 -0.001675 0.000697 0.004292 0.000000 0.052533 0.000000
# 6 0.000000 0.000000 0.000000 0.006207 0.000000 0.039256
#
#
# Mechanical properties :
#
#
# Convention : Reuss Voigt Hill
#
# Bulk Modulus (GPa) = 28.48754 38.62754 33.55754
# Shear Modulus (GPa) = 20.62029 23.70132 22.16080
#
# Velocity S-wave (km/s) = 3.19216 3.42234 3.30925
# Velocity P-wave (km/s) = 5.25967 5.89110 5.58431
#
# Compressibility (1/GPa) = 0.03510307
#
# Stress axis : x y z
#
# Youngs Moduli (GPa) = 94.59448 28.70010 66.63672
#
# Poissons Ratio (x) = 0.14894 0.19013
# Poissons Ratio (y) = 0.49090 0.30763
# Poissons Ratio (z) = 0.26989 0.13249
#
# Static dielectric constant tensor:
#      x y z
#    x 3.924610 0.000000 -0.089370 
#    y 0.000000 3.439380 0.000000 
#    z -0.089370 0.000000 3.711720 
# 
# 
# High freq. dielectric constant tensor:
#      x y z
#    x 1.806370 0.000000 -0.005780 
#    y 0.000000 1.770280 0.000000 
#    z -0.005780 0.000000 1.788540 
# 
# From -- ./inp_files/187561.got.cif
#   From: 2010.06.25/outbox.cif.g09.slc.cpg/sg12_94_cif.got.tgz:187561.got - 2010.06.28 00:19:55.
