data_PCOD8098202
_publ_section_title
;
Structure prediction by ZEFSAII (Michael W. Deem and Ramdas Pophale) SiO2 
 PCOD8098202
Probable space group: C 2/M
;
_chemical_formula_sum "Si O2"
_cell_formula_units_Z 48
_cell_length_a 13.270417
_cell_length_b 13.669748
_cell_length_c 14.978250
_cell_angle_alpha 90.000000
_cell_angle_beta 119.666866
_cell_angle_gamma 90.000000
_cell_volume 2360.939691
_symmetry_space_group_name_H-M "C 2/M"
_symmetry_group_IT_number 12
_symmetry_cell_setting 'monoclinic'
loop_
_space_group_symop_operation_xyz
x,y,z
-x,y,-z
-x,-y,-z
x,-y,z
1/2+x,1/2+y,z
1/2-x,1/2+y,-z
1/2-x,1/2-y,-z
1/2+x,1/2-y,z
loop_
_atom_site_type_symbol
_atom_site_label
_atom_site_fract_x
_atom_site_fract_y
_atom_site_fract_z
Si Si1 0.929994 0.611528 0.780134
Si Si2 0.167417 0.613441 0.801846
Si Si3 0.622385 0.782733 0.417654
Si Si4 0.402511 0.709682 0.883540
Si Si5 0.368721 0.890853 0.406776
Si Si6 0.905563 0.891608 0.703049
O O1 0.897457 0.500000 0.788601
O O2 0.070130 0.624973 0.834986
O O3 0.868969 0.640051 0.660068
O O4 0.885586 0.679208 0.841366
O O5 0.203732 0.500000 0.803906
O O6 0.281976 0.674883 0.875581
O O7 0.110386 0.653667 0.683633
O O8 0.750000 0.750000 0.500000
O O9 0.566974 0.832690 0.482545
O O10 0.549471 0.687046 0.351020
O O11 0.442103 0.641266 0.818469
O O12 0.500000 0.702968 0.000000
O O13 0.232282 0.890183 0.363552
O O14 0.417519 0.000000 0.432041
O O15 0.955956 0.000000 0.705370
#
# Coordination Sequence:
#
# PCOD8098202 Si02
#       6
#     8   8   8   8   8   8
#     4  10  21  36  54  78 109 143 178 220 270 319
#     4   9  19  35  54  80 110 137 176 227 269 314
#     4   9  16  27  46  74 103 136 172 211 256 310
#     4  10  20  34  56  79 103 138 181 226 275 324
#     4   8  13  24  43  67  96 126 160 204 250 297
#     4   8  15  27  43  68  99 128 164 212 257 300
#
# _framework density 20.330888000000002
#
# number of rings (size 3 to 8) (size 9 to 14) (size 15 to 20)
#    0.000    3.000    0.000    3.000    0.000    3.667 
#    0.000    2.500    0.000    5.000    0.000    5.833 
#    0.000    0.000    0.000    0.000    0.000    0.000 
#
# Total GULP energy -297445.019651 kJ/mol
# GULP energy per Si atom -12393.542485 kJ/mol
# Density = 2.028461 g / cm^3
# Si number density = 20.330888 Si / 1000 Ang^3
#
#
#
# Elastic Constant Matrix: (Units=GPa)
#
#
# Indices 1 2 3 4 5 6 
#
# 1 39.0662 15.1769 13.1861 0.0000 5.6892 0.0000
# 2 15.1769 141.1240 31.9034 0.0000 -4.6125 0.0000
# 3 13.1861 31.9034 108.4462 0.0000 17.7630 0.0000
# 4 0.0000 0.0000 0.0000 14.3279 0.0000 -4.1681
# 5 5.6892 -4.6125 17.7630 0.0000 23.4641 0.0000
# 6 0.0000 0.0000 0.0000 -4.1681 0.0000 17.9884
#
#
#
# Elastic Compliance Matrix: (Units=1/GPa)
#
#
# Indices 1 2 3 4 5 6 
#
# 1 0.028146 -0.002878 -0.001559 0.000000 -0.006210 0.000000
# 2 -0.002878 0.008166 -0.002774 0.000000 0.004403 0.000000
# 3 -0.001559 -0.002774 0.011706 0.000000 -0.009029 0.000000
# 4 0.000000 0.000000 0.000000 0.074839 0.000000 0.017341
# 5 -0.006210 0.004403 -0.009029 0.000000 0.051825 0.000000
# 6 0.000000 0.000000 0.000000 0.017341 0.000000 0.059609
#
#
# Mechanical properties :
#
#
# Convention : Reuss Voigt Hill
#
# Bulk Modulus (GPa) = 29.76350 45.46325 37.61337
# Shear Modulus (GPa) = 19.23746 26.38074 22.80910
#
# Velocity S-wave (km/s) = 3.07940 3.60609 3.35310
# Velocity P-wave (km/s) = 5.22637 6.30466 5.79067
#
# Compressibility (1/GPa) = 0.03359820
#
# Stress axis : x y z
#
# Youngs Moduli (GPa) = 35.52914 122.45342 85.42967
#
# Poissons Ratio (x) = 0.35236 0.13315
# Poissons Ratio (y) = 0.10224 0.23696
# Poissons Ratio (z) = 0.05537 0.33965
#
# Static dielectric constant tensor:
#      x y z
#    x 3.607290 0.000000 -0.092610 
#    y 0.000000 4.122970 0.000000 
#    z -0.092610 0.000000 3.671690 
# 
# 
# High freq. dielectric constant tensor:
#      x y z
#    x 1.767920 0.000000 0.009990 
#    y 0.000000 1.794460 0.000000 
#    z 0.009990 0.000000 1.793050 
# 
# From -- ./inp_files/214400.got.cif
#   From: 2010.06.25/outbox.cif.g09.slc.cpg/sg12_108_cif.got.tgz:214400.got - 2010.06.28 00:19:55.
