data_PCOD8098190
_publ_section_title
;
Structure prediction by ZEFSAII (Michael W. Deem and Ramdas Pophale) SiO2 
 PCOD8098190
Probable space group: C 2/M
;
_chemical_formula_sum "Si O2"
_cell_formula_units_Z 48
_cell_length_a 22.772015
_cell_length_b 14.129627
_cell_length_c 21.056952
_cell_angle_alpha 90.000000
_cell_angle_beta 160.193348
_cell_angle_gamma 90.000000
_cell_volume 2295.786551
_symmetry_space_group_name_H-M "C 2/M"
_symmetry_group_IT_number 12
_symmetry_cell_setting 'monoclinic'
loop_
_space_group_symop_operation_xyz
x,y,z
-x,y,-z
-x,-y,-z
x,-y,z
1/2+x,1/2+y,z
1/2-x,1/2+y,-z
1/2-x,1/2-y,-z
1/2+x,1/2-y,z
loop_
_atom_site_type_symbol
_atom_site_label
_atom_site_fract_x
_atom_site_fract_y
_atom_site_fract_z
Si Si1 0.892634 0.215867 0.453304
Si Si2 0.268459 0.104648 0.134724
Si Si3 0.424761 0.805042 0.606562
Si Si4 0.070692 0.608949 0.140615
Si Si5 0.533461 0.739202 0.209650
Si Si6 0.205495 0.107806 0.212077
O O1 0.993616 0.227368 0.623531
O O2 0.776151 0.122848 0.343761
O O3 0.781508 0.314174 0.336931
O O4 0.000000 0.196342 0.500000
O O5 0.455489 0.105097 0.289585
O O6 0.293139 0.132353 0.233638
O O7 0.190786 0.000000 0.052453
O O8 0.125280 0.168393 0.955599
O O9 0.472497 0.779586 0.726070
O O10 0.216670 0.815825 0.386563
O O11 0.024860 0.500000 0.109743
O O12 0.001433 0.676307 0.126453
O O13 0.000000 0.640943 0.000000
O O14 0.252238 0.000000 0.281113
O O15 0.000000 0.120866 0.000000
#
# Coordination Sequence:
#
# PCOD8098190 Si02
#       6
#     8   8   8   8   8   8
#     4  11  20  35  61  85 121 158 189 251 302 357
#     4  11  22  37  61  92 125 159 203 249 299 373
#     4  10  22  39  60  90 119 165 205 243 303 366
#     4  10  22  40  63  87 111 153 209 256 305 357
#     4  10  22  42  64  85 126 163 202 255 307 361
#     4  10  20  34  55  87 122 158 198 242 299 367
#
# _framework density 20.907867
#
# number of rings (size 3 to 8) (size 9 to 14) (size 15 to 20)
#    0.000    1.667    1.667    4.000    0.000    2.667 
#    0.000    6.667    0.000    0.000    0.000    0.000 
#    0.000    0.000    0.000    0.000    0.000    0.000 
#
# Total GULP energy -297337.696834 kJ/mol
# GULP energy per Si atom -12389.070701 kJ/mol
# Density = 2.086028 g / cm^3
# Si number density = 20.907867 Si / 1000 Ang^3
#
#
#
# Elastic Constant Matrix: (Units=GPa)
#
#
# Indices 1 2 3 4 5 6 
#
# 1 144.9931 25.3583 32.9118 -0.0076 -10.8215 -0.0031
# 2 25.3583 61.8847 32.9067 -0.0049 -5.4092 -0.0006
# 3 32.9118 32.9067 61.3666 -0.0105 -10.8763 -0.0047
# 4 -0.0076 -0.0049 -0.0105 0.1715 -0.0062 16.2196
# 5 -10.8215 -5.4092 -10.8763 -0.0062 41.2174 -0.0042
# 6 -0.0031 -0.0006 -0.0047 16.2196 -0.0042 22.2681
#
#
#
# Elastic Compliance Matrix: (Units=1/GPa)
#
#
# Indices 1 2 3 4 5 6 
#
# 1 0.007978 -0.001400 -0.003346 -0.000001 0.001028 0.000002
# 2 -0.001400 0.022853 -0.011578 -0.000001 -0.000424 -0.000001
# 3 -0.003346 -0.011578 0.025045 -0.000010 0.004211 0.000013
# 4 -0.000001 -0.000001 -0.000010 -0.085893 -0.000010 0.062562
# 5 0.001028 -0.000424 0.004211 -0.000010 0.025587 0.000013
# 6 0.000002 -0.000001 0.000013 0.062562 0.000013 -0.000662
#
#
# Mechanical properties :
#
#
# Convention : Reuss Voigt Hill
#
# Bulk Modulus (GPa) = 43.05376 50.06643 46.56010
# Shear Modulus (GPa) = 141.64811 24.53590 83.09201
#
# Velocity S-wave (km/s) = 8.23989 3.42939 6.31096
# Velocity P-wave (km/s) = 10.54346 6.29914 8.68458
#
# Compressibility (1/GPa) = 0.02322677
#
# Stress axis : x y z
#
# Youngs Moduli (GPa) = 125.34604 43.75882 39.92842
#
# Poissons Ratio (x) = 0.06127 0.13359
# Poissons Ratio (y) = 0.17551 0.46231
# Poissons Ratio (z) = 0.41936 0.50666
#
# Static dielectric constant tensor:
#      x y z
#    x 4.184190 -0.000010 -0.067130 
#    y -0.000010 3.531460 -0.000010 
#    z -0.067130 -0.000010 3.770100 
# 
# 
# High freq. dielectric constant tensor:
#      x y z
#    x 1.840940 0.000000 -0.002220 
#    y 0.000000 1.791200 0.000000 
#    z -0.002220 0.000000 1.816080 
# 
# From -- ./inp_files/95860.got.cif
#   From: 2010.06.25/outbox.cif.g09.slc.cpg/sg12_48_cif.got.tgz:95860.got - 2010.06.28 00:19:55.
