data_PCOD8098883
_publ_section_title
;
Structure prediction by ZEFSAII (Michael W. Deem and Ramdas Pophale) SiO2 
 PCOD8098883
Probable space group: C 2/M
;
_chemical_formula_sum "Si O2"
_cell_formula_units_Z 64
_cell_length_a 28.266859
_cell_length_b 9.036377
_cell_length_c 15.852566
_cell_angle_alpha 90.000000
_cell_angle_beta 117.959506
_cell_angle_gamma 90.000000
_cell_volume 3576.592441
_symmetry_space_group_name_H-M "C 2/M"
_symmetry_group_IT_number 12
_symmetry_cell_setting 'monoclinic'
loop_
_space_group_symop_operation_xyz
x,y,z
-x,y,-z
-x,-y,-z
x,-y,z
1/2+x,1/2+y,z
1/2-x,1/2+y,-z
1/2-x,1/2-y,-z
1/2+x,1/2-y,z
loop_
_atom_site_type_symbol
_atom_site_label
_atom_site_fract_x
_atom_site_fract_y
_atom_site_fract_z
Si Si1 0.257204 0.673919 0.242558
Si Si2 0.864107 0.828208 0.234960
Si Si3 0.613186 0.171998 0.236339
Si Si4 0.894598 0.672618 0.096711
Si Si5 0.227094 0.669308 0.400618
Si Si6 0.347994 0.324167 0.895866
Si Si7 0.980319 0.172740 0.394255
Si Si8 0.012292 0.671386 0.258149
O O1 0.243803 0.500000 0.225082
O O2 0.314709 0.714311 0.253152
O O3 0.255816 0.725743 0.338908
O O4 0.212208 0.760894 0.152698
O O5 0.860662 0.729002 0.148453
O O6 0.917588 0.790559 0.331796
O O7 0.862623 0.000000 0.207067
O O8 0.663555 0.196593 0.340236
O O9 0.619302 0.268225 0.157653
O O10 0.560414 0.229082 0.239858
O O11 0.608578 0.000000 0.206017
O O12 0.882414 0.500000 0.072098
O O13 0.957159 0.703732 0.163900
O O14 0.878599 0.767233 0.003138
O O15 0.241026 0.500000 0.426288
O O16 0.250000 0.750000 0.500000
O O17 0.346046 0.500000 0.894430
O O18 0.000000 0.238085 0.500000
O O19 0.014902 0.245674 0.349229
O O20 0.991981 0.000000 0.399396
O O21 0.019615 0.500000 0.284503
#
# Coordination Sequence:
#
# PCOD8098883 Si02
#       8
#     8   8   8   8   8   8   8   8
#     4   9  19  36  54  72 100 137 172 208 251 296
#     4   9  18  34  54  75 101 134 172 210 247 294
#     4   9  19  37  55  73 101 135 170 208 252 298
#     4  10  20  35  54  76 103 133 165 205 253 301
#     4   9  18  32  51  74 101 132 165 205 250 295
#     4  11  22  35  53  77 102 130 167 209 253 302
#     4   9  18  32  51  77 108 138 167 205 254 301
#     4   9  19  35  55  76  99 133 174 210 246 296
#
# _framework density 17.894127000000001
#
# number of rings (size 3 to 8) (size 9 to 14) (size 15 to 20)
#    0.000    2.625    0.000    2.250    0.000    5.750 
#    0.000    3.750    0.000    0.000    0.000    0.000 
#    0.000    0.000    0.000    0.000    0.000    0.000 
#
# Total GULP energy -396856.104888 kJ/mol
# GULP energy per Si atom -12401.753278 kJ/mol
# Density = 1.785340 g / cm^3
# Si number density = 17.894127 Si / 1000 Ang^3
#
#
#
# Elastic Constant Matrix: (Units=GPa)
#
#
# Indices 1 2 3 4 5 6 
#
# 1 142.0959 43.1961 52.1067 0.0000 -12.5632 0.0000
# 2 43.1961 71.5263 53.8228 0.0000 -4.1338 0.0000
# 3 52.1067 53.8228 126.9450 0.0000 -6.4189 0.0000
# 4 0.0000 0.0000 0.0000 34.2808 0.0000 -4.7477
# 5 -12.5632 -4.1338 -6.4189 0.0000 14.0280 0.0000
# 6 0.0000 0.0000 0.0000 -4.7477 0.0000 25.8868
#
#
#
# Elastic Compliance Matrix: (Units=1/GPa)
#
#
# Indices 1 2 3 4 5 6 
#
# 1 0.009505 -0.003930 -0.001907 0.000000 0.006481 0.000000
# 2 -0.003930 0.022218 -0.007835 0.000000 -0.000558 0.000000
# 3 -0.001907 -0.007835 0.012058 0.000000 0.001501 0.000000
# 4 0.000000 0.000000 0.000000 0.029931 0.000000 0.005489
# 5 0.006481 -0.000558 0.001501 0.000000 0.077613 0.000000
# 6 0.000000 0.000000 0.000000 0.005489 0.000000 0.039636
#
#
# Mechanical properties :
#
#
# Convention : Reuss Voigt Hill
#
# Bulk Modulus (GPa) = 60.84349 70.97985 65.91167
# Shear Modulus (GPa) = 22.34289 27.60190 24.97239
#
# Velocity S-wave (km/s) = 3.53741 3.93174 3.73978
# Velocity P-wave (km/s) = 7.12461 7.76944 7.45400
#
# Compressibility (1/GPa) = 0.01643561
#
# Stress axis : x y z
#
# Youngs Moduli (GPa) = 105.21105 45.00848 82.93171
#
# Poissons Ratio (x) = 0.17690 0.15817
# Poissons Ratio (y) = 0.41351 0.64978
# Poissons Ratio (z) = 0.20066 0.35264
#
# Static dielectric constant tensor:
#      x y z
#    x 3.457670 0.000000 -0.038600 
#    y 0.000000 3.271760 0.000000 
#    z -0.038600 0.000000 3.326020 
# 
# 
# High freq. dielectric constant tensor:
#      x y z
#    x 1.696030 0.000000 -0.002630 
#    y 0.000000 1.687620 0.000000 
#    z -0.002630 0.000000 1.693970 
# 
# From -- ./inp_files/244175.got.cif
#   From: 2010.06.25/outbox.cif.g09.slc.cpg/sg12_123_cif.got.tgz:244175.got - 2010.06.28 00:19:55.
