data_PCOD8098239
_publ_section_title
;
Structure prediction by ZEFSAII (Michael W. Deem and Ramdas Pophale) SiO2 
 PCOD8098239
Probable space group: C 2/M
;
_chemical_formula_sum "Si O2"
_cell_formula_units_Z 64
_cell_length_a 25.670569
_cell_length_b 14.682663
_cell_length_c 9.212718
_cell_angle_alpha 90.000000
_cell_angle_beta 105.133804
_cell_angle_gamma 90.000000
_cell_volume 3351.960200
_symmetry_space_group_name_H-M "C 2/M"
_symmetry_group_IT_number 12
_symmetry_cell_setting 'monoclinic'
loop_
_space_group_symop_operation_xyz
x,y,z
-x,y,-z
-x,-y,-z
x,-y,z
1/2+x,1/2+y,z
1/2-x,1/2+y,-z
1/2-x,1/2-y,-z
1/2+x,1/2-y,z
loop_
_atom_site_type_symbol
_atom_site_label
_atom_site_fract_x
_atom_site_fract_y
_atom_site_fract_z
Si Si1 0.788546 0.826799 0.594129
Si Si2 0.245729 0.397677 0.094639
Si Si3 0.348312 0.603283 0.357269
Si Si4 0.848112 0.275399 0.878899
Si Si5 0.117591 0.265970 0.775805
Si Si6 0.448419 0.102636 0.875604
Si Si7 0.209641 0.398201 0.757956
Si Si8 0.479686 0.896896 0.331818
O O1 0.750000 0.750000 0.500000
O O2 0.822074 0.878056 0.494238
O O3 0.833862 0.797989 0.745190
O O4 0.746837 0.894478 0.642806
O O5 0.225898 0.500000 0.105860
O O6 0.304671 0.381957 0.199471
O O7 0.204936 0.336345 0.153898
O O8 0.246645 0.373610 0.924538
O O9 0.371630 0.500000 0.373413
O O10 0.393132 0.677302 0.336155
O O11 0.897597 0.333998 0.857783
O O12 0.862085 0.235860 0.048833
O O13 0.160713 0.327069 0.718934
O O14 0.064332 0.326309 0.760792
O O15 0.465611 0.103985 0.721126
O O16 0.434306 0.000000 0.919237
O O17 0.500000 0.140515 0.000000
O O18 0.185588 0.500000 0.752529
O O19 0.500000 0.862032 0.500000
O O20 0.455495 0.000000 0.318340
#
# Coordination Sequence:
#
# PCOD8098239 Si02
#       8
#     8   8   8   8   8   8   8   8
#     4  12  22  36  52  81 116 150 192 240 289 337
#     4   9  18  33  53  80 112 150 190 226 272 341
#     4  11  23  39  56  78 113 151 193 240 285 336
#     4  11  21  34  57  84 114 155 193 232 285 345
#     4  11  21  37  59  85 112 152 197 233 276 351
#     4  10  20  36  57  86 123 155 188 232 286 348
#     4  10  20  34  56  82 116 152 185 230 283 340
#     4  10  22  38  58  89 124 153 184 232 289 346
#
# _framework density 19.093304
#
# number of rings (size 3 to 8) (size 9 to 14) (size 15 to 20)
#    0.000    1.500    3.750    1.875    1.750    3.000 
#    0.000    0.625    0.000    0.375    0.000    0.875 
#    0.000    0.000    0.000    0.000    0.000    0.000 
#
# Total GULP energy -396649.092960 kJ/mol
# GULP energy per Si atom -12395.284155 kJ/mol
# Density = 1.904985 g / cm^3
# Si number density = 19.093304 Si / 1000 Ang^3
#
#
#
# Elastic Constant Matrix: (Units=GPa)
#
#
# Indices 1 2 3 4 5 6 
#
# 1 45.5742 28.3442 8.9004 0.0000 -9.1057 0.0000
# 2 28.3442 91.6197 26.7810 0.0000 -6.1878 0.0000
# 3 8.9004 26.7810 82.5141 0.0000 -9.6922 0.0000
# 4 0.0000 0.0000 0.0000 29.4340 0.0000 -7.4306
# 5 -9.1057 -6.1878 -9.6922 0.0000 25.8627 0.0000
# 6 0.0000 0.0000 0.0000 -7.4306 0.0000 24.8481
#
#
#
# Elastic Compliance Matrix: (Units=1/GPa)
#
#
# Indices 1 2 3 4 5 6 
#
# 1 0.028788 -0.008531 0.000643 0.000000 0.008335 0.000000
# 2 -0.008531 0.014641 -0.003947 0.000000 -0.000980 0.000000
# 3 0.000643 -0.003947 0.013856 0.000000 0.004475 0.000000
# 4 0.000000 0.000000 0.000000 0.036748 0.000000 0.010989
# 5 0.008335 -0.000980 0.004475 0.000000 0.043043 0.000000
# 6 0.000000 0.000000 0.000000 0.010989 0.000000 0.043531
#
#
# Mechanical properties :
#
#
# Convention : Reuss Voigt Hill
#
# Bulk Modulus (GPa) = 29.74832 38.63992 34.19412
# Shear Modulus (GPa) = 23.20363 26.40780 24.80571
#
# Velocity S-wave (km/s) = 3.48986 3.72303 3.60833
# Velocity P-wave (km/s) = 5.64386 6.22596 5.94204
#
# Compressibility (1/GPa) = 0.03361535
#
# Stress axis : x y z
#
# Youngs Moduli (GPa) = 34.73687 68.29928 72.16847
#
# Poissons Ratio (x) = 0.58266 -0.04638
# Poissons Ratio (y) = 0.29634 0.28485
# Poissons Ratio (z) = -0.02233 0.26957
#
# Static dielectric constant tensor:
#      x y z
#    x 3.290900 0.000000 -0.112680 
#    y 0.000000 3.541750 0.000000 
#    z -0.112680 0.000000 3.690470 
# 
# 
# High freq. dielectric constant tensor:
#      x y z
#    x 1.714340 0.000000 -0.016390 
#    y 0.000000 1.731610 0.000000 
#    z -0.016390 0.000000 1.756590 
# 
# From -- ./inp_files/104604.got.cif
#   From: 2010.06.25/outbox.cif.g09.slc.cpg/sg12_53_cif.got.tgz:104604.got - 2010.06.28 00:19:55.
