data_PCOD8098511
_publ_section_title
;
Structure prediction by ZEFSAII (Michael W. Deem and Ramdas Pophale) SiO2 
 PCOD8098511
Probable space group: C 2/M
;
_chemical_formula_sum "Si O2"
_cell_formula_units_Z 52
_cell_length_a 21.087059
_cell_length_b 14.316354
_cell_length_c 11.141492
_cell_angle_alpha 90.000000
_cell_angle_beta 49.425200
_cell_angle_gamma 90.000000
_cell_volume 2554.773647
_symmetry_space_group_name_H-M "C 2/M"
_symmetry_group_IT_number 12
_symmetry_cell_setting 'monoclinic'
loop_
_space_group_symop_operation_xyz
x,y,z
-x,y,-z
-x,-y,-z
x,-y,z
1/2+x,1/2+y,z
1/2-x,1/2+y,-z
1/2-x,1/2-y,-z
1/2+x,1/2-y,z
loop_
_atom_site_type_symbol
_atom_site_label
_atom_site_fract_x
_atom_site_fract_y
_atom_site_fract_z
Si Si1 0.672348 0.604837 0.771080
Si Si2 0.000000 0.194969 0.000000
Si Si3 0.295425 0.895394 0.417151
Si Si4 0.231651 0.290712 0.788535
Si Si5 0.577511 0.197174 0.124811
Si Si6 0.413213 0.273783 0.636683
Si Si7 0.936031 0.606041 0.430552
O O1 0.685730 0.500000 0.806969
O O2 0.575613 0.627243 0.874963
O O3 0.707459 0.610426 0.592987
O O4 0.718661 0.677936 0.804113
O O5 0.976855 0.258905 0.915074
O O6 0.297133 0.824496 0.305885
O O7 0.365157 0.863096 0.424968
O O8 0.313172 0.000000 0.347470
O O9 0.327426 0.320842 0.695365
O O10 0.168187 0.336247 0.964011
O O11 0.595302 0.270779 0.209412
O O12 0.524335 0.114341 0.251490
O O13 0.500000 0.330678 0.500000
O O14 0.426245 0.172197 0.558099
O O15 0.924392 0.500000 0.489569
#
# Coordination Sequence:
#
# PCOD8098511 Si02
#       7
#     8   4   8   8   8   8   8
#     4  10  20  34  57  88 114 145 192 242 288 341
#     4  10  21  36  59  80 118 144 193 238 294 338
#     4  10  21  35  59  89 115 151 193 234 290 345
#     4  11  21  37  60  81 122 153 188 240 290 343
#     4  10  22  36  54  87 110 154 191 230 290 350
#     4  10  22  35  57  82 112 150 198 233 288 340
#     4  10  20  37  58  87 120 148 192 244 288 343
#
# _framework density 20.354054000000001
#
# number of rings (size 3 to 8) (size 9 to 14) (size 15 to 20)
#    0.000    1.846    1.538    3.000    4.308    3.385 
#    0.000    1.923    0.000    8.769    0.000    0.000 
#    0.000    0.000    0.000    0.000    0.000    0.000 
#
# Total GULP energy -322208.258700 kJ/mol
# GULP energy per Si atom -12392.625335 kJ/mol
# Density = 2.030773 g / cm^3
# Si number density = 20.354054 Si / 1000 Ang^3
#
#
#
# Elastic Constant Matrix: (Units=GPa)
#
#
# Indices 1 2 3 4 5 6 
#
# 1 116.5385 13.7762 48.1771 0.0000 -5.5941 0.0000
# 2 13.7762 44.0953 9.5554 0.0000 1.9183 0.0000
# 3 48.1771 9.5554 122.6447 0.0000 -15.7444 0.0000
# 4 0.0000 0.0000 0.0000 22.4295 0.0000 -5.2773
# 5 -5.5941 1.9183 -15.7444 0.0000 48.4448 0.0000
# 6 0.0000 0.0000 0.0000 -5.2773 0.0000 13.1183
#
#
#
# Elastic Compliance Matrix: (Units=1/GPa)
#
#
# Indices 1 2 3 4 5 6 
#
# 1 0.010494 -0.002428 -0.003929 0.000000 0.000031 0.000000
# 2 -0.002428 0.023743 -0.001098 0.000000 -0.001578 0.000000
# 3 -0.003929 -0.001098 0.010154 0.000000 0.002890 0.000000
# 4 0.000000 0.000000 0.000000 0.049245 0.000000 0.019811
# 5 0.000031 -0.001578 0.002890 0.000000 0.021647 0.000000
# 6 0.000000 0.000000 0.000000 0.019811 0.000000 0.084199
#
#
# Mechanical properties :
#
#
# Convention : Reuss Voigt Hill
#
# Bulk Modulus (GPa) = 33.92234 47.36621 40.64427
# Shear Modulus (GPa) = 22.29951 30.91651 26.60801
#
# Velocity S-wave (km/s) = 3.31355 3.90158 3.61953
# Velocity P-wave (km/s) = 5.59837 6.60440 6.12209
#
# Compressibility (1/GPa) = 0.02947910
#
# Stress axis : x y z
#
# Youngs Moduli (GPa) = 95.29599 42.11681 98.48792
#
# Poissons Ratio (x) = 0.10227 0.38695
# Poissons Ratio (y) = 0.23141 0.10819
# Poissons Ratio (z) = 0.37441 0.04627
#
# Static dielectric constant tensor:
#      x y z
#    x 3.804560 0.000000 -0.293050 
#    y 0.000000 3.361680 0.000000 
#    z -0.293050 0.000000 3.984120 
# 
# 
# High freq. dielectric constant tensor:
#      x y z
#    x 1.802420 0.000000 -0.014630 
#    y 0.000000 1.750510 0.000000 
#    z -0.014630 0.000000 1.812340 
# 
# From -- ./inp_files/167139.got.cif
#   From: 2010.06.25/outbox.cif.g09.slc.cpg/sg12_84_cif.got.tgz:167139.got - 2010.06.28 00:19:55.
