data_PCOD8098028
_publ_section_title
;
Structure prediction by ZEFSAII (Michael W. Deem and Ramdas Pophale) SiO2 
 PCOD8098028
Probable space group: C 2/M
;
_chemical_formula_sum "Si O2"
_cell_formula_units_Z 64
_cell_length_a 29.569847
_cell_length_b 9.054547
_cell_length_c 15.067778
_cell_angle_alpha 90.000000
_cell_angle_beta 121.355627
_cell_angle_gamma 90.000000
_cell_volume 3445.081616
_symmetry_space_group_name_H-M "C 2/M"
_symmetry_group_IT_number 12
_symmetry_cell_setting 'monoclinic'
loop_
_space_group_symop_operation_xyz
x,y,z
-x,y,-z
-x,-y,-z
x,-y,z
1/2+x,1/2+y,z
1/2-x,1/2+y,-z
1/2-x,1/2-y,-z
1/2+x,1/2-y,z
loop_
_atom_site_type_symbol
_atom_site_label
_atom_site_fract_x
_atom_site_fract_y
_atom_site_fract_z
Si Si1 0.032885 0.831093 0.949277
Si Si2 0.613461 0.672797 0.802541
Si Si3 0.891877 0.326104 0.553850
Si Si4 0.800657 0.673901 0.593324
Si Si5 0.637073 0.175070 0.002890
Si Si6 0.161531 0.825286 0.664125
Si Si7 0.494569 0.332343 0.718629
Si Si8 0.280720 0.825281 0.769256
O O1 0.082668 0.724456 0.992378
O O2 0.995272 0.816673 0.825488
O O3 0.052629 0.000000 0.979884
O O4 0.000000 0.776987 0.000000
O O5 0.619720 0.500000 0.828447
O O6 0.644034 0.756944 0.912347
O O7 0.639705 0.721167 0.737645
O O8 0.551487 0.715262 0.737282
O O9 0.890522 0.500000 0.539090
O O10 0.853171 0.276152 0.594368
O O11 0.874842 0.250537 0.445689
O O12 0.951265 0.277473 0.635722
O O13 0.791533 0.500000 0.576962
O O14 0.750000 0.750000 0.500000
O O15 0.806272 0.724458 0.701537
O O16 0.637801 0.000000 0.995874
O O17 0.684331 0.235642 0.113710
O O18 0.221135 0.763328 0.716264
O O19 0.158719 0.000000 0.646916
O O20 0.480780 0.500000 0.676428
O O21 0.278857 0.000000 0.773301
#
# Coordination Sequence:
#
# PCOD8098028 Si02
#       8
#     8   8   8   8   8   8   8   8
#     4   9  19  36  55  78 108 143 186 231 267 312
#     4   9  20  39  60  81 106 141 186 232 270 315
#     4  11  23  35  53  84 115 141 178 227 274 321
#     4  10  20  36  55  77 110 145 178 221 267 319
#     4  10  20  34  55  82 112 145 178 220 275 329
#     4  10  20  38  62  79 103 147 189 223 268 325
#     4   9  19  36  55  76 107 143 182 223 268 324
#     4   9  19  35  55  81 111 144 180 217 266 329
#
# _framework density 18.577210000000001
#
# number of rings (size 3 to 8) (size 9 to 14) (size 15 to 20)
#    0.000    2.375    1.250    1.500    1.750    4.250 
#    0.000    5.000    0.000    0.000    0.000    0.000 
#    0.000    0.000    0.000    0.000    0.000    0.000 
#
# Total GULP energy -396846.721998 kJ/mol
# GULP energy per Si atom -12401.460062 kJ/mol
# Density = 1.853493 g / cm^3
# Si number density = 18.577210 Si / 1000 Ang^3
#
#
#
# Elastic Constant Matrix: (Units=GPa)
#
#
# Indices 1 2 3 4 5 6 
#
# 1 81.9927 26.7224 63.1598 0.0000 -19.9239 0.0000
# 2 26.7224 43.3728 42.6605 0.0000 -3.5136 0.0000
# 3 63.1598 42.6605 139.9867 0.0000 -3.3281 0.0000
# 4 0.0000 0.0000 0.0000 29.4729 0.0000 0.8138
# 5 -19.9239 -3.5136 -3.3281 0.0000 34.8503 0.0000
# 6 0.0000 0.0000 0.0000 0.8138 0.0000 24.7389
#
#
#
# Elastic Compliance Matrix: (Units=1/GPa)
#
#
# Indices 1 2 3 4 5 6 
#
# 1 0.023539 -0.004795 -0.008871 0.000000 0.012127 0.000000
# 2 -0.004795 0.034098 -0.008230 0.000000 -0.000090 0.000000
# 3 -0.008871 -0.008230 0.013544 0.000000 -0.004608 0.000000
# 4 0.000000 0.000000 0.000000 0.033960 0.000000 -0.001117
# 5 0.012127 -0.000090 -0.004608 0.000000 0.035178 0.000000
# 6 0.000000 0.000000 0.000000 -0.001117 0.000000 0.040459
#
#
# Mechanical properties :
#
#
# Convention : Reuss Voigt Hill
#
# Bulk Modulus (GPa) = 36.51026 58.93753 47.72389
# Shear Modulus (GPa) = 21.39498 26.66638 24.03068
#
# Velocity S-wave (km/s) = 3.39732 3.79282 3.60051
# Velocity P-wave (km/s) = 5.92326 7.13970 6.55973
#
# Compressibility (1/GPa) = 0.02738956
#
# Stress axis : x y z
#
# Youngs Moduli (GPa) = 42.48261 29.32755 73.83126
#
# Poissons Ratio (x) = 0.14063 0.65495
# Poissons Ratio (y) = 0.20371 0.60762
# Poissons Ratio (z) = 0.37686 0.24136
#
# Static dielectric constant tensor:
#      x y z
#    x 3.591230 0.000000 -0.109880 
#    y 0.000000 3.225260 0.000000 
#    z -0.109880 0.000000 3.555040 
# 
# 
# High freq. dielectric constant tensor:
#      x y z
#    x 1.725090 0.000000 -0.005600 
#    y 0.000000 1.704440 0.000000 
#    z -0.005600 0.000000 1.728230 
# 
# From -- ./inp_files/249165.got.cif
#   From: 2010.06.25/outbox.cif.g09.slc.cpg/sg12_125_cif.got.tgz:249165.got - 2010.06.28 00:19:55.
