data_PCOD8098056
_publ_section_title
;
Structure prediction by ZEFSAII (Michael W. Deem and Ramdas Pophale) SiO2 
 PCOD8098056
Probable space group: C 2/M
;
_chemical_formula_sum "Si O2"
_cell_formula_units_Z 56
_cell_length_a 14.633023
_cell_length_b 9.299519
_cell_length_c 25.991002
_cell_angle_alpha 90.000000
_cell_angle_beta 55.890894
_cell_angle_gamma 90.000000
_cell_volume 2928.416236
_symmetry_space_group_name_H-M "C 2/M"
_symmetry_group_IT_number 12
_symmetry_cell_setting 'monoclinic'
loop_
_space_group_symop_operation_xyz
x,y,z
-x,y,-z
-x,-y,-z
x,-y,z
1/2+x,1/2+y,z
1/2-x,1/2+y,-z
1/2-x,1/2-y,-z
1/2+x,1/2-y,z
loop_
_atom_site_type_symbol
_atom_site_label
_atom_site_fract_x
_atom_site_fract_y
_atom_site_fract_z
Si Si1 0.665265 0.667922 0.849378
Si Si2 0.686436 0.836476 0.638963
Si Si3 0.842033 0.833308 0.502127
Si Si4 0.742636 0.831606 0.288801
Si Si5 0.281615 0.832521 0.068577
Si Si6 0.913094 0.164903 0.946520
Si Si7 0.493113 0.831578 0.388847
O O1 0.688515 0.500000 0.851301
O O2 0.714478 0.721092 0.779863
O O3 0.727660 0.757493 0.873374
O O4 0.535683 0.702974 0.890097
O O5 0.806265 0.819289 0.573163
O O6 0.683118 0.740562 0.690773
O O7 0.587308 0.788053 0.632693
O O8 0.667498 0.000000 0.661964
O O9 0.750000 0.750000 0.500000
O O10 0.958431 0.757505 0.451315
O O11 0.846076 0.000000 0.484364
O O12 0.615545 0.785856 0.334384
O O13 0.758931 0.000000 0.289919
O O14 0.166187 0.803403 0.076549
O O15 0.306491 0.000000 0.067663
O O16 0.381945 0.763403 0.004769
O O17 0.902317 0.000000 0.968102
O O18 0.482995 0.000000 0.404813
#
# Coordination Sequence:
#
# PCOD8098056 Si02
#       7
#     8   8   8   8   8   8   8
#     4  10  21  37  54  74 105 143 176 209 255 308
#     4   9  19  35  53  74 103 134 167 213 264 308
#     4   9  17  31  53  79 104 133 170 214 265 315
#     4  10  22  37  53  75 103 139 181 214 249 307
#     4  10  20  34  55  83 108 132 170 217 259 303
#     4   9  19  36  56  78 107 139 169 207 259 312
#     4   9  19  36  54  75 105 137 170 214 264 311
#
# _framework density 19.122965000000001
#
# number of rings (size 3 to 8) (size 9 to 14) (size 15 to 20)
#    0.000    2.571    0.000    2.143    0.000    8.571 
#    0.000    2.857    0.000    0.000    0.000    0.000 
#    0.000    0.000    0.000    0.000    0.000    0.000 
#
# Total GULP energy -347204.729729 kJ/mol
# GULP energy per Si atom -12400.168919 kJ/mol
# Density = 1.907944 g / cm^3
# Si number density = 19.122965 Si / 1000 Ang^3
#
#
#
# Elastic Constant Matrix: (Units=GPa)
#
#
# Indices 1 2 3 4 5 6 
#
# 1 46.2123 16.4452 16.0217 0.0000 4.7473 0.0000
# 2 16.4452 60.9183 33.1473 0.0000 9.8436 0.0000
# 3 16.0217 33.1473 86.4348 0.0000 10.4486 0.0000
# 4 0.0000 0.0000 0.0000 34.1373 0.0000 8.0863
# 5 4.7473 9.8436 10.4486 0.0000 28.9625 0.0000
# 6 0.0000 0.0000 0.0000 8.0863 0.0000 25.0341
#
#
#
# Elastic Compliance Matrix: (Units=1/GPa)
#
#
# Indices 1 2 3 4 5 6 
#
# 1 0.024420 -0.005047 -0.002420 0.000000 -0.001414 0.000000
# 2 -0.005047 0.022330 -0.007121 0.000000 -0.004193 0.000000
# 3 -0.002420 -0.007121 0.015065 0.000000 -0.002618 0.000000
# 4 0.000000 0.000000 0.000000 0.031721 0.000000 -0.010246
# 5 -0.001414 -0.004193 -0.002618 0.000000 0.037129 0.000000
# 6 0.000000 0.000000 0.000000 -0.010246 0.000000 0.043255
#
#
# Mechanical properties :
#
#
# Convention : Reuss Voigt Hill
#
# Bulk Modulus (GPa) = 30.63808 36.08820 33.36314
# Shear Modulus (GPa) = 23.36715 26.15685 24.76200
#
# Velocity S-wave (km/s) = 3.49942 3.70242 3.60235
# Velocity P-wave (km/s) = 5.69072 6.09835 5.89806
#
# Compressibility (1/GPa) = 0.03263913
#
# Stress axis : x y z
#
# Youngs Moduli (GPa) = 40.95078 44.78233 66.37723
#
# Poissons Ratio (x) = 0.22601 0.16064
# Poissons Ratio (y) = 0.20667 0.47268
# Poissons Ratio (z) = 0.09910 0.31890
#
# Static dielectric constant tensor:
#      x y z
#    x 3.407020 0.000000 -0.110380 
#    y 0.000000 3.503740 0.000000 
#    z -0.110380 0.000000 3.732640 
# 
# 
# High freq. dielectric constant tensor:
#      x y z
#    x 1.739510 0.000000 -0.001420 
#    y 0.000000 1.741100 0.000000 
#    z -0.001420 0.000000 1.740880 
# 
# From -- ./inp_files/338463.got.cif
#   From: 2010.06.25/outbox.cif.g09.slc.cpg/sg12_170_cif.got.tgz:338463.got - 2010.06.28 00:19:55.
