data_PCOD8098124
_publ_section_title
;
Structure prediction by ZEFSAII (Michael W. Deem and Ramdas Pophale) SiO2 
 PCOD8098124
Probable space group: C 2/M
;
_chemical_formula_sum "Si O2"
_cell_formula_units_Z 56
_cell_length_a 26.273634
_cell_length_b 8.874521
_cell_length_c 13.344314
_cell_angle_alpha 90.000000
_cell_angle_beta 114.599627
_cell_angle_gamma 90.000000
_cell_volume 2829.041309
_symmetry_space_group_name_H-M "C 2/M"
_symmetry_group_IT_number 12
_symmetry_cell_setting 'monoclinic'
loop_
_space_group_symop_operation_xyz
x,y,z
-x,y,-z
-x,-y,-z
x,-y,z
1/2+x,1/2+y,z
1/2-x,1/2+y,-z
1/2-x,1/2-y,-z
1/2+x,1/2-y,z
loop_
_atom_site_type_symbol
_atom_site_label
_atom_site_fract_x
_atom_site_fract_y
_atom_site_fract_z
Si Si1 0.087360 0.327474 0.108072
Si Si2 0.470048 0.326953 0.754985
Si Si3 0.881810 0.322775 0.560793
Si Si4 0.407649 0.672220 0.093451
Si Si5 0.805261 0.670484 0.681313
Si Si6 0.698337 0.178466 0.899917
Si Si7 0.698235 0.176997 0.674774
O O1 0.071806 0.500000 0.069789
O O2 0.048339 0.274385 0.166627
O O3 0.152440 0.314415 0.190851
O O4 0.075918 0.220798 0.004892
O O5 0.453499 0.500000 0.761921
O O6 0.439151 0.267588 0.629106
O O7 0.536688 0.310830 0.793155
O O8 0.894481 0.500000 0.580090
O O9 0.835654 0.274520 0.605240
O O10 0.857915 0.276736 0.432109
O O11 0.386338 0.500000 0.075159
O O12 0.359663 0.779794 0.095478
O O13 0.784213 0.500000 0.652174
O O14 0.752102 0.773024 0.657154
O O15 0.696946 0.245049 0.785607
O O16 0.705357 0.000000 0.907397
O O17 0.750000 0.250000 0.000000
O O18 0.701402 0.000000 0.685316
#
# Coordination Sequence:
#
# PCOD8098124 Si02
#       7
#     8   8   8   8   8   8   8
#     4  10  20  34  55  84 115 147 183 223 272 329
#     4  10  21  36  55  82 113 144 181 225 274 327
#     4   9  19  36  55  79 111 143 180 225 271 325
#     4  11  23  38  56  80 111 146 185 229 274 324
#     4   9  18  31  51  81 112 141 174 216 269 328
#     4  11  24  41  60  82 109 144 185 228 275 326
#     4  10  21  36  55  79 107 142 184 228 273 322
#
# _framework density 19.794689999999999
#
# number of rings (size 3 to 8) (size 9 to 14) (size 15 to 20)
#    0.000    2.000    0.000    4.286    0.000   10.857 
#    0.000    0.714    0.000    4.286    0.000    0.000 
#    0.000    0.000    0.000    0.000    0.000    0.000 
#
# Total GULP energy -347249.814581 kJ/mol
# GULP energy per Si atom -12401.779092 kJ/mol
# Density = 1.974964 g / cm^3
# Si number density = 19.794690 Si / 1000 Ang^3
#
#
#
# Elastic Constant Matrix: (Units=GPa)
#
#
# Indices 1 2 3 4 5 6 
#
# 1 71.8009 27.5965 46.4537 0.0000 17.6084 0.0000
# 2 27.5965 58.7251 47.1844 0.0000 8.3466 0.0000
# 3 46.4537 47.1844 143.5544 0.0000 9.4163 0.0000
# 4 0.0000 0.0000 0.0000 30.2141 0.0000 5.8575
# 5 17.6084 8.3466 9.4163 0.0000 24.1847 0.0000
# 6 0.0000 0.0000 0.0000 5.8575 0.0000 29.2430
#
#
#
# Elastic Compliance Matrix: (Units=1/GPa)
#
#
# Indices 1 2 3 4 5 6 
#
# 1 0.021830 -0.004716 -0.004698 0.000000 -0.012437 0.000000
# 2 -0.004716 0.024802 -0.006455 0.000000 -0.002613 0.000000
# 3 -0.004698 -0.006455 0.010506 0.000000 0.001558 0.000000
# 4 0.000000 0.000000 0.000000 0.034434 0.000000 -0.006897
# 5 -0.012437 -0.002613 0.001558 0.000000 0.050699 0.000000
# 6 0.000000 0.000000 0.000000 -0.006897 0.000000 0.035578
#
#
# Mechanical properties :
#
#
# Convention : Reuss Voigt Hill
#
# Bulk Modulus (GPa) = 39.36988 57.39440 48.38214
# Shear Modulus (GPa) = 22.93028 26.91808 24.92418
#
# Velocity S-wave (km/s) = 3.40723 3.69163 3.55228
# Velocity P-wave (km/s) = 5.95073 6.87231 6.42806
#
# Compressibility (1/GPa) = 0.02540013
#
# Stress axis : x y z
#
# Youngs Moduli (GPa) = 45.80950 40.31902 95.18633
#
# Poissons Ratio (x) = 0.19013 0.44720
# Poissons Ratio (y) = 0.21603 0.61440
# Poissons Ratio (z) = 0.21522 0.26025
#
# Static dielectric constant tensor:
#      x y z
#    x 3.383520 0.000000 0.117420 
#    y 0.000000 3.558950 0.000000 
#    z 0.117420 0.000000 3.988160 
# 
# 
# High freq. dielectric constant tensor:
#      x y z
#    x 1.750640 0.000000 0.015850 
#    y 0.000000 1.772820 0.000000 
#    z 0.015850 0.000000 1.781650 
# 
# From -- ./inp_files/244285.got.cif
#   From: 2010.06.25/outbox.cif.g09.slc.cpg/sg12_123_cif.got.tgz:244285.got - 2010.06.28 00:19:55.
