data_PCOD8098075
_publ_section_title
;
Structure prediction by ZEFSAII (Michael W. Deem and Ramdas Pophale) SiO2 
 PCOD8098075
Probable space group: C 2/M
;
_chemical_formula_sum "Si O2"
_cell_formula_units_Z 56
_cell_length_a 27.652771
_cell_length_b 9.401820
_cell_length_c 10.678571
_cell_angle_alpha 90.000000
_cell_angle_beta 78.704025
_cell_angle_gamma 90.000000
_cell_volume 2722.501985
_symmetry_space_group_name_H-M "C 2/M"
_symmetry_group_IT_number 12
_symmetry_cell_setting 'monoclinic'
loop_
_space_group_symop_operation_xyz
x,y,z
-x,y,-z
-x,-y,-z
x,-y,z
1/2+x,1/2+y,z
1/2-x,1/2+y,-z
1/2-x,1/2-y,-z
1/2+x,1/2-y,z
loop_
_atom_site_type_symbol
_atom_site_label
_atom_site_fract_x
_atom_site_fract_y
_atom_site_fract_z
Si Si1 0.632419 0.839369 0.819555
Si Si2 0.372891 0.335709 0.759488
Si Si3 0.462080 0.663180 0.132241
Si Si4 0.518121 0.668601 0.354938
Si Si5 0.296170 0.655217 0.340322
Si Si6 0.698725 0.836067 0.024755
Si Si7 0.212685 0.152340 0.365107
O O1 0.582582 0.762968 0.887366
O O2 0.654912 0.751771 0.691699
O O3 0.620087 0.000000 0.785830
O O4 0.675220 0.832357 0.899965
O O5 0.375491 0.500000 0.805712
O O6 0.427343 0.273360 0.706395
O O7 0.342727 0.239614 0.870665
O O8 0.343932 0.321652 0.642823
O O9 0.444542 0.500000 0.151949
O O10 0.483046 0.714466 0.256926
O O11 0.500000 0.679908 0.000000
O O12 0.500000 0.729669 0.500000
O O13 0.520803 0.500000 0.363358
O O14 0.305265 0.500000 0.274891
O O15 0.249198 0.726618 0.293393
O O16 0.282431 0.640001 0.490354
O O17 0.707313 0.000000 0.063034
O O18 0.750000 0.750000 0.000000
O O19 0.230019 0.000000 0.297933
#
# Coordination Sequence:
#
# PCOD8098075 Si02
#       7
#     8   8   8   8   8   8   8
#     4  11  24  39  57  82 115 154 193 237 292 349
#     4  10  20  36  60  86 115 152 194 240 295 354
#     4  10  21  38  62  90 116 150 203 256 299 355
#     4   9  19  35  60  90 121 156 199 252 306 358
#     4  10  20  34  55  83 113 148 190 234 280 340
#     4  11  24  40  59  86 120 157 197 243 296 357
#     4   9  19  34  54  82 116 150 184 228 286 347
#
# _framework density 20.569316000000001
#
# number of rings (size 3 to 8) (size 9 to 14) (size 15 to 20)
#    0.000    2.000    0.000    3.000    2.000    8.286 
#    0.000    0.714    0.000    0.857    0.000    0.000 
#    0.000    0.000    0.000    0.000    0.000    0.000 
#
# Total GULP energy -347007.961264 kJ/mol
# GULP energy per Si atom -12393.141474 kJ/mol
# Density = 2.052250 g / cm^3
# Si number density = 20.569316 Si / 1000 Ang^3
#
#
#
# Elastic Constant Matrix: (Units=GPa)
#
#
# Indices 1 2 3 4 5 6 
#
# 1 110.0915 62.8335 30.7576 0.0000 -16.1901 0.0000
# 2 62.8335 137.6162 37.2164 0.0000 -18.7009 0.0000
# 3 30.7576 37.2164 81.0959 0.0000 -12.1628 0.0000
# 4 0.0000 0.0000 0.0000 23.1803 0.0000 -7.1546
# 5 -16.1901 -18.7009 -12.1628 0.0000 37.4340 0.0000
# 6 0.0000 0.0000 0.0000 -7.1546 0.0000 29.2244
#
#
#
# Elastic Compliance Matrix: (Units=1/GPa)
#
#
# Indices 1 2 3 4 5 6 
#
# 1 0.012889 -0.004952 -0.002261 0.000000 0.002366 0.000000
# 2 -0.004952 0.010545 -0.002620 0.000000 0.002275 0.000000
# 3 -0.002261 -0.002620 0.014768 0.000000 0.002511 0.000000
# 4 0.000000 0.000000 0.000000 0.046666 0.000000 0.011425
# 5 0.002366 0.002275 0.002511 0.000000 0.029690 0.000000
# 6 0.000000 0.000000 0.000000 0.011425 0.000000 0.037015
#
#
# Mechanical properties :
#
#
# Convention : Reuss Voigt Hill
#
# Bulk Modulus (GPa) = 53.94934 65.60208 59.77571
# Shear Modulus (GPa) = 28.18197 31.16748 29.67472
#
# Velocity S-wave (km/s) = 3.70550 3.89683 3.80237
# Velocity P-wave (km/s) = 6.67777 7.22561 6.95709
#
# Compressibility (1/GPa) = 0.01853591
#
# Stress axis : x y z
#
# Youngs Moduli (GPa) = 77.58325 94.82850 67.71528
#
# Poissons Ratio (x) = 0.46960 0.15312
# Poissons Ratio (y) = 0.38420 0.17742
# Poissons Ratio (z) = 0.17543 0.24845
#
# Static dielectric constant tensor:
#      x y z
#    x 3.844980 0.000000 0.044240 
#    y 0.000000 4.048910 0.000000 
#    z 0.044240 0.000000 3.689220 
# 
# 
# High freq. dielectric constant tensor:
#      x y z
#    x 1.810140 0.000000 -0.002620 
#    y 0.000000 1.791020 0.000000 
#    z -0.002620 0.000000 1.802020 
# 
# From -- ./inp_files/180756.got.cif
#   From: 2010.06.25/outbox.cif.g09.slc.cpg/sg12_91_cif.got.tgz:180756.got - 2010.06.28 00:19:55.
