data_PCOD8098301
_publ_section_title
;
Structure prediction by ZEFSAII (Michael W. Deem and Ramdas Pophale) SiO2 
 PCOD8098301
Probable space group: C 2/M
;
_chemical_formula_sum "Si O2"
_cell_formula_units_Z 44
_cell_length_a 9.303258
_cell_length_b 9.550773
_cell_length_c 27.250361
_cell_angle_alpha 90.000000
_cell_angle_beta 60.737091
_cell_angle_gamma 90.000000
_cell_volume 2112.294576
_symmetry_space_group_name_H-M "C 2/M"
_symmetry_group_IT_number 12
_symmetry_cell_setting 'monoclinic'
loop_
_space_group_symop_operation_xyz
x,y,z
-x,y,-z
-x,-y,-z
x,-y,z
1/2+x,1/2+y,z
1/2-x,1/2+y,-z
1/2-x,1/2-y,-z
1/2+x,1/2-y,z
loop_
_atom_site_type_symbol
_atom_site_label
_atom_site_fract_x
_atom_site_fract_y
_atom_site_fract_z
Si Si1 0.000000 0.783518 0.000000
Si Si2 0.347096 0.349202 0.924928
Si Si3 0.927948 0.161218 0.742971
Si Si4 0.456225 0.157719 0.367749
Si Si5 0.430910 0.344364 0.564003
Si Si6 0.616832 0.338674 0.808990
O O1 0.073264 0.867179 0.033997
O O2 0.841187 0.699488 0.045048
O O3 0.334560 0.500000 0.902677
O O4 0.472145 0.269525 0.867395
O O5 0.770245 0.237605 0.792331
O O6 0.989908 0.244711 0.685771
O O7 0.070607 0.166621 0.759595
O O8 0.886088 0.000000 0.735849
O O9 0.519938 0.224578 0.406849
O O10 0.263249 0.148832 0.404502
O O11 0.529482 0.000000 0.348897
O O12 0.500000 0.297479 0.500000
O O13 0.499876 0.500000 0.566404
O O14 0.658166 0.500000 0.817475
#
# Coordination Sequence:
#
# PCOD8098301 Si02
#       6
#     4   8   8   8   8   8
#     4  10  20  34  56  84 112 146 186 226 280 340
#     4  10  20  36  56  81 113 147 185 231 281 336
#     4  11  23  39  59  84 113 149 192 238 289 342
#     4  11  23  38  60  88 117 153 194 236 286 341
#     4  10  22  40  61  88 121 155 193 237 284 337
#     4  10  22  39  59  84 115 150 191 238 287 341
#
# _framework density 20.830428999999999
#
# number of rings (size 3 to 8) (size 9 to 14) (size 15 to 20)
#    0.000    1.636    0.000    4.364    0.000    6.182 
#    0.000    4.545    0.000    0.000    0.000    0.000 
#    0.000    0.000    0.000    0.000    0.000    0.000 
#
# Total GULP energy -272621.380273 kJ/mol
# GULP energy per Si atom -12391.880922 kJ/mol
# Density = 2.078302 g / cm^3
# Si number density = 20.830429 Si / 1000 Ang^3
#
#
#
# Elastic Constant Matrix: (Units=GPa)
#
#
# Indices 1 2 3 4 5 6 
#
# 1 64.3190 26.3394 1.6696 0.0000 -4.7200 0.0000
# 2 26.3394 116.4135 27.7350 0.0000 -1.1720 0.0000
# 3 1.6696 27.7350 105.0069 0.0000 -8.9924 0.0000
# 4 0.0000 0.0000 0.0000 28.0817 0.0000 2.7668
# 5 -4.7200 -1.1720 -8.9924 0.0000 38.0086 0.0000
# 6 0.0000 0.0000 0.0000 2.7668 0.0000 18.7521
#
#
#
# Elastic Compliance Matrix: (Units=1/GPa)
#
#
# Indices 1 2 3 4 5 6 
#
# 1 0.017389 -0.004153 0.001015 0.000000 0.002271 0.000000
# 2 -0.004153 0.010162 -0.002690 0.000000 -0.000839 0.000000
# 3 0.001015 -0.002690 0.010433 0.000000 0.002511 0.000000
# 4 0.000000 0.000000 0.000000 0.036136 0.000000 -0.005332
# 5 0.002271 -0.000839 0.002511 0.000000 0.027160 0.000000
# 6 0.000000 0.000000 0.000000 -0.005332 0.000000 0.054114
#
#
# Mechanical properties :
#
#
# Convention : Reuss Voigt Hill
#
# Bulk Modulus (GPa) = 37.98359 44.13638 41.05999
# Shear Modulus (GPa) = 28.43730 32.30150 30.36940
#
# Velocity S-wave (km/s) = 3.69884 3.94215 3.82243
# Velocity P-wave (km/s) = 6.04286 6.47728 6.26384
#
# Compressibility (1/GPa) = 0.02632716
#
# Stress axis : x y z
#
# Youngs Moduli (GPa) = 57.50877 98.40397 95.85357
#
# Poissons Ratio (x) = 0.40870 -0.09729
# Poissons Ratio (y) = 0.23885 0.25784
# Poissons Ratio (z) = -0.05837 0.26470
#
# Static dielectric constant tensor:
#      x y z
#    x 3.719300 0.000000 -0.141310 
#    y 0.000000 3.968000 0.000000 
#    z -0.141310 0.000000 3.950960 
# 
# 
# High freq. dielectric constant tensor:
#      x y z
#    x 1.812990 0.000000 -0.006630 
#    y 0.000000 1.812420 0.000000 
#    z -0.006630 0.000000 1.837350 
# 
# From -- ./inp_files/371815.got.cif
#   From: 2010.06.25/outbox.cif.g09.slc.cpg/sg12_186_cif.got.tgz:371815.got - 2010.06.28 00:19:55.
