data_PCOD8098800
_publ_section_title
;
Structure prediction by ZEFSAII (Michael W. Deem and Ramdas Pophale) SiO2 
 PCOD8098800
Probable space group: C 2/M
;
_chemical_formula_sum "Si O2"
_cell_formula_units_Z 36
_cell_length_a 13.082241
_cell_length_b 20.941274
_cell_length_c 7.134823
_cell_angle_alpha 90.000000
_cell_angle_beta 122.216965
_cell_angle_gamma 90.000000
_cell_volume 1653.700876
_symmetry_space_group_name_H-M "C 2/M"
_symmetry_group_IT_number 12
_symmetry_cell_setting 'monoclinic'
loop_
_space_group_symop_operation_xyz
x,y,z
-x,y,-z
-x,-y,-z
x,-y,z
1/2+x,1/2+y,z
1/2-x,1/2+y,-z
1/2-x,1/2-y,-z
1/2+x,1/2-y,z
loop_
_atom_site_type_symbol
_atom_site_label
_atom_site_fract_x
_atom_site_fract_y
_atom_site_fract_z
Si Si1 0.105566 0.283397 0.966338
Si Si2 0.324056 0.649341 0.071108
Si Si3 0.713542 0.074852 0.637706
Si Si4 0.500000 0.159640 0.500000
Si Si5 0.963528 0.928866 0.746224
O O1 0.134930 0.208675 0.021090
O O2 0.068695 0.295320 0.714064
O O3 0.227668 0.324287 0.130102
O O4 0.000000 0.305761 0.000000
O O5 0.445561 0.617927 0.280950
O O6 0.257363 0.594433 0.887699
O O7 0.593460 0.115211 0.473866
O O8 0.821409 0.090105 0.593376
O O9 0.682563 0.000000 0.606787
O O10 0.982658 0.000000 0.686871
O O11 0.000000 0.924595 0.000000
#
# Coordination Sequence:
#
# PCOD8098800 Si02
#       5
#     8   8   8   4   8
#     4  10  20  35  53  76 108 140 172 212 257 310
#     4   9  17  31  50  76 103 134 177 214 254 307
#     4   9  16  29  53  79 103 136 176 218 261 306
#     4  10  21  34  52  82 109 138 174 208 260 318
#     4   8  13  24  46  73  98 130 174 218 257 299
#
# _framework density 21.769352999999999
#
# number of rings (size 3 to 8) (size 9 to 14) (size 15 to 20)
#    0.000    2.889    0.000    4.333    0.000    0.000 
#    0.000   17.778    0.000   24.000    0.000    6.222 
#    0.000    0.000    0.000    0.000    0.000    0.000 
#
# Total GULP energy -223016.207543 kJ/mol
# GULP energy per Si atom -12389.789308 kJ/mol
# Density = 2.171981 g / cm^3
# Si number density = 21.769353 Si / 1000 Ang^3
#
#
#
# Elastic Constant Matrix: (Units=GPa)
#
#
# Indices 1 2 3 4 5 6 
#
# 1 172.7661 49.4665 9.1370 0.0000 37.7773 0.0000
# 2 49.4665 84.6909 9.2112 0.0000 17.9769 0.0000
# 3 9.1370 9.2112 33.0573 0.0000 11.9134 0.0000
# 4 0.0000 0.0000 0.0000 14.1178 0.0000 12.2752
# 5 37.7773 17.9769 11.9134 0.0000 29.0197 0.0000
# 6 0.0000 0.0000 0.0000 12.2752 0.0000 38.2048
#
#
#
# Elastic Compliance Matrix: (Units=1/GPa)
#
#
# Indices 1 2 3 4 5 6 
#
# 1 0.008881 -0.003202 0.002217 0.000000 -0.010488 0.000000
# 2 -0.003202 0.014772 -0.001685 0.000000 -0.004291 0.000000
# 3 0.002217 -0.001685 0.036114 0.000000 -0.016669 0.000000
# 4 0.000000 0.000000 0.000000 0.098292 0.000000 -0.031581
# 5 -0.010488 -0.004291 -0.016669 0.000000 0.057613 0.000000
# 6 0.000000 0.000000 0.000000 -0.031581 0.000000 0.036322
#
#
# Mechanical properties :
#
#
# Convention : Reuss Voigt Hill
#
# Bulk Modulus (GPa) = 18.37298 47.34929 32.86113
# Shear Modulus (GPa) = 18.15040 31.11510 24.63275
#
# Velocity S-wave (km/s) = 2.89062 3.78472 3.36748
# Velocity P-wave (km/s) = 4.42709 6.39503 5.49980
#
# Compressibility (1/GPa) = 0.05442777
#
# Stress axis : x y z
#
# Youngs Moduli (GPa) = 112.59941 67.69566 27.68988
#
# Poissons Ratio (x) = 0.21678 -0.06139
# Poissons Ratio (y) = 0.36057 0.04665
# Poissons Ratio (z) = -0.24966 0.11405
#
# Static dielectric constant tensor:
#      x y z
#    x 4.376660 0.000000 0.681870 
#    y 0.000000 3.963550 0.000000 
#    z 0.681870 0.000000 3.369410 
# 
# 
# High freq. dielectric constant tensor:
#      x y z
#    x 1.865410 0.000000 0.044910 
#    y 0.000000 1.860700 0.000000 
#    z 0.044910 0.000000 1.798910 
# 
# From -- ./inp_files/48977.got.cif
#   From: 2010.06.25/outbox.cif.g09.slc.cpg/sg12_25_cif.got.tgz:48977.got - 2010.06.28 00:19:55.
