data_PCOD8098312
_publ_section_title
;
Structure prediction by ZEFSAII (Michael W. Deem and Ramdas Pophale) SiO2 
 PCOD8098312
Probable space group: C 2/M
;
_chemical_formula_sum "Si O2"
_cell_formula_units_Z 56
_cell_length_a 21.242261
_cell_length_b 8.543522
_cell_length_c 29.663557
_cell_angle_alpha 90.000000
_cell_angle_beta 149.994876
_cell_angle_gamma 90.000000
_cell_volume 2692.143332
_symmetry_space_group_name_H-M "C 2/M"
_symmetry_group_IT_number 12
_symmetry_cell_setting 'monoclinic'
loop_
_space_group_symop_operation_xyz
x,y,z
-x,y,-z
-x,-y,-z
x,-y,z
1/2+x,1/2+y,z
1/2-x,1/2+y,-z
1/2-x,1/2-y,-z
1/2+x,1/2-y,z
loop_
_atom_site_type_symbol
_atom_site_label
_atom_site_fract_x
_atom_site_fract_y
_atom_site_fract_z
Si Si1 0.796077 0.324831 0.456804
Si Si2 0.631440 0.314598 0.208517
Si Si3 0.911111 0.324763 0.616673
Si Si4 0.856929 0.180442 0.405786
Si Si5 0.880249 0.686587 0.101059
Si Si6 0.624726 0.686204 0.101784
Si Si7 0.843042 0.678667 0.177709
O O1 0.797975 0.500000 0.437458
O O2 0.912541 0.296974 0.563405
O O3 0.671848 0.304090 0.409705
O O4 0.794853 0.199251 0.416310
O O5 0.619840 0.500000 0.203035
O O6 0.765477 0.266615 0.313701
O O7 0.507396 0.247394 0.156209
O O8 0.632047 0.250164 0.157542
O O9 0.859346 0.500000 0.594861
O O10 0.050518 0.304375 0.719411
O O11 0.000000 0.250037 0.500000
O O12 0.863063 0.000000 0.395565
O O13 0.882551 0.500000 0.099448
O O14 0.881414 0.751770 0.153332
O O15 0.750000 0.750000 0.000000
O O16 0.638757 0.500000 0.112457
O O17 0.728254 0.761583 0.132443
O O18 0.500000 0.742364 0.000000
O O19 0.807184 0.500000 0.145045
#
# Coordination Sequence:
#
# PCOD8098312 Si02
#       7
#     8   8   8   8   8   8   8
#     4  10  20  34  56  84 114 147 193 248 296 353
#     4  11  23  39  65  95 124 159 204 260 315 373
#     4   9  18  33  56  83 113 149 188 240 305 360
#     4  11  25  42  59  81 119 168 210 251 307 372
#     4  11  22  38  63  91 125 163 204 252 305 371
#     4   9  18  34  58  88 119 151 193 244 300 364
#     4   9  18  33  56  83 110 148 196 242 293 351
#
# _framework density 20.801271
#
# number of rings (size 3 to 8) (size 9 to 14) (size 15 to 20)
#    0.000    2.000    0.000    3.429    2.000    5.143 
#    0.000    0.714    0.000    9.429    0.000    0.000 
#    0.000    0.000    0.000    0.000    0.000    0.000 
#
# Total GULP energy -346967.898191 kJ/mol
# GULP energy per Si atom -12391.710650 kJ/mol
# Density = 2.075393 g / cm^3
# Si number density = 20.801271 Si / 1000 Ang^3
#
#
#
# Elastic Constant Matrix: (Units=GPa)
#
#
# Indices 1 2 3 4 5 6 
#
# 1 141.4340 23.6845 71.8567 0.0001 -11.2458 0.0002
# 2 23.6845 53.4574 33.2075 -0.0004 0.0919 0.0001
# 3 71.8567 33.2075 137.5491 -0.0021 -6.3937 0.0001
# 4 0.0001 -0.0004 -0.0021 27.8550 -0.0001 2.9876
# 5 -11.2458 0.0919 -6.3937 -0.0001 36.9286 0.0000
# 6 0.0002 0.0001 0.0001 2.9876 0.0000 21.4238
#
#
#
# Elastic Compliance Matrix: (Units=1/GPa)
#
#
# Indices 1 2 3 4 5 6 
#
# 1 0.009881 -0.001457 -0.004708 0.000000 0.002198 0.000000
# 2 -0.001457 0.022257 -0.004673 0.000000 -0.001308 0.000000
# 3 -0.004708 -0.004673 0.010879 0.000001 0.000462 0.000000
# 4 0.000000 0.000000 0.000001 0.036445 0.000000 -0.005082
# 5 0.002198 -0.001308 0.000462 0.000000 0.027832 0.000000
# 6 0.000000 0.000000 0.000000 -0.005082 0.000000 0.047386
#
#
# Mechanical properties :
#
#
# Convention : Reuss Voigt Hill
#
# Bulk Modulus (GPa) = 46.85749 65.54867 56.20308
# Shear Modulus (GPa) = 27.25237 30.82094 29.03665
#
# Velocity S-wave (km/s) = 3.62350 3.85344 3.74024
# Velocity P-wave (km/s) = 6.33099 7.16791 6.76241
#
# Compressibility (1/GPa) = 0.02134130
#
# Stress axis : x y z
#
# Youngs Moduli (GPa) = 101.20296 44.92945 91.91776
#
# Poissons Ratio (x) = 0.06546 0.43276
# Poissons Ratio (y) = 0.14745 0.42953
# Poissons Ratio (z) = 0.47647 0.20996
#
# Static dielectric constant tensor:
#      x y z
#    x 3.957510 0.000000 -0.128200 
#    y 0.000000 3.518760 0.000000 
#    z -0.128200 0.000000 3.999160 
# 
# 
# High freq. dielectric constant tensor:
#      x y z
#    x 1.822210 0.000000 -0.007960 
#    y 0.000000 1.783200 0.000000 
#    z -0.007960 0.000000 1.830550 
# 
# From -- ./inp_files/380818.got.cif
#   From: 2010.06.25/outbox.cif.g09.slc.cpg/sg12_191_cif.got.tgz:380818.got - 2010.06.28 00:19:55.
