data_PCOD8098541
_publ_section_title
;
Structure prediction by ZEFSAII (Michael W. Deem and Ramdas Pophale) SiO2 
 PCOD8098541
Probable space group: C 2/M
;
_chemical_formula_sum "Si O2"
_cell_formula_units_Z 64
_cell_length_a 15.235115
_cell_length_b 8.952275
_cell_length_c 30.767404
_cell_angle_alpha 90.000000
_cell_angle_beta 128.497748
_cell_angle_gamma 90.000000
_cell_volume 3284.187570
_symmetry_space_group_name_H-M "C 2/M"
_symmetry_group_IT_number 12
_symmetry_cell_setting 'monoclinic'
loop_
_space_group_symop_operation_xyz
x,y,z
-x,y,-z
-x,-y,-z
x,-y,z
1/2+x,1/2+y,z
1/2-x,1/2+y,-z
1/2-x,1/2-y,-z
1/2+x,1/2-y,z
loop_
_atom_site_type_symbol
_atom_site_label
_atom_site_fract_x
_atom_site_fract_y
_atom_site_fract_z
Si Si1 0.252306 0.828700 0.322188
Si Si2 0.622049 0.164677 0.556643
Si Si3 0.823818 0.327433 0.869228
Si Si4 0.286192 0.831630 0.554083
Si Si5 0.669389 0.326044 0.740123
Si Si6 0.434313 0.177877 0.675840
Si Si7 0.765480 0.175580 0.937578
Si Si8 0.579454 0.175339 0.947800
O O1 0.364752 0.822700 0.387114
O O2 0.276640 0.731563 0.287595
O O3 0.144843 0.762093 0.314164
O O4 0.226121 0.000000 0.301047
O O5 0.500000 0.181602 0.500000
O O6 0.688205 0.304597 0.558209
O O7 0.669488 0.000000 0.557307
O O8 0.820812 0.500000 0.881636
O O9 0.761570 0.297513 0.805126
O O10 0.760258 0.237044 0.887209
O O11 0.951630 0.272588 0.902001
O O12 0.250000 0.750000 0.500000
O O13 0.398634 0.782072 0.614721
O O14 0.296555 0.000000 0.542918
O O15 0.638395 0.500000 0.725850
O O16 0.560251 0.233568 0.720447
O O17 0.425865 0.000000 0.681122
O O18 0.650791 0.221424 0.927093
O O19 0.780510 0.000000 0.940609
O O20 0.872762 0.243545 0.995028
O O21 0.588747 0.000000 0.959120
#
# Coordination Sequence:
#
# PCOD8098541 Si02
#       8
#     8   8   8   8   8   8   8   8
#     4  10  21  39  61  85 115 150 191 239 293 351
#     4   9  19  35  55  80 110 142 176 222 281 344
#     4  10  22  39  57  81 114 154 196 236 284 342
#     4  10  21  35  54  81 110 141 179 225 280 343
#     4  11  24  40  60  86 116 155 202 247 295 349
#     4  10  22  41  61  82 113 152 193 238 292 351
#     4  10  20  34  57  89 119 150 191 238 285 334
#     4   9  19  37  58  81 116 158 191 227 285 345
#
# _framework density 19.487316
#
# number of rings (size 3 to 8) (size 9 to 14) (size 15 to 20)
#    0.000    2.125    0.000    2.250    1.750    6.750 
#    0.000    1.250    0.000    0.000    0.000    0.000 
#    0.000    0.000    0.000    0.000    0.000    0.000 
#
# Total GULP energy -396655.549346 kJ/mol
# GULP energy per Si atom -12395.485917 kJ/mol
# Density = 1.944296 g / cm^3
# Si number density = 19.487316 Si / 1000 Ang^3
#
#
#
# Elastic Constant Matrix: (Units=GPa)
#
#
# Indices 1 2 3 4 5 6 
#
# 1 85.2078 27.7555 48.7225 0.0000 -5.3243 0.0000
# 2 27.7555 56.5400 39.2710 0.0000 -2.8247 0.0000
# 3 48.7225 39.2710 105.4797 0.0000 -5.5058 0.0000
# 4 0.0000 0.0000 0.0000 27.7053 0.0000 -6.0920
# 5 -5.3243 -2.8247 -5.5058 0.0000 30.4380 0.0000
# 6 0.0000 0.0000 0.0000 -6.0920 0.0000 35.2183
#
#
#
# Elastic Compliance Matrix: (Units=1/GPa)
#
#
# Indices 1 2 3 4 5 6 
#
# 1 0.016592 -0.003779 -0.006182 0.000000 0.001433 0.000000
# 2 -0.003779 0.024728 -0.007446 0.000000 0.000287 0.000000
# 3 -0.006182 -0.007446 0.015159 0.000000 0.000970 0.000000
# 4 0.000000 0.000000 0.000000 0.037521 0.000000 0.006490
# 5 0.001433 0.000287 0.000970 0.000000 0.033306 0.000000
# 6 0.000000 0.000000 0.000000 0.006490 0.000000 0.029517
#
#
# Mechanical properties :
#
#
# Convention : Reuss Voigt Hill
#
# Bulk Modulus (GPa) = 46.15939 53.19172 49.67555
# Shear Modulus (GPa) = 25.14356 27.43755 26.29056
#
# Velocity S-wave (km/s) = 3.59591 3.75636 3.67701
# Velocity P-wave (km/s) = 6.40149 6.79474 6.60104
#
# Compressibility (1/GPa) = 0.02166407
#
# Stress axis : x y z
#
# Youngs Moduli (GPa) = 60.27165 40.44036 65.96867
#
# Poissons Ratio (x) = 0.15284 0.40781
# Poissons Ratio (y) = 0.22779 0.49118
# Poissons Ratio (z) = 0.37260 0.30110
#
# Static dielectric constant tensor:
#      x y z
#    x 3.509430 0.000000 -0.014000 
#    y 0.000000 3.650040 0.000000 
#    z -0.014000 0.000000 3.834150 
# 
# 
# High freq. dielectric constant tensor:
#      x y z
#    x 1.753730 0.000000 -0.002370 
#    y 0.000000 1.765060 0.000000 
#    z -0.002370 0.000000 1.764050 
# 
# From -- ./inp_files/375550.got.cif
#   From: 2010.06.25/outbox.cif.g09.slc.cpg/sg12_188_cif.got.tgz:375550.got - 2010.06.28 00:19:55.
