data_PCOD8098851
_publ_section_title
;
Structure prediction by ZEFSAII (Michael W. Deem and Ramdas Pophale) SiO2 
 PCOD8098851
Probable space group: C 2/M
;
_chemical_formula_sum "Si O2"
_cell_formula_units_Z 64
_cell_length_a 24.536872
_cell_length_b 9.031614
_cell_length_c 17.579463
_cell_angle_alpha 90.000000
_cell_angle_beta 76.755014
_cell_angle_gamma 90.000000
_cell_volume 3792.112431
_symmetry_space_group_name_H-M "C 2/M"
_symmetry_group_IT_number 12
_symmetry_cell_setting 'monoclinic'
loop_
_space_group_symop_operation_xyz
x,y,z
-x,y,-z
-x,-y,-z
x,-y,z
1/2+x,1/2+y,z
1/2-x,1/2+y,-z
1/2-x,1/2-y,-z
1/2+x,1/2-y,z
loop_
_atom_site_type_symbol
_atom_site_label
_atom_site_fract_x
_atom_site_fract_y
_atom_site_fract_z
Si Si1 0.462927 0.829320 0.348213
Si Si2 0.766229 0.829016 0.072435
Si Si3 0.929813 0.175174 0.911968
Si Si4 0.039092 0.330817 0.821869
Si Si5 0.088004 0.671583 0.347865
Si Si6 0.064776 0.832440 0.500109
Si Si7 0.879000 0.328468 0.069743
Si Si8 0.350644 0.830531 0.820683
O O1 0.442081 0.791907 0.269972
O O2 0.527955 0.782251 0.332645
O O3 0.424941 0.741029 0.420894
O O4 0.455540 0.000000 0.371052
O O5 0.819392 0.750923 0.092733
O O6 0.715744 0.813842 0.148426
O O7 0.780237 0.000000 0.050645
O O8 0.750000 0.750000 0.000000
O O9 0.881387 0.223826 0.869800
O O10 0.990342 0.221074 0.862657
O O11 0.927536 0.000000 0.923228
O O12 0.919761 0.252816 0.995846
O O13 0.016475 0.500000 0.832961
O O14 0.093297 0.309890 0.856697
O O15 0.089854 0.500000 0.367533
O O16 0.101274 0.756914 0.421948
O O17 0.134262 0.715582 0.270289
O O18 0.000000 0.813722 0.500000
O O19 0.084425 0.000000 0.499496
O O20 0.870800 0.500000 0.050093
O O21 0.370155 0.000000 0.829806
#
# Coordination Sequence:
#
# PCOD8098851 Si02
#       8
#     8   8   8   8   8   8   8   8
#     4   9  16  29  49  70  95 130 170 201 237 299
#     4  11  22  36  56  77 100 132 171 216 262 304
#     4  12  23  33  51  76 104 134 169 213 258 304
#     4  10  21  37  54  73 100 138 176 210 252 304
#     4   9  16  29  49  70  95 129 168 203 239 295
#     4   9  17  27  41  67 103 133 158 194 245 298
#     4  11  23  38  55  72  99 137 176 216 256 301
#     4  10  20  35  54  74 100 135 172 209 254 305
#
# _framework density 16.877137000000001
#
# number of rings (size 3 to 8) (size 9 to 14) (size 15 to 20)
#    0.000    1.875    2.500    2.625    0.000    5.500 
#    0.000    0.000    0.000    0.000    0.000    0.875 
#    0.000    0.000    0.000    0.000    0.000    0.000 
#
# Total GULP energy -396866.419240 kJ/mol
# GULP energy per Si atom -12402.075601 kJ/mol
# Density = 1.683872 g / cm^3
# Si number density = 16.877137 Si / 1000 Ang^3
#
#
#
# Elastic Constant Matrix: (Units=GPa)
#
#
# Indices 1 2 3 4 5 6 
#
# 1 56.0617 35.3965 37.3187 0.0000 9.3692 0.0000
# 2 35.3965 109.1515 63.4822 0.0000 5.9223 0.0000
# 3 37.3187 63.4822 151.5323 0.0000 3.6953 0.0000
# 4 0.0000 0.0000 0.0000 17.5911 0.0000 -3.4551
# 5 9.3692 5.9223 3.6953 0.0000 15.6993 0.0000
# 6 0.0000 0.0000 0.0000 -3.4551 0.0000 21.9739
#
#
#
# Elastic Compliance Matrix: (Units=1/GPa)
#
#
# Indices 1 2 3 4 5 6 
#
# 1 0.025928 -0.005545 -0.003758 0.000000 -0.012498 0.000000
# 2 -0.005545 0.013481 -0.004263 0.000000 -0.000773 0.000000
# 3 -0.003758 -0.004263 0.009270 0.000000 0.001669 0.000000
# 4 0.000000 0.000000 0.000000 0.058659 0.000000 0.009223
# 5 -0.012498 -0.000773 0.001669 0.000000 0.071055 0.000000
# 6 0.000000 0.000000 0.000000 0.009223 0.000000 0.046959
#
#
# Mechanical properties :
#
#
# Convention : Reuss Voigt Hill
#
# Bulk Modulus (GPa) = 46.40823 65.46005 55.93414
# Shear Modulus (GPa) = 19.25550 23.08937 21.17244
#
# Velocity S-wave (km/s) = 3.38142 3.70278 3.54574
# Velocity P-wave (km/s) = 6.54238 7.55984 7.06944
#
# Compressibility (1/GPa) = 0.02154790
#
# Stress axis : x y z
#
# Youngs Moduli (GPa) = 38.56763 74.17779 107.87340
#
# Poissons Ratio (x) = 0.41128 0.40538
# Poissons Ratio (y) = 0.21384 0.45990
# Poissons Ratio (z) = 0.14494 0.31625
#
# Static dielectric constant tensor:
#      x y z
#    x 2.904280 0.000000 -0.051110 
#    y 0.000000 3.243500 0.000000 
#    z -0.051110 0.000000 3.321720 
# 
# 
# High freq. dielectric constant tensor:
#      x y z
#    x 1.607970 0.000000 -0.003580 
#    y 0.000000 1.657780 0.000000 
#    z -0.003580 0.000000 1.658440 
# 
# From -- ./inp_files/287543.got.cif
#   From: 2010.06.25/outbox.cif.g09.slc.cpg/sg12_144_cif.got.tgz:287543.got - 2010.06.28 00:19:55.
