data_PCOD8098350
_publ_section_title
;
Structure prediction by ZEFSAII (Michael W. Deem and Ramdas Pophale) SiO2 
 PCOD8098350
Probable space group: C 2/M
;
_chemical_formula_sum "Si O2"
_cell_formula_units_Z 64
_cell_length_a 24.096320
_cell_length_b 8.786996
_cell_length_c 16.318156
_cell_angle_alpha 90.000000
_cell_angle_beta 91.766057
_cell_angle_gamma 90.000000
_cell_volume 3453.471605
_symmetry_space_group_name_H-M "C 2/M"
_symmetry_group_IT_number 12
_symmetry_cell_setting 'monoclinic'
loop_
_space_group_symop_operation_xyz
x,y,z
-x,y,-z
-x,-y,-z
x,-y,z
1/2+x,1/2+y,z
1/2-x,1/2+y,-z
1/2-x,1/2-y,-z
1/2+x,1/2-y,z
loop_
_atom_site_type_symbol
_atom_site_label
_atom_site_fract_x
_atom_site_fract_y
_atom_site_fract_z
Si Si1 0.868741 0.675947 0.118776
Si Si2 0.941857 0.819805 0.528600
Si Si3 0.045359 0.173776 0.770383
Si Si4 0.677468 0.821703 0.200434
Si Si5 0.807396 0.179153 0.973781
Si Si6 0.373890 0.676021 0.372319
Si Si7 0.077093 0.821534 0.288992
Si Si8 0.286089 0.823494 0.262449
O O1 0.869215 0.500000 0.095079
O O2 0.928674 0.721583 0.157341
O O3 0.821453 0.713822 0.183057
O O4 0.856658 0.772319 0.036956
O O5 0.892493 0.773979 0.464121
O O6 0.926845 0.760500 0.618114
O O7 0.000000 0.747951 0.500000
O O8 0.949132 0.000000 0.532067
O O9 0.073973 0.207879 0.684596
O O10 0.980596 0.209793 0.759932
O O11 0.055801 0.000000 0.796412
O O12 0.676934 0.731922 0.115652
O O13 0.622534 0.779827 0.246966
O O14 0.730143 0.773718 0.257346
O O15 0.679540 0.000000 0.182656
O O16 0.800267 0.000000 0.973360
O O17 0.750000 0.250000 0.000000
O O18 0.356413 0.500000 0.368286
O O19 0.320938 0.775906 0.344131
O O20 0.092722 0.000000 0.286620
O O21 0.270748 0.000000 0.267706
#
# Coordination Sequence:
#
# PCOD8098350 Si02
#       8
#     8   8   8   8   8   8   8   8
#     4  10  20  34  56  85 116 147 184 233 282 331
#     4   9  15  29  56  88 115 146 190 237 280 332
#     4   9  17  31  54  83 115 150 187 231 282 337
#     4  12  25  40  58  81 114 153 191 233 284 340
#     4  12  23  38  61  88 115 144 186 234 281 335
#     4   9  16  29  54  86 115 143 186 235 281 333
#     4  10  20  36  58  84 117 154 192 234 285 343
#     4  10  20  35  55  80 113 149 187 231 284 338
#
# _framework density 18.532076
#
# number of rings (size 3 to 8) (size 9 to 14) (size 15 to 20)
#    0.000    1.875    2.500    3.000    0.000    1.500 
#    0.000    1.875    0.000    4.500    0.000    0.000 
#    0.000    0.000    0.000    0.000    0.000    0.000 
#
# Total GULP energy -396895.982505 kJ/mol
# GULP energy per Si atom -12402.999453 kJ/mol
# Density = 1.848990 g / cm^3
# Si number density = 18.532076 Si / 1000 Ang^3
#
#
#
# Elastic Constant Matrix: (Units=GPa)
#
#
# Indices 1 2 3 4 5 6 
#
# 1 103.5931 44.9118 53.2612 0.0000 8.3189 0.0000
# 2 44.9118 95.3291 42.5916 0.0000 6.2164 0.0000
# 3 53.2612 42.5916 112.7232 0.0000 9.8241 0.0000
# 4 0.0000 0.0000 0.0000 23.6988 0.0000 2.1780
# 5 8.3189 6.2164 9.8241 0.0000 26.2458 0.0000
# 6 0.0000 0.0000 0.0000 2.1780 0.0000 30.2556
#
#
#
# Elastic Compliance Matrix: (Units=1/GPa)
#
#
# Indices 1 2 3 4 5 6 
#
# 1 0.014216 -0.004396 -0.004914 0.000000 -0.001625 0.000000
# 2 -0.004396 0.014019 -0.003155 0.000000 -0.000746 0.000000
# 3 -0.004914 -0.003155 0.012595 0.000000 -0.002410 0.000000
# 4 0.000000 0.000000 0.000000 0.042477 0.000000 -0.003058
# 5 -0.001625 -0.000746 -0.002410 0.000000 0.039695 0.000000
# 6 0.000000 0.000000 0.000000 -0.003058 0.000000 0.033272
#
#
# Mechanical properties :
#
#
# Convention : Reuss Voigt Hill
#
# Bulk Modulus (GPa) = 62.89244 65.90828 64.40036
# Shear Modulus (GPa) = 26.80879 27.43209 27.12044
#
# Velocity S-wave (km/s) = 3.80757 3.85157 3.82963
# Velocity P-wave (km/s) = 7.30348 7.44454 7.37435
#
# Compressibility (1/GPa) = 0.01590016
#
# Stress axis : x y z
#
# Youngs Moduli (GPa) = 70.34226 71.33050 79.39366
#
# Poissons Ratio (x) = 0.31356 0.39018
# Poissons Ratio (y) = 0.30922 0.25049
# Poissons Ratio (z) = 0.34570 0.22505
#
# Static dielectric constant tensor:
#      x y z
#    x 3.345850 0.000000 0.188120 
#    y 0.000000 3.301460 0.000000 
#    z 0.188120 0.000000 3.528450 
# 
# 
# High freq. dielectric constant tensor:
#      x y z
#    x 1.712260 0.000000 0.022850 
#    y 0.000000 1.708600 0.000000 
#    z 0.022850 0.000000 1.714780 
# 
# From -- ./inp_files/238753.got.cif
#   From: 2010.06.25/outbox.cif.g09.slc.cpg/sg12_120_cif.got.tgz:238753.got - 2010.06.28 00:19:55.
