data_PCOD8098454
_publ_section_title
;
Structure prediction by ZEFSAII (Michael W. Deem and Ramdas Pophale) SiO2 
 PCOD8098454
Probable space group: C 2/M
;
_chemical_formula_sum "Si O2"
_cell_formula_units_Z 64
_cell_length_a 16.289751
_cell_length_b 13.961478
_cell_length_c 18.468080
_cell_angle_alpha 90.000000
_cell_angle_beta 49.623800
_cell_angle_gamma 90.000000
_cell_volume 3199.726163
_symmetry_space_group_name_H-M "C 2/M"
_symmetry_group_IT_number 12
_symmetry_cell_setting 'monoclinic'
loop_
_space_group_symop_operation_xyz
x,y,z
-x,y,-z
-x,-y,-z
x,-y,z
1/2+x,1/2+y,z
1/2-x,1/2+y,-z
1/2-x,1/2-y,-z
1/2+x,1/2-y,z
loop_
_atom_site_type_symbol
_atom_site_label
_atom_site_fract_x
_atom_site_fract_y
_atom_site_fract_z
Si Si1 0.403521 0.612054 0.503653
Si Si2 0.280001 0.110654 0.951582
Si Si3 0.122773 0.388901 0.950349
Si Si4 0.222659 0.276473 0.189598
Si Si5 0.710990 0.762622 0.603524
Si Si6 0.066461 0.108089 0.144918
Si Si7 0.995104 0.216727 0.683447
Si Si8 0.677115 0.609236 0.742428
O O1 0.500000 0.646866 0.500000
O O2 0.386996 0.500000 0.515607
O O3 0.288535 0.656965 0.594535
O O4 0.435510 0.644376 0.404939
O O5 0.313508 0.176941 0.865820
O O6 0.279524 0.000000 0.927277
O O7 0.361314 0.125779 0.972530
O O8 0.159882 0.148987 0.039946
O O9 0.147257 0.500000 0.915180
O O10 0.204959 0.319636 0.859647
O O11 0.000000 0.361893 0.000000
O O12 0.283320 0.353098 0.203567
O O13 0.107203 0.263693 0.298341
O O14 0.750000 0.750000 0.500000
O O15 0.582997 0.789598 0.670210
O O16 0.720467 0.667877 0.648073
O O17 0.070670 0.158924 0.219050
O O18 0.950794 0.117582 0.174522
O O19 0.099508 0.000000 0.143124
O O20 0.713989 0.500000 0.708922
#
# Coordination Sequence:
#
# PCOD8098454 Si02
#       8
#     8   8   8   8   8   8   8   8
#     4  10  20  36  60  87 115 144 185 241 297 356
#     4  10  21  38  57  82 116 160 212 256 302 357
#     4  10  23  39  56  80 116 163 213 259 305 354
#     4  12  23  35  61  86 123 165 203 253 302 362
#     4   9  20  39  62  85 114 149 190 240 297 363
#     4   9  18  34  56  80 110 149 200 254 296 341
#     4  10  20  34  57  85 113 151 196 244 296 349
#     4  10  22  38  58  90 123 153 194 250 306 358
#
# _framework density 20.001712000000001
#
# number of rings (size 3 to 8) (size 9 to 14) (size 15 to 20)
#    0.000    2.000    1.250    1.875    1.750    4.500 
#    0.000    3.750    0.000    7.875    0.000    0.000 
#    0.000    0.000    0.000    0.000    0.000    0.000 
#
# Total GULP energy -396499.888921 kJ/mol
# GULP energy per Si atom -12390.621529 kJ/mol
# Density = 1.995619 g / cm^3
# Si number density = 20.001712 Si / 1000 Ang^3
#
#
#
# Elastic Constant Matrix: (Units=GPa)
#
#
# Indices 1 2 3 4 5 6 
#
# 1 130.3139 60.4771 44.0908 0.0000 -20.7752 0.0000
# 2 60.4771 84.9880 38.2880 0.0000 -11.2460 0.0000
# 3 44.0908 38.2880 76.3581 0.0000 -12.1732 0.0000
# 4 0.0000 0.0000 0.0000 30.7476 0.0000 1.4658
# 5 -20.7752 -11.2460 -12.1732 0.0000 37.0659 0.0000
# 6 0.0000 0.0000 0.0000 1.4658 0.0000 30.2750
#
#
#
# Elastic Compliance Matrix: (Units=1/GPa)
#
#
# Indices 1 2 3 4 5 6 
#
# 1 0.012634 -0.007063 -0.003130 0.000000 0.003910 0.000000
# 2 -0.007063 0.019324 -0.005601 0.000000 0.000065 0.000000
# 3 -0.003130 -0.005601 0.018110 0.000000 0.002494 0.000000
# 4 0.000000 0.000000 0.000000 0.032598 0.000000 -0.001578
# 5 0.003910 0.000065 0.002494 0.000000 0.030009 0.000000
# 6 0.000000 0.000000 0.000000 -0.001578 0.000000 0.033107
#
#
# Mechanical properties :
#
#
# Convention : Reuss Voigt Hill
#
# Bulk Modulus (GPa) = 54.11351 64.15242 59.13297
# Shear Modulus (GPa) = 27.24343 29.53797 28.39070
#
# Velocity S-wave (km/s) = 3.69461 3.84705 3.77160
# Velocity P-wave (km/s) = 6.73152 7.20251 6.97099
#
# Compressibility (1/GPa) = 0.01847967
#
# Stress axis : x y z
#
# Youngs Moduli (GPa) = 79.15155 51.74894 55.21854
#
# Poissons Ratio (x) = 0.36548 0.17285
# Poissons Ratio (y) = 0.55902 0.30929
# Poissons Ratio (z) = 0.24777 0.28985
#
# Static dielectric constant tensor:
#      x y z
#    x 4.046840 0.000000 -0.258950 
#    y 0.000000 3.680170 0.000000 
#    z -0.258950 0.000000 3.577410 
# 
# 
# High freq. dielectric constant tensor:
#      x y z
#    x 1.801400 0.000000 -0.010690 
#    y 0.000000 1.771600 0.000000 
#    z -0.010690 0.000000 1.767960 
# 
# From -- ./inp_files/270683.got.cif
#   From: 2010.06.25/outbox.cif.g09.slc.cpg/sg12_136_cif.got.tgz:270683.got - 2010.06.28 00:19:55.
