data_PCOD8098785
_publ_section_title
;
Structure prediction by ZEFSAII (Michael W. Deem and Ramdas Pophale) SiO2 
 PCOD8098785
Probable space group: C 2/M
;
_chemical_formula_sum "Si O2"
_cell_formula_units_Z 36
_cell_length_a 14.248455
_cell_length_b 20.216328
_cell_length_c 10.650336
_cell_angle_alpha 90.000000
_cell_angle_beta 144.190906
_cell_angle_gamma 90.000000
_cell_volume 1794.954163
_symmetry_space_group_name_H-M "C 2/M"
_symmetry_group_IT_number 12
_symmetry_cell_setting 'monoclinic'
loop_
_space_group_symop_operation_xyz
x,y,z
-x,y,-z
-x,-y,-z
x,-y,z
1/2+x,1/2+y,z
1/2-x,1/2+y,-z
1/2-x,1/2-y,-z
1/2+x,1/2-y,z
loop_
_atom_site_type_symbol
_atom_site_label
_atom_site_fract_x
_atom_site_fract_y
_atom_site_fract_z
Si Si1 0.000000 0.236262 0.500000
Si Si2 0.385784 0.803688 0.621473
Si Si3 0.204153 0.075234 0.340022
Si Si4 0.778913 0.313724 0.949962
Si Si5 0.164034 0.075479 0.010379
O O1 0.035055 0.284857 0.424140
O O2 0.156158 0.189444 0.698370
O O3 0.250000 0.750000 0.500000
O O4 0.313917 0.876834 0.540247
O O5 0.531218 0.808901 0.881880
O O6 0.220586 0.094767 0.211616
O O7 0.261048 0.000000 0.421946
O O8 0.026196 0.084978 0.199601
O O9 0.750000 0.250000 0.000000
O O10 0.747860 0.379425 0.997548
O O11 0.210990 0.000000 0.031092
#
# Coordination Sequence:
#
# PCOD8098785 Si02
#       5
#     4   8   8   8   8
#     4  10  22  38  54  78 108 144 188 226 268 322
#     4  11  22  35  55  83 112 144 179 226 275 323
#     4   9  17  31  53  81 111 141 177 225 277 324
#     4  10  20  35  53  75 105 141 181 222 265 320
#     4   9  18  33  54  80 110 144 181 223 272 323
#
# _framework density 20.056222999999999
#
# number of rings (size 3 to 8) (size 9 to 14) (size 15 to 20)
#    0.000    2.222    0.000    6.667    0.000    3.556 
#    0.000    3.333    0.000    1.333    0.000    6.222 
#    0.000    0.000    0.000    0.000    0.000    0.000 
#
# Total GULP energy -223051.512554 kJ/mol
# GULP energy per Si atom -12391.750697 kJ/mol
# Density = 2.001057 g / cm^3
# Si number density = 20.056223 Si / 1000 Ang^3
#
#
#
# Elastic Constant Matrix: (Units=GPa)
#
#
# Indices 1 2 3 4 5 6 
#
# 1 29.3683 11.9503 12.9829 0.0000 9.8199 0.0000
# 2 11.9503 103.4196 57.1197 0.0000 10.4696 0.0000
# 3 12.9829 57.1197 169.1310 0.0000 18.9908 0.0000
# 4 0.0000 0.0000 0.0000 35.8463 0.0000 4.6948
# 5 9.8199 10.4696 18.9908 0.0000 21.2668 0.0000
# 6 0.0000 0.0000 0.0000 4.6948 0.0000 39.0708
#
#
#
# Elastic Compliance Matrix: (Units=1/GPa)
#
#
# Indices 1 2 3 4 5 6 
#
# 1 0.041128 -0.002861 -0.000241 0.000000 -0.017367 0.000000
# 2 -0.002861 0.012208 -0.003753 0.000000 -0.001337 0.000000
# 3 -0.000241 -0.003753 0.007756 0.000000 -0.004967 0.000000
# 4 0.000000 0.000000 0.000000 0.028343 0.000000 -0.003406
# 5 -0.017367 -0.001337 -0.004967 0.000000 0.060135 0.000000
# 6 0.000000 0.000000 0.000000 -0.003406 0.000000 0.026004
#
#
# Mechanical properties :
#
#
# Convention : Reuss Voigt Hill
#
# Bulk Modulus (GPa) = 21.10491 51.78053 36.44272
# Shear Modulus (GPa) = 24.38082 33.89452 29.13767
#
# Velocity S-wave (km/s) = 3.49036 4.11539 3.81570
# Velocity P-wave (km/s) = 5.17583 6.96101 6.13371
#
# Compressibility (1/GPa) = 0.04738233
#
# Stress axis : x y z
#
# Youngs Moduli (GPa) = 24.31425 81.91138 128.92615
#
# Poissons Ratio (x) = 0.23438 0.03103
# Poissons Ratio (y) = 0.06957 0.48389
# Poissons Ratio (z) = 0.00585 0.30743
#
# Static dielectric constant tensor:
#      x y z
#    x 3.619820 0.000000 0.580670 
#    y 0.000000 4.051710 0.000000 
#    z 0.580670 0.000000 5.005660 
# 
# 
# High freq. dielectric constant tensor:
#      x y z
#    x 1.748220 0.000000 0.021250 
#    y 0.000000 1.784120 0.000000 
#    z 0.021250 0.000000 1.793840 
# 
# From -- ./inp_files/48971.got.cif
#   From: 2010.06.25/outbox.cif.g09.slc.cpg/sg12_25_cif.got.tgz:48971.got - 2010.06.28 00:19:55.
