data_PCOD8098449
_publ_section_title
;
Structure prediction by ZEFSAII (Michael W. Deem and Ramdas Pophale) SiO2 
 PCOD8098449
Probable space group: C 2/M
;
_chemical_formula_sum "Si O2"
_cell_formula_units_Z 64
_cell_length_a 32.603496
_cell_length_b 8.946145
_cell_length_c 10.977675
_cell_angle_alpha 90.000000
_cell_angle_beta 91.209713
_cell_angle_gamma 90.000000
_cell_volume 3201.206325
_symmetry_space_group_name_H-M "C 2/M"
_symmetry_group_IT_number 12
_symmetry_cell_setting 'monoclinic'
loop_
_space_group_symop_operation_xyz
x,y,z
-x,y,-z
-x,-y,-z
x,-y,z
1/2+x,1/2+y,z
1/2-x,1/2+y,-z
1/2-x,1/2-y,-z
1/2+x,1/2-y,z
loop_
_atom_site_type_symbol
_atom_site_label
_atom_site_fract_x
_atom_site_fract_y
_atom_site_fract_z
Si Si1 0.105752 0.331031 0.668467
Si Si2 0.275107 0.674766 0.234311
Si Si3 0.144841 0.825763 0.888391
Si Si4 0.022675 0.824713 0.126437
Si Si5 0.024523 0.171820 0.626231
Si Si6 0.686737 0.831133 0.537911
Si Si7 0.686705 0.177141 0.269525
Si Si8 0.389940 0.176474 0.883052
O O1 0.103543 0.500000 0.722511
O O2 0.118501 0.206815 0.767207
O O3 0.062320 0.283000 0.612454
O O4 0.138351 0.325655 0.561937
O O5 0.279257 0.500000 0.253655
O O6 0.307582 0.723573 0.131979
O O7 0.286036 0.743069 0.364806
O O8 0.228250 0.720180 0.196326
O O9 0.140713 0.000000 0.923972
O O10 0.125201 0.717642 0.984728
O O11 0.066636 0.748554 0.143393
O O12 0.998550 0.783982 0.249074
O O13 0.030079 0.000000 0.115741
O O14 0.000000 0.768338 0.000000
O O15 0.000000 0.197601 0.500000
O O16 0.038643 0.000000 0.636534
O O17 0.692158 0.757710 0.405409
O O18 0.703134 0.000000 0.540745
O O19 0.645581 0.243845 0.207073
O O20 0.681522 0.000000 0.274608
O O21 0.394536 0.000000 0.871286
#
# Coordination Sequence:
#
# PCOD8098449 Si02
#       8
#     8   8   8   8   8   8   8   8
#     4  10  20  34  57  85 111 144 187 231 279 336
#     4   9  18  34  56  80 107 147 192 229 273 329
#     4  10  20  36  57  80 110 146 188 234 279 330
#     4  10  22  41  62  82 110 151 194 237 287 343
#     4  10  22  38  57  84 118 153 188 235 292 344
#     4   9  18  33  54  80 113 148 183 228 280 329
#     4   9  19  35  53  78 115 150 181 227 283 331
#     4  11  23  37  58  84 112 146 186 231 283 339
#
# _framework density 19.992462
#
# number of rings (size 3 to 8) (size 9 to 14) (size 15 to 20)
#    0.000    2.250    0.000    2.250    1.750    3.500 
#    0.000    2.500    0.000    0.000    0.000    0.000 
#    0.000    0.000    0.000    0.000    0.000    0.000 
#
# Total GULP energy -396624.748210 kJ/mol
# GULP energy per Si atom -12394.523382 kJ/mol
# Density = 1.994696 g / cm^3
# Si number density = 19.992462 Si / 1000 Ang^3
#
#
#
# Elastic Constant Matrix: (Units=GPa)
#
#
# Indices 1 2 3 4 5 6 
#
# 1 134.9324 37.1978 24.8156 0.0000 5.9144 0.0000
# 2 37.1978 32.0368 9.6484 0.0000 0.1312 0.0000
# 3 24.8156 9.6484 63.9301 0.0000 -6.5196 0.0000
# 4 0.0000 0.0000 0.0000 20.0331 0.0000 3.6131
# 5 5.9144 0.1312 -6.5196 0.0000 22.0246 0.0000
# 6 0.0000 0.0000 0.0000 3.6131 0.0000 21.7763
#
#
#
# Elastic Compliance Matrix: (Units=1/GPa)
#
#
# Indices 1 2 3 4 5 6 
#
# 1 0.011593 -0.012539 -0.003008 0.000000 -0.003929 0.000000
# 2 -0.012539 0.046324 -0.001865 0.000000 0.002539 0.000000
# 3 -0.003008 -0.001865 0.017710 0.000000 0.006061 0.000000
# 4 0.000000 0.000000 0.000000 0.051457 0.000000 -0.008538
# 5 -0.003929 0.002539 0.006061 0.000000 0.048238 0.000000
# 6 0.000000 0.000000 0.000000 -0.008538 0.000000 0.047338
#
#
# Mechanical properties :
#
#
# Convention : Reuss Voigt Hill
#
# Bulk Modulus (GPa) = 24.50861 41.58033 33.04447
# Shear Modulus (GPa) = 18.44433 23.38261 20.91347
#
# Velocity S-wave (km/s) = 3.04067 3.42361 3.23781
# Velocity P-wave (km/s) = 4.96116 6.03915 5.52650
#
# Compressibility (1/GPa) = 0.04080199
#
# Stress axis : x y z
#
# Youngs Moduli (GPa) = 86.25693 21.58703 56.46686
#
# Poissons Ratio (x) = 0.27067 0.16988
# Poissons Ratio (y) = 1.08155 0.10532
# Poissons Ratio (z) = 0.25950 0.04027
#
# Static dielectric constant tensor:
#      x y z
#    x 3.929760 0.000000 -0.083230 
#    y 0.000000 3.442520 0.000000 
#    z -0.083230 0.000000 3.669410 
# 
# 
# High freq. dielectric constant tensor:
#      x y z
#    x 1.795190 0.000000 -0.006950 
#    y 0.000000 1.764000 0.000000 
#    z -0.006950 0.000000 1.774900 
# 
# From -- ./inp_files/187592.got.cif
#   From: 2010.06.25/outbox.cif.g09.slc.cpg/sg12_94_cif.got.tgz:187592.got - 2010.06.28 00:19:55.
