data_PCOD8098728
_publ_section_title
;
Structure prediction by ZEFSAII (Michael W. Deem and Ramdas Pophale) SiO2 
 PCOD8098728
Probable space group: C 2/M
;
_chemical_formula_sum "Si O2"
_cell_formula_units_Z 56
_cell_length_a 27.301911
_cell_length_b 21.942869
_cell_length_c 4.987300
_cell_angle_alpha 90.000000
_cell_angle_beta 87.676978
_cell_angle_gamma 90.000000
_cell_volume 2985.347529
_symmetry_space_group_name_H-M "C 2/M"
_symmetry_group_IT_number 12
_symmetry_cell_setting 'monoclinic'
loop_
_space_group_symop_operation_xyz
x,y,z
-x,y,-z
-x,-y,-z
x,-y,z
1/2+x,1/2+y,z
1/2-x,1/2+y,-z
1/2-x,1/2-y,-z
1/2+x,1/2-y,z
loop_
_atom_site_type_symbol
_atom_site_label
_atom_site_fract_x
_atom_site_fract_y
_atom_site_fract_z
Si Si1 0.446604 0.620374 0.549985
Si Si2 0.248627 0.068373 0.747389
Si Si3 0.349770 0.240894 0.191848
Si Si4 0.688291 0.307154 0.289929
Si Si5 0.154709 0.068027 0.439055
Si Si6 0.947022 0.796965 0.056205
Si Si7 0.716212 0.135800 0.740543
O O1 0.500000 0.587709 0.500000
O O2 0.403217 0.573292 0.480131
O O3 0.445284 0.677672 0.355208
O O4 0.439052 0.647156 0.850781
O O5 0.190567 0.076229 0.689847
O O6 0.282587 0.082096 0.478525
O O7 0.259899 0.000000 0.837028
O O8 0.265717 0.112964 0.976168
O O9 0.344887 0.276842 0.472445
O O10 0.404391 0.246219 0.054806
O O11 0.336508 0.169297 0.232395
O O12 0.313149 0.269617 0.983087
O O13 0.668587 0.376663 0.235793
O O14 0.745052 0.312188 0.367013
O O15 0.164188 0.000000 0.313119
O O16 0.000000 0.765272 0.000000
#
# Coordination Sequence:
#
# PCOD8098728 Si02
#       7
#     8   8   8   8   8   8   8
#     4  10  20  35  52  70  96 131 177 227 271 306
#     4  10  22  38  54  76 111 142 170 211 255 308
#     4  12  20  35  55  76 106 136 168 220 264 314
#     4  11  21  34  49  75 106 137 170 218 271 306
#     4  10  20  35  53  71  97 137 183 220 259 306
#     4  10  20  35  54  74 100 137 171 212 272 317
#     4  11  22  34  54  81 105 136 179 204 256 318
#
# _framework density 18.758285999999998
#
# number of rings (size 3 to 8) (size 9 to 14) (size 15 to 20)
#    0.000    1.429    2.857    3.857    0.000    0.857 
#    0.000    5.714    0.000    2.571    0.000    0.000 
#    0.000    3.429    0.000    0.000    0.000    0.000 
#
# Total GULP energy -346980.746535 kJ/mol
# GULP energy per Si atom -12392.169519 kJ/mol
# Density = 1.871559 g / cm^3
# Si number density = 18.758286 Si / 1000 Ang^3
#
#
#
# Elastic Constant Matrix: (Units=GPa)
#
#
# Indices 1 2 3 4 5 6 
#
# 1 84.7019 47.3134 11.7356 0.0000 -7.2185 0.0000
# 2 47.3134 72.2539 17.1436 0.0000 -1.3391 0.0000
# 3 11.7356 17.1436 78.4932 0.0000 -1.1922 0.0000
# 4 0.0000 0.0000 0.0000 16.0451 0.0000 1.5636
# 5 -7.2185 -1.3391 -1.1922 0.0000 17.0740 0.0000
# 6 0.0000 0.0000 0.0000 1.5636 0.0000 24.1731
#
#
#
# Elastic Compliance Matrix: (Units=1/GPa)
#
#
# Indices 1 2 3 4 5 6 
#
# 1 0.019470 -0.012604 -0.000048 0.000000 0.007240 0.000000
# 2 -0.012604 0.022770 -0.003146 0.000000 -0.003762 0.000000
# 3 -0.000048 -0.003146 0.013444 0.000000 0.000672 0.000000
# 4 0.000000 0.000000 0.000000 0.062720 0.000000 -0.004057
# 5 0.007240 -0.003762 0.000672 0.000000 0.061381 0.000000
# 6 0.000000 0.000000 0.000000 -0.004057 0.000000 0.041631
#
#
# Mechanical properties :
#
#
# Convention : Reuss Voigt Hill
#
# Bulk Modulus (GPa) = 41.51333 43.09268 42.30301
# Shear Modulus (GPa) = 19.15400 22.07551 20.61475
#
# Velocity S-wave (km/s) = 3.19892 3.43423 3.31866
# Velocity P-wave (km/s) = 5.98522 6.22477 6.10617
#
# Compressibility (1/GPa) = 0.02408865
#
# Stress axis : x y z
#
# Youngs Moduli (GPa) = 51.36074 43.91732 74.38002
#
# Poissons Ratio (x) = 0.55353 0.00359
# Poissons Ratio (y) = 0.64734 0.23399
# Poissons Ratio (z) = 0.00248 0.13816
#
# Static dielectric constant tensor:
#      x y z
#    x 3.740360 0.000000 -0.115980 
#    y 0.000000 3.211040 0.000000 
#    z -0.115980 0.000000 3.438140 
# 
# 
# High freq. dielectric constant tensor:
#      x y z
#    x 1.713220 0.000000 -0.002500 
#    y 0.000000 1.688890 0.000000 
#    z -0.002500 0.000000 1.738480 
# 
# From -- ./inp_files/29056.got.cif
#   From: 2010.06.25/outbox.cif.g09.slc.cpg/sg12_15_cif.got.tgz:29056.got - 2010.06.28 00:19:55.
