data_PCOD8098504
_publ_section_title
;
Structure prediction by ZEFSAII (Michael W. Deem and Ramdas Pophale) SiO2 
 PCOD8098504
Probable space group: C 2/M
;
_chemical_formula_sum "Si O2"
_cell_formula_units_Z 48
_cell_length_a 21.948931
_cell_length_b 8.776174
_cell_length_c 12.288209
_cell_angle_alpha 90.000000
_cell_angle_beta 71.490830
_cell_angle_gamma 90.000000
_cell_volume 2244.608011
_symmetry_space_group_name_H-M "C 2/M"
_symmetry_group_IT_number 12
_symmetry_cell_setting 'monoclinic'
loop_
_space_group_symop_operation_xyz
x,y,z
-x,y,-z
-x,-y,-z
x,-y,z
1/2+x,1/2+y,z
1/2-x,1/2+y,-z
1/2-x,1/2-y,-z
1/2+x,1/2-y,z
loop_
_atom_site_type_symbol
_atom_site_label
_atom_site_fract_x
_atom_site_fract_y
_atom_site_fract_z
Si Si1 0.223276 0.179941 0.625666
Si Si2 0.925131 0.830066 0.564255
Si Si3 0.548460 0.820646 0.232857
Si Si4 0.096901 0.321231 0.641969
Si Si5 0.349030 0.677890 0.957459
Si Si6 0.754344 0.677901 0.167601
O O1 0.250000 0.250000 0.500000
O O2 0.148920 0.230033 0.683401
O O3 0.262326 0.245294 0.707017
O O4 0.230139 0.000000 0.617928
O O5 0.913922 0.753900 0.687123
O O6 0.893060 0.726727 0.489565
O O7 0.000000 0.841399 0.500000
O O8 0.894279 0.000000 0.581610
O O9 0.473448 0.775235 0.274349
O O10 0.581860 0.755558 0.105221
O O11 0.556750 0.000000 0.236504
O O12 0.109541 0.500000 0.644728
O O13 0.358545 0.500000 0.971222
O O14 0.303351 0.714742 0.881272
O O15 0.319940 0.750626 0.082816
O O16 0.765191 0.500000 0.178041
#
# Coordination Sequence:
#
# PCOD8098504 Si02
#       6
#     8   8   8   8   8   8
#     4  12  26  43  64  88 120 161 203 247 300 361
#     4   9  17  30  50  78 114 153 193 240 291 346
#     4  10  20  34  57  87 120 157 198 246 301 356
#     4  10  21  38  57  83 119 158 200 247 299 357
#     4  10  21  38  64  93 122 156 199 249 301 355
#     4  10  22  42  64  89 122 158 201 249 299 355
#
# _framework density 21.384581000000001
#
# number of rings (size 3 to 8) (size 9 to 14) (size 15 to 20)
#    0.000    1.833    0.000    4.000    2.333    6.000 
#    0.000    0.833    0.000    5.000    0.000    0.000 
#    0.000    0.000    0.000    0.000    0.000    0.000 
#
# Total GULP energy -297680.910239 kJ/mol
# GULP energy per Si atom -12403.371260 kJ/mol
# Density = 2.133591 g / cm^3
# Si number density = 21.384581 Si / 1000 Ang^3
#
#
#
# Elastic Constant Matrix: (Units=GPa)
#
#
# Indices 1 2 3 4 5 6 
#
# 1 42.1241 24.7823 15.8319 0.0000 -2.6988 0.0000
# 2 24.7823 120.1451 42.6167 0.0000 -2.5465 0.0000
# 3 15.8319 42.6167 110.5118 0.0000 -11.2154 0.0000
# 4 0.0000 0.0000 0.0000 40.1575 0.0000 0.0524
# 5 -2.6988 -2.5465 -11.2154 0.0000 33.7175 0.0000
# 6 0.0000 0.0000 0.0000 0.0524 0.0000 32.3252
#
#
#
# Elastic Compliance Matrix: (Units=1/GPa)
#
#
# Indices 1 2 3 4 5 6 
#
# 1 0.027449 -0.004964 -0.001897 0.000000 0.001191 0.000000
# 2 -0.004964 0.010549 -0.003432 0.000000 -0.000742 0.000000
# 3 -0.001897 -0.003432 0.010973 0.000000 0.003239 0.000000
# 4 0.000000 0.000000 0.000000 0.024902 0.000000 -0.000040
# 5 0.001191 -0.000742 0.003239 0.000000 0.030775 0.000000
# 6 0.000000 0.000000 0.000000 -0.000040 0.000000 0.030936
#
#
# Mechanical properties :
#
#
# Convention : Reuss Voigt Hill
#
# Bulk Modulus (GPa) = 35.23067 48.80475 42.01771
# Shear Modulus (GPa) = 30.18761 33.87671 32.03216
#
# Velocity S-wave (km/s) = 3.76127 3.98448 3.87448
# Velocity P-wave (km/s) = 5.94756 6.63626 6.30133
#
# Compressibility (1/GPa) = 0.02838436
#
# Stress axis : x y z
#
# Youngs Moduli (GPa) = 36.43123 94.79730 91.13390
#
# Poissons Ratio (x) = 0.47054 0.17291
# Poissons Ratio (y) = 0.18083 0.31279
# Poissons Ratio (z) = 0.06912 0.32536
#
# Static dielectric constant tensor:
#      x y z
#    x 3.885610 0.000000 -0.114290 
#    y 0.000000 3.900030 0.000000 
#    z -0.114290 0.000000 3.890620 
# 
# 
# High freq. dielectric constant tensor:
#      x y z
#    x 1.828180 0.000000 -0.016320 
#    y 0.000000 1.849990 0.000000 
#    z -0.016320 0.000000 1.834630 
# 
# From -- ./inp_files/172914.got.cif
#   From: 2010.06.25/outbox.cif.g09.slc.cpg/sg12_87_cif.got.tgz:172914.got - 2010.06.28 00:19:55.
