data_PCOD8098214
_publ_section_title
;
Structure prediction by ZEFSAII (Michael W. Deem and Ramdas Pophale) SiO2 
 PCOD8098214
Probable space group: C 2/M
;
_chemical_formula_sum "Si O2"
_cell_formula_units_Z 64
_cell_length_a 18.529175
_cell_length_b 17.739468
_cell_length_c 16.634345
_cell_angle_alpha 90.000000
_cell_angle_beta 40.621774
_cell_angle_gamma 90.000000
_cell_volume 3559.796762
_symmetry_space_group_name_H-M "C 2/M"
_symmetry_group_IT_number 12
_symmetry_cell_setting 'monoclinic'
loop_
_space_group_symop_operation_xyz
x,y,z
-x,y,-z
-x,-y,-z
x,-y,z
1/2+x,1/2+y,z
1/2-x,1/2+y,-z
1/2-x,1/2-y,-z
1/2+x,1/2-y,z
loop_
_atom_site_type_symbol
_atom_site_label
_atom_site_fract_x
_atom_site_fract_y
_atom_site_fract_z
Si Si1 0.250702 0.913209 0.072021
Si Si2 0.430961 0.296979 0.731679
Si Si3 0.308495 0.762042 0.687704
Si Si4 0.374658 0.151824 0.116407
Si Si5 0.318350 0.298793 0.504831
Si Si6 0.641948 0.913756 0.701171
Si Si7 0.422907 0.865133 0.800638
Si Si8 0.100590 0.415620 0.354717
O O1 0.137983 0.865612 0.172321
O O2 0.334328 0.890444 0.071517
O O3 0.216662 0.000000 0.108475
O O4 0.314878 0.900108 0.934240
O O5 0.400537 0.281153 0.663974
O O6 0.559980 0.317932 0.631320
O O7 0.401008 0.223357 0.808498
O O8 0.188931 0.729900 0.813136
O O9 0.333571 0.748485 0.573440
O O10 0.306885 0.852051 0.705588
O O11 0.358398 0.093137 0.202497
O O12 0.500000 0.176970 0.000000
O O13 0.250000 0.250000 0.500000
O O14 0.253728 0.376615 0.572711
O O15 0.533348 0.873405 0.759258
O O16 0.642433 0.000000 0.674327
O O17 0.442862 0.907291 0.699467
O O18 0.149117 0.500000 0.326705
O O19 0.000000 0.400223 0.500000
#
# Coordination Sequence:
#
# PCOD8098214 Si02
#       8
#     8   8   8   8   8   8   8   8
#     4  11  22  35  57  85 115 148 187 234 283 332
#     4  10  21  38  57  79 112 153 191 225 278 347
#     4   9  20  36  55  79 109 148 187 231 280 330
#     4  10  20  35  55  81 114 151 186 224 280 343
#     4  11  21  37  56  81 111 149 190 230 277 337
#     4  11  22  34  55  84 116 144 182 236 286 326
#     4  11  20  36  56  83 112 144 187 233 280 330
#     4  10  20  34  56  81 107 139 183 233 283 327
#
# _framework density 17.978553999999999
#
# number of rings (size 3 to 8) (size 9 to 14) (size 15 to 20)
#    0.000    1.625    2.500    3.750    0.000    1.000 
#    0.000    0.000    0.000    4.875    0.000    0.000 
#    0.000    0.000    0.000    0.000    0.000    0.000 
#
# Total GULP energy -396873.308504 kJ/mol
# GULP energy per Si atom -12402.290891 kJ/mol
# Density = 1.793763 g / cm^3
# Si number density = 17.978554 Si / 1000 Ang^3
#
#
#
# Elastic Constant Matrix: (Units=GPa)
#
#
# Indices 1 2 3 4 5 6 
#
# 1 88.3631 38.3121 52.0308 0.0000 -5.7478 0.0000
# 2 38.3121 136.0804 51.2643 0.0000 -9.5476 0.0000
# 3 52.0308 51.2643 115.8722 0.0000 -7.4501 0.0000
# 4 0.0000 0.0000 0.0000 19.6878 0.0000 -1.4067
# 5 -5.7478 -9.5476 -7.4501 0.0000 38.5475 0.0000
# 6 0.0000 0.0000 0.0000 -1.4067 0.0000 19.6236
#
#
#
# Elastic Compliance Matrix: (Units=1/GPa)
#
#
# Indices 1 2 3 4 5 6 
#
# 1 0.015905 -0.002109 -0.006167 0.000000 0.000657 0.000000
# 2 -0.002109 0.009178 -0.003026 0.000000 0.001374 0.000000
# 3 -0.006167 -0.003026 0.012789 0.000000 0.000803 0.000000
# 4 0.000000 0.000000 0.000000 0.051054 0.000000 0.003660
# 5 0.000657 0.001374 0.000803 0.000000 0.026536 0.000000
# 6 0.000000 0.000000 0.000000 0.003660 0.000000 0.051221
#
#
# Mechanical properties :
#
#
# Convention : Reuss Voigt Hill
#
# Bulk Modulus (GPa) = 65.48295 69.28111 67.38203
# Shear Modulus (GPa) = 25.72325 28.81903 27.27114
#
# Velocity S-wave (km/s) = 3.78666 4.00805 3.89893
# Velocity P-wave (km/s) = 7.45790 7.74844 7.60456
#
# Compressibility (1/GPa) = 0.01527115
#
# Stress axis : x y z
#
# Youngs Moduli (GPa) = 62.87269 108.95075 78.18920
#
# Poissons Ratio (x) = 0.22974 0.48218
# Poissons Ratio (y) = 0.13258 0.23656
# Poissons Ratio (z) = 0.38772 0.32963
#
# Static dielectric constant tensor:
#      x y z
#    x 3.455130 0.000000 0.089460 
#    y 0.000000 3.312500 0.000000 
#    z 0.089460 0.000000 3.395100 
# 
# 
# High freq. dielectric constant tensor:
#      x y z
#    x 1.694590 0.000000 0.010840 
#    y 0.000000 1.693560 0.000000 
#    z 0.010840 0.000000 1.699790 
# 
# From -- ./inp_files/226825.got.cif
#   From: 2010.06.25/outbox.cif.g09.slc.cpg/sg12_114_cif.got.tgz:226825.got - 2010.06.28 00:19:55.
