data_PCOD8098407
_publ_section_title
;
Structure prediction by ZEFSAII (Michael W. Deem and Ramdas Pophale) SiO2 
 PCOD8098407
Probable space group: C 2/M
;
_chemical_formula_sum "Si O2"
_cell_formula_units_Z 48
_cell_length_a 27.010366
_cell_length_b 9.599292
_cell_length_c 20.100887
_cell_angle_alpha 90.000000
_cell_angle_beta 28.571119
_cell_angle_gamma 90.000000
_cell_volume 2492.523012
_symmetry_space_group_name_H-M "C 2/M"
_symmetry_group_IT_number 12
_symmetry_cell_setting 'monoclinic'
loop_
_space_group_symop_operation_xyz
x,y,z
-x,y,-z
-x,-y,-z
x,-y,z
1/2+x,1/2+y,z
1/2-x,1/2+y,-z
1/2-x,1/2-y,-z
1/2+x,1/2-y,z
loop_
_atom_site_type_symbol
_atom_site_label
_atom_site_fract_x
_atom_site_fract_y
_atom_site_fract_z
Si Si1 0.227786 0.156444 0.856180
Si Si2 0.041948 0.846618 0.623918
Si Si3 0.198745 0.843390 0.115067
Si Si4 0.853087 0.163581 0.363941
Si Si5 0.494500 0.334873 0.931523
Si Si6 0.418310 0.844666 0.542680
O O1 0.282221 0.269123 0.837938
O O2 0.300521 0.149849 0.706067
O O3 0.221078 0.000000 0.896117
O O4 0.114464 0.212541 0.971248
O O5 0.069578 0.804537 0.666499
O O6 0.089961 0.740712 0.515085
O O7 0.920296 0.847601 0.761379
O O8 0.086909 0.000000 0.554785
O O9 0.244812 0.000000 0.061991
O O10 0.250000 0.750000 0.000000
O O11 0.750000 0.250000 0.500000
O O12 0.910804 0.215155 0.227924
O O13 0.825636 0.000000 0.391172
O O14 0.497044 0.500000 0.932726
O O15 0.500000 0.271772 0.000000
O O16 0.500000 0.779684 0.500000
O O17 0.458835 0.000000 0.477799
#
# Coordination Sequence:
#
# PCOD8098407 Si02
#       6
#     8   8   8   8   8   8
#     4  10  20  36  58  85 118 150 190 240 288 341
#     4  10  22  38  56  81 117 156 190 231 290 356
#     4  11  22  36  57  83 112 150 190 233 290 350
#     4  10  22  40  61  86 115 150 196 245 294 348
#     4   9  19  37  62  87 113 153 201 242 286 347
#     4  10  20  34  56  89 119 147 190 242 287 334
#
# _framework density 19.257594999999998
#
# number of rings (size 3 to 8) (size 9 to 14) (size 15 to 20)
#    0.000    2.000    1.667    1.500    2.333    5.000 
#    0.000    2.500    0.000    1.000    0.000    0.000 
#    0.000    0.000    0.000    0.000    0.000    0.000 
#
# Total GULP energy -297519.884973 kJ/mol
# GULP energy per Si atom -12396.661874 kJ/mol
# Density = 1.921376 g / cm^3
# Si number density = 19.257595 Si / 1000 Ang^3
#
#
#
# Elastic Constant Matrix: (Units=GPa)
#
#
# Indices 1 2 3 4 5 6 
#
# 1 124.2295 51.0428 52.1396 0.0003 10.0600 -0.0003
# 2 51.0428 90.8896 40.0872 -0.0040 11.7523 -0.0013
# 3 52.1396 40.0872 120.1239 -0.0031 6.6185 -0.0017
# 4 0.0003 -0.0040 -0.0031 29.0308 0.0000 7.1951
# 5 10.0600 11.7523 6.6185 0.0000 36.9610 0.0007
# 6 -0.0003 -0.0013 -0.0017 7.1951 0.0007 19.8684
#
#
#
# Elastic Compliance Matrix: (Units=1/GPa)
#
#
# Indices 1 2 3 4 5 6 
#
# 1 0.011529 -0.004882 -0.003320 -0.000001 -0.000991 0.000000
# 2 -0.004882 0.015397 -0.002851 0.000002 -0.003056 0.000000
# 3 -0.003320 -0.002851 0.010723 0.000001 -0.000110 0.000000
# 4 -0.000001 0.000002 0.000001 0.037843 0.000000 -0.013704
# 5 -0.000991 -0.003056 -0.000110 0.000000 0.028317 -0.000001
# 6 0.000000 0.000000 0.000000 -0.013704 -0.000001 0.055294
#
#
# Mechanical properties :
#
#
# Convention : Reuss Voigt Hill
#
# Bulk Modulus (GPa) = 64.33801 69.08689 66.71245
# Shear Modulus (GPa) = 26.82543 29.97027 28.39785
#
# Velocity S-wave (km/s) = 3.73631 3.94926 3.84426
# Velocity P-wave (km/s) = 7.21769 7.53316 7.37711
#
# Compressibility (1/GPa) = 0.01554291
#
# Stress axis : x y z
#
# Youngs Moduli (GPa) = 86.73435 64.94943 93.25454
#
# Poissons Ratio (x) = 0.31709 0.30965
# Poissons Ratio (y) = 0.42345 0.26583
# Poissons Ratio (z) = 0.28800 0.18514
#
# Static dielectric constant tensor:
#      x y z
#    x 3.721470 0.000000 0.053950 
#    y 0.000000 3.560050 0.000010 
#    z 0.053950 0.000010 3.566160 
# 
# 
# High freq. dielectric constant tensor:
#      x y z
#    x 1.751810 0.000000 0.001650 
#    y 0.000000 1.728080 0.000000 
#    z 0.001650 0.000000 1.755810 
# 
# From -- ./inp_files/172938.got.cif
#   From: 2010.06.25/outbox.cif.g09.slc.cpg/sg12_87_cif.got.tgz:172938.got - 2010.06.28 00:19:55.
