data_PCOD8098864
_publ_section_title
;
Structure prediction by ZEFSAII (Michael W. Deem and Ramdas Pophale) SiO2 
 PCOD8098864
Probable space group: C 2/M
;
_chemical_formula_sum "Si O2"
_cell_formula_units_Z 56
_cell_length_a 19.100152
_cell_length_b 9.175373
_cell_length_c 19.746218
_cell_angle_alpha 90.000000
_cell_angle_beta 57.580325
_cell_angle_gamma 90.000000
_cell_volume 2921.197723
_symmetry_space_group_name_H-M "C 2/M"
_symmetry_group_IT_number 12
_symmetry_cell_setting 'monoclinic'
loop_
_space_group_symop_operation_xyz
x,y,z
-x,y,-z
-x,-y,-z
x,-y,z
1/2+x,1/2+y,z
1/2-x,1/2+y,-z
1/2-x,1/2-y,-z
1/2+x,1/2-y,z
loop_
_atom_site_type_symbol
_atom_site_label
_atom_site_fract_x
_atom_site_fract_y
_atom_site_fract_z
Si Si1 0.989221 0.672369 0.426847
Si Si2 0.215759 0.664063 0.679351
Si Si3 0.266144 0.832062 0.176594
Si Si4 0.428023 0.672151 0.086647
Si Si5 0.942957 0.171194 0.232818
Si Si6 0.822118 0.831821 0.500816
Si Si7 0.082032 0.171403 0.265193
O O1 0.983273 0.500000 0.419034
O O2 0.063412 0.737712 0.343132
O O3 0.000000 0.712203 0.500000
O O4 0.906913 0.749394 0.441736
O O5 0.181709 0.500000 0.694428
O O6 0.241891 0.710188 0.740610
O O7 0.298736 0.680603 0.592082
O O8 0.140335 0.763178 0.690763
O O9 0.340602 0.738097 0.105868
O O10 0.176122 0.794728 0.191605
O O11 0.288976 0.000000 0.153583
O O12 0.419527 0.500000 0.087192
O O13 0.450732 0.725367 0.150914
O O14 0.500000 0.729652 0.000000
O O15 0.022690 0.221808 0.234461
O O16 0.933732 0.000000 0.240224
O O17 0.750000 0.750000 0.500000
O O18 0.829892 0.000000 0.473291
O O19 0.072480 0.000000 0.287090
#
# Coordination Sequence:
#
# PCOD8098864 Si02
#       7
#     8   8   8   8   8   8   8
#     4  11  24  38  52  74 105 141 181 224 268 316
#     4   9  18  32  49  69  94 127 167 209 252 302
#     4   9  18  33  53  75  98 127 165 206 249 299
#     4   9  18  34  55  78 105 135 165 199 245 304
#     4   9  18  32  52  76 100 131 169 208 251 301
#     4  11  22  35  52  74 102 136 176 223 272 318
#     4  10  20  35  54  75 101 134 173 216 261 309
#
# _framework density 19.170218999999999
#
# number of rings (size 3 to 8) (size 9 to 14) (size 15 to 20)
#    0.000    2.286    0.000    2.571    0.000    7.143 
#    0.000    3.571    0.000    0.000    0.000    0.000 
#    0.000    0.000    0.000    0.000    0.000    0.000 
#
# Total GULP energy -347184.862933 kJ/mol
# GULP energy per Si atom -12399.459390 kJ/mol
# Density = 1.912659 g / cm^3
# Si number density = 19.170219 Si / 1000 Ang^3
#
#
#
# Elastic Constant Matrix: (Units=GPa)
#
#
# Indices 1 2 3 4 5 6 
#
# 1 100.6922 31.4521 23.8807 0.0000 -17.4606 0.0000
# 2 31.4521 52.1611 26.3308 0.0001 -6.5326 0.0001
# 3 23.8807 26.3308 76.8239 0.0000 -19.3064 0.0000
# 4 0.0000 0.0001 0.0000 26.0287 0.0000 -5.7695
# 5 -17.4606 -6.5326 -19.3064 0.0000 27.9249 0.0000
# 6 0.0000 0.0001 0.0000 -5.7695 0.0000 29.3791
#
#
#
# Elastic Compliance Matrix: (Units=1/GPa)
#
#
# Indices 1 2 3 4 5 6 
#
# 1 0.013336 -0.007207 -0.000004 0.000000 0.006650 0.000000
# 2 -0.007207 0.027077 -0.007965 0.000000 -0.003678 0.000000
# 3 -0.000004 -0.007965 0.018492 0.000000 0.010919 0.000000
# 4 0.000000 0.000000 0.000000 0.040168 0.000000 0.007888
# 5 0.006650 -0.003678 0.010919 0.000000 0.046657 0.000000
# 6 0.000000 0.000000 0.000000 0.007888 0.000000 0.035587
#
#
# Mechanical properties :
#
#
# Convention : Reuss Voigt Hill
#
# Bulk Modulus (GPa) = 35.02150 43.66717 39.34434
# Shear Modulus (GPa) = 22.60549 26.53410 24.56980
#
# Velocity S-wave (km/s) = 3.43767 3.72443 3.58392
# Velocity P-wave (km/s) = 5.83653 6.42832 6.13956
#
# Compressibility (1/GPa) = 0.02855389
#
# Stress axis : x y z
#
# Youngs Moduli (GPa) = 74.98235 36.93233 54.07769
#
# Poissons Ratio (x) = 0.26615 0.00024
# Poissons Ratio (y) = 0.54036 0.43070
# Poissons Ratio (z) = 0.00034 0.29415
#
# Static dielectric constant tensor:
#      x y z
#    x 3.644780 0.000000 -0.080980 
#    y 0.000000 3.433180 0.000000 
#    z -0.080980 0.000000 3.626270 
# 
# 
# High freq. dielectric constant tensor:
#      x y z
#    x 1.747160 0.000000 -0.008640 
#    y 0.000000 1.740080 0.000000 
#    z -0.008640 0.000000 1.732050 
# 
# From -- ./inp_files/313796.got.cif
#   From: 2010.06.25/outbox.cif.g09.slc.cpg/sg12_157_cif.got.tgz:313796.got - 2010.06.28 00:19:55.
