data_PCOD8098770
_publ_section_title
;
Structure prediction by ZEFSAII (Michael W. Deem and Ramdas Pophale) SiO2 
 PCOD8098770
Probable space group: C 2/M
;
_chemical_formula_sum "Si O2"
_cell_formula_units_Z 56
_cell_length_a 28.455426
_cell_length_b 14.583466
_cell_length_c 11.936847
_cell_angle_alpha 90.000000
_cell_angle_beta 34.936042
_cell_angle_gamma 90.000000
_cell_volume 2836.701211
_symmetry_space_group_name_H-M "C 2/M"
_symmetry_group_IT_number 12
_symmetry_cell_setting 'monoclinic'
loop_
_space_group_symop_operation_xyz
x,y,z
-x,y,-z
-x,-y,-z
x,-y,z
1/2+x,1/2+y,z
1/2-x,1/2+y,-z
1/2-x,1/2-y,-z
1/2+x,1/2-y,z
loop_
_atom_site_type_symbol
_atom_site_label
_atom_site_fract_x
_atom_site_fract_y
_atom_site_fract_z
Si Si1 0.938322 0.209706 0.454408
Si Si2 0.196782 0.160908 0.112051
Si Si3 0.510327 0.105243 0.347323
Si Si4 0.687467 0.899543 0.933796
Si Si5 0.414411 0.607190 0.119895
Si Si6 0.674354 0.391620 0.490958
Si Si7 0.597222 0.393589 0.107382
O O1 0.887865 0.185670 0.663203
O O2 0.898803 0.165222 0.422082
O O3 0.946324 0.320746 0.421899
O O4 0.026078 0.164482 0.304115
O O5 0.250767 0.091730 0.081223
O O6 0.179122 0.120807 0.022588
O O7 0.250000 0.250000 0.000000
O O8 0.500000 0.106545 0.500000
O O9 0.494370 0.000000 0.335891
O O10 0.600657 0.146344 0.135979
O O11 0.737819 0.854922 0.729827
O O12 0.661699 0.000000 0.946043
O O13 0.429479 0.500000 0.079745
O O14 0.337341 0.627137 0.353791
O O15 0.500000 0.650779 0.000000
O O16 0.389612 0.644367 0.045310
O O17 0.664313 0.500000 0.482485
O O18 0.572949 0.500000 0.154705
#
# Coordination Sequence:
#
# PCOD8098770 Si02
#       7
#     8   8   8   8   8   8   8
#     4  11  20  32  53  77 107 140 173 220 269 321
#     4  11  22  34  48  72 111 146 173 212 264 320
#     4  10  20  35  53  73  99 139 187 224 258 309
#     4   9  18  32  50  71 101 137 171 214 264 313
#     4   9  16  30  51  78 113 145 173 211 262 326
#     4   9  17  31  53  81 109 138 168 205 269 332
#     4  11  21  32  54  86 113 138 174 218 268 325
#
# _framework density 19.741240000000001
#
# number of rings (size 3 to 8) (size 9 to 14) (size 15 to 20)
#    0.000    2.000    1.429    3.857    0.000    2.286 
#    0.000    0.714    0.000    9.429    0.000    2.000 
#    0.000    0.000    0.000    2.571    0.000    0.000 
#
# Total GULP energy -346867.721868 kJ/mol
# GULP energy per Si atom -12388.132924 kJ/mol
# Density = 1.969631 g / cm^3
# Si number density = 19.741240 Si / 1000 Ang^3
#
#
#
# Elastic Constant Matrix: (Units=GPa)
#
#
# Indices 1 2 3 4 5 6 
#
# 1 65.7543 13.1148 31.6250 0.0000 22.6001 0.0000
# 2 13.1148 76.8491 14.5008 0.0000 0.3629 0.0000
# 3 31.6250 14.5008 96.0613 0.0000 18.1049 0.0000
# 4 0.0000 0.0000 0.0000 17.5710 0.0000 -9.7051
# 5 22.6001 0.3629 18.1049 0.0000 24.7459 0.0000
# 6 0.0000 0.0000 0.0000 -9.7051 0.0000 6.7634
#
#
#
# Elastic Compliance Matrix: (Units=1/GPa)
#
#
# Indices 1 2 3 4 5 6 
#
# 1 0.024409 -0.003343 -0.003873 0.000000 -0.019410 0.000000
# 2 -0.003343 0.013899 -0.001780 0.000000 0.004152 0.000000
# 3 -0.003873 -0.001780 0.013087 0.000000 -0.006011 0.000000
# 4 0.000000 0.000000 0.000000 0.274372 0.000000 0.393709
# 5 -0.019410 0.004152 -0.006011 0.000000 0.062474 0.000000
# 6 0.000000 0.000000 0.000000 0.393709 0.000000 0.712806
#
#
# Mechanical properties :
#
#
# Convention : Reuss Voigt Hill
#
# Bulk Modulus (GPa) = 29.93766 39.68289 34.81028
# Shear Modulus (GPa) = 4.42410 21.77768 13.10089
#
# Velocity S-wave (km/s) = 1.49864 3.32498 2.57890
# Velocity P-wave (km/s) = 4.26527 5.90642 5.15162
#
# Compressibility (1/GPa) = 0.03340274
#
# Stress axis : x y z
#
# Youngs Moduli (GPa) = 40.96883 71.94610 76.41313
#
# Poissons Ratio (x) = 0.24052 0.29595
# Poissons Ratio (y) = 0.13696 0.13602
# Poissons Ratio (z) = 0.15867 0.12807
#
# Static dielectric constant tensor:
#      x y z
#    x 5.024410 0.000000 1.185600 
#    y 0.000000 3.387570 0.000000 
#    z 1.185600 0.000000 4.245330 
# 
# 
# High freq. dielectric constant tensor:
#      x y z
#    x 1.732700 0.000000 0.007970 
#    y 0.000000 1.752710 0.000000 
#    z 0.007970 0.000000 1.783920 
# 
# From -- ./inp_files/183486.got.cif
#   From: 2010.06.25/outbox.cif.g09.slc.cpg/sg12_92_cif.got.tgz:183486.got - 2010.06.28 00:19:55.
