data_PCOD8098522
_publ_section_title
;
Structure prediction by ZEFSAII (Michael W. Deem and Ramdas Pophale) SiO2 
 PCOD8098522
Probable space group: C 2/M
;
_chemical_formula_sum "Si O2"
_cell_formula_units_Z 32
_cell_length_a 18.784679
_cell_length_b 13.039818
_cell_length_c 6.628731
_cell_angle_alpha 90.000000
_cell_angle_beta 92.627657
_cell_angle_gamma 90.000000
_cell_volume 1621.992445
_symmetry_space_group_name_H-M "C 2/M"
_symmetry_group_IT_number 12
_symmetry_cell_setting 'monoclinic'
loop_
_space_group_symop_operation_xyz
x,y,z
-x,y,-z
-x,-y,-z
x,-y,z
1/2+x,1/2+y,z
1/2-x,1/2+y,-z
1/2-x,1/2-y,-z
1/2+x,1/2-y,z
loop_
_atom_site_type_symbol
_atom_site_label
_atom_site_fract_x
_atom_site_fract_y
_atom_site_fract_z
Si Si1 0.307075 0.619017 0.666006
Si Si2 0.570411 0.880919 0.386663
Si Si3 0.078178 0.782702 0.057753
Si Si4 0.329000 0.763457 0.317413
O O1 0.287326 0.500000 0.661565
O O2 0.380060 0.635446 0.799342
O O3 0.315289 0.657678 0.436592
O O4 0.244921 0.685465 0.767399
O O5 0.500000 0.851685 0.500000
O O6 0.569095 0.824702 0.172096
O O7 0.637677 0.846371 0.526075
O O8 0.576085 0.000000 0.339063
O O9 0.120030 0.761477 0.859099
O O10 0.000000 0.828711 0.000000
#
# Coordination Sequence:
#
# PCOD8098522 Si02
#       4
#     8   8   8   8
#     4  10  23  40  61  86 115 157 200 238 287 345
#     4  10  20  34  57  88 118 151 189 234 292 348
#     4  11  22  38  60  88 122 154 190 241 294 346
#     4  10  21  41  61  85 119 154 191 247 292 339
#
# _framework density 19.728822999999998
#
# number of rings (size 3 to 8) (size 9 to 14) (size 15 to 20)
#    0.000    1.750    2.500    1.500    0.000    4.000 
#    0.000    1.250    0.000    0.000    0.000    0.000 
#    0.000    0.000    0.000    0.000    0.000    0.000 
#
# Total GULP energy -198457.491773 kJ/mol
# GULP energy per Si atom -12403.593236 kJ/mol
# Density = 1.968392 g / cm^3
# Si number density = 19.728823 Si / 1000 Ang^3
#
#
#
# Elastic Constant Matrix: (Units=GPa)
#
#
# Indices 1 2 3 4 5 6 
#
# 1 123.9664 38.7675 41.5568 0.0000 0.0972 0.0000
# 2 38.7675 95.0501 40.4762 0.0000 -3.3495 0.0000
# 3 41.5568 40.4762 85.7066 0.0000 -16.9371 0.0000
# 4 0.0000 0.0000 0.0000 17.5837 0.0000 -2.4468
# 5 0.0972 -3.3495 -16.9371 0.0000 46.2997 0.0000
# 6 0.0000 0.0000 0.0000 -2.4468 0.0000 22.8392
#
#
#
# Elastic Compliance Matrix: (Units=1/GPa)
#
#
# Indices 1 2 3 4 5 6 
#
# 1 0.010225 -0.002473 -0.004128 0.000000 -0.001710 0.000000
# 2 -0.002473 0.013855 -0.005546 0.000000 -0.001021 0.000000
# 3 -0.004128 -0.005546 0.017474 0.000000 0.006000 0.000000
# 4 0.000000 0.000000 0.000000 0.057731 0.000000 0.006185
# 5 -0.001710 -0.001021 0.006000 0.000000 0.023723 0.000000
# 6 0.000000 0.000000 0.000000 0.006185 0.000000 0.044447
#
#
# Mechanical properties :
#
#
# Convention : Reuss Voigt Hill
#
# Bulk Modulus (GPa) = 57.93599 60.70268 59.31934
# Shear Modulus (GPa) = 25.31600 29.60602 27.46101
#
# Velocity S-wave (km/s) = 3.58606 3.87802 3.73490
# Velocity P-wave (km/s) = 6.82469 7.13354 6.98082
#
# Compressibility (1/GPa) = 0.01726043
#
# Stress axis : x y z
#
# Youngs Moduli (GPa) = 97.79740 72.17552 57.22720
#
# Poissons Ratio (x) = 0.17848 0.23624
# Poissons Ratio (y) = 0.24184 0.31739
# Poissons Ratio (z) = 0.40372 0.40029
#
# Static dielectric constant tensor:
#      x y z
#    x 3.932230 0.000000 0.078540 
#    y 0.000000 3.312670 0.000000 
#    z 0.078540 0.000000 3.530400 
# 
# 
# High freq. dielectric constant tensor:
#      x y z
#    x 1.791180 0.000000 0.002700 
#    y 0.000000 1.750970 0.000000 
#    z 0.002700 0.000000 1.768720 
# 
# From -- ./inp_files/14316.got.cif
#   From: 2010.06.25/outbox.cif.g09.slc.cpg/sg12_8_cif.got.tgz:14316.got - 2010.06.28 00:19:55.
