data_PCOD8098147
_publ_section_title
;
Structure prediction by ZEFSAII (Michael W. Deem and Ramdas Pophale) SiO2 
 PCOD8098147
Probable space group: C 2/M
;
_chemical_formula_sum "Si O2"
_cell_formula_units_Z 64
_cell_length_a 15.195893
_cell_length_b 9.197213
_cell_length_c 30.774196
_cell_angle_alpha 90.000000
_cell_angle_beta 50.996543
_cell_angle_gamma 90.000000
_cell_volume 3342.339494
_symmetry_space_group_name_H-M "C 2/M"
_symmetry_group_IT_number 12
_symmetry_cell_setting 'monoclinic'
loop_
_space_group_symop_operation_xyz
x,y,z
-x,y,-z
-x,-y,-z
x,-y,z
1/2+x,1/2+y,z
1/2-x,1/2+y,-z
1/2-x,1/2-y,-z
1/2+x,1/2-y,z
loop_
_atom_site_type_symbol
_atom_site_label
_atom_site_fract_x
_atom_site_fract_y
_atom_site_fract_z
Si Si1 0.269027 0.830045 0.061672
Si Si2 0.691158 0.828544 0.258797
Si Si3 0.451160 0.335607 0.558766
Si Si4 0.180363 0.170155 0.867490
Si Si5 0.159587 0.835165 0.555958
Si Si6 0.081193 0.831918 0.051418
Si Si7 0.433019 0.833245 0.337242
Si Si8 0.744466 0.832293 0.676597
O O1 0.264105 0.756284 0.110054
O O2 0.150480 0.798156 0.073974
O O3 0.290972 0.000000 0.060524
O O4 0.373101 0.764109 0.002304
O O5 0.753506 0.778610 0.195785
O O6 0.561282 0.775404 0.296429
O O7 0.755234 0.755149 0.278915
O O8 0.699222 0.000000 0.262542
O O9 0.500000 0.255515 0.500000
O O10 0.421115 0.500000 0.554067
O O11 0.540174 0.328243 0.569508
O O12 0.336446 0.265221 0.613773
O O13 0.049062 0.209734 0.900915
O O14 0.196603 0.000000 0.871481
O O15 0.250000 0.750000 0.500000
O O16 0.145249 0.760860 0.606865
O O17 0.201314 0.000000 0.549378
O O18 0.095671 0.000000 0.033582
O O19 0.380220 0.817929 0.305482
O O20 0.428795 0.000000 0.354429
O O21 0.775625 0.000000 0.676740
#
# Coordination Sequence:
#
# PCOD8098147 Si02
#       8
#     8   8   8   8   8   8   8   8
#     4  10  20  34  55  85 115 144 187 240 281 320
#     4  10  22  39  57  81 113 147 186 236 279 323
#     4   9  17  31  52  77 105 137 174 214 262 325
#     4  10  21  37  56  78 111 154 191 223 278 342
#     4  11  21  34  55  82 112 144 179 221 273 333
#     4   9  19  36  56  79 113 154 188 223 280 343
#     4  10  21  38  59  81 110 144 180 226 280 329
#     4  10  20  37  59  80 106 145 185 222 274 336
#
# _framework density 19.148264999999999
#
# number of rings (size 3 to 8) (size 9 to 14) (size 15 to 20)
#    0.000    2.125    1.250    1.875    0.000    6.500 
#    0.000    0.000    0.000    1.875    0.000    0.000 
#    0.000    0.000    0.000    0.000    0.000    0.000 
#
# Total GULP energy -396847.120593 kJ/mol
# GULP energy per Si atom -12401.472519 kJ/mol
# Density = 1.910468 g / cm^3
# Si number density = 19.148265 Si / 1000 Ang^3
#
#
#
# Elastic Constant Matrix: (Units=GPa)
#
#
# Indices 1 2 3 4 5 6 
#
# 1 94.9894 39.1542 52.9055 0.0000 13.3926 0.0001
# 2 39.1542 65.8070 50.7734 0.0000 9.6041 0.0002
# 3 52.9055 50.7734 134.1530 0.0000 18.8317 0.0000
# 4 0.0000 0.0000 0.0000 29.3680 0.0000 7.7587
# 5 13.3926 9.6041 18.8317 0.0000 31.1113 0.0000
# 6 0.0001 0.0002 0.0000 7.7587 0.0000 29.3693
#
#
#
# Elastic Compliance Matrix: (Units=1/GPa)
#
#
# Indices 1 2 3 4 5 6 
#
# 1 0.015289 -0.006136 -0.003332 0.000000 -0.002670 0.000000
# 2 -0.006136 0.024026 -0.006560 0.000000 -0.000804 0.000000
# 3 -0.003332 -0.006560 0.011765 0.000000 -0.003662 0.000000
# 4 0.000000 0.000000 0.000000 0.036606 0.000000 -0.009670
# 5 -0.002670 -0.000804 -0.003662 0.000000 0.035757 0.000000
# 6 0.000000 0.000000 0.000000 -0.009670 0.000000 0.036604
#
#
# Mechanical properties :
#
#
# Convention : Reuss Voigt Hill
#
# Bulk Modulus (GPa) = 52.56861 64.51286 58.54074
# Shear Modulus (GPa) = 25.19583 28.11079 26.65331
#
# Velocity S-wave (km/s) = 3.63137 3.83568 3.73492
# Velocity P-wave (km/s) = 6.71532 7.30623 7.01700
#
# Compressibility (1/GPa) = 0.01902276
#
# Stress axis : x y z
#
# Youngs Moduli (GPa) = 65.40538 41.62178 84.99545
#
# Poissons Ratio (x) = 0.25539 0.28324
# Poissons Ratio (y) = 0.40133 0.55760
# Poissons Ratio (z) = 0.21796 0.27306
#
# Static dielectric constant tensor:
#      x y z
#    x 3.669870 0.000000 -0.026080 
#    y 0.000000 3.357820 0.000000 
#    z -0.026080 0.000000 3.510600 
# 
# 
# High freq. dielectric constant tensor:
#      x y z
#    x 1.755190 0.000000 0.000060 
#    y 0.000000 1.726910 0.000000 
#    z 0.000060 0.000000 1.741890 
# 
# From -- ./inp_files/375480.got.cif
#   From: 2010.06.25/outbox.cif.g09.slc.cpg/sg12_188_cif.got.tgz:375480.got - 2010.06.28 00:19:55.
