data_PCOD8098576
_publ_section_title
;
Structure prediction by ZEFSAII (Michael W. Deem and Ramdas Pophale) SiO2 
 PCOD8098576
Probable space group: C 2/M
;
_chemical_formula_sum "Si O2"
_cell_formula_units_Z 44
_cell_length_a 26.200762
_cell_length_b 9.034848
_cell_length_c 11.550073
_cell_angle_alpha 90.000000
_cell_angle_beta 51.753231
_cell_angle_gamma 90.000000
_cell_volume 2147.255719
_symmetry_space_group_name_H-M "C 2/M"
_symmetry_group_IT_number 12
_symmetry_cell_setting 'monoclinic'
loop_
_space_group_symop_operation_xyz
x,y,z
-x,y,-z
-x,-y,-z
x,-y,z
1/2+x,1/2+y,z
1/2-x,1/2+y,-z
1/2-x,1/2-y,-z
1/2+x,1/2-y,z
loop_
_atom_site_type_symbol
_atom_site_label
_atom_site_fract_x
_atom_site_fract_y
_atom_site_fract_z
Si Si1 0.000000 0.251615 0.500000
Si Si2 0.706374 0.322594 0.243668
Si Si3 0.093973 0.164863 0.560002
Si Si4 0.380438 0.166084 0.811745
Si Si5 0.562191 0.671872 0.850516
Si Si6 0.656489 0.672233 0.922627
O O1 0.035673 0.155862 0.548258
O O2 0.054587 0.347106 0.357176
O O3 0.705623 0.500000 0.233549
O O4 0.658407 0.263816 0.413015
O O5 0.679295 0.252278 0.163718
O O6 0.777133 0.262900 0.171165
O O7 0.074245 0.248187 0.707280
O O8 0.113000 0.000000 0.569297
O O9 0.357210 0.000000 0.872640
O O10 0.392554 0.256788 0.913551
O O11 0.545138 0.500000 0.854923
O O12 0.625649 0.693370 0.839710
O O13 0.500000 0.747718 0.000000
O O14 0.668101 0.500000 0.934538
#
# Coordination Sequence:
#
# PCOD8098576 Si02
#       6
#     4   8   8   8   8   8
#     4  10  20  34  58  84 111 144 181 226 279 326
#     4  10  21  37  57  82 112 145 185 231 276 324
#     4   9  18  33  55  84 114 146 185 227 271 325
#     4  11  22  37  57  82 114 146 182 227 276 330
#     4   9  18  33  54  81 112 144 182 226 271 325
#     4  11  22  36  57  82 110 147 187 227 274 325
#
# _framework density 20.491271999999999
#
# number of rings (size 3 to 8) (size 9 to 14) (size 15 to 20)
#    0.000    2.000    0.000    3.818    0.000    4.364 
#    0.000    0.000    0.000   19.636    0.000    0.000 
#    0.000    0.000    0.000    0.000    0.000    0.000 
#
# Total GULP energy -272671.800873 kJ/mol
# GULP energy per Si atom -12394.172767 kJ/mol
# Density = 2.044463 g / cm^3
# Si number density = 20.491272 Si / 1000 Ang^3
#
#
#
# Elastic Constant Matrix: (Units=GPa)
#
#
# Indices 1 2 3 4 5 6 
#
# 1 87.4251 25.1026 49.9011 0.0000 5.4911 0.0000
# 2 25.1026 87.7462 26.0329 0.0000 3.9786 0.0000
# 3 49.9011 26.0329 117.7954 0.0000 14.3877 0.0000
# 4 0.0000 0.0000 0.0000 17.4522 0.0000 -1.8855
# 5 5.4911 3.9786 14.3877 0.0000 41.3714 0.0000
# 6 0.0000 0.0000 0.0000 -1.8855 0.0000 19.7793
#
#
#
# Elastic Compliance Matrix: (Units=1/GPa)
#
#
# Indices 1 2 3 4 5 6 
#
# 1 0.015660 -0.002691 -0.006075 0.000000 0.000293 0.000000
# 2 -0.002691 0.012661 -0.001622 0.000000 -0.000296 0.000000
# 3 -0.006075 -0.001622 0.011805 0.000000 -0.003143 0.000000
# 4 0.000000 0.000000 0.000000 0.057896 0.000000 0.005519
# 5 0.000293 -0.000296 -0.003143 0.000000 0.025254 0.000000
# 6 0.000000 0.000000 0.000000 0.005519 0.000000 0.051084
#
#
# Mechanical properties :
#
#
# Convention : Reuss Voigt Hill
#
# Bulk Modulus (GPa) = 51.67868 55.00443 53.34155
# Shear Modulus (GPa) = 24.80323 28.51590 26.65957
#
# Velocity S-wave (km/s) = 3.48290 3.73448 3.61088
# Velocity P-wave (km/s) = 6.43807 6.74509 6.59337
#
# Compressibility (1/GPa) = 0.01935034
#
# Stress axis : x y z
#
# Youngs Moduli (GPa) = 63.85595 78.98283 84.70812
#
# Poissons Ratio (x) = 0.21254 0.51461
# Poissons Ratio (y) = 0.17184 0.13739
# Poissons Ratio (z) = 0.38793 0.12810
#
# Static dielectric constant tensor:
#      x y z
#    x 3.598980 0.000000 0.159810 
#    y 0.000000 3.329410 0.000000 
#    z 0.159810 0.000000 4.212180 
# 
# 
# High freq. dielectric constant tensor:
#      x y z
#    x 1.797090 0.000000 0.000840 
#    y 0.000000 1.764730 0.000000 
#    z 0.000840 0.000000 1.822370 
# 
# From -- ./inp_files/180449.got.cif
#   From: 2010.06.25/outbox.cif.g09.slc.cpg/sg12_91_cif.got.tgz:180449.got - 2010.06.28 00:19:55.
