data_PCOD8098404
_publ_section_title
;
Structure prediction by ZEFSAII (Michael W. Deem and Ramdas Pophale) SiO2 
 PCOD8098404
Probable space group: C 2/M
;
_chemical_formula_sum "Si O2"
_cell_formula_units_Z 56
_cell_length_a 9.441191
_cell_length_b 22.811821
_cell_length_c 12.877606
_cell_angle_alpha 90.000000
_cell_angle_beta 106.021843
_cell_angle_gamma 90.000000
_cell_volume 2665.729018
_symmetry_space_group_name_H-M "C 2/M"
_symmetry_group_IT_number 12
_symmetry_cell_setting 'monoclinic'
loop_
_space_group_symop_operation_xyz
x,y,z
-x,y,-z
-x,-y,-z
x,-y,z
1/2+x,1/2+y,z
1/2-x,1/2+y,-z
1/2-x,1/2-y,-z
1/2+x,1/2-y,z
loop_
_atom_site_type_symbol
_atom_site_label
_atom_site_fract_x
_atom_site_fract_y
_atom_site_fract_z
Si Si1 0.231751 0.935450 0.257653
Si Si2 0.496217 0.433527 0.616476
Si Si3 0.735901 0.687388 0.198162
Si Si4 0.475389 0.207556 0.876385
Si Si5 0.753900 0.143149 0.304288
Si Si6 0.449734 0.933915 0.601390
Si Si7 0.846683 0.740142 0.420991
O O1 0.187546 0.880977 0.173272
O O2 0.407996 0.934802 0.296349
O O3 0.161355 0.926843 0.358796
O O4 0.180616 0.000000 0.204206
O O5 0.500000 0.406301 0.500000
O O6 0.547639 0.500000 0.619430
O O7 0.620246 0.400853 0.711728
O O8 0.593764 0.727547 0.148324
O O9 0.788738 0.690849 0.329396
O O10 0.868440 0.706956 0.150057
O O11 0.363558 0.159389 0.807928
O O12 0.500000 0.190799 0.000000
O O13 0.670266 0.111922 0.382472
O O14 0.847065 0.199727 0.356990
O O15 0.500000 0.911294 0.500000
O O16 0.381655 0.000000 0.581197
O O17 0.750000 0.750000 0.500000
O O18 0.000000 0.720387 0.500000
#
# Coordination Sequence:
#
# PCOD8098404 Si02
#       7
#     8   8   8   8   8   8   8
#     4  10  22  38  61  87 123 166 204 250 306 368
#     4  10  21  36  58  91 130 174 213 248 299 375
#     4  11  24  43  66  92 126 163 208 261 315 384
#     4  11  25  45  67  94 117 162 217 269 326 369
#     4  11  22  36  60  86 125 160 206 263 310 369
#     4  10  20  34  56  87 122 168 210 244 298 373
#     4  11  25  36  54  89 126 165 197 242 311 381
#
# _framework density 21.007387000000001
#
# number of rings (size 3 to 8) (size 9 to 14) (size 15 to 20)
#    0.000    1.429    1.429    3.857   10.000    2.286 
#    0.000    0.000    0.000    4.286    0.000    0.000 
#    0.000    0.000    0.000    0.000    0.000    0.000 
#
# Total GULP energy -347085.251221 kJ/mol
# GULP energy per Si atom -12395.901829 kJ/mol
# Density = 2.095957 g / cm^3
# Si number density = 21.007387 Si / 1000 Ang^3
#
#
#
# Elastic Constant Matrix: (Units=GPa)
#
#
# Indices 1 2 3 4 5 6 
#
# 1 82.4340 33.0397 8.4047 0.0000 -7.5865 0.0000
# 2 33.0397 122.7350 25.4576 0.0000 1.3305 0.0000
# 3 8.4047 25.4576 77.1883 0.0000 -6.2769 0.0000
# 4 0.0000 0.0000 0.0000 14.5653 0.0000 -0.5367
# 5 -7.5865 1.3305 -6.2769 0.0000 22.5055 0.0000
# 6 0.0000 0.0000 0.0000 -0.5367 0.0000 33.4832
#
#
#
# Elastic Compliance Matrix: (Units=1/GPa)
#
#
# Indices 1 2 3 4 5 6 
#
# 1 0.014139 -0.003893 0.000154 0.000000 0.005039 0.000000
# 2 -0.003893 0.009858 -0.003051 0.000000 -0.002746 0.000000
# 3 0.000154 -0.003051 0.014288 0.000000 0.004217 0.000000
# 4 0.000000 0.000000 0.000000 0.068697 0.000000 0.001101
# 5 0.005039 -0.002746 0.004217 0.000000 0.047471 0.000000
# 6 0.000000 0.000000 0.000000 0.001101 0.000000 0.029883
#
#
# Mechanical properties :
#
#
# Convention : Reuss Voigt Hill
#
# Bulk Modulus (GPa) = 40.47573 46.24014 43.35794
# Shear Modulus (GPa) = 24.25416 28.47450 26.36433
#
# Velocity S-wave (km/s) = 3.40156 3.68564 3.54645
# Velocity P-wave (km/s) = 5.89378 6.33807 6.11996
#
# Compressibility (1/GPa) = 0.02470616
#
# Stress axis : x y z
#
# Youngs Moduli (GPa) = 70.72522 101.43933 69.99046
#
# Poissons Ratio (x) = 0.39488 -0.01079
# Poissons Ratio (y) = 0.27532 0.21352
# Poissons Ratio (z) = -0.01090 0.30947
#
# Static dielectric constant tensor:
#      x y z
#    x 3.827940 0.000000 0.032380 
#    y 0.000000 4.565110 0.000000 
#    z 0.032380 0.000000 3.399560 
# 
# 
# High freq. dielectric constant tensor:
#      x y z
#    x 1.836530 0.000000 0.003330 
#    y 0.000000 1.840660 0.000000 
#    z 0.003330 0.000000 1.766670 
# 
# From -- ./inp_files/198511.got.cif
#   From: 2010.06.25/outbox.cif.g09.slc.cpg/sg12_100_cif.got.tgz:198511.got - 2010.06.28 00:19:55.
