data_PCOD8098761
_publ_section_title
;
Structure prediction by ZEFSAII (Michael W. Deem and Ramdas Pophale) SiO2 
 PCOD8098761
Probable space group: C 2/M
;
_chemical_formula_sum "Si O2"
_cell_formula_units_Z 56
_cell_length_a 19.162218
_cell_length_b 9.117313
_cell_length_c 31.828905
_cell_angle_alpha 90.000000
_cell_angle_beta 32.004213
_cell_angle_gamma 90.000000
_cell_volume 2947.101868
_symmetry_space_group_name_H-M "C 2/M"
_symmetry_group_IT_number 12
_symmetry_cell_setting 'monoclinic'
loop_
_space_group_symop_operation_xyz
x,y,z
-x,y,-z
-x,-y,-z
x,-y,z
1/2+x,1/2+y,z
1/2-x,1/2+y,-z
1/2-x,1/2-y,-z
1/2+x,1/2-y,z
loop_
_atom_site_type_symbol
_atom_site_label
_atom_site_fract_x
_atom_site_fract_y
_atom_site_fract_z
Si Si1 0.650425 0.173468 0.753411
Si Si2 0.613279 0.834253 0.067367
Si Si3 0.145004 0.167810 0.581271
Si Si4 0.395664 0.328962 0.304147
Si Si5 0.333793 0.826500 0.818242
Si Si6 0.886208 0.666007 0.027492
Si Si7 0.654520 0.672519 0.271658
O O1 0.505747 0.227290 0.843050
O O2 0.688028 0.260929 0.691643
O O3 0.762688 0.215511 0.729611
O O4 0.650727 0.000000 0.744939
O O5 0.643478 0.000000 0.065535
O O6 0.750000 0.750000 0.000000
O O7 0.559446 0.825997 0.047439
O O8 0.250000 0.250000 0.500000
O O9 0.178515 0.192464 0.613497
O O10 0.997505 0.222176 0.645294
O O11 0.157450 0.000000 0.562420
O O12 0.425316 0.500000 0.281082
O O13 0.528329 0.237483 0.237912
O O14 0.233972 0.778285 0.905730
O O15 0.285608 0.759040 0.798556
O O16 0.342425 0.000000 0.810584
O O17 0.841245 0.500000 0.061602
O O18 0.000000 0.720361 0.000000
O O19 0.663292 0.500000 0.257118
#
# Coordination Sequence:
#
# PCOD8098761 Si02
#       7
#     8   8   8   8   8   8   8
#     4  10  20  36  57  80 106 139 183 228 267 315
#     4  10  21  34  50  73 101 137 178 221 269 316
#     4   9  19  36  59  84 109 139 174 214 261 317
#     4  10  21  37  56  79 108 142 177 213 262 322
#     4  11  21  33  52  78 105 137 183 231 270 316
#     4  10  20  35  53  71  97 138 182 225 277 326
#     4   9  19  37  58  80 109 144 180 220 269 323
#
# _framework density 19.001718
#
# number of rings (size 3 to 8) (size 9 to 14) (size 15 to 20)
#    0.000    2.143    0.000    4.286    0.000    9.429 
#    0.000    2.143    0.000    4.286    0.000    0.000 
#    0.000    0.000    0.000    0.000    0.000    0.000 
#
# Total GULP energy -347179.679682 kJ/mol
# GULP energy per Si atom -12399.274274 kJ/mol
# Density = 1.895847 g / cm^3
# Si number density = 19.001718 Si / 1000 Ang^3
#
#
#
# Elastic Constant Matrix: (Units=GPa)
#
#
# Indices 1 2 3 4 5 6 
#
# 1 97.8592 32.1373 23.2254 0.0001 13.1248 -0.0011
# 2 32.1373 77.1095 33.4941 0.0014 8.1214 -0.0023
# 3 23.2254 33.4941 87.7015 0.0017 7.8093 -0.0046
# 4 0.0001 0.0014 0.0017 32.1871 0.0000 4.3160
# 5 13.1248 8.1214 7.8093 0.0000 22.4359 0.0015
# 6 -0.0011 -0.0023 -0.0046 4.3160 0.0015 30.8382
#
#
#
# Elastic Compliance Matrix: (Units=1/GPa)
#
#
# Indices 1 2 3 4 5 6 
#
# 1 0.012606 -0.004126 -0.001279 0.000000 -0.005436 0.000000
# 2 -0.004126 0.017198 -0.005300 -0.000001 -0.001967 0.000001
# 3 -0.001279 -0.005300 0.013960 -0.000001 -0.002193 0.000002
# 4 0.000000 -0.000001 -0.000001 0.031663 0.000001 -0.004431
# 5 -0.005436 -0.001967 -0.002193 0.000001 0.049226 -0.000003
# 6 0.000000 0.000001 0.000002 -0.004431 -0.000003 0.033047
#
#
# Mechanical properties :
#
#
# Convention : Reuss Voigt Hill
#
# Bulk Modulus (GPa) = 44.73358 48.93156 46.83257
# Shear Modulus (GPa) = 26.80077 28.67982 27.74030
#
# Velocity S-wave (km/s) = 3.75966 3.88922 3.82499
# Velocity P-wave (km/s) = 6.51457 6.78049 6.64886
#
# Compressibility (1/GPa) = 0.02235457
#
# Stress axis : x y z
#
# Youngs Moduli (GPa) = 79.32542 58.14781 71.63154
#
# Poissons Ratio (x) = 0.23992 0.09159
# Poissons Ratio (y) = 0.32730 0.37966
# Poissons Ratio (z) = 0.10143 0.30819
#
# Static dielectric constant tensor:
#      x y z
#    x 3.671720 -0.000020 0.172190 
#    y -0.000020 3.387870 0.000000 
#    z 0.172190 0.000000 3.387620 
# 
# 
# High freq. dielectric constant tensor:
#      x y z
#    x 1.746150 0.000000 0.013230 
#    y 0.000000 1.731130 0.000000 
#    z 0.013230 0.000000 1.723250 
# 
# From -- ./inp_files/313742.got.cif
#   From: 2010.06.25/outbox.cif.g09.slc.cpg/sg12_157_cif.got.tgz:313742.got - 2010.06.28 00:19:55.
