data_PCOD8098430
_publ_section_title
;
Structure prediction by ZEFSAII (Michael W. Deem and Ramdas Pophale) SiO2 
 PCOD8098430
Probable space group: C 2/M
;
_chemical_formula_sum "Si O2"
_cell_formula_units_Z 56
_cell_length_a 23.958431
_cell_length_b 8.626026
_cell_length_c 14.808012
_cell_angle_alpha 90.000000
_cell_angle_beta 108.771041
_cell_angle_gamma 90.000000
_cell_volume 2897.541451
_symmetry_space_group_name_H-M "C 2/M"
_symmetry_group_IT_number 12
_symmetry_cell_setting 'monoclinic'
loop_
_space_group_symop_operation_xyz
x,y,z
-x,y,-z
-x,-y,-z
x,-y,z
1/2+x,1/2+y,z
1/2-x,1/2+y,-z
1/2-x,1/2-y,-z
1/2+x,1/2-y,z
loop_
_atom_site_type_symbol
_atom_site_label
_atom_site_fract_x
_atom_site_fract_y
_atom_site_fract_z
Si Si1 0.181297 0.683561 0.294852
Si Si2 0.553271 0.679243 0.925306
Si Si3 0.590179 0.679851 0.749266
Si Si4 0.139395 0.817893 0.453318
Si Si5 0.189667 0.816657 0.668142
Si Si6 0.428510 0.183070 0.878186
Si Si7 0.515957 0.819572 0.408105
O O1 0.179202 0.500000 0.293817
O O2 0.178370 0.741216 0.395759
O O3 0.243374 0.744388 0.285793
O O4 0.127530 0.748040 0.206380
O O5 0.551576 0.500000 0.952540
O O6 0.594139 0.705721 0.858872
O O7 0.486693 0.734186 0.869869
O O8 0.581007 0.777316 0.021417
O O9 0.577004 0.500000 0.719346
O O10 0.651214 0.735703 0.734816
O O11 0.538183 0.785825 0.685229
O O12 0.160615 0.750296 0.560999
O O13 0.071488 0.776063 0.401599
O O14 0.148134 0.000000 0.452224
O O15 0.190082 0.000000 0.661026
O O16 0.436083 0.000000 0.870493
O O17 0.500000 0.763323 0.500000
O O18 0.531936 0.000000 0.413455
#
# Coordination Sequence:
#
# PCOD8098430 Si02
#       7
#     8   8   8   8   8   8   8
#     4  10  21  37  56  78 107 143 182 223 266 315
#     4  10  20  34  57  83 106 133 170 221 270 316
#     4  10  20  36  57  80 108 144 181 217 265 321
#     4  11  21  34  56  80 106 144 184 224 265 313
#     4   9  19  36  55  76 107 146 183 217 261 318
#     4  10  20  35  56  79 106 138 172 216 269 323
#     4  11  22  34  51  78 111 142 174 219 267 312
#
# _framework density 19.326730999999999
#
# number of rings (size 3 to 8) (size 9 to 14) (size 15 to 20)
#    0.000    1.857    1.429    3.857    0.000    5.143 
#    0.000    2.143    0.000    0.000    0.000    0.000 
#    0.000    0.000    0.000    0.000    0.000    0.000 
#
# Total GULP energy -347247.004038 kJ/mol
# GULP energy per Si atom -12401.678716 kJ/mol
# Density = 1.928274 g / cm^3
# Si number density = 19.326731 Si / 1000 Ang^3
#
#
#
# Elastic Constant Matrix: (Units=GPa)
#
#
# Indices 1 2 3 4 5 6 
#
# 1 138.1789 9.4817 60.5561 0.0000 -10.4019 0.0000
# 2 9.4817 16.3862 7.2426 0.0000 1.6822 0.0000
# 3 60.5561 7.2426 92.7657 0.0000 -13.2457 0.0000
# 4 0.0000 0.0000 0.0000 25.1745 0.0000 -5.4084
# 5 -10.4019 1.6822 -13.2457 0.0000 31.7809 0.0000
# 6 0.0000 0.0000 0.0000 -5.4084 0.0000 15.9132
#
#
#
# Elastic Compliance Matrix: (Units=1/GPa)
#
#
# Indices 1 2 3 4 5 6 
#
# 1 0.010310 -0.003253 -0.006347 0.000000 0.000901 0.000000
# 2 -0.003253 0.065236 -0.003844 0.000000 -0.006120 0.000000
# 3 -0.006347 -0.003844 0.015902 0.000000 0.004754 0.000000
# 4 0.000000 0.000000 0.000000 0.042852 0.000000 0.014564
# 5 0.000901 -0.006120 0.004754 0.000000 0.034066 0.000000
# 6 0.000000 0.000000 0.000000 0.014564 0.000000 0.067790
#
#
# Mechanical properties :
#
#
# Convention : Reuss Voigt Hill
#
# Bulk Modulus (GPa) = 15.48934 44.65464 30.07199
# Shear Modulus (GPa) = 17.57076 25.91041 21.74059
#
# Velocity S-wave (km/s) = 3.01847 3.66546 3.35759
# Velocity P-wave (km/s) = 4.49222 6.40854 5.53396
#
# Compressibility (1/GPa) = 0.06456051
#
# Stress axis : x y z
#
# Youngs Moduli (GPa) = 96.99556 15.32890 62.88422
#
# Poissons Ratio (x) = 0.04986 0.39915
# Poissons Ratio (y) = 0.31549 0.24171
# Poissons Ratio (z) = 0.61568 0.05892
#
# Static dielectric constant tensor:
#      x y z
#    x 3.810350 0.000000 -0.046950 
#    y 0.000000 3.346230 0.000000 
#    z -0.046950 0.000000 3.599060 
# 
# 
# High freq. dielectric constant tensor:
#      x y z
#    x 1.754150 0.000000 -0.010100 
#    y 0.000000 1.739340 0.000000 
#    z -0.010100 0.000000 1.747880 
# 
# From -- ./inp_files/237874.got.cif
#   From: 2010.06.25/outbox.cif.g09.slc.cpg/sg12_119_cif.got.tgz:237874.got - 2010.06.28 00:19:55.
