data_PCOD8098375
_publ_section_title
;
Structure prediction by ZEFSAII (Michael W. Deem and Ramdas Pophale) SiO2 
 PCOD8098375
Probable space group: C 2/M
;
_chemical_formula_sum "Si O2"
_cell_formula_units_Z 64
_cell_length_a 15.485497
_cell_length_b 9.101985
_cell_length_c 26.618241
_cell_angle_alpha 90.000000
_cell_angle_beta 63.786318
_cell_angle_gamma 90.000000
_cell_volume 3365.945571
_symmetry_space_group_name_H-M "C 2/M"
_symmetry_group_IT_number 12
_symmetry_cell_setting 'monoclinic'
loop_
_space_group_symop_operation_xyz
x,y,z
-x,y,-z
-x,-y,-z
x,-y,z
1/2+x,1/2+y,z
1/2-x,1/2+y,-z
1/2-x,1/2-y,-z
1/2+x,1/2-y,z
loop_
_atom_site_type_symbol
_atom_site_label
_atom_site_fract_x
_atom_site_fract_y
_atom_site_fract_z
Si Si1 0.809105 0.174168 0.758606
Si Si2 0.240122 0.827372 0.055311
Si Si3 0.416668 0.325847 0.828059
Si Si4 0.891255 0.172797 0.631485
Si Si5 0.889385 0.167477 0.176893
Si Si6 0.089692 0.833695 0.942676
Si Si7 0.799505 0.671806 0.561941
Si Si8 0.109378 0.170576 0.553352
O O1 0.874179 0.239671 0.787138
O O2 0.855227 0.228101 0.694774
O O3 0.701199 0.230083 0.791672
O O4 0.806209 0.000000 0.761894
O O5 0.144614 0.771000 0.108294
O O6 0.327881 0.783601 0.068298
O O7 0.239097 0.000000 0.046641
O O8 0.250000 0.750000 0.000000
O O9 0.409364 0.500000 0.827982
O O10 0.527410 0.277386 0.806351
O O11 0.825102 0.252812 0.607720
O O12 0.003657 0.215581 0.599260
O O13 0.876920 0.000000 0.627874
O O14 0.935396 0.178795 0.109551
O O15 0.858971 0.000000 0.196256
O O16 0.122875 0.000000 0.947614
O O17 0.000000 0.788989 0.000000
O O18 0.819171 0.500000 0.561721
O O19 0.869138 0.734591 0.501268
O O20 0.687721 0.704422 0.576799
O O21 0.114162 0.000000 0.536628
#
# Coordination Sequence:
#
# PCOD8098375 Si02
#       8
#     8   8   8   8   8   8   8   8
#     4  10  21  39  58  79 109 146 190 236 276 325
#     4  11  21  35  56  82 112 144 182 227 279 338
#     4   9  19  37  59  79 106 146 184 222 275 338
#     4  10  21  36  56  79 109 151 192 229 275 332
#     4  10  20  36  59  82 107 142 182 226 281 334
#     4  10  20  35  55  81 114 145 179 225 279 340
#     4  10  20  34  56  86 116 146 184 234 280 322
#     4   9  19  36  56  81 114 152 188 223 273 336
#
# _framework density 19.013974000000001
#
# number of rings (size 3 to 8) (size 9 to 14) (size 15 to 20)
#    0.000    2.125    1.250    1.875    0.000    6.250 
#    0.000    5.625    0.000    0.000    0.000    0.000 
#    0.000    0.000    0.000    0.000    0.000    0.000 
#
# Total GULP energy -396811.516114 kJ/mol
# GULP energy per Si atom -12400.359879 kJ/mol
# Density = 1.897070 g / cm^3
# Si number density = 19.013974 Si / 1000 Ang^3
#
#
#
# Elastic Constant Matrix: (Units=GPa)
#
#
# Indices 1 2 3 4 5 6 
#
# 1 129.9128 25.8174 69.2402 0.0000 12.5408 0.0000
# 2 25.8174 37.7342 33.9497 0.0000 8.2718 0.0000
# 3 69.2402 33.9497 130.2948 0.0000 10.3393 0.0000
# 4 0.0000 0.0000 0.0000 25.3494 0.0000 3.0114
# 5 12.5408 8.2718 10.3393 0.0000 28.4964 0.0000
# 6 0.0000 0.0000 0.0000 3.0114 0.0000 30.9306
#
#
#
# Elastic Compliance Matrix: (Units=1/GPa)
#
#
# Indices 1 2 3 4 5 6 
#
# 1 0.011127 -0.002547 -0.005065 0.000000 -0.002320 0.000000
# 2 -0.002547 0.036601 -0.007649 0.000000 -0.006728 0.000000
# 3 -0.005065 -0.007649 0.012363 0.000000 -0.000036 0.000000
# 4 0.000000 0.000000 0.000000 0.039910 0.000000 -0.003886
# 5 -0.002320 -0.006728 -0.000036 0.000000 0.038079 0.000000
# 6 0.000000 0.000000 0.000000 -0.003886 0.000000 0.032709
#
#
# Mechanical properties :
#
#
# Convention : Reuss Voigt Hill
#
# Bulk Modulus (GPa) = 33.82144 61.77293 47.79718
# Shear Modulus (GPa) = 23.67777 28.21757 25.94767
#
# Velocity S-wave (km/s) = 3.53268 3.85651 3.69814
# Velocity P-wave (km/s) = 5.87078 7.23802 6.58995
#
# Compressibility (1/GPa) = 0.02956705
#
# Stress axis : x y z
#
# Youngs Moduli (GPa) = 89.86863 27.32169 80.88884
#
# Poissons Ratio (x) = 0.06960 0.40973
# Poissons Ratio (y) = 0.22893 0.61873
# Poissons Ratio (z) = 0.45522 0.20899
#
# Static dielectric constant tensor:
#      x y z
#    x 3.819330 0.000000 0.267710 
#    y 0.000000 3.422720 0.000000 
#    z 0.267710 0.000000 3.756130 
# 
# 
# High freq. dielectric constant tensor:
#      x y z
#    x 1.750690 0.000000 0.004390 
#    y 0.000000 1.721100 0.000000 
#    z 0.004390 0.000000 1.739820 
# 
# From -- ./inp_files/359767.got.cif
#   From: 2010.06.25/outbox.cif.g09.slc.cpg/sg12_180_cif.got.tgz:359767.got - 2010.06.28 00:19:55.
