data_PCOD8098692
_publ_section_title
;
Structure prediction by ZEFSAII (Michael W. Deem and Ramdas Pophale) SiO2 
 PCOD8098692
Probable space group: C 2/M
;
_chemical_formula_sum "Si O2"
_cell_formula_units_Z 48
_cell_length_a 9.076979
_cell_length_b 13.188782
_cell_length_c 28.629308
_cell_angle_alpha 90.000000
_cell_angle_beta 139.056035
_cell_angle_gamma 90.000000
_cell_volume 2246.004903
_symmetry_space_group_name_H-M "C 2/M"
_symmetry_group_IT_number 12
_symmetry_cell_setting 'monoclinic'
loop_
_space_group_symop_operation_xyz
x,y,z
-x,y,-z
-x,-y,-z
x,-y,z
1/2+x,1/2+y,z
1/2-x,1/2+y,-z
1/2-x,1/2-y,-z
1/2+x,1/2-y,z
loop_
_atom_site_type_symbol
_atom_site_label
_atom_site_fract_x
_atom_site_fract_y
_atom_site_fract_z
Si Si1 0.548792 0.698700 0.113703
Si Si2 0.472460 0.244770 0.790086
Si Si3 0.044731 0.118911 0.716845
Si Si4 0.606417 0.885262 0.976407
Si Si5 0.266059 0.393752 0.468163
Si Si6 0.734351 0.317333 0.433890
O O1 0.518881 0.684199 0.161985
O O2 0.803694 0.674539 0.159354
O O3 0.494824 0.816789 0.088919
O O4 0.377039 0.626708 0.044651
O O5 0.260834 0.169053 0.742949
O O6 0.471261 0.320526 0.745598
O O7 0.839830 0.129681 0.631515
O O8 0.087735 0.000000 0.738102
O O9 0.543660 0.000000 0.948992
O O10 0.500000 0.850260 0.000000
O O11 0.500000 0.407136 0.500000
O O12 0.127210 0.500000 0.428166
O O13 0.336676 0.383835 0.539286
O O14 0.129533 0.297045 0.414909
O O15 0.000000 0.304817 0.500000
#
# Coordination Sequence:
#
# PCOD8098692 Si02
#       6
#     8   8   8   8   8   8
#     4  10  20  41  62  94 134 165 210 274 316 372
#     4  10  24  43  65  90 133 178 217 267 324 391
#     4  11  26  46  67  94 129 174 225 273 329 397
#     4  10  20  34  65  98 126 169 216 262 325 382
#     4   9  19  35  60  89 121 160 195 257 331 388
#     4  10  22  40  62  93 128 158 212 280 332 392
#
# _framework density 21.371279999999999
#
# number of rings (size 3 to 8) (size 9 to 14) (size 15 to 20)
#    0.000    2.000    1.667    0.500    7.000    5.333 
#    0.000    3.333    0.000    0.000    0.000    0.000 
#    0.000    0.000    0.000    0.000    0.000    0.000 
#
# Total GULP energy -297437.567858 kJ/mol
# GULP energy per Si atom -12393.231994 kJ/mol
# Density = 2.132264 g / cm^3
# Si number density = 21.371280 Si / 1000 Ang^3
#
#
#
# Elastic Constant Matrix: (Units=GPa)
#
#
# Indices 1 2 3 4 5 6 
#
# 1 118.0551 39.6333 34.0229 0.0000 -9.9243 0.0000
# 2 39.6333 130.1406 20.3151 0.0000 -4.3000 0.0000
# 3 34.0229 20.3151 78.6173 0.0000 -1.5640 0.0000
# 4 0.0000 0.0000 0.0000 15.8576 0.0000 -3.2106
# 5 -9.9243 -4.3000 -1.5640 0.0000 31.9322 0.0000
# 6 0.0000 0.0000 0.0000 -3.2106 0.0000 30.9630
#
#
#
# Elastic Compliance Matrix: (Units=1/GPa)
#
#
# Indices 1 2 3 4 5 6 
#
# 1 0.010689 -0.002553 -0.003911 0.000000 0.002787 0.000000
# 2 -0.002553 0.008647 -0.001123 0.000000 0.000316 0.000000
# 3 -0.003911 -0.001123 0.014690 0.000000 -0.000647 0.000000
# 4 0.000000 0.000000 0.000000 0.064414 0.000000 0.006679
# 5 0.002787 0.000316 -0.000647 0.000000 0.032193 0.000000
# 6 0.000000 0.000000 0.000000 0.006679 0.000000 0.032989
#
#
# Mechanical properties :
#
#
# Convention : Reuss Voigt Hill
#
# Bulk Modulus (GPa) = 53.04462 57.19507 55.11984
# Shear Modulus (GPa) = 27.01538 31.27334 29.14436
#
# Velocity S-wave (km/s) = 3.55927 3.82951 3.69686
# Velocity P-wave (km/s) = 6.46263 6.80986 6.63852
#
# Compressibility (1/GPa) = 0.01885205
#
# Stress axis : x y z
#
# Youngs Moduli (GPa) = 93.55481 115.64417 68.07486
#
# Poissons Ratio (x) = 0.29520 0.26622
# Poissons Ratio (y) = 0.23881 0.07648
# Poissons Ratio (z) = 0.36587 0.12992
#
# Static dielectric constant tensor:
#      x y z
#    x 3.760360 0.000000 0.177150 
#    y 0.000000 4.229480 0.000000 
#    z 0.177150 0.000000 3.562910 
# 
# 
# High freq. dielectric constant tensor:
#      x y z
#    x 1.854060 0.000000 -0.002660 
#    y 0.000000 1.829260 0.000000 
#    z -0.002660 0.000000 1.822320 
# 
# From -- ./inp_files/372409.got.cif
#   From: 2010.06.25/outbox.cif.g09.slc.cpg/sg12_187_cif.got.tgz:372409.got - 2010.06.28 00:19:55.
