data_PCOD8098711
_publ_section_title
;
Structure prediction by ZEFSAII (Michael W. Deem and Ramdas Pophale) SiO2 
 PCOD8098711
Probable space group: C 2/M
;
_chemical_formula_sum "Si O2"
_cell_formula_units_Z 64
_cell_length_a 24.743850
_cell_length_b 9.255882
_cell_length_c 17.361009
_cell_angle_alpha 90.000000
_cell_angle_beta 103.068750
_cell_angle_gamma 90.000000
_cell_volume 3873.141290
_symmetry_space_group_name_H-M "C 2/M"
_symmetry_group_IT_number 12
_symmetry_cell_setting 'monoclinic'
loop_
_space_group_symop_operation_xyz
x,y,z
-x,y,-z
-x,-y,-z
x,-y,z
1/2+x,1/2+y,z
1/2-x,1/2+y,-z
1/2-x,1/2-y,-z
1/2+x,1/2-y,z
loop_
_atom_site_type_symbol
_atom_site_label
_atom_site_fract_x
_atom_site_fract_y
_atom_site_fract_z
Si Si1 0.715814 0.664824 0.667247
Si Si2 0.508433 0.332165 0.914698
Si Si3 0.200915 0.670070 0.812289
Si Si4 0.865569 0.165881 0.084224
Si Si5 0.592426 0.830803 0.177122
Si Si6 0.338220 0.833200 0.653255
Si Si7 0.306745 0.666610 0.507198
Si Si8 0.176792 0.167711 0.095954
O O1 0.715085 0.500000 0.696612
O O2 0.690256 0.766882 0.724046
O O3 0.779129 0.712310 0.670633
O O4 0.677485 0.681191 0.578128
O O5 0.493558 0.500000 0.899671
O O6 0.570612 0.296803 0.910132
O O7 0.468220 0.238824 0.847786
O O8 0.500000 0.284496 0.000000
O O9 0.193595 0.500000 0.806814
O O10 0.155043 0.732798 0.854347
O O11 0.261720 0.716082 0.860870
O O12 0.858165 0.000000 0.106763
O O13 0.830077 0.198881 0.996530
O O14 0.613963 0.799663 0.270088
O O15 0.632945 0.761717 0.127856
O O16 0.589377 0.000000 0.158967
O O17 0.350913 0.739732 0.579962
O O18 0.336640 0.000000 0.628376
O O19 0.299033 0.500000 0.527457
O O20 0.250000 0.750000 0.500000
O O21 0.165245 0.000000 0.110959
#
# Coordination Sequence:
#
# PCOD8098711 Si02
#       8
#     8   8   8   8   8   8   8   8
#     4   9  17  31  47  67 100 135 165 196 241 300
#     4  10  20  37  56  72  95 130 172 211 252 304
#     4  11  22  32  49  76 102 130 170 212 246 294
#     4  10  21  37  54  68  95 136 170 209 255 297
#     4  11  21  32  51  77 103 132 166 211 256 293
#     4   9  18  31  46  70 102 133 165 201 246 298
#     4   9  17  28  45  69  98 132 166 201 241 293
#     4  10  20  35  51  71  99 134 172 206 248 301
#
# _framework density 16.524055000000001
#
# number of rings (size 3 to 8) (size 9 to 14) (size 15 to 20)
#    0.000    2.125    2.500    2.250    0.000    5.250 
#    0.000    0.000    0.000    0.000    0.000    0.875 
#    0.000    7.000    0.000    0.000    0.000    0.000 
#
# Total GULP energy -396816.336398 kJ/mol
# GULP energy per Si atom -12400.510512 kJ/mol
# Density = 1.648645 g / cm^3
# Si number density = 16.524055 Si / 1000 Ang^3
#
#
#
# Elastic Constant Matrix: (Units=GPa)
#
#
# Indices 1 2 3 4 5 6 
#
# 1 59.7704 35.4223 42.3027 0.0000 -4.2160 0.0000
# 2 35.4223 80.7992 61.2149 0.0000 -4.0209 0.0000
# 3 42.3027 61.2149 115.1318 0.0000 -1.7652 0.0000
# 4 0.0000 0.0000 0.0000 33.4750 0.0000 -0.5724
# 5 -4.2160 -4.0209 -1.7652 0.0000 17.4427 0.0000
# 6 0.0000 0.0000 0.0000 -0.5724 0.0000 25.9891
#
#
#
# Elastic Compliance Matrix: (Units=1/GPa)
#
#
# Indices 1 2 3 4 5 6 
#
# 1 0.024798 -0.006393 -0.005652 0.000000 0.003948 0.000000
# 2 -0.006393 0.022610 -0.009631 0.000000 0.002692 0.000000
# 3 -0.005652 -0.009631 0.015853 0.000000 -0.001982 0.000000
# 4 0.000000 0.000000 0.000000 0.029884 0.000000 0.000658
# 5 0.003948 0.002692 -0.001982 0.000000 0.058705 0.000000
# 6 0.000000 0.000000 0.000000 0.000658 0.000000 0.038492
#
#
# Mechanical properties :
#
#
# Convention : Reuss Voigt Hill
#
# Bulk Modulus (GPa) = 50.22991 59.28681 54.75836
# Shear Modulus (GPa) = 20.80469 23.16547 21.98508
#
# Velocity S-wave (km/s) = 3.55217 3.74829 3.65154
# Velocity P-wave (km/s) = 6.87662 7.39526 7.14065
#
# Compressibility (1/GPa) = 0.01990846
#
# Stress axis : x y z
#
# Youngs Moduli (GPa) = 40.32573 44.22855 63.08023
#
# Poissons Ratio (x) = 0.28276 0.35652
# Poissons Ratio (y) = 0.25780 0.60754
# Poissons Ratio (z) = 0.22791 0.42598
#
# Static dielectric constant tensor:
#      x y z
#    x 2.859400 0.000000 0.163980 
#    y 0.000000 3.209630 0.000000 
#    z 0.163980 0.000000 3.449070 
# 
# 
# High freq. dielectric constant tensor:
#      x y z
#    x 1.596410 0.000000 0.006440 
#    y 0.000000 1.644370 0.000000 
#    z 0.006440 0.000000 1.643290 
# 
# From -- ./inp_files/287736.got.cif
#   From: 2010.06.25/outbox.cif.g09.slc.cpg/sg12_144_cif.got.tgz:287736.got - 2010.06.28 00:19:55.
