data_PCOD8098886
_publ_section_title
;
Structure prediction by ZEFSAII (Michael W. Deem and Ramdas Pophale) SiO2 
 PCOD8098886
Probable space group: C 2/M
;
_chemical_formula_sum "Si O2"
_cell_formula_units_Z 64
_cell_length_a 29.540712
_cell_length_b 9.021616
_cell_length_c 15.161818
_cell_angle_alpha 90.000000
_cell_angle_beta 120.653487
_cell_angle_gamma 90.000000
_cell_volume 3476.078385
_symmetry_space_group_name_H-M "C 2/M"
_symmetry_group_IT_number 12
_symmetry_cell_setting 'monoclinic'
loop_
_space_group_symop_operation_xyz
x,y,z
-x,y,-z
-x,-y,-z
x,-y,z
1/2+x,1/2+y,z
1/2-x,1/2+y,-z
1/2-x,1/2-y,-z
1/2+x,1/2-y,z
loop_
_atom_site_type_symbol
_atom_site_label
_atom_site_fract_x
_atom_site_fract_y
_atom_site_fract_z
Si Si1 0.664494 0.676076 0.174530
Si Si2 0.700817 0.323716 0.902944
Si Si3 0.885619 0.175713 0.695650
Si Si4 0.640419 0.170993 0.503841
Si Si5 0.110593 0.175450 0.946621
Si Si6 0.501606 0.675259 0.766544
Si Si7 0.216225 0.324469 0.735383
Si Si8 0.978084 0.671537 0.570061
O O1 0.661028 0.500000 0.172128
O O2 0.640332 0.739677 0.241124
O O3 0.724437 0.727271 0.223902
O O4 0.631660 0.742499 0.059720
O O5 0.708820 0.500000 0.909356
O O6 0.648456 0.277096 0.904090
O O7 0.694077 0.261337 0.797974
O O8 0.750000 0.250000 0.000000
O O9 0.853310 0.238418 0.580453
O O10 0.946597 0.229264 0.754855
O O11 0.881946 0.000000 0.687696
O O12 0.683215 0.224783 0.617115
O O13 0.583925 0.201111 0.490562
O O14 0.648716 0.000000 0.488241
O O15 0.051200 0.234594 0.872345
O O16 0.110404 0.000000 0.954189
O O17 0.503085 0.500000 0.761215
O O18 0.507775 0.738648 0.675023
O O19 0.211823 0.500000 0.748497
O O20 0.991880 0.500000 0.596920
O O21 0.000000 0.732472 0.500000
#
# Coordination Sequence:
#
# PCOD8098886 Si02
#       8
#     8   8   8   8   8   8   8   8
#     4   9  17  32  53  75 101 133 168 211 258 299
#     4  11  21  35  54  76 105 139 169 208 255 300
#     4   9  18  33  54  76 100 132 171 214 253 297
#     4   9  19  34  51  72 102 137 169 208 258 304
#     4   9  18  32  51  76 105 133 164 205 255 302
#     4   9  18  32  50  75 101 128 167 208 250 298
#     4  10  20  35  54  76 103 137 173 208 253 306
#     4   9  18  32  48  69  98 132 170 208 248 298
#
# _framework density 18.411552
#
# number of rings (size 3 to 8) (size 9 to 14) (size 15 to 20)
#    0.000    2.625    1.250    0.375    1.750    1.750 
#    0.000    3.750    0.000    0.000    0.000    3.500 
#    0.000    0.000    0.000    0.000    0.000    0.000 
#
# Total GULP energy -396784.134280 kJ/mol
# GULP energy per Si atom -12399.504196 kJ/mol
# Density = 1.836965 g / cm^3
# Si number density = 18.411552 Si / 1000 Ang^3
#
#
#
# Elastic Constant Matrix: (Units=GPa)
#
#
# Indices 1 2 3 4 5 6 
#
# 1 102.4658 22.3464 86.7765 0.0000 -20.9451 0.0000
# 2 22.3464 24.7068 29.1876 0.0000 -3.2990 0.0000
# 3 86.7765 29.1876 178.5113 0.0000 -1.8734 0.0000
# 4 0.0000 0.0000 0.0000 27.7096 0.0000 -2.6093
# 5 -20.9451 -3.2990 -1.8734 0.0000 38.1240 0.0000
# 6 0.0000 0.0000 0.0000 -2.6093 0.0000 19.5392
#
#
#
# Elastic Compliance Matrix: (Units=1/GPa)
#
#
# Indices 1 2 3 4 5 6 
#
# 1 0.021031 -0.007030 -0.008964 0.000000 0.010506 0.000000
# 2 -0.007030 0.053113 -0.005262 0.000000 0.000475 0.000000
# 3 -0.008964 -0.005262 0.010769 0.000000 -0.004851 0.000000
# 4 0.000000 0.000000 0.000000 0.036548 0.000000 0.004881
# 5 0.010506 0.000475 -0.004851 0.000000 0.031805 0.000000
# 6 0.000000 0.000000 0.000000 0.004881 0.000000 0.051831
#
#
# Mechanical properties :
#
#
# Convention : Reuss Voigt Hill
#
# Bulk Modulus (GPa) = 23.58409 64.70055 44.14232
# Shear Modulus (GPa) = 19.10281 28.23277 23.66779
#
# Velocity S-wave (km/s) = 3.22459 3.92015 3.58926
# Velocity P-wave (km/s) = 5.16732 7.46376 6.41907
#
# Compressibility (1/GPa) = 0.04240146
#
# Stress axis : x y z
#
# Youngs Moduli (GPa) = 47.54822 18.82795 92.86065
#
# Poissons Ratio (x) = 0.13235 0.83240
# Poissons Ratio (y) = 0.33425 0.48863
# Poissons Ratio (z) = 0.42622 0.09907
#
# Static dielectric constant tensor:
#      x y z
#    x 3.581790 0.000000 -0.006440 
#    y 0.000000 3.098680 0.000000 
#    z -0.006440 0.000000 3.682560 
# 
# 
# High freq. dielectric constant tensor:
#      x y z
#    x 1.718580 0.000000 0.000120 
#    y 0.000000 1.680390 0.000000 
#    z 0.000120 0.000000 1.724300 
# 
# From -- ./inp_files/249166.got.cif
#   From: 2010.06.25/outbox.cif.g09.slc.cpg/sg12_125_cif.got.tgz:249166.got - 2010.06.28 00:19:55.
