data_PCOD8098654
_publ_section_title
;
Structure prediction by ZEFSAII (Michael W. Deem and Ramdas Pophale) SiO2 
 PCOD8098654
Probable space group: C 2/M
;
_chemical_formula_sum "Si O2"
_cell_formula_units_Z 60
_cell_length_a 12.087033
_cell_length_b 13.289730
_cell_length_c 19.129139
_cell_angle_alpha 90.000000
_cell_angle_beta 113.629694
_cell_angle_gamma 90.000000
_cell_volume 2815.141977
_symmetry_space_group_name_H-M "C 2/M"
_symmetry_group_IT_number 12
_symmetry_cell_setting 'monoclinic'
loop_
_space_group_symop_operation_xyz
x,y,z
-x,y,-z
-x,-y,-z
x,-y,z
1/2+x,1/2+y,z
1/2-x,1/2+y,-z
1/2-x,1/2-y,-z
1/2+x,1/2-y,z
loop_
_atom_site_type_symbol
_atom_site_label
_atom_site_fract_x
_atom_site_fract_y
_atom_site_fract_z
Si Si1 0.924716 0.694567 0.040296
Si Si2 0.317654 0.884679 0.226985
Si Si3 0.716465 0.609478 0.671780
Si Si4 0.552999 0.387512 0.398987
Si Si5 0.539802 0.886540 0.195670
Si Si6 0.000000 0.270591 0.500000
Si Si7 0.694916 0.615466 0.049460
Si Si8 0.772887 0.315385 0.369069
O O1 0.806617 0.629676 0.025198
O O2 0.006720 0.697834 0.130452
O O3 0.904259 0.807964 0.005639
O O4 0.000000 0.635942 0.000000
O O5 0.459075 0.864085 0.244503
O O6 0.234805 0.855864 0.138838
O O7 0.282210 0.823636 0.287346
O O8 0.296888 0.000000 0.241703
O O9 0.730871 0.500000 0.639151
O O10 0.581025 0.620844 0.669856
O O11 0.817328 0.621263 0.756937
O O12 0.739434 0.695088 0.619351
O O13 0.569098 0.500000 0.434886
O O14 0.566008 0.302430 0.461027
O O15 0.656601 0.374031 0.366885
O O16 0.504506 0.000000 0.161330
O O17 0.898607 0.344616 0.439990
O O18 0.648812 0.500000 0.033326
#
# Coordination Sequence:
#
# PCOD8098654 Si02
#       8
#     8   8   8   8   8   4   8   8
#     4  10  20  34  60  87 114 156 201 247 300 348
#     4   9  19  37  62  88 119 159 196 248 308 354
#     4   9  21  38  59  86 118 158 198 244 300 355
#     4  10  21  41  63  89 121 157 199 246 299 353
#     4   9  19  37  60  87 121 158 203 248 302 363
#     4  10  23  40  57  92 122 166 193 234 305 364
#     4   9  20  39  58  85 121 156 200 246 303 365
#     4  11  22  37  67  89 123 152 205 250 293 355
#
# _framework density 21.313312
#
# number of rings (size 3 to 8) (size 9 to 14) (size 15 to 20)
#    0.000    2.400    0.000    2.200    5.600    1.867 
#    0.000    1.333    0.000    0.000    0.000    0.000 
#    0.000    0.000    0.000    0.000    0.000    0.000 
#
# Total GULP energy -371641.808676 kJ/mol
# GULP energy per Si atom -12388.060289 kJ/mol
# Density = 2.126480 g / cm^3
# Si number density = 21.313312 Si / 1000 Ang^3
#
#
#
# Elastic Constant Matrix: (Units=GPa)
#
#
# Indices 1 2 3 4 5 6 
#
# 1 106.7790 26.0705 52.4895 0.0000 -3.7434 0.0000
# 2 26.0705 65.2185 34.3056 0.0000 9.7423 0.0000
# 3 52.4895 34.3056 99.7868 0.0000 0.7856 0.0000
# 4 0.0000 0.0000 0.0000 24.7608 0.0000 3.4946
# 5 -3.7434 9.7423 0.7856 0.0000 37.4869 0.0000
# 6 0.0000 0.0000 0.0000 3.4946 0.0000 21.5147
#
#
#
# Elastic Compliance Matrix: (Units=1/GPa)
#
#
# Indices 1 2 3 4 5 6 
#
# 1 0.012971 -0.002307 -0.006046 0.000000 0.002022 0.000000
# 2 -0.002307 0.020006 -0.005623 0.000000 -0.005312 0.000000
# 3 -0.006046 -0.005623 0.015130 0.000000 0.000540 0.000000
# 4 0.000000 0.000000 0.000000 0.041334 0.000000 -0.006714
# 5 0.002022 -0.005312 0.000540 0.000000 0.028247 0.000000
# 6 0.000000 0.000000 0.000000 -0.006714 0.000000 0.047570
#
#
# Mechanical properties :
#
#
# Convention : Reuss Voigt Hill
#
# Bulk Modulus (GPa) = 49.61065 55.27951 52.44508
# Shear Modulus (GPa) = 25.00887 27.34707 26.17797
#
# Velocity S-wave (km/s) = 3.42920 3.58592 3.50844
# Velocity P-wave (km/s) = 6.24552 6.56796 6.40877
#
# Compressibility (1/GPa) = 0.02015696
#
# Stress axis : x y z
#
# Youngs Moduli (GPa) = 77.09361 49.98429 66.09227
#
# Poissons Ratio (x) = 0.11531 0.39959
# Poissons Ratio (y) = 0.17785 0.37161
# Poissons Ratio (z) = 0.46610 0.28104
#
# Static dielectric constant tensor:
#      x y z
#    x 3.912410 0.000000 0.189070 
#    y 0.000000 3.908840 0.000000 
#    z 0.189070 0.000000 3.686150 
# 
# 
# High freq. dielectric constant tensor:
#      x y z
#    x 1.841520 0.000000 0.015180 
#    y 0.000000 1.831110 0.000000 
#    z 0.015180 0.000000 1.814240 
# 
# From -- ./inp_files/263384.got.cif
#   From: 2010.06.25/outbox.cif.g09.slc.cpg/sg12_132_cif.got.tgz:263384.got - 2010.06.28 00:19:55.
