data_PCOD8098272
_publ_section_title
;
Structure prediction by ZEFSAII (Michael W. Deem and Ramdas Pophale) SiO2 
 PCOD8098272
Probable space group: C 2/M
;
_chemical_formula_sum "Si O2"
_cell_formula_units_Z 48
_cell_length_a 14.902080
_cell_length_b 8.941646
_cell_length_c 18.277402
_cell_angle_alpha 90.000000
_cell_angle_beta 92.811537
_cell_angle_gamma 90.000000
_cell_volume 2432.516211
_symmetry_space_group_name_H-M "C 2/M"
_symmetry_group_IT_number 12
_symmetry_cell_setting 'monoclinic'
loop_
_space_group_symop_operation_xyz
x,y,z
-x,y,-z
-x,-y,-z
x,-y,z
1/2+x,1/2+y,z
1/2-x,1/2+y,-z
1/2-x,1/2-y,-z
1/2+x,1/2-y,z
loop_
_atom_site_type_symbol
_atom_site_label
_atom_site_fract_x
_atom_site_fract_y
_atom_site_fract_z
Si Si1 0.362873 0.324643 0.066589
Si Si2 0.660209 0.824419 0.083123
Si Si3 0.860416 0.326396 0.571670
Si Si4 0.981003 0.176045 0.340953
Si Si5 0.818051 0.326632 0.402048
Si Si6 0.523068 0.325199 0.176925
O O1 0.368193 0.500000 0.051386
O O2 0.264751 0.278322 0.092350
O O3 0.435078 0.272036 0.129164
O O4 0.384736 0.243099 0.991461
O O5 0.611110 0.759803 0.152309
O O6 0.647264 0.000000 0.080618
O O7 0.853180 0.500000 0.591980
O O8 0.955399 0.261500 0.599938
O O9 0.854073 0.301074 0.485068
O O10 0.782195 0.237080 0.610322
O O11 0.010055 0.217589 0.260456
O O12 0.880261 0.234920 0.348929
O O13 0.984904 0.000000 0.356082
O O14 0.817453 0.500000 0.380084
O O15 0.538845 0.500000 0.166881
#
# Coordination Sequence:
#
# PCOD8098272 Si02
#       6
#     8   8   8   8   8   8
#     4   9  19  37  57  76 105 143 178 217 269 325
#     4  10  20  34  56  84 107 134 179 229 271 315
#     4  10  21  38  60  84 111 145 185 230 280 332
#     4  11  23  37  55  82 115 150 188 229 276 331
#     4  10  21  38  60  85 111 143 186 232 278 330
#     4  10  22  38  54  76 109 148 182 215 266 327
#
# _framework density 19.732652000000002
#
# number of rings (size 3 to 8) (size 9 to 14) (size 15 to 20)
#    0.000    2.000    0.000    3.000    0.000   10.000 
#    0.000    1.667    0.000    0.000    0.000    0.000 
#    0.000    0.000    0.000    0.000    0.000    0.000 
#
# Total GULP energy -297745.588011 kJ/mol
# GULP energy per Si atom -12406.066167 kJ/mol
# Density = 1.968774 g / cm^3
# Si number density = 19.732652 Si / 1000 Ang^3
#
#
#
# Elastic Constant Matrix: (Units=GPa)
#
#
# Indices 1 2 3 4 5 6 
#
# 1 75.7493 24.3923 21.9092 0.0000 -19.6523 0.0000
# 2 24.3923 64.1050 38.7692 0.0000 -12.7838 0.0000
# 3 21.9092 38.7692 49.0773 0.0000 -21.2689 0.0000
# 4 0.0000 0.0000 0.0000 29.7351 0.0000 -6.7505
# 5 -19.6523 -12.7838 -21.2689 0.0000 30.6195 0.0000
# 6 0.0000 0.0000 0.0000 -6.7505 0.0000 37.9474
#
#
#
# Elastic Compliance Matrix: (Units=1/GPa)
#
#
# Indices 1 2 3 4 5 6 
#
# 1 0.017042 -0.004683 -0.000023 0.000000 0.008967 0.000000
# 2 -0.004683 0.031845 -0.026620 0.000000 -0.008201 0.000000
# 3 -0.000023 -0.026620 0.052351 0.000000 0.025236 0.000000
# 4 0.000000 0.000000 0.000000 0.035046 0.000000 0.006234
# 5 0.008967 -0.008201 0.025236 0.000000 0.052520 0.000000
# 6 0.000000 0.000000 0.000000 0.006234 0.000000 0.027461
#
#
# Mechanical properties :
#
#
# Convention : Reuss Voigt Hill
#
# Bulk Modulus (GPa) = 25.91462 39.89698 32.90580
# Shear Modulus (GPa) = 17.13635 26.58447 21.86041
#
# Velocity S-wave (km/s) = 2.95010 3.67445 3.33202
# Velocity P-wave (km/s) = 4.97650 6.18585 5.61383
#
# Compressibility (1/GPa) = 0.03858825
#
# Stress axis : x y z
#
# Youngs Moduli (GPa) = 58.67731 31.40237 19.10180
#
# Poissons Ratio (x) = 0.14705 0.00043
# Poissons Ratio (y) = 0.27477 0.50848
# Poissons Ratio (z) = 0.00133 0.83592
#
# Static dielectric constant tensor:
#      x y z
#    x 3.700490 0.000000 -0.058610 
#    y 0.000000 3.578940 0.000000 
#    z -0.058610 0.000000 3.484720 
# 
# 
# High freq. dielectric constant tensor:
#      x y z
#    x 1.781480 0.000000 -0.007830 
#    y 0.000000 1.774030 0.000000 
#    z -0.007830 0.000000 1.758220 
# 
# From -- ./inp_files/267667.got.cif
#   From: 2010.06.25/outbox.cif.g09.slc.cpg/sg12_134_cif.got.tgz:267667.got - 2010.06.28 00:19:55.
