data_PCOD8098043
_publ_section_title
;
Structure prediction by ZEFSAII (Michael W. Deem and Ramdas Pophale) SiO2 
 PCOD8098043
Probable space group: C 2/M
;
_chemical_formula_sum "Si O2"
_cell_formula_units_Z 64
_cell_length_a 15.399024
_cell_length_b 8.899948
_cell_length_c 23.963154
_cell_angle_alpha 90.000000
_cell_angle_beta 89.540721
_cell_angle_gamma 90.000000
_cell_volume 3284.057034
_symmetry_space_group_name_H-M "C 2/M"
_symmetry_group_IT_number 12
_symmetry_cell_setting 'monoclinic'
loop_
_space_group_symop_operation_xyz
x,y,z
-x,y,-z
-x,-y,-z
x,-y,z
1/2+x,1/2+y,z
1/2-x,1/2+y,-z
1/2-x,1/2-y,-z
1/2+x,1/2-y,z
loop_
_atom_site_type_symbol
_atom_site_label
_atom_site_fract_x
_atom_site_fract_y
_atom_site_fract_z
Si Si1 0.474761 0.823374 0.938009
Si Si2 0.777470 0.323233 0.942506
Si Si3 0.622325 0.321884 0.865048
Si Si4 0.958736 0.827240 0.673781
Si Si5 0.126135 0.821659 0.739359
Si Si6 0.786219 0.677525 0.665355
Si Si7 0.278948 0.176911 0.442590
Si Si8 0.043161 0.171778 0.557725
O O1 0.375400 0.775547 0.925550
O O2 0.536326 0.741533 0.894011
O O3 0.488876 0.000000 0.931310
O O4 0.500000 0.770442 0.000000
O O5 0.772916 0.500000 0.951394
O O6 0.710417 0.268498 0.895394
O O7 0.750000 0.250000 0.000000
O O8 0.615189 0.500000 0.865708
O O9 0.626797 0.258282 0.802187
O O10 0.877578 0.724970 0.692178
O O11 0.040748 0.764417 0.707771
O O12 0.974208 0.810476 0.607518
O O13 0.939887 0.000000 0.689506
O O14 0.210629 0.762167 0.706373
O O15 0.128284 0.000000 0.739541
O O16 0.780777 0.500000 0.656664
O O17 0.780919 0.759005 0.605994
O O18 0.250000 0.250000 0.500000
O O19 0.378065 0.218004 0.429241
O O20 0.265956 0.000000 0.446139
O O21 0.000000 0.220963 0.500000
O O22 0.077535 0.000000 0.554381
#
# Coordination Sequence:
#
# PCOD8098043 Si02
#       8
#     8   8   8   8   8   8   8   8
#     4  10  20  35  55  82 118 153 185 237 303 348
#     4  10  20  34  55  82 115 153 193 238 291 347
#     4  10  21  37  59  86 113 153 204 242 278 347
#     4  10  20  38  61  85 118 158 194 240 300 355
#     4   9  20  40  61  82 118 160 195 237 296 353
#     4  11  22  40  64  89 118 157 200 245 298 354
#     4  12  24  38  59  88 122 156 198 247 298 357
#     4  10  20  36  59  86 118 156 196 242 302 357
#
# _framework density 19.488088999999999
#
# number of rings (size 3 to 8) (size 9 to 14) (size 15 to 20)
#    0.000    1.750    2.500    2.250    0.000    3.500 
#    0.000    3.125    0.000    0.000    0.000    0.000 
#    0.000    0.000    0.000    0.000    0.000    0.000 
#
# Total GULP energy -396900.604629 kJ/mol
# GULP energy per Si atom -12403.143895 kJ/mol
# Density = 1.944373 g / cm^3
# Si number density = 19.488089 Si / 1000 Ang^3
#
#
#
# Elastic Constant Matrix: (Units=GPa)
#
#
# Indices 1 2 3 4 5 6 
#
# 1 167.5321 41.0057 73.7576 0.0000 2.9243 0.0000
# 2 41.0057 60.8443 31.8553 0.0000 -2.7992 0.0000
# 3 73.7576 31.8553 148.2972 0.0000 3.6307 0.0000
# 4 0.0000 0.0000 0.0000 19.7187 0.0000 -0.8076
# 5 2.9243 -2.7992 3.6307 0.0000 31.1188 0.0000
# 6 0.0000 0.0000 0.0000 -0.8076 0.0000 34.8606
#
#
#
# Elastic Compliance Matrix: (Units=1/GPa)
#
#
# Indices 1 2 3 4 5 6 
#
# 1 0.008412 -0.003970 -0.003313 0.000000 -0.000761 0.000000
# 2 -0.003970 0.020534 -0.002498 0.000000 0.002512 0.000000
# 3 -0.003313 -0.002498 0.008951 0.000000 -0.000958 0.000000
# 4 0.000000 0.000000 0.000000 0.050762 0.000000 0.001176
# 5 -0.000761 0.002512 -0.000958 0.000000 0.032544 0.000000
# 6 0.000000 0.000000 0.000000 0.001176 0.000000 0.028713
#
#
# Mechanical properties :
#
#
# Convention : Reuss Voigt Hill
#
# Bulk Modulus (GPa) = 54.53627 74.43455 64.48541
# Shear Modulus (GPa) = 28.47551 32.47661 30.47606
#
# Velocity S-wave (km/s) = 3.82668 4.08669 3.95882
# Velocity P-wave (km/s) = 6.89709 7.78112 7.35240
#
# Compressibility (1/GPa) = 0.01833642
#
# Stress axis : x y z
#
# Youngs Moduli (GPa) = 118.87141 48.69881 111.72241
#
# Poissons Ratio (x) = 0.19335 0.37009
# Poissons Ratio (y) = 0.47195 0.27906
# Poissons Ratio (z) = 0.39377 0.12164
#
# Static dielectric constant tensor:
#      x y z
#    x 3.811520 0.000000 0.114400 
#    y 0.000000 3.391660 0.000000 
#    z 0.114400 0.000000 3.713670 
# 
# 
# High freq. dielectric constant tensor:
#      x y z
#    x 1.774530 0.000000 0.002860 
#    y 0.000000 1.737280 0.000000 
#    z 0.002860 0.000000 1.758870 
# 
# From -- ./inp_files/338912.got.cif
#   From: 2010.06.25/outbox.cif.g09.slc.cpg/sg12_170_cif.got.tgz:338912.got - 2010.06.28 00:19:55.
