data_PCOD8098349
_publ_section_title
;
Structure prediction by ZEFSAII (Michael W. Deem and Ramdas Pophale) SiO2 
 PCOD8098349
Probable space group: C 2/M
;
_chemical_formula_sum "Si O2"
_cell_formula_units_Z 48
_cell_length_a 28.858748
_cell_length_b 9.015925
_cell_length_c 11.407212
_cell_angle_alpha 90.000000
_cell_angle_beta 127.244121
_cell_angle_gamma 90.000000
_cell_volume 2362.736724
_symmetry_space_group_name_H-M "C 2/M"
_symmetry_group_IT_number 12
_symmetry_cell_setting 'monoclinic'
loop_
_space_group_symop_operation_xyz
x,y,z
-x,y,-z
-x,-y,-z
x,-y,z
1/2+x,1/2+y,z
1/2-x,1/2+y,-z
1/2-x,1/2-y,-z
1/2+x,1/2-y,z
loop_
_atom_site_type_symbol
_atom_site_label
_atom_site_fract_x
_atom_site_fract_y
_atom_site_fract_z
Si Si1 0.081489 0.166741 0.671845
Si Si2 0.687601 0.826150 0.416685
Si Si3 0.978364 0.674275 0.216874
Si Si4 0.637640 0.829295 0.089432
Si Si5 0.093112 0.174946 0.420425
Si Si6 0.699870 0.666399 0.988752
O O1 0.039118 0.275108 0.678647
O O2 0.085014 0.217652 0.543493
O O3 0.145498 0.174036 0.820446
O O4 0.056082 0.000000 0.643901
O O5 0.750000 0.750000 0.500000
O O6 0.648146 0.798381 0.241611
O O7 0.652672 0.751228 0.469392
O O8 0.696625 0.000000 0.454615
O O9 0.990410 0.500000 0.234595
O O10 0.037149 0.758012 0.266635
O O11 0.927720 0.719632 0.047128
O O12 0.646783 0.000000 0.070108
O O13 0.686023 0.739076 0.092403
O O14 0.097617 0.000000 0.405593
O O15 0.720275 0.500000 0.045120
O O16 0.750000 0.750000 0.000000
#
# Coordination Sequence:
#
# PCOD8098349 Si02
#       6
#     8   8   8   8   8   8
#     4   9  20  37  56  83 121 158 190 234 294 352
#     4  11  25  44  63  85 116 155 200 247 295 350
#     4  10  20  37  62  91 119 151 194 244 294 346
#     4   9  21  41  61  82 116 155 192 242 298 349
#     4  11  23  39  60  87 121 161 197 236 292 352
#     4  10  20  34  56  85 115 152 196 241 291 348
#
# _framework density 20.315425999999999
#
# number of rings (size 3 to 8) (size 9 to 14) (size 15 to 20)
#    0.000    2.000    0.000    2.500    2.333    6.667 
#    0.000    3.333    0.000    0.000    0.000    0.000 
#    0.000    0.000    0.000    0.000    0.000    0.000 
#
# Total GULP energy -297666.135627 kJ/mol
# GULP energy per Si atom -12402.755651 kJ/mol
# Density = 2.026919 g / cm^3
# Si number density = 20.315426 Si / 1000 Ang^3
#
#
#
# Elastic Constant Matrix: (Units=GPa)
#
#
# Indices 1 2 3 4 5 6 
#
# 1 102.0907 55.0313 37.4282 0.0000 24.0904 0.0000
# 2 55.0313 107.8079 35.6708 0.0000 5.6598 0.0000
# 3 37.4282 35.6708 73.5179 0.0000 -3.7804 0.0000
# 4 0.0000 0.0000 0.0000 29.4411 0.0000 1.6851
# 5 24.0904 5.6598 -3.7804 0.0000 19.1450 0.0000
# 6 0.0000 0.0000 0.0000 1.6851 0.0000 41.7041
#
#
#
# Elastic Compliance Matrix: (Units=1/GPa)
#
#
# Indices 1 2 3 4 5 6 
#
# 1 0.025478 -0.007737 -0.010858 0.000000 -0.031915 0.000000
# 2 -0.007737 0.013773 -0.002478 0.000000 0.005175 0.000000
# 3 -0.010858 -0.002478 0.021288 0.000000 0.018599 0.000000
# 4 0.000000 0.000000 0.000000 0.034045 0.000000 -0.001376
# 5 -0.031915 0.005175 0.018599 0.000000 0.094535 0.000000
# 6 0.000000 0.000000 0.000000 -0.001376 0.000000 0.024034
#
#
# Mechanical properties :
#
#
# Convention : Reuss Voigt Hill
#
# Bulk Modulus (GPa) = 54.36538 59.96410 57.16474
# Shear Modulus (GPa) = 19.12554 28.41045 23.76799
#
# Velocity S-wave (km/s) = 3.07160 3.74366 3.42416
# Velocity P-wave (km/s) = 6.27681 6.94747 6.62064
#
# Compressibility (1/GPa) = 0.01839406
#
# Stress axis : x y z
#
# Youngs Moduli (GPa) = 39.25009 72.60371 46.97383
#
# Poissons Ratio (x) = 0.56175 0.51003
# Poissons Ratio (y) = 0.30368 0.11639
# Poissons Ratio (z) = 0.42617 0.17989
#
# Static dielectric constant tensor:
#      x y z
#    x 3.720110 0.000000 0.029730 
#    y 0.000000 3.781450 0.000000 
#    z 0.029730 0.000000 3.704750 
# 
# 
# High freq. dielectric constant tensor:
#      x y z
#    x 1.796000 0.000000 0.010260 
#    y 0.000000 1.799790 0.000000 
#    z 0.010260 0.000000 1.796230 
# 
# From -- ./inp_files/179732.got.cif
#   From: 2010.06.25/outbox.cif.g09.slc.cpg/sg12_90_cif.got.tgz:179732.got - 2010.06.28 00:19:55.
