data_PCOD8098957
_publ_section_title
;
Structure prediction by ZEFSAII (Michael W. Deem and Ramdas Pophale) SiO2 
 PCOD8098957
Probable space group: C 2/M
;
_chemical_formula_sum "Si O2"
_cell_formula_units_Z 56
_cell_length_a 12.588275
_cell_length_b 27.500997
_cell_length_c 9.877703
_cell_angle_alpha 90.000000
_cell_angle_beta 57.063322
_cell_angle_gamma 90.000000
_cell_volume 2869.943503
_symmetry_space_group_name_H-M "C 2/M"
_symmetry_group_IT_number 12
_symmetry_cell_setting 'monoclinic'
loop_
_space_group_symop_operation_xyz
x,y,z
-x,y,-z
-x,-y,-z
x,-y,z
1/2+x,1/2+y,z
1/2-x,1/2+y,-z
1/2-x,1/2-y,-z
1/2+x,1/2-y,z
loop_
_atom_site_type_symbol
_atom_site_label
_atom_site_fract_x
_atom_site_fract_y
_atom_site_fract_z
Si Si1 0.856167 0.557349 0.061789
Si Si2 0.764579 0.124684 0.402705
Si Si3 0.300414 0.125492 0.857805
Si Si4 0.854557 0.057253 0.569639
Si Si5 0.537837 0.184919 0.621434
Si Si6 0.664836 0.714811 0.977930
Si Si7 0.887867 0.777024 0.273440
O O1 0.849516 0.500000 0.047427
O O2 0.748902 0.574341 0.245064
O O3 0.824629 0.579875 0.937224
O O4 0.000000 0.573458 0.000000
O O5 0.741351 0.107787 0.263171
O O6 0.819880 0.080058 0.448877
O O7 0.627689 0.138093 0.555593
O O8 0.856744 0.171251 0.363795
O O9 0.415657 0.164830 0.783982
O O10 0.186389 0.157808 0.996363
O O11 0.000000 0.072505 0.500000
O O12 0.844209 0.000000 0.558696
O O13 0.500000 0.203619 0.500000
O O14 0.619710 0.229893 0.625547
O O15 0.702867 0.726420 0.794870
O O16 0.750000 0.750000 0.000000
O O17 0.524254 0.725004 0.114967
#
# Coordination Sequence:
#
# PCOD8098957 Si02
#       7
#     8   8   8   8   8   8   8
#     4  10  22  41  65  92 118 149 197 250 296 356
#     4  10  22  38  57  85 116 153 195 240 292 351
#     4  10  21  37  60  85 117 152 194 241 291 348
#     4  10  23  43  62  87 122 154 192 247 305 355
#     4  10  20  37  56  82 118 152 188 242 291 337
#     4  10  20  35  54  78 112 151 192 241 285 328
#     4  10  21  36  53  80 114 151 197 235 279 344
#
# _framework density 19.51258
#
# number of rings (size 3 to 8) (size 9 to 14) (size 15 to 20)
#    0.000    2.000    1.429    1.286    2.000    3.429 
#    0.000    0.000    0.000    7.714    0.000    0.000 
#    0.000    0.000    0.000    0.000    0.000    0.000 
#
# Total GULP energy -346910.251298 kJ/mol
# GULP energy per Si atom -12389.651832 kJ/mol
# Density = 1.946817 g / cm^3
# Si number density = 19.512580 Si / 1000 Ang^3
#
#
#
# Elastic Constant Matrix: (Units=GPa)
#
#
# Indices 1 2 3 4 5 6 
#
# 1 111.0091 47.1505 46.7178 0.0000 14.6811 0.0000
# 2 47.1505 58.6604 37.0970 0.0000 20.9052 0.0000
# 3 46.7178 37.0970 81.8158 0.0000 7.7731 0.0000
# 4 0.0000 0.0000 0.0000 23.6241 0.0000 9.5196
# 5 14.6811 20.9052 7.7731 0.0000 30.0016 0.0000
# 6 0.0000 0.0000 0.0000 9.5196 0.0000 38.2661
#
#
#
# Elastic Compliance Matrix: (Units=1/GPa)
#
#
# Indices 1 2 3 4 5 6 
#
# 1 0.014662 -0.009251 -0.004212 0.000000 0.000362 0.000000
# 2 -0.009251 0.037566 -0.009939 0.000000 -0.019074 0.000000
# 3 -0.004212 -0.009939 0.018742 0.000000 0.004131 0.000000
# 4 0.000000 0.000000 0.000000 0.047046 0.000000 -0.011704
# 5 0.000362 -0.019074 0.004131 0.000000 0.045375 0.000000
# 6 0.000000 0.000000 0.000000 -0.011704 0.000000 0.029044
#
#
# Mechanical properties :
#
#
# Convention : Reuss Voigt Hill
#
# Bulk Modulus (GPa) = 41.37955 57.04622 49.21288
# Shear Modulus (GPa) = 20.21890 26.41302 23.31596
#
# Velocity S-wave (km/s) = 3.22250 3.68318 3.46051
# Velocity P-wave (km/s) = 5.92441 6.88381 6.42205
#
# Compressibility (1/GPa) = 0.02416653
#
# Stress axis : x y z
#
# Youngs Moduli (GPa) = 68.20254 26.62013 53.35663
#
# Poissons Ratio (x) = 0.24625 0.22476
# Poissons Ratio (y) = 0.63091 0.53029
# Poissons Ratio (z) = 0.28729 0.26457
#
# Static dielectric constant tensor:
#      x y z
#    x -8.503470 0.000000 3.614690 
#    y 0.000000 3.320810 0.000000 
#    z 3.614690 0.000000 2.525190 
# 
# 
# High freq. dielectric constant tensor:
#      x y z
#    x 1.773760 0.000000 -0.009660 
#    y 0.000000 1.743840 0.000000 
#    z -0.009660 0.000000 1.764270 
# 
# From -- ./inp_files/53269.got.cif
#   From: 2010.06.25/outbox.cif.g09.slc.cpg/sg12_27_cif.got.tgz:53269.got - 2010.06.28 00:19:55.
