data_PCOD8098776
_publ_section_title
;
Structure prediction by ZEFSAII (Michael W. Deem and Ramdas Pophale) SiO2 
 PCOD8098776
Probable space group: C 2/M
;
_chemical_formula_sum "Si O2"
_cell_formula_units_Z 64
_cell_length_a 23.507485
_cell_length_b 9.056442
_cell_length_c 21.276668
_cell_angle_alpha 90.000000
_cell_angle_beta 52.064857
_cell_angle_gamma 90.000000
_cell_volume 3572.589989
_symmetry_space_group_name_H-M "C 2/M"
_symmetry_group_IT_number 12
_symmetry_cell_setting 'monoclinic'
loop_
_space_group_symop_operation_xyz
x,y,z
-x,y,-z
-x,-y,-z
x,-y,z
1/2+x,1/2+y,z
1/2-x,1/2+y,-z
1/2-x,1/2-y,-z
1/2+x,1/2-y,z
loop_
_atom_site_type_symbol
_atom_site_label
_atom_site_fract_x
_atom_site_fract_y
_atom_site_fract_z
Si Si1 0.834957 0.828759 0.094737
Si Si2 0.325791 0.674302 0.960544
Si Si3 0.921822 0.672285 0.280316
Si Si4 0.778941 0.823590 0.417780
Si Si5 0.114785 0.662461 0.827780
Si Si6 0.680430 0.171831 0.250673
Si Si7 0.725667 0.666087 0.335330
Si Si8 0.581570 0.170019 0.204602
O O1 0.892322 0.759339 0.104582
O O2 0.752972 0.779665 0.164879
O O3 0.843707 0.000000 0.098469
O O4 0.853614 0.780792 0.011145
O O5 0.314433 0.500000 0.962976
O O6 0.385096 0.726757 0.871139
O O7 0.250000 0.750000 0.000000
O O8 0.897149 0.500000 0.299620
O O9 0.861663 0.773622 0.353134
O O10 0.932731 0.718869 0.199302
O O11 0.996202 0.698057 0.266389
O O12 0.750000 0.750000 0.500000
O O13 0.728010 0.765983 0.396047
O O14 0.774707 0.000000 0.424240
O O15 0.089760 0.500000 0.864601
O O16 0.196377 0.664557 0.748607
O O17 0.670864 0.262371 0.321914
O O18 0.613496 0.210796 0.250996
O O19 0.682773 0.000000 0.266556
O O20 0.700088 0.500000 0.369365
O O21 0.599498 0.000000 0.175558
#
# Coordination Sequence:
#
# PCOD8098776 Si02
#       8
#     8   8   8   8   8   8   8   8
#     4   9  17  29  45  67  95 127 170 220 264 306
#     4  11  21  33  48  70 100 134 178 226 271 316
#     4   9  19  36  55  77 107 138 172 211 256 311
#     4  11  21  35  58  85 111 137 168 207 254 303
#     4   8  15  28  47  70  94 127 169 210 255 304
#     4   9  16  29  48  72 101 135 175 212 258 307
#     4   9  17  30  49  77 107 133 169 211 253 299
#     4  10  20  35  53  74 104 141 176 216 263 314
#
# _framework density 17.914173999999999
#
# number of rings (size 3 to 8) (size 9 to 14) (size 15 to 20)
#    0.000    2.500    1.250    2.625    0.000    5.000 
#    0.000    0.625    0.000    4.500    0.000    5.250 
#    0.000    0.000    0.000    0.000    0.000    0.000 
#
# Total GULP energy -396704.338594 kJ/mol
# GULP energy per Si atom -12397.010581 kJ/mol
# Density = 1.787340 g / cm^3
# Si number density = 17.914174 Si / 1000 Ang^3
#
#
#
# Elastic Constant Matrix: (Units=GPa)
#
#
# Indices 1 2 3 4 5 6 
#
# 1 122.0325 50.5516 49.7550 0.0007 25.4724 -0.0011
# 2 50.5516 101.3202 54.6988 0.0016 18.2955 -0.0031
# 3 49.7550 54.6988 79.7016 0.0003 24.7746 -0.0006
# 4 0.0007 0.0016 0.0003 28.6193 0.0000 7.5531
# 5 25.4724 18.2955 24.7746 0.0000 24.4928 0.0001
# 6 -0.0011 -0.0031 -0.0006 7.5531 0.0001 26.6817
#
#
#
# Elastic Compliance Matrix: (Units=1/GPa)
#
#
# Indices 1 2 3 4 5 6 
#
# 1 0.012320 -0.003025 -0.003405 0.000000 -0.007109 0.000000
# 2 -0.003025 0.016446 -0.009565 -0.000001 0.000536 0.000002
# 3 -0.003405 -0.009565 0.026132 0.000001 -0.015746 -0.000001
# 4 0.000000 -0.000001 0.000001 0.037763 0.000001 -0.010690
# 5 -0.007109 0.000536 -0.015746 0.000001 0.063748 -0.000001
# 6 0.000000 0.000002 -0.000001 -0.010690 -0.000001 0.040505
#
#
# Mechanical properties :
#
#
# Convention : Reuss Voigt Hill
#
# Bulk Modulus (GPa) = 43.65506 68.11833 55.88670
# Shear Modulus (GPa) = 21.13819 25.82867 23.48343
#
# Velocity S-wave (km/s) = 3.43880 3.80122 3.62454
# Velocity P-wave (km/s) = 6.33948 7.57450 6.98434
#
# Compressibility (1/GPa) = 0.02290685
#
# Stress axis : x y z
#
# Youngs Moduli (GPa) = 81.17072 60.80573 38.26780
#
# Poissons Ratio (x) = 0.18392 0.13031
# Poissons Ratio (y) = 0.24551 0.36604
# Poissons Ratio (z) = 0.27641 0.58162
#
# Static dielectric constant tensor:
#      x y z
#    x 3.514490 0.000000 0.331090 
#    y 0.000000 3.418100 0.000000 
#    z 0.331090 0.000000 3.125460 
# 
# 
# High freq. dielectric constant tensor:
#      x y z
#    x 1.693160 0.000000 0.029930 
#    y 0.000000 1.694950 0.000000 
#    z 0.029930 0.000000 1.658910 
# 
# From -- ./inp_files/319798.got.cif
#   From: 2010.06.25/outbox.cif.g09.slc.cpg/sg12_160_cif.got.tgz:319798.got - 2010.06.28 00:19:55.
