data_PCOD8098676
_publ_section_title
;
Structure prediction by ZEFSAII (Michael W. Deem and Ramdas Pophale) SiO2 
 PCOD8098676
Probable space group: C 2/M
;
_chemical_formula_sum "Si O2"
_cell_formula_units_Z 64
_cell_length_a 9.566372
_cell_length_b 17.006378
_cell_length_c 31.924264
_cell_angle_alpha 90.000000
_cell_angle_beta 144.694352
_cell_angle_gamma 90.000000
_cell_volume 3001.658578
_symmetry_space_group_name_H-M "C 2/M"
_symmetry_group_IT_number 12
_symmetry_cell_setting 'monoclinic'
loop_
_space_group_symop_operation_xyz
x,y,z
-x,y,-z
-x,-y,-z
x,-y,z
1/2+x,1/2+y,z
1/2-x,1/2+y,-z
1/2-x,1/2-y,-z
1/2+x,1/2-y,z
loop_
_atom_site_type_symbol
_atom_site_label
_atom_site_fract_x
_atom_site_fract_y
_atom_site_fract_z
Si Si1 0.358364 0.342992 0.275025
Si Si2 0.398595 0.159542 0.281703
Si Si3 0.406024 0.668523 0.435042
Si Si4 0.389190 0.911776 0.193700
Si Si5 0.452732 0.591624 0.210095
Si Si6 0.966827 0.328729 0.942650
Si Si7 0.260420 0.333202 0.565632
Si Si8 0.526034 0.652398 0.957811
O O1 0.402843 0.252501 0.274471
O O2 0.357334 0.396420 0.233630
O O3 0.553956 0.374933 0.356966
O O4 0.094060 0.350422 0.230160
O O5 0.668470 0.127023 0.357945
O O6 0.299224 0.113567 0.217317
O O7 0.211561 0.136024 0.272421
O O8 0.500000 0.622125 0.500000
O O9 0.613289 0.676270 0.449562
O O10 0.308289 0.750466 0.430044
O O11 0.157995 0.909159 0.107175
O O12 0.493048 0.000000 0.219069
O O13 0.481459 0.500000 0.207441
O O14 0.274239 0.628433 0.131821
O O15 0.970015 0.239514 0.925481
O O16 0.000000 0.328032 0.000000
O O17 0.200194 0.375384 0.983158
O O18 0.000000 0.379606 0.500000
O O19 0.500000 0.652185 0.000000
#
# Coordination Sequence:
#
# PCOD8098676 Si02
#       8
#     8   8   8   8   8   8   8   8
#     4  11  23  40  65  92 125 168 216 261 313 377
#     4  11  23  40  65  92 123 168 218 259 312 378
#     4  10  20  34  61  97 131 162 210 273 321 367
#     4  12  24  41  62  91 129 167 207 262 318 375
#     4  12  26  41  62  93 131 169 209 264 322 378
#     4  10  21  39  62  89 123 158 208 259 317 377
#     4  10  20  34  61  97 131 163 209 272 323 366
#     4  10  21  37  62  91 119 160 204 259 313 377
#
# _framework density 21.321546000000001
#
# number of rings (size 3 to 8) (size 9 to 14) (size 15 to 20)
#    0.000    1.250    1.250    6.000    7.000    3.000 
#    0.000    0.000    0.000    4.500    0.000    0.000 
#    0.000    0.000    0.000    0.000    0.000    0.000 
#
# Total GULP energy -396664.458616 kJ/mol
# GULP energy per Si atom -12395.764332 kJ/mol
# Density = 2.127302 g / cm^3
# Si number density = 21.321546 Si / 1000 Ang^3
#
#
#
# Elastic Constant Matrix: (Units=GPa)
#
#
# Indices 1 2 3 4 5 6 
#
# 1 124.3439 14.7578 44.2282 -0.0004 11.0256 -0.0001
# 2 14.7578 63.3651 30.5454 -0.0003 0.5116 -0.0001
# 3 44.2282 30.5454 130.2611 -0.0009 5.1013 -0.0004
# 4 -0.0004 -0.0003 -0.0009 6.9522 -0.0007 1.3970
# 5 11.0256 0.5116 5.1013 -0.0007 39.8732 -0.0003
# 6 -0.0001 -0.0001 -0.0004 1.3970 -0.0003 20.2867
#
#
#
# Elastic Compliance Matrix: (Units=1/GPa)
#
#
# Indices 1 2 3 4 5 6 
#
# 1 0.009365 -0.000758 -0.002916 0.000000 -0.002207 0.000000
# 2 -0.000758 0.017858 -0.003949 0.000000 0.000486 0.000000
# 3 -0.002916 -0.003949 0.009607 0.000001 -0.000372 0.000000
# 4 0.000000 0.000000 0.000001 0.145858 0.000002 -0.010044
# 5 -0.002207 0.000486 -0.000372 0.000002 0.025731 0.000000
# 6 0.000000 0.000000 0.000000 -0.010044 0.000000 0.049985
#
#
# Mechanical properties :
#
#
# Convention : Reuss Voigt Hill
#
# Bulk Modulus (GPa) = 46.32861 55.22588 50.77724
# Shear Modulus (GPa) = 17.80343 28.65164 23.22754
#
# Velocity S-wave (km/s) = 2.89277 3.66975 3.30418
# Velocity P-wave (km/s) = 5.73874 6.62674 6.19867
#
# Compressibility (1/GPa) = 0.02158494
#
# Stress axis : x y z
#
# Youngs Moduli (GPa) = 106.78194 55.99757 104.08535
#
# Poissons Ratio (x) = 0.04244 0.30347
# Poissons Ratio (y) = 0.08092 0.41106
# Poissons Ratio (z) = 0.31133 0.22115
#
# Static dielectric constant tensor:
#      x y z
#    x 3.893920 0.000000 0.073730 
#    y 0.000000 3.484870 0.000000 
#    z 0.073730 0.000000 4.619350 
# 
# 
# High freq. dielectric constant tensor:
#      x y z
#    x 1.853820 0.000000 0.003320 
#    y 0.000000 1.789820 0.000000 
#    z 0.003320 0.000000 1.856930 
# 
# From -- ./inp_files/373013.got.cif
#   From: 2010.06.25/outbox.cif.g09.slc.cpg/sg12_187_cif.got.tgz:373013.got - 2010.06.28 00:19:55.
