data_PCOD8098324
_publ_section_title
;
Structure prediction by ZEFSAII (Michael W. Deem and Ramdas Pophale) SiO2 
 PCOD8098324
Probable space group: C 2/M
;
_chemical_formula_sum "Si O2"
_cell_formula_units_Z 64
_cell_length_a 28.114546
_cell_length_b 14.228132
_cell_length_c 9.249195
_cell_angle_alpha 90.000000
_cell_angle_beta 118.938135
_cell_angle_gamma 90.000000
_cell_volume 3237.887502
_symmetry_space_group_name_H-M "C 2/M"
_symmetry_group_IT_number 12
_symmetry_cell_setting 'monoclinic'
loop_
_space_group_symop_operation_xyz
x,y,z
-x,y,-z
-x,-y,-z
x,-y,z
1/2+x,1/2+y,z
1/2-x,1/2+y,-z
1/2-x,1/2-y,-z
1/2+x,1/2-y,z
loop_
_atom_site_type_symbol
_atom_site_label
_atom_site_fract_x
_atom_site_fract_y
_atom_site_fract_z
Si Si1 0.365840 0.733650 0.766887
Si Si2 0.692655 0.236187 0.612930
Si Si3 0.599553 0.897318 0.515668
Si Si4 0.041167 0.606478 0.706999
Si Si5 0.729717 0.392261 0.878383
Si Si6 0.792504 0.890299 0.825115
Si Si7 0.034466 0.323149 0.184253
Si Si8 0.349064 0.894027 0.969413
O O1 0.325008 0.732964 0.572250
O O2 0.350414 0.643841 0.843651
O O3 0.430453 0.730709 0.813429
O O4 0.357916 0.829307 0.843871
O O5 0.645345 0.177231 0.620877
O O6 0.699393 0.329735 0.716072
O O7 0.746189 0.172044 0.680579
O O8 0.545238 0.879516 0.536991
O O9 0.580670 0.892073 0.319635
O O10 0.623863 0.000000 0.583679
O O11 0.020144 0.500000 0.715092
O O12 0.008298 0.688066 0.746117
O O13 0.103894 0.617347 0.844060
O O14 0.718347 0.500000 0.820224
O O15 0.793535 0.367616 0.970642
O O16 0.706958 0.369473 0.003662
O O17 0.783189 0.000000 0.777875
O O18 0.000000 0.366005 0.000000
O O19 0.346295 0.000000 0.905027
#
# Coordination Sequence:
#
# PCOD8098324 Si02
#       8
#     8   8   8   8   8   8   8   8
#     4  11  24  38  53  86 116 153 193 230 281 336
#     4  11  22  37  58  85 120 152 189 230 282 337
#     4  10  22  36  54  85 120 153 191 231 279 338
#     4  10  20  35  55  80 112 153 191 229 279 334
#     4  10  22  38  60  87 113 149 191 234 281 335
#     4  11  23  39  60  84 113 152 195 235 281 334
#     4  11  22  36  54  78 112 153 193 232 278 339
#     4  10  20  34  56  84 117 151 188 228 277 335
#
# _framework density 19.765975000000001
#
# number of rings (size 3 to 8) (size 9 to 14) (size 15 to 20)
#    0.000    1.500    2.500    2.625    1.750    7.500 
#    0.000    0.000    0.000    0.375    0.000    0.875 
#    0.000    8.000    0.000    0.000    0.000    0.000 
#
# Total GULP energy -396573.541686 kJ/mol
# GULP energy per Si atom -12392.923178 kJ/mol
# Density = 1.972099 g / cm^3
# Si number density = 19.765975 Si / 1000 Ang^3
#
#
#
# Elastic Constant Matrix: (Units=GPa)
#
#
# Indices 1 2 3 4 5 6 
#
# 1 119.3515 47.9954 39.9445 0.0000 -8.4649 0.0000
# 2 47.9954 80.1752 42.9585 0.0000 -1.9331 0.0000
# 3 39.9445 42.9585 115.1487 0.0000 -8.6442 0.0000
# 4 0.0000 0.0000 0.0000 21.9440 0.0000 -4.8685
# 5 -8.4649 -1.9331 -8.6442 0.0000 24.8548 0.0000
# 6 0.0000 0.0000 0.0000 -4.8685 0.0000 33.0254
#
#
#
# Elastic Compliance Matrix: (Units=1/GPa)
#
#
# Indices 1 2 3 4 5 6 
#
# 1 0.011512 -0.005998 -0.001537 0.000000 0.002920 0.000000
# 2 -0.005998 0.018730 -0.005084 0.000000 -0.002354 0.000000
# 3 -0.001537 -0.005084 0.011341 0.000000 0.003026 0.000000
# 4 0.000000 0.000000 0.000000 0.047111 0.000000 0.006945
# 5 0.002920 -0.002354 0.003026 0.000000 0.042097 0.000000
# 6 0.000000 0.000000 0.000000 0.006945 0.000000 0.031304
#
#
# Mechanical properties :
#
#
# Convention : Reuss Voigt Hill
#
# Bulk Modulus (GPa) = 61.17310 64.05245 62.61277
# Shear Modulus (GPa) = 25.93617 28.21662 27.07639
#
# Velocity S-wave (km/s) = 3.62631 3.78237 3.70516
# Velocity P-wave (km/s) = 6.96774 7.17989 7.07461
#
# Compressibility (1/GPa) = 0.01634706
#
# Stress axis : x y z
#
# Youngs Moduli (GPa) = 86.86715 53.38962 88.17357
#
# Poissons Ratio (x) = 0.32021 0.13550
# Poissons Ratio (y) = 0.52099 0.44826
# Poissons Ratio (z) = 0.13349 0.27143
#
# Static dielectric constant tensor:
#      x y z
#    x 3.969550 0.000000 0.009250 
#    y 0.000000 3.415650 0.000000 
#    z 0.009250 0.000000 3.741290 
# 
# 
# High freq. dielectric constant tensor:
#      x y z
#    x 1.783870 0.000000 -0.006050 
#    y 0.000000 1.724780 0.000000 
#    z -0.006050 0.000000 1.789390 
# 
# From -- ./inp_files/104691.got.cif
#   From: 2010.06.25/outbox.cif.g09.slc.cpg/sg12_53_cif.got.tgz:104691.got - 2010.06.28 00:19:55.
