data_PCOD8098683
_publ_section_title
;
Structure prediction by ZEFSAII (Michael W. Deem and Ramdas Pophale) SiO2 
 PCOD8098683
Probable space group: C 2/M
;
_chemical_formula_sum "Si O2"
_cell_formula_units_Z 64
_cell_length_a 10.075200
_cell_length_b 28.097598
_cell_length_c 14.943252
_cell_angle_alpha 90.000000
_cell_angle_beta 128.764593
_cell_angle_gamma 90.000000
_cell_volume 3298.446703
_symmetry_space_group_name_H-M "C 2/M"
_symmetry_group_IT_number 12
_symmetry_cell_setting 'monoclinic'
loop_
_space_group_symop_operation_xyz
x,y,z
-x,y,-z
-x,-y,-z
x,-y,z
1/2+x,1/2+y,z
1/2-x,1/2+y,-z
1/2-x,1/2-y,-z
1/2+x,1/2-y,z
loop_
_atom_site_type_symbol
_atom_site_label
_atom_site_fract_x
_atom_site_fract_y
_atom_site_fract_z
Si Si1 0.386182 0.726385 0.121982
Si Si2 0.381004 0.883604 0.812596
Si Si3 0.979978 0.350210 0.596864
Si Si4 0.731200 0.873343 0.046124
Si Si5 0.777420 0.730967 0.260504
Si Si6 0.004073 0.444760 0.712822
Si Si7 0.191964 0.185064 0.600587
Si Si8 0.683808 0.549730 0.046430
O O1 0.349362 0.671110 0.111971
O O2 0.574561 0.731835 0.160481
O O3 0.373048 0.746542 0.216102
O O4 0.250000 0.750000 0.000000
O O5 0.298833 0.898748 0.871285
O O6 0.398802 0.930424 0.758165
O O7 0.271731 0.843887 0.716673
O O8 0.562732 0.860108 0.917294
O O9 0.965556 0.405780 0.619875
O O10 0.811317 0.322294 0.562912
O O11 0.000000 0.349367 0.500000
O O12 0.148141 0.322689 0.703004
O O13 0.838326 0.910949 0.037101
O O14 0.819038 0.760269 0.369503
O O15 0.961608 0.500000 0.666810
O O16 0.201310 0.436587 0.819604
O O17 0.000000 0.167020 0.500000
O O18 0.761565 0.500000 0.039708
O O19 0.500000 0.537977 0.000000
#
# Coordination Sequence:
#
# PCOD8098683 Si02
#       8
#     8   8   8   8   8   8   8   8
#     4  12  26  38  61  92 130 171 204 246 307 370
#     4   9  19  37  60  92 117 154 205 248 301 372
#     4  11  26  42  63  94 118 158 221 264 310 376
#     4  10  20  34  62  85 124 158 201 249 295 362
#     4  12  25  42  61  90 129 167 211 249 305 372
#     4   9  20  40  64  87 121 159 195 257 319 370
#     4  11  23  42  64  82 123 166 203 259 316 362
#     4   9  19  34  54  85 122 155 190 237 303 370
#
# _framework density 19.403072000000002
#
# number of rings (size 3 to 8) (size 9 to 14) (size 15 to 20)
#    0.000    1.625    2.500    1.500    8.750    1.750 
#    0.000    2.500    0.000    6.000    0.000    0.000 
#    0.000    0.000    0.000    0.000    0.000    0.000 
#
# Total GULP energy -396483.964399 kJ/mol
# GULP energy per Si atom -12390.123887 kJ/mol
# Density = 1.935891 g / cm^3
# Si number density = 19.403072 Si / 1000 Ang^3
#
#
#
# Elastic Constant Matrix: (Units=GPa)
#
#
# Indices 1 2 3 4 5 6 
#
# 1 100.3775 35.7177 43.8045 0.0000 -0.5283 0.0000
# 2 35.7177 115.3515 33.0592 0.0000 -9.0183 0.0000
# 3 43.8045 33.0592 78.1903 0.0000 -3.5142 0.0000
# 4 0.0000 0.0000 0.0000 26.4028 0.0000 -5.8552
# 5 -0.5283 -9.0183 -3.5142 0.0000 36.1367 0.0000
# 6 0.0000 0.0000 0.0000 -5.8552 0.0000 -29.9955
#
#
#
# Elastic Compliance Matrix: (Units=1/GPa)
#
#
# Indices 1 2 3 4 5 6 
#
# 1 0.013753 -0.002411 -0.006733 0.000000 -0.001055 0.000000
# 2 -0.002411 0.010443 -0.002962 0.000000 0.002283 0.000000
# 3 -0.006733 -0.002962 0.017854 0.000000 0.000899 0.000000
# 4 0.000000 0.000000 0.000000 0.036303 0.000000 -0.007087
# 5 -0.001055 0.002283 0.000899 0.000000 0.028314 0.000000
# 6 0.000000 0.000000 0.000000 -0.007087 0.000000 -0.031955
#
#
# Mechanical properties :
#
#
# Convention : Reuss Voigt Hill
#
# Bulk Modulus (GPa) = 56.06007 57.67579 56.86793
# Shear Modulus (GPa) = 47.67778 18.59801 33.13790
#
# Velocity S-wave (km/s) = 4.96242 3.09934 4.13712
# Velocity P-wave (km/s) = 7.86061 6.52667 7.22450
#
# Compressibility (1/GPa) = 0.01783801
#
# Stress axis : x y z
#
# Youngs Moduli (GPa) = 72.71112 95.75624 56.01038
#
# Poissons Ratio (x) = 0.23091 0.37710
# Poissons Ratio (y) = 0.17534 0.16589
# Poissons Ratio (z) = 0.48954 0.28361
#
# Static dielectric constant tensor:
#      x y z
#    x 3.672420 0.000000 -0.006840 
#    y 0.000000 3.645400 0.000000 
#    z -0.006840 0.000000 3.499740 
# 
# 
# High freq. dielectric constant tensor:
#      x y z
#    x 1.758370 0.000000 -0.002400 
#    y 0.000000 1.755450 0.000000 
#    z -0.002400 0.000000 1.744480 
# 
# From -- ./inp_files/201343.got.cif
#   From: 2010.06.25/outbox.cif.g09.slc.cpg/sg12_101_cif.got.tgz:201343.got - 2010.06.28 00:19:55.
