data_PCOD8098509
_publ_section_title
;
Structure prediction by ZEFSAII (Michael W. Deem and Ramdas Pophale) SiO2 
 PCOD8098509
Probable space group: C 2/M
;
_chemical_formula_sum "Si O2"
_cell_formula_units_Z 64
_cell_length_a 27.059555
_cell_length_b 14.247784
_cell_length_c 12.302920
_cell_angle_alpha 90.000000
_cell_angle_beta 139.179068
_cell_angle_gamma 90.000000
_cell_volume 3100.649965
_symmetry_space_group_name_H-M "C 2/M"
_symmetry_group_IT_number 12
_symmetry_cell_setting 'monoclinic'
loop_
_space_group_symop_operation_xyz
x,y,z
-x,y,-z
-x,-y,-z
x,-y,z
1/2+x,1/2+y,z
1/2-x,1/2+y,-z
1/2-x,1/2-y,-z
1/2+x,1/2-y,z
loop_
_atom_site_type_symbol
_atom_site_label
_atom_site_fract_x
_atom_site_fract_y
_atom_site_fract_z
Si Si1 0.175742 0.607564 0.065169
Si Si2 0.282699 0.390275 0.754281
Si Si3 0.839952 0.106310 0.268586
Si Si4 0.024759 0.222896 0.425036
Si Si5 0.853533 0.603696 0.744286
Si Si6 0.362637 0.296024 0.090859
Si Si7 0.176812 0.896806 0.411244
Si Si8 0.629723 0.209979 0.432946
O O1 0.153024 0.500000 0.996374
O O2 0.267104 0.614191 0.226215
O O3 0.139314 0.638961 0.119888
O O4 0.145165 0.682308 0.927002
O O5 0.265264 0.500000 0.744817
O O6 0.337341 0.375938 0.740591
O O7 0.203837 0.336126 0.607636
O O8 0.325476 0.346777 0.927272
O O9 0.914214 0.140934 0.454433
O O10 0.821925 0.168763 0.132413
O O11 0.853700 0.000000 0.253848
O O12 0.062694 0.301239 0.409871
O O13 0.000000 0.268165 0.500000
O O14 0.951567 0.178583 0.244525
O O15 0.887862 0.500000 0.792496
O O16 0.766502 0.604921 0.568261
O O17 0.896688 0.665764 0.726279
O O18 0.139568 0.820766 0.427070
O O19 0.145549 0.000000 0.392490
#
# Coordination Sequence:
#
# PCOD8098509 Si02
#       8
#     8   8   8   8   8   8   8   8
#     4  10  20  36  61  90 114 141 185 237 281 324
#     4  10  20  34  57  88 114 138 178 235 288 330
#     4  10  21  38  61  84 109 148 194 233 274 332
#     4  10  24  39  55  78 110 151 190 226 270 330
#     4   9  17  31  55  84 110 139 180 230 278 327
#     4  11  21  37  56  80 117 152 185 229 282 330
#     4   9  17  29  50  83 114 140 178 226 277 330
#     4  11  19  35  58  79 109 149 190 226 270 331
#
# _framework density 20.640834999999999
#
# number of rings (size 3 to 8) (size 9 to 14) (size 15 to 20)
#    0.000    2.000    0.000    6.375    0.000    5.250 
#    0.000    3.750    0.000   10.875    0.000    0.000 
#    0.000    0.000    0.000    0.000    0.000    0.000 
#
# Total GULP energy -396631.495775 kJ/mol
# GULP energy per Si atom -12394.734243 kJ/mol
# Density = 2.059386 g / cm^3
# Si number density = 20.640835 Si / 1000 Ang^3
#
#
#
# Elastic Constant Matrix: (Units=GPa)
#
#
# Indices 1 2 3 4 5 6 
#
# 1 116.2275 54.0175 17.9590 0.0000 -17.3730 0.0000
# 2 54.0175 121.5948 32.5718 0.0000 -19.0636 0.0000
# 3 17.9590 32.5718 51.7969 0.0000 -9.7719 0.0000
# 4 0.0000 0.0000 0.0000 20.8251 0.0000 -9.4067
# 5 -17.3730 -19.0636 -9.7719 0.0000 23.7312 0.0000
# 6 0.0000 0.0000 0.0000 -9.4067 0.0000 20.9622
#
#
#
# Elastic Compliance Matrix: (Units=1/GPa)
#
#
# Indices 1 2 3 4 5 6 
#
# 1 0.011318 -0.004173 -0.000400 0.000000 0.004768 0.000000
# 2 -0.004173 0.012235 -0.005388 0.000000 0.004555 0.000000
# 3 -0.000400 -0.005388 0.023811 0.000000 0.005184 0.000000
# 4 0.000000 0.000000 0.000000 0.060227 0.000000 0.027027
# 5 0.004768 0.004555 0.005184 0.000000 0.051423 0.000000
# 6 0.000000 0.000000 0.000000 0.027027 0.000000 0.059833
#
#
# Mechanical properties :
#
#
# Convention : Reuss Voigt Hill
#
# Bulk Modulus (GPa) = 36.44077 55.41285 45.92681
# Shear Modulus (GPa) = 20.16807 25.44177 22.80492
#
# Velocity S-wave (km/s) = 3.12924 3.51464 3.32753
# Velocity P-wave (km/s) = 5.54520 6.58595 6.08786
#
# Compressibility (1/GPa) = 0.02744179
#
# Stress axis : x y z
#
# Youngs Moduli (GPa) = 88.35575 81.73108 41.99757
#
# Poissons Ratio (x) = 0.34107 0.01682
# Poissons Ratio (y) = 0.36871 0.22627
# Poissons Ratio (z) = 0.03538 0.44034
#
# Static dielectric constant tensor:
#      x y z
#    x 3.880680 0.000000 -0.323910 
#    y 0.000000 3.904670 0.000000 
#    z -0.323910 0.000000 3.621260 
# 
# 
# High freq. dielectric constant tensor:
#      x y z
#    x 1.801850 0.000000 -0.028680 
#    y 0.000000 1.806270 0.000000 
#    z -0.028680 0.000000 1.787960 
# 
# From -- ./inp_files/189487.got.cif
#   From: 2010.06.25/outbox.cif.g09.slc.cpg/sg12_95_cif.got.tgz:189487.got - 2010.06.28 00:19:55.
