data_PCOD8098912
_publ_section_title
;
Structure prediction by ZEFSAII (Michael W. Deem and Ramdas Pophale) SiO2 
 PCOD8098912
Probable space group: C 2/M
;
_chemical_formula_sum "Si O2"
_cell_formula_units_Z 56
_cell_length_a 14.819933
_cell_length_b 8.762177
_cell_length_c 24.609587
_cell_angle_alpha 90.000000
_cell_angle_beta 63.335973
_cell_angle_gamma 90.000000
_cell_volume 2855.825444
_symmetry_space_group_name_H-M "C 2/M"
_symmetry_group_IT_number 12
_symmetry_cell_setting 'monoclinic'
loop_
_space_group_symop_operation_xyz
x,y,z
-x,y,-z
-x,-y,-z
x,-y,z
1/2+x,1/2+y,z
1/2-x,1/2+y,-z
1/2-x,1/2-y,-z
1/2+x,1/2-y,z
loop_
_atom_site_type_symbol
_atom_site_label
_atom_site_fract_x
_atom_site_fract_y
_atom_site_fract_z
Si Si1 0.489938 0.326456 0.066728
Si Si2 0.873607 0.319215 0.183714
Si Si3 0.570936 0.320136 0.404768
Si Si4 0.675248 0.826886 0.061242
Si Si5 0.572620 0.819271 0.190628
Si Si6 0.349531 0.321641 0.499985
Si Si7 0.831252 0.679857 0.725765
O O1 0.514417 0.500000 0.078834
O O2 0.384028 0.270963 0.122543
O O3 0.563926 0.196134 0.068307
O O4 0.500000 0.318224 0.000000
O O5 0.873346 0.500000 0.174066
O O6 0.772582 0.270265 0.241342
O O7 0.963923 0.260934 0.199147
O O8 0.581226 0.500000 0.390548
O O9 0.452865 0.274005 0.441466
O O10 0.634988 0.275191 0.441177
O O11 0.615907 0.221188 0.344440
O O12 0.665380 0.762427 0.125836
O O13 0.710040 0.000000 0.052837
O O14 0.750000 0.750000 0.000000
O O15 0.594718 0.764353 0.245626
O O16 0.570790 0.000000 0.187083
O O17 0.334023 0.500000 0.499683
O O18 0.250000 0.250000 0.500000
O O19 0.810792 0.500000 0.734331
#
# Coordination Sequence:
#
# PCOD8098912 Si02
#       7
#     8   8   8   8   8   8   8
#     4  10  21  36  54  77 106 140 179 232 292 349
#     4  10  21  39  58  79 109 147 188 236 289 350
#     4   9  20  39  57  83 120 156 191 232 280 336
#     4  10  20  35  54  77 104 138 181 232 288 350
#     4   8  19  38  55  73 107 146 181 226 286 343
#     4   9  19  37  62  87 119 157 193 233 281 329
#     4  11  22  37  59  85 113 152 193 235 285 341
#
# _framework density 19.609041000000001
#
# number of rings (size 3 to 8) (size 9 to 14) (size 15 to 20)
#    0.000    2.429    0.000    3.429    2.000    3.429 
#    0.000   13.571    0.000    0.000    0.000    0.000 
#    0.000    0.000    0.000    0.000    0.000    0.000 
#
# Total GULP energy -346883.629298 kJ/mol
# GULP energy per Si atom -12388.701046 kJ/mol
# Density = 1.956441 g / cm^3
# Si number density = 19.609041 Si / 1000 Ang^3
#
#
#
# Elastic Constant Matrix: (Units=GPa)
#
#
# Indices 1 2 3 4 5 6 
#
# 1 116.3067 33.4373 64.7557 0.0000 -0.6433 0.0000
# 2 33.4373 60.3775 48.4266 0.0000 2.7164 0.0000
# 3 64.7557 48.4266 157.9244 0.0000 1.3633 0.0000
# 4 0.0000 0.0000 0.0000 30.8017 0.0000 -1.9204
# 5 -0.6433 2.7164 1.3633 0.0000 25.9144 0.0000
# 6 0.0000 0.0000 0.0000 -1.9204 0.0000 29.8738
#
#
#
# Elastic Compliance Matrix: (Units=1/GPa)
#
#
# Indices 1 2 3 4 5 6 
#
# 1 0.011687 -0.003529 -0.003717 0.000000 0.000856 0.000000
# 2 -0.003529 0.023129 -0.005626 0.000000 -0.002216 0.000000
# 3 -0.003717 -0.005626 0.009582 0.000000 -0.000007 0.000000
# 4 0.000000 0.000000 0.000000 0.032596 0.000000 0.002095
# 5 0.000856 -0.002216 -0.000007 0.000000 0.038842 0.000000
# 6 0.000000 0.000000 0.000000 0.002095 0.000000 0.033609
#
#
# Mechanical properties :
#
#
# Convention : Reuss Voigt Hill
#
# Bulk Modulus (GPa) = 53.61234 69.76084 61.68659
# Shear Modulus (GPa) = 27.56208 29.85058 28.70633
#
# Velocity S-wave (km/s) = 3.75317 3.90588 3.83029
# Velocity P-wave (km/s) = 6.79571 7.48293 7.14759
#
# Compressibility (1/GPa) = 0.01865242
#
# Stress axis : x y z
#
# Youngs Moduli (GPa) = 85.56505 43.23530 104.36565
#
# Poissons Ratio (x) = 0.15259 0.38796
# Poissons Ratio (y) = 0.30198 0.58718
# Poissons Ratio (z) = 0.31807 0.24325
#
# Static dielectric constant tensor:
#      x y z
#    x 3.823280 0.000000 -0.109190 
#    y 0.000000 3.471490 0.000000 
#    z -0.109190 0.000000 4.095830 
# 
# 
# High freq. dielectric constant tensor:
#      x y z
#    x 1.757510 0.000000 -0.002580 
#    y 0.000000 1.753910 0.000000 
#    z -0.002580 0.000000 1.775220 
# 
# From -- ./inp_files/338491.got.cif
#   From: 2010.06.25/outbox.cif.g09.slc.cpg/sg12_170_cif.got.tgz:338491.got - 2010.06.28 00:19:55.
