data_PCOD8098931
_publ_section_title
;
Structure prediction by ZEFSAII (Michael W. Deem and Ramdas Pophale) SiO2 
 PCOD8098931
Probable space group: C 2/M
;
_chemical_formula_sum "Si O2"
_cell_formula_units_Z 64
_cell_length_a 18.822816
_cell_length_b 30.339979
_cell_length_c 13.302555
_cell_angle_alpha 90.000000
_cell_angle_beta 153.951981
_cell_angle_gamma 90.000000
_cell_volume 3335.971791
_symmetry_space_group_name_H-M "C 2/M"
_symmetry_group_IT_number 12
_symmetry_cell_setting 'monoclinic'
loop_
_space_group_symop_operation_xyz
x,y,z
-x,y,-z
-x,-y,-z
x,-y,z
1/2+x,1/2+y,z
1/2-x,1/2+y,-z
1/2-x,1/2-y,-z
1/2+x,1/2-y,z
loop_
_atom_site_type_symbol
_atom_site_label
_atom_site_fract_x
_atom_site_fract_y
_atom_site_fract_z
Si Si1 0.311856 0.687636 0.520460
Si Si2 0.026830 0.451670 0.917962
Si Si3 0.684241 0.547724 0.204329
Si Si4 0.002072 0.255976 0.886355
Si Si5 0.836415 0.904777 0.237907
Si Si6 0.417724 0.448687 0.138553
Si Si7 0.767761 0.906662 0.542143
Si Si8 0.174798 0.808731 0.697430
O O1 0.133036 0.707261 0.306801
O O2 0.457561 0.716813 0.752717
O O3 0.322977 0.643030 0.597080
O O4 0.334813 0.678524 0.432045
O O5 0.000894 0.500000 0.834340
O O6 0.906384 0.414508 0.726043
O O7 0.205284 0.435076 0.123566
O O8 0.000000 0.456726 0.000000
O O9 0.770896 0.500000 0.329265
O O10 0.758196 0.584508 0.371693
O O11 0.500000 0.541737 0.000000
O O12 0.695421 0.561975 0.101921
O O13 0.000000 0.239874 0.000000
O O14 0.181156 0.275029 0.091488
O O15 0.851163 0.916222 0.139198
O O16 0.798625 0.852986 0.203867
O O17 0.000000 0.918406 0.500000
O O18 0.404784 0.500000 0.153821
O O19 0.604265 0.439224 0.347906
O O20 0.000000 0.786898 0.500000
#
# Coordination Sequence:
#
# PCOD8098931 Si02
#       8
#     8   8   8   8   8   8   8   8
#     4  10  20  35  57  82 108 143 180 222 276 332
#     4  11  22  33  49  77 110 144 183 227 272 315
#     4   8  16  31  51  76 106 141 181 226 272 315
#     4   9  20  38  58  81 110 138 174 223 276 334
#     4  11  22  36  54  77 108 147 187 224 272 328
#     4  10  20  35  54  77 108 145 185 227 270 322
#     4  11  19  33  57  82 108 140 185 231 274 322
#     4  10  20  36  56  80 110 143 180 223 277 333
#
# _framework density 19.184815
#
# number of rings (size 3 to 8) (size 9 to 14) (size 15 to 20)
#    0.000    2.000    0.000    6.000    0.000    5.000 
#    0.000    0.625    0.000    2.250    0.000    0.000 
#    0.000    0.000    0.000    0.000    0.000    0.125 
#
# Total GULP energy -396666.898826 kJ/mol
# GULP energy per Si atom -12395.840588 kJ/mol
# Density = 1.914115 g / cm^3
# Si number density = 19.184815 Si / 1000 Ang^3
#
#
#
# Elastic Constant Matrix: (Units=GPa)
#
#
# Indices 1 2 3 4 5 6 
#
# 1 100.2314 52.2711 52.7296 0.0000 -5.1633 0.0000
# 2 52.2711 112.0121 59.5604 0.0000 -11.4845 0.0000
# 3 52.7296 59.5604 102.1983 0.0000 -4.4464 0.0000
# 4 0.0000 0.0000 0.0000 33.5528 0.0000 1.3761
# 5 -5.1633 -11.4845 -4.4464 0.0000 36.0147 0.0000
# 6 0.0000 0.0000 0.0000 1.3761 0.0000 27.6602
#
#
#
# Elastic Compliance Matrix: (Units=1/GPa)
#
#
# Indices 1 2 3 4 5 6 
#
# 1 0.014921 -0.004139 -0.005279 0.000000 0.000168 0.000000
# 2 -0.004139 0.014465 -0.006153 0.000000 0.003260 0.000000
# 3 -0.005279 -0.006153 0.016063 0.000000 -0.000736 0.000000
# 4 0.000000 0.000000 0.000000 0.029865 0.000000 -0.001486
# 5 0.000168 0.003260 -0.000736 0.000000 0.028739 0.000000
# 6 0.000000 0.000000 0.000000 -0.001486 0.000000 0.036227
#
#
# Mechanical properties :
#
#
# Convention : Reuss Voigt Hill
#
# Bulk Modulus (GPa) = 69.89616 71.50710 70.70163
# Shear Modulus (GPa) = 28.37845 29.43759 28.90802
#
# Velocity S-wave (km/s) = 3.85023 3.92142 3.88599
# Velocity P-wave (km/s) = 7.50186 7.60638 7.55430
#
# Compressibility (1/GPa) = 0.01430694
#
# Stress axis : x y z
#
# Youngs Moduli (GPa) = 67.01847 69.13350 62.25642
#
# Poissons Ratio (x) = 0.28612 0.32868
# Poissons Ratio (y) = 0.27737 0.38305
# Poissons Ratio (z) = 0.35382 0.42536
#
# Static dielectric constant tensor:
#      x y z
#    x 3.618650 0.000000 -0.161460 
#    y 0.000000 3.405450 0.000000 
#    z -0.161460 0.000000 3.362350 
# 
# 
# High freq. dielectric constant tensor:
#      x y z
#    x 1.741290 0.000000 -0.009400 
#    y 0.000000 1.736660 0.000000 
#    z -0.009400 0.000000 1.745410 
# 
# From -- ./inp_files/161272.got.cif
#   From: 2010.06.25/outbox.cif.g09.slc.cpg/sg12_81_cif.got.tgz:161272.got - 2010.06.28 00:19:55.
