data_PCOD8098140
_publ_section_title
;
Structure prediction by ZEFSAII (Michael W. Deem and Ramdas Pophale) SiO2 
 PCOD8098140
Probable space group: C 2/M
;
_chemical_formula_sum "Si O2"
_cell_formula_units_Z 40
_cell_length_a 14.036211
_cell_length_b 9.546285
_cell_length_c 14.952364
_cell_angle_alpha 90.000000
_cell_angle_beta 110.786069
_cell_angle_gamma 90.000000
_cell_volume 1873.116867
_symmetry_space_group_name_H-M "C 2/M"
_symmetry_group_IT_number 12
_symmetry_cell_setting 'monoclinic'
loop_
_space_group_symop_operation_xyz
x,y,z
-x,y,-z
-x,-y,-z
x,-y,z
1/2+x,1/2+y,z
1/2-x,1/2+y,-z
1/2-x,1/2-y,-z
1/2+x,1/2-y,z
loop_
_atom_site_type_symbol
_atom_site_label
_atom_site_fract_x
_atom_site_fract_y
_atom_site_fract_z
Si Si1 0.574110 0.712917 0.451601
Si Si2 0.827115 0.660513 0.781732
Si Si3 0.756922 0.352243 0.395066
Si Si4 0.759685 0.331675 0.095234
Si Si5 0.970362 0.343822 0.252103
O O1 0.500000 0.635874 0.500000
O O2 0.668451 0.627051 0.441042
O O3 0.632371 0.840343 0.521083
O O4 0.498211 0.753009 0.346882
O O5 0.790845 0.500000 0.788292
O O6 0.761464 0.722538 0.677318
O O7 0.822191 0.761900 0.865692
O O8 0.945032 0.662911 0.796191
O O9 0.758251 0.500000 0.341521
O O10 0.744619 0.500000 0.079054
O O11 0.867667 0.288695 0.173254
O O12 0.750000 0.250000 0.000000
O O13 0.955040 0.500000 0.282536
#
# Coordination Sequence:
#
# PCOD8098140 Si02
#       5
#     8   8   8   8   8
#     4  10  20  34  55  84 118 156 196 236 279 335
#     4  10  21  40  62  85 117 154 192 234 282 340
#     4  10  21  36  56  85 119 154 194 238 284 333
#     4  11  23  41  64  89 115 146 189 239 292 345
#     4   9  20  38  59  83 114 156 197 231 279 347
#
# _framework density 21.354782
#
# number of rings (size 3 to 8) (size 9 to 14) (size 15 to 20)
#    0.000    2.000    0.000    3.000    0.000    9.200 
#    0.000   18.000    0.000    0.000    0.000    0.000 
#    0.000    0.000    0.000    0.000    0.000    0.000 
#
# Total GULP energy -247761.290101 kJ/mol
# GULP energy per Si atom -12388.064505 kJ/mol
# Density = 2.130618 g / cm^3
# Si number density = 21.354782 Si / 1000 Ang^3
#
#
#
# Elastic Constant Matrix: (Units=GPa)
#
#
# Indices 1 2 3 4 5 6 
#
# 1 81.4551 28.5642 48.3367 0.0000 -8.0571 0.0000
# 2 28.5642 127.7462 39.6187 0.0000 -12.0789 0.0000
# 3 48.3367 39.6187 97.4705 0.0000 -18.1114 0.0000
# 4 0.0000 0.0000 0.0000 16.6178 0.0000 -1.1130
# 5 -8.0571 -12.0789 -18.1114 0.0000 34.4194 0.0000
# 6 0.0000 0.0000 0.0000 -1.1130 0.0000 8.5010
#
#
#
# Elastic Compliance Matrix: (Units=1/GPa)
#
#
# Indices 1 2 3 4 5 6 
#
# 1 0.017631 -0.001440 -0.008297 0.000000 -0.000744 0.000000
# 2 -0.001440 0.009133 -0.002732 0.000000 0.001430 0.000000
# 3 -0.008297 -0.002732 0.016565 0.000000 0.005815 0.000000
# 4 0.000000 0.000000 0.000000 0.060709 0.000000 0.007948
# 5 -0.000744 0.001430 0.005815 0.000000 0.032441 0.000000
# 6 0.000000 0.000000 0.000000 0.007948 0.000000 0.118674
#
#
# Mechanical properties :
#
#
# Convention : Reuss Voigt Hill
#
# Bulk Modulus (GPa) = 54.37227 59.96790 57.17008
# Shear Modulus (GPa) = 17.46902 24.58444 21.02673
#
# Velocity S-wave (km/s) = 2.86324 3.39667 3.14130
# Velocity P-wave (km/s) = 6.03718 6.59741 6.32350
#
# Compressibility (1/GPa) = 0.01839173
#
# Stress axis : x y z
#
# Youngs Moduli (GPa) = 56.71736 109.49809 60.36781
#
# Poissons Ratio (x) = 0.15764 0.50085
# Poissons Ratio (y) = 0.08165 0.16495
# Poissons Ratio (z) = 0.47056 0.29920
#
# Static dielectric constant tensor:
#      x y z
#    x 4.235620 0.000000 -0.110930 
#    y 0.000000 3.793850 0.000000 
#    z -0.110930 0.000000 3.707980 
# 
# 
# High freq. dielectric constant tensor:
#      x y z
#    x 1.851420 0.000000 -0.008710 
#    y 0.000000 1.827320 0.000000 
#    z -0.008710 0.000000 1.828740 
# 
# From -- ./inp_files/211442.got.cif
#   From: 2010.06.25/outbox.cif.g09.slc.cpg/sg12_106_cif.got.tgz:211442.got - 2010.06.28 00:19:55.
