data_PCOD8098648
_publ_section_title
;
Structure prediction by ZEFSAII (Michael W. Deem and Ramdas Pophale) SiO2 
 PCOD8098648
Probable space group: C 2/M
;
_chemical_formula_sum "Si O2"
_cell_formula_units_Z 48
_cell_length_a 9.187882
_cell_length_b 17.045975
_cell_length_c 27.095135
_cell_angle_alpha 90.000000
_cell_angle_beta 148.280572
_cell_angle_gamma 90.000000
_cell_volume 2231.085496
_symmetry_space_group_name_H-M "C 2/M"
_symmetry_group_IT_number 12
_symmetry_cell_setting 'monoclinic'
loop_
_space_group_symop_operation_xyz
x,y,z
-x,y,-z
-x,-y,-z
x,-y,z
1/2+x,1/2+y,z
1/2-x,1/2+y,-z
1/2-x,1/2-y,-z
1/2+x,1/2-y,z
loop_
_atom_site_type_symbol
_atom_site_label
_atom_site_fract_x
_atom_site_fract_y
_atom_site_fract_z
Si Si1 0.764192 0.591273 0.394131
Si Si2 0.270333 0.409751 0.395374
Si Si3 0.264831 0.839471 0.292258
Si Si4 0.345588 0.337210 0.910173
Si Si5 0.200173 0.168292 0.911898
Si Si6 0.750517 0.843156 0.290052
O O1 0.709995 0.500000 0.387642
O O2 0.856789 0.607104 0.364870
O O3 0.477364 0.640455 0.313467
O O4 0.000000 0.622121 0.500000
O O5 0.500000 0.383041 0.500000
O O6 0.186599 0.500000 0.378969
O O7 0.381043 0.393541 0.372500
O O8 0.011745 0.351097 0.324813
O O9 0.232779 0.748745 0.297509
O O10 0.992142 0.872042 0.185174
O O11 0.256681 0.255421 0.909072
O O12 0.548780 0.329688 0.921571
O O13 0.054046 0.377777 0.811409
O O14 0.500000 0.383589 0.000000
O O15 0.500000 0.124218 0.000000
#
# Coordination Sequence:
#
# PCOD8098648 Si02
#       6
#     8   8   8   8   8   8
#     4  11  25  43  62  87 124 170 209 247 310 379
#     4  11  23  41  62  85 120 166 205 245 306 375
#     4  11  23  38  63  95 123 155 206 259 305 354
#     4  10  20  34  59  92 126 161 199 249 310 369
#     4  10  20  34  59  92 126 161 199 249 310 369
#     4  11  23  38  63  95 123 155 206 259 305 354
#
# _framework density 21.514191
#
# number of rings (size 3 to 8) (size 9 to 14) (size 15 to 20)
#    0.000    1.333    1.667    5.000    9.333    6.667 
#    0.000    0.000    0.000    6.000    0.000    0.000 
#    0.000    0.000    0.000    0.000    0.000    0.000 
#
# Total GULP energy -297446.456948 kJ/mol
# GULP energy per Si atom -12393.602373 kJ/mol
# Density = 2.146522 g / cm^3
# Si number density = 21.514191 Si / 1000 Ang^3
#
#
#
# Elastic Constant Matrix: (Units=GPa)
#
#
# Indices 1 2 3 4 5 6 
#
# 1 100.0478 14.6334 37.0386 -0.0006 -3.5143 -0.0010
# 2 14.6334 40.1707 42.5553 0.0004 -3.1727 -0.0002
# 3 37.0386 42.5553 148.5821 -0.0009 -5.4142 -0.0015
# 4 -0.0006 0.0004 -0.0009 7.1219 0.0001 6.6200
# 5 -3.5143 -3.1727 -5.4142 0.0001 47.6572 -0.0008
# 6 -0.0010 -0.0002 -0.0015 6.6200 -0.0008 24.4517
#
#
#
# Elastic Compliance Matrix: (Units=1/GPa)
#
#
# Indices 1 2 3 4 5 6 
#
# 1 0.011092 -0.001569 -0.002299 0.000001 0.000452 0.000000
# 2 -0.001569 0.036030 -0.009886 -0.000004 0.001160 0.000001
# 3 -0.002299 -0.009886 0.010147 0.000002 0.000325 0.000000
# 4 0.000001 -0.000004 0.000002 0.187632 -0.000001 -0.050799
# 5 0.000452 0.001160 0.000325 -0.000001 0.021131 0.000001
# 6 0.000000 0.000001 0.000000 -0.050799 0.000001 0.054650
#
#
# Mechanical properties :
#
#
# Convention : Reuss Voigt Hill
#
# Bulk Modulus (GPa) = 33.60234 53.02835 43.31534
# Shear Modulus (GPa) = 13.96224 28.81772 21.38998
#
# Velocity S-wave (km/s) = 2.55027 3.66385 3.15656
# Velocity P-wave (km/s) = 4.93198 6.52687 5.78465
#
# Compressibility (1/GPa) = 0.02975983
#
# Stress axis : x y z
#
# Youngs Moduli (GPa) = 90.15703 27.75494 98.55517
#
# Poissons Ratio (x) = 0.04356 0.22658
# Poissons Ratio (y) = 0.14148 0.97429
# Poissons Ratio (z) = 0.20727 0.27438
#
# Static dielectric constant tensor:
#      x y z
#    x 3.845070 0.000000 -0.111210 
#    y 0.000000 3.237090 0.000000 
#    z -0.111210 0.000000 5.041200 
# 
# 
# High freq. dielectric constant tensor:
#      x y z
#    x 1.862140 0.000000 -0.002090 
#    y 0.000000 1.792440 0.000000 
#    z -0.002090 0.000000 1.871040 
# 
# From -- ./inp_files/170821.got.cif
#   From: 2010.06.25/outbox.cif.g09.slc.cpg/sg12_86_cif.got.tgz:170821.got - 2010.06.28 00:19:55.
