data_PCOD8098306
_publ_section_title
;
Structure prediction by ZEFSAII (Michael W. Deem and Ramdas Pophale) SiO2 
 PCOD8098306
Probable space group: C 2/M
;
_chemical_formula_sum "Si O2"
_cell_formula_units_Z 48
_cell_length_a 20.655546
_cell_length_b 8.849657
_cell_length_c 24.916904
_cell_angle_alpha 90.000000
_cell_angle_beta 145.896426
_cell_angle_gamma 90.000000
_cell_volume 2553.762514
_symmetry_space_group_name_H-M "C 2/M"
_symmetry_group_IT_number 12
_symmetry_cell_setting 'monoclinic'
loop_
_space_group_symop_operation_xyz
x,y,z
-x,y,-z
-x,-y,-z
x,-y,z
1/2+x,1/2+y,z
1/2-x,1/2+y,-z
1/2-x,1/2-y,-z
1/2+x,1/2-y,z
loop_
_atom_site_type_symbol
_atom_site_label
_atom_site_fract_x
_atom_site_fract_y
_atom_site_fract_z
Si Si1 0.213288 0.825059 0.891711
Si Si2 0.575973 0.824688 0.891412
Si Si3 0.156891 0.824503 0.279650
Si Si4 0.145497 0.175700 0.397312
Si Si5 0.394644 0.179728 0.392282
Si Si6 0.583247 0.821159 0.713939
O O1 0.120875 0.771524 0.872205
O O2 0.195538 0.733555 0.824279
O O3 0.188628 0.000000 0.863855
O O4 0.343152 0.795870 0.001368
O O5 0.447990 0.769698 0.818333
O O6 0.576991 0.000000 0.875673
O O7 0.165752 0.795340 0.348744
O O8 0.273999 0.761706 0.333498
O O9 0.137542 0.000000 0.252998
O O10 0.250000 0.250000 0.500000
O O11 0.027959 0.252750 0.334262
O O12 0.140397 0.000000 0.407791
O O13 0.500000 0.245868 0.500000
O O14 0.407145 0.238939 0.340164
O O15 0.397825 0.000000 0.396507
O O16 0.574764 0.000000 0.709426
#
# Coordination Sequence:
#
# PCOD8098306 Si02
#       6
#     8   8   8   8   8   8
#     4  10  20  35  55  82 115 149 184 227 282 341
#     4  10  20  34  56  84 113 146 186 231 281 335
#     4  10  20  36  58  82 111 148 188 231 281 334
#     4  11  22  35  55  82 111 144 185 235 286 334
#     4   9  19  37  58  80 110 151 192 229 276 335
#     4  11  21  35  58  85 112 145 188 235 282 333
#
# _framework density 18.795797
#
# number of rings (size 3 to 8) (size 9 to 14) (size 15 to 20)
#    0.000    1.833    1.667    3.000    0.000    5.333 
#    0.000    2.500    0.000    8.500    0.000    0.000 
#    0.000    0.000    0.000    0.000    0.000    0.000 
#
# Total GULP energy -297676.830362 kJ/mol
# GULP energy per Si atom -12403.201265 kJ/mol
# Density = 1.875302 g / cm^3
# Si number density = 18.795797 Si / 1000 Ang^3
#
#
#
# Elastic Constant Matrix: (Units=GPa)
#
#
# Indices 1 2 3 4 5 6 
#
# 1 94.1354 38.6303 48.5360 0.0000 -8.0846 0.0000
# 2 38.6303 72.8041 47.2768 0.0000 -6.2394 0.0001
# 3 48.5360 47.2768 140.6481 0.0000 -4.7558 0.0000
# 4 0.0000 0.0000 0.0000 36.9952 0.0000 -0.3179
# 5 -8.0846 -6.2394 -4.7558 0.0000 34.4431 0.0000
# 6 0.0000 0.0001 0.0000 -0.3179 0.0000 22.5448
#
#
#
# Elastic Compliance Matrix: (Units=1/GPa)
#
#
# Indices 1 2 3 4 5 6 
#
# 1 0.014705 -0.005602 -0.003124 0.000000 0.002005 0.000000
# 2 -0.005602 0.019901 -0.004701 0.000000 0.001641 0.000000
# 3 -0.003124 -0.004701 0.009760 0.000000 -0.000237 0.000000
# 4 0.000000 0.000000 0.000000 0.027034 0.000000 0.000381
# 5 0.002005 0.001641 -0.000237 0.000000 0.029769 0.000000
# 6 0.000000 0.000000 0.000000 0.000381 0.000000 0.044362
#
#
# Mechanical properties :
#
#
# Convention : Reuss Voigt Hill
#
# Bulk Modulus (GPa) = 57.10092 64.05267 60.57679
# Shear Modulus (GPa) = 28.05515 30.33958 29.19737
#
# Velocity S-wave (km/s) = 3.86765 4.02203 3.94559
# Velocity P-wave (km/s) = 7.09863 7.46466 7.28394
#
# Compressibility (1/GPa) = 0.01751285
#
# Stress axis : x y z
#
# Youngs Moduli (GPa) = 68.00550 50.24815 102.46011
#
# Poissons Ratio (x) = 0.28150 0.32003
# Poissons Ratio (y) = 0.38098 0.48164
# Poissons Ratio (z) = 0.21242 0.23620
#
# Static dielectric constant tensor:
#      x y z
#    x 3.388240 0.000000 -0.039470 
#    y 0.000000 3.509580 0.000000 
#    z -0.039470 0.000000 3.773430 
# 
# 
# High freq. dielectric constant tensor:
#      x y z
#    x 1.712780 0.000000 -0.003680 
#    y 0.000000 1.722970 0.000000 
#    z -0.003680 0.000000 1.749290 
# 
# From -- ./inp_files/229319.got.cif
#   From: 2010.06.25/outbox.cif.g09.slc.cpg/sg12_115_cif.got.tgz:229319.got - 2010.06.28 00:19:55.
