data_PCOD8098525
_publ_section_title
;
Structure prediction by ZEFSAII (Michael W. Deem and Ramdas Pophale) SiO2 
 PCOD8098525
Probable space group: C 2/M
;
_chemical_formula_sum "Si O2"
_cell_formula_units_Z 56
_cell_length_a 28.739789
_cell_length_b 9.024204
_cell_length_c 11.604687
_cell_angle_alpha 90.000000
_cell_angle_beta 109.673629
_cell_angle_gamma 90.000000
_cell_volume 2834.028195
_symmetry_space_group_name_H-M "C 2/M"
_symmetry_group_IT_number 12
_symmetry_cell_setting 'monoclinic'
loop_
_space_group_symop_operation_xyz
x,y,z
-x,y,-z
-x,-y,-z
x,-y,z
1/2+x,1/2+y,z
1/2-x,1/2+y,-z
1/2-x,1/2-y,-z
1/2+x,1/2-y,z
loop_
_atom_site_type_symbol
_atom_site_label
_atom_site_fract_x
_atom_site_fract_y
_atom_site_fract_z
Si Si1 0.097863 0.325288 0.827152
Si Si2 0.445857 0.172748 0.446393
Si Si3 0.276082 0.828709 0.357226
Si Si4 0.511565 0.326257 0.877927
Si Si5 0.709094 0.173421 0.889653
Si Si6 0.421449 0.172555 0.679967
Si Si7 0.175234 0.829406 0.392261
O O1 0.087933 0.500000 0.831180
O O2 0.083873 0.264500 0.687897
O O3 0.065577 0.239014 0.894712
O O4 0.155283 0.287769 0.895887
O O5 0.500000 0.248193 0.500000
O O6 0.415989 0.201832 0.538645
O O7 0.453238 0.000000 0.430877
O O8 0.286917 0.770124 0.238359
O O9 0.218048 0.806599 0.333997
O O10 0.308452 0.733126 0.471052
O O11 0.291877 0.000000 0.385838
O O12 0.510784 0.500000 0.851877
O O13 0.471301 0.247460 0.764965
O O14 0.500000 0.289946 0.000000
O O15 0.719434 0.000000 0.900566
O O16 0.750000 0.250000 0.000000
O O17 0.372912 0.244478 0.696796
O O18 0.423942 0.000000 0.712856
O O19 0.161355 0.000000 0.396729
#
# Coordination Sequence:
#
# PCOD8098525 Si02
#       7
#     8   8   8   8   8   8   8
#     4  10  20  38  62  87 113 145 190 239 287 341
#     4   9  16  31  58  87 112 142 182 230 281 336
#     4   9  19  38  59  81 113 155 193 231 286 344
#     4  11  25  42  57  78 114 154 190 233 284 338
#     4  10  22  39  60  84 114 152 196 242 286 341
#     4  11  21  36  60  86 115 152 191 230 279 343
#     4  10  20  34  57  88 120 149 185 235 285 338
#
# _framework density 19.759858999999999
#
# number of rings (size 3 to 8) (size 9 to 14) (size 15 to 20)
#    0.000    2.000    1.429    2.143    0.000    6.286 
#    0.000    7.857    0.000    0.000    0.000    0.000 
#    0.000    0.000    0.000    0.000    0.000    0.000 
#
# Total GULP energy -347249.406142 kJ/mol
# GULP energy per Si atom -12401.764505 kJ/mol
# Density = 1.971488 g / cm^3
# Si number density = 19.759859 Si / 1000 Ang^3
#
#
#
# Elastic Constant Matrix: (Units=GPa)
#
#
# Indices 1 2 3 4 5 6 
#
# 1 136.6811 61.2149 50.5697 0.0000 4.0624 0.0000
# 2 61.2149 83.9553 44.7099 0.0000 -2.4495 0.0000
# 3 50.5697 44.7099 82.3532 0.0000 -3.3880 0.0000
# 4 0.0000 0.0000 0.0000 29.8999 0.0000 3.9371
# 5 4.0624 -2.4495 -3.3880 0.0000 32.4956 0.0000
# 6 0.0000 0.0000 0.0000 3.9371 0.0000 32.3026
#
#
#
# Elastic Compliance Matrix: (Units=1/GPa)
#
#
# Indices 1 2 3 4 5 6 
#
# 1 0.011733 -0.006661 -0.003685 0.000000 -0.002353 0.000000
# 2 -0.006661 0.020540 -0.006993 0.000000 0.001652 0.000000
# 3 -0.003685 -0.006993 0.018278 0.000000 0.001839 0.000000
# 4 0.000000 0.000000 0.000000 0.033990 0.000000 -0.004143
# 5 -0.002353 0.001652 0.001839 0.000000 0.031384 0.000000
# 6 0.000000 0.000000 0.000000 -0.004143 0.000000 0.031462
#
#
# Mechanical properties :
#
#
# Convention : Reuss Voigt Hill
#
# Bulk Modulus (GPa) = 63.00240 68.44207 65.72223
# Shear Modulus (GPa) = 26.68695 28.70596 27.69646
#
# Velocity S-wave (km/s) = 3.67899 3.81562 3.74793
# Velocity P-wave (km/s) = 7.07106 7.35690 7.21540
#
# Compressibility (1/GPa) = 0.01587241
#
# Stress axis : x y z
#
# Youngs Moduli (GPa) = 85.22986 48.68481 54.71045
#
# Poissons Ratio (x) = 0.32429 0.20162
# Poissons Ratio (y) = 0.56772 0.38260
# Poissons Ratio (z) = 0.31409 0.34046
#
# Static dielectric constant tensor:
#      x y z
#    x 3.772490 0.000000 -0.028390 
#    y 0.000000 3.477350 0.000000 
#    z -0.028390 0.000000 3.507960 
# 
# 
# High freq. dielectric constant tensor:
#      x y z
#    x 1.788280 0.000000 0.002560 
#    y 0.000000 1.752840 0.000000 
#    z 0.002560 0.000000 1.760300 
# 
# From -- ./inp_files/181121.got.cif
#   From: 2010.06.25/outbox.cif.g09.slc.cpg/sg12_91_cif.got.tgz:181121.got - 2010.06.28 00:19:55.
