data_PCOD8098281
_publ_section_title
;
Structure prediction by ZEFSAII (Michael W. Deem and Ramdas Pophale) SiO2 
 PCOD8098281
Probable space group: C 2/M
;
_chemical_formula_sum "Si O2"
_cell_formula_units_Z 36
_cell_length_a 9.193125
_cell_length_b 9.477280
_cell_length_c 19.265108
_cell_angle_alpha 90.000000
_cell_angle_beta 93.443202
_cell_angle_gamma 90.000000
_cell_volume 1675.458363
_symmetry_space_group_name_H-M "C 2/M"
_symmetry_group_IT_number 12
_symmetry_cell_setting 'monoclinic'
loop_
_space_group_symop_operation_xyz
x,y,z
-x,y,-z
-x,-y,-z
x,-y,z
1/2+x,1/2+y,z
1/2-x,1/2+y,-z
1/2-x,1/2-y,-z
1/2+x,1/2-y,z
loop_
_atom_site_type_symbol
_atom_site_label
_atom_site_fract_x
_atom_site_fract_y
_atom_site_fract_z
Si Si1 0.364000 0.658577 0.044976
Si Si2 0.250077 0.651364 0.593569
Si Si3 0.000000 0.785009 0.500000
Si Si4 0.881968 0.837645 0.735155
Si Si5 0.608763 0.162108 0.818053
O O1 0.305298 0.500000 0.061899
O O2 0.409761 0.743046 0.114619
O O3 0.500000 0.639331 0.000000
O O4 0.250000 0.750000 0.000000
O O5 0.209722 0.500000 0.622471
O O6 0.378938 0.631101 0.540234
O O7 0.307391 0.732129 0.663754
O O8 0.097190 0.700714 0.557880
O O9 0.774939 0.835183 0.797840
O O10 0.014323 0.733176 0.754660
O O11 0.935866 0.000000 0.723977
O O12 0.559299 0.000000 0.830824
#
# Coordination Sequence:
#
# PCOD8098281 Si02
#       5
#     8   8   4   8   8
#     4  11  24  41  62  89 120 154 192 236 286 340
#     4  10  20  36  56  80 112 148 187 234 286 339
#     4  10  20  34  56  84 110 144 190 234 284 342
#     4  10  22  39  58  83 117 153 191 238 289 342
#     4  11  23  39  60  87 116 151 195 238 285 342
#
# _framework density 21.486657000000001
#
# number of rings (size 3 to 8) (size 9 to 14) (size 15 to 20)
#    0.000    1.556    0.000    4.667    0.000    8.889 
#    0.000    5.556    0.000    0.000    0.000    0.000 
#    0.000    0.000    0.000    0.000    0.000    0.000 
#
# Total GULP energy -223004.654154 kJ/mol
# GULP energy per Si atom -12389.147453 kJ/mol
# Density = 2.143775 g / cm^3
# Si number density = 21.486657 Si / 1000 Ang^3
#
#
#
# Elastic Constant Matrix: (Units=GPa)
#
#
# Indices 1 2 3 4 5 6 
#
# 1 78.9688 35.5741 9.2091 0.0000 22.1116 0.0000
# 2 35.5741 140.3584 35.6585 0.0000 24.4865 0.0000
# 3 9.2091 35.6585 102.5743 0.0000 26.1491 0.0000
# 4 0.0000 0.0000 0.0000 24.5527 0.0000 1.7648
# 5 22.1116 24.4865 26.1491 0.0000 48.5052 0.0000
# 6 0.0000 0.0000 0.0000 1.7648 0.0000 11.8727
#
#
#
# Elastic Compliance Matrix: (Units=1/GPa)
#
#
# Indices 1 2 3 4 5 6 
#
# 1 0.015710 -0.003224 0.001300 0.000000 -0.006235 0.000000
# 2 -0.003224 0.008839 -0.002342 0.000000 -0.001729 0.000000
# 3 0.001300 -0.002342 0.011937 0.000000 -0.005845 0.000000
# 4 0.000000 0.000000 0.000000 0.041169 0.000000 -0.006119
# 5 -0.006235 -0.001729 -0.005845 0.000000 0.027483 0.000000
# 6 0.000000 0.000000 0.000000 -0.006119 0.000000 0.085136
#
#
# Mechanical properties :
#
#
# Convention : Reuss Voigt Hill
#
# Bulk Modulus (GPa) = 35.77606 53.64278 44.70942
# Shear Modulus (GPa) = 24.02423 33.08344 28.55383
#
# Velocity S-wave (km/s) = 3.34743 3.92818 3.64938
# Velocity P-wave (km/s) = 5.62378 6.75233 6.21373
#
# Compressibility (1/GPa) = 0.02795165
#
# Stress axis : x y z
#
# Youngs Moduli (GPa) = 63.65447 113.14047 83.77537
#
# Poissons Ratio (x) = 0.36479 -0.10889
# Poissons Ratio (y) = 0.20524 0.19622
# Poissons Ratio (z) = -0.08274 0.26500
#
# Static dielectric constant tensor:
#      x y z
#    x 3.831310 0.000000 0.192630 
#    y 0.000000 3.964260 0.000000 
#    z 0.192630 0.000000 4.055610 
# 
# 
# High freq. dielectric constant tensor:
#      x y z
#    x 1.842050 0.000000 0.008320 
#    y 0.000000 1.837880 0.000000 
#    z 0.008320 0.000000 1.861110 
# 
# From -- ./inp_files/298729.got.cif
#   From: 2010.06.25/outbox.cif.g09.slc.cpg/sg12_150_cif.got.tgz:298729.got - 2010.06.28 00:19:55.
