data_PCOD8098998
_publ_section_title
;
Structure prediction by ZEFSAII (Michael W. Deem and Ramdas Pophale) SiO2 
 PCOD8098998
Probable space group: C 2/M
;
_chemical_formula_sum "Si O2"
_cell_formula_units_Z 40
_cell_length_a 12.962878
_cell_length_b 13.029258
_cell_length_c 11.631774
_cell_angle_alpha 90.000000
_cell_angle_beta 92.268578
_cell_angle_gamma 90.000000
_cell_volume 1963.028310
_symmetry_space_group_name_H-M "C 2/M"
_symmetry_group_IT_number 12
_symmetry_cell_setting 'monoclinic'
loop_
_space_group_symop_operation_xyz
x,y,z
-x,y,-z
-x,-y,-z
x,-y,z
1/2+x,1/2+y,z
1/2-x,1/2+y,-z
1/2-x,1/2-y,-z
1/2+x,1/2-y,z
loop_
_atom_site_type_symbol
_atom_site_label
_atom_site_fract_x
_atom_site_fract_y
_atom_site_fract_z
Si Si1 0.069716 0.245084 0.182150
Si Si2 0.211932 0.304162 0.754393
Si Si3 0.467826 0.881771 0.373032
Si Si4 0.625992 0.617848 0.847601
Si Si5 0.678618 0.117151 0.000874
O O1 0.165303 0.181583 0.242272
O O2 0.025207 0.315372 0.280533
O O3 0.106032 0.315474 0.078884
O O4 0.987966 0.161651 0.132103
O O5 0.181285 0.182777 0.747762
O O6 0.156333 0.365056 0.648144
O O7 0.161268 0.346823 0.870443
O O8 0.500000 0.842311 0.500000
O O9 0.498410 0.000000 0.358885
O O10 0.618309 0.500000 0.808134
O O11 0.699504 0.630720 0.963317
O O12 0.643598 0.000000 0.013827
#
# Coordination Sequence:
#
# PCOD8098998 Si02
#       5
#     8   8   8   8   8
#     4  10  20  36  58  80 109 143 177 215 266 320
#     4  10  21  36  54  79 109 139 178 221 264 317
#     4  10  22  39  57  79 106 139 182 227 267 309
#     4   9  19  33  50  76 110 141 172 212 259 316
#     4  10  20  35  54  81 113 142 174 213 265 324
#
# _framework density 20.37668
#
# number of rings (size 3 to 8) (size 9 to 14) (size 15 to 20)
#    0.000    2.200    0.000    3.600    0.000   10.400 
#    0.000   11.000    0.000   10.800    0.000    0.000 
#    0.000    0.000    0.000    0.000    0.000    0.000 
#
# Total GULP energy -247952.912817 kJ/mol
# GULP energy per Si atom -12397.645641 kJ/mol
# Density = 2.033030 g / cm^3
# Si number density = 20.376680 Si / 1000 Ang^3
#
#
#
# Elastic Constant Matrix: (Units=GPa)
#
#
# Indices 1 2 3 4 5 6 
#
# 1 99.7013 30.3622 32.1420 0.0000 12.3694 0.0000
# 2 30.3622 97.1155 38.1311 0.0000 4.3848 0.0000
# 3 32.1420 38.1311 96.1867 0.0000 22.9075 0.0000
# 4 0.0000 0.0000 0.0000 22.1900 0.0000 7.9879
# 5 12.3694 4.3848 22.9075 0.0000 22.0893 0.0000
# 6 0.0000 0.0000 0.0000 7.9879 0.0000 30.9543
#
#
#
# Elastic Compliance Matrix: (Units=1/GPa)
#
#
# Indices 1 2 3 4 5 6 
#
# 1 0.012023 -0.002824 -0.001897 0.000000 -0.004205 0.000000
# 2 -0.002824 0.013059 -0.005302 0.000000 0.004488 0.000000
# 3 -0.001897 -0.005302 0.016770 0.000000 -0.015277 0.000000
# 4 0.000000 0.000000 0.000000 0.049680 0.000000 -0.012820
# 5 -0.004205 0.004488 -0.015277 0.000000 0.062578 0.000000
# 6 0.000000 0.000000 0.000000 -0.012820 0.000000 0.035614
#
#
# Mechanical properties :
#
#
# Convention : Reuss Voigt Hill
#
# Bulk Modulus (GPa) = 45.85692 54.91933 50.38813
# Shear Modulus (GPa) = 23.03723 27.87126 25.45425
#
# Velocity S-wave (km/s) = 3.36604 3.70239 3.53822
# Velocity P-wave (km/s) = 6.13681 6.72960 6.44003
#
# Compressibility (1/GPa) = 0.02180696
#
# Stress axis : x y z
#
# Youngs Moduli (GPa) = 83.17244 76.57448 59.62886
#
# Poissons Ratio (x) = 0.21628 0.11309
# Poissons Ratio (y) = 0.23491 0.31615
# Poissons Ratio (z) = 0.15774 0.40600
#
# Static dielectric constant tensor:
#      x y z
#    x 4.023640 0.000000 0.426940 
#    y 0.000000 3.918160 0.000000 
#    z 0.426940 0.000000 3.446190 
# 
# 
# High freq. dielectric constant tensor:
#      x y z
#    x 1.806140 0.000000 0.029530 
#    y 0.000000 1.803630 0.000000 
#    z 0.029530 0.000000 1.758560 
# 
# From -- ./inp_files/129311.got.cif
#   From: 2010.06.25/outbox.cif.g09.slc.cpg/sg12_65_cif.got.tgz:129311.got - 2010.06.28 00:19:55.
