data_PCOD8098225
_publ_section_title
;
Structure prediction by ZEFSAII (Michael W. Deem and Ramdas Pophale) SiO2 
 PCOD8098225
Probable space group: C 2/M
;
_chemical_formula_sum "Si O2"
_cell_formula_units_Z 52
_cell_length_a 15.191597
_cell_length_b 18.624060
_cell_length_c 18.029336
_cell_angle_alpha 90.000000
_cell_angle_beta 148.200386
_cell_angle_gamma 90.000000
_cell_volume 2687.985935
_symmetry_space_group_name_H-M "C 2/M"
_symmetry_group_IT_number 12
_symmetry_cell_setting 'monoclinic'
loop_
_space_group_symop_operation_xyz
x,y,z
-x,y,-z
-x,-y,-z
x,-y,z
1/2+x,1/2+y,z
1/2-x,1/2+y,-z
1/2-x,1/2-y,-z
1/2+x,1/2-y,z
loop_
_atom_site_type_symbol
_atom_site_label
_atom_site_fract_x
_atom_site_fract_y
_atom_site_fract_z
Si Si1 0.500000 0.324285 0.500000
Si Si2 0.305673 0.819648 0.495542
Si Si3 0.294317 0.720004 0.733840
Si Si4 0.404388 0.806393 0.007414
Si Si5 0.599388 0.916895 0.873599
Si Si6 0.221886 0.918727 0.557626
Si Si7 0.815982 0.681534 0.198412
O O1 0.645620 0.277071 0.640711
O O2 0.577155 0.373301 0.491673
O O3 0.250000 0.750000 0.500000
O O4 0.236010 0.824035 0.362575
O O5 0.239703 0.891898 0.486273
O O6 0.503152 0.815734 0.635995
O O7 0.469986 0.760702 0.850810
O O8 0.301722 0.668517 0.812703
O O9 0.347659 0.877134 0.012249
O O10 0.500000 0.828464 0.000000
O O11 0.239923 0.758086 0.876187
O O12 0.399437 0.909199 0.725253
O O13 0.693378 0.880910 0.870258
O O14 0.654315 0.000000 0.916562
O O15 0.161276 0.000000 0.513322
#
# Coordination Sequence:
#
# PCOD8098225 Si02
#       7
#     4   8   8   8   8   8   8
#     4  12  17  32  56  76 111 140 180 218 267 320
#     4  11  18  33  56  80 111 139 181 226 266 316
#     4  11  19  33  57  86 108 137 184 229 268 310
#     4  10  21  35  56  81 108 138 183 228 271 320
#     4  10  20  36  54  77 112 148 181 217 273 331
#     4  10  21  33  51  81 114 148 176 216 272 328
#     4  10  20  34  56  82 106 142 183 225 266 319
#
# _framework density 19.345338999999999
#
# number of rings (size 3 to 8) (size 9 to 14) (size 15 to 20)
#    0.000    1.538    4.615    1.615    0.000    0.308 
#    0.000    0.769    0.000   15.231    0.000    0.000 
#    0.000    0.000    0.000    0.000    0.000    0.000 
#
# Total GULP energy -322276.596989 kJ/mol
# GULP energy per Si atom -12395.253730 kJ/mol
# Density = 1.930131 g / cm^3
# Si number density = 19.345339 Si / 1000 Ang^3
#
#
#
# Elastic Constant Matrix: (Units=GPa)
#
#
# Indices 1 2 3 4 5 6 
#
# 1 106.7388 54.6169 27.5839 0.0058 -22.9665 0.0008
# 2 54.6169 69.7730 16.4675 -0.0106 -15.4493 -0.0042
# 3 27.5839 16.4675 53.5708 0.0420 -21.8619 0.0406
# 4 0.0058 -0.0106 0.0420 10.4631 0.0156 -12.0148
# 5 -22.9665 -15.4493 -21.8619 0.0156 32.1846 0.0112
# 6 0.0008 -0.0042 0.0406 -12.0148 0.0112 17.0002
#
#
#
# Elastic Compliance Matrix: (Units=1/GPa)
#
#
# Indices 1 2 3 4 5 6 
#
# 1 0.017159 -0.011659 -0.003512 -0.000061 0.004263 -0.000041
# 2 -0.011659 0.024199 -0.000125 0.000171 0.003211 0.000125
# 3 -0.003512 -0.000125 0.026935 -0.001142 0.015731 -0.000881
# 4 -0.000061 0.000171 -0.001142 0.507234 -0.001107 0.358489
# 5 0.004263 0.003211 0.015731 -0.001107 0.046340 -0.000850
# 6 -0.000041 0.000125 -0.000881 0.358489 -0.000850 0.312186
#
#
# Mechanical properties :
#
#
# Convention : Reuss Voigt Hill
#
# Bulk Modulus (GPa) = 26.52453 47.49104 37.00779
# Shear Modulus (GPa) = 5.11659 20.69052 12.90356
#
# Velocity S-wave (km/s) = 1.62807 3.27392 2.58546
# Velocity P-wave (km/s) = 4.15632 6.23649 5.29947
#
# Compressibility (1/GPa) = 0.03770095
#
# Stress axis : x y z
#
# Youngs Moduli (GPa) = 58.27754 41.32322 37.12678
#
# Poissons Ratio (x) = 0.48180 0.13038
# Poissons Ratio (y) = 0.67947 0.00465
# Poissons Ratio (z) = 0.20466 0.00517
#
# Static dielectric constant tensor:
#      x y z
#    x 3.732290 -0.000030 -0.032060 
#    y -0.000030 3.432300 -0.000020 
#    z -0.032060 -0.000020 3.614180 
# 
# 
# High freq. dielectric constant tensor:
#      x y z
#    x 1.767640 0.000000 -0.005240 
#    y 0.000000 1.721530 0.000000 
#    z -0.005240 0.000000 1.746410 
# 
# From -- ./inp_files/272231.got.cif
#   From: 2010.06.25/outbox.cif.g09.slc.cpg/sg12_137_cif.got.tgz:272231.got - 2010.06.28 00:19:55.
