data_PCOD8098882
_publ_section_title
;
Structure prediction by ZEFSAII (Michael W. Deem and Ramdas Pophale) SiO2 
 PCOD8098882
Probable space group: C 2/M
;
_chemical_formula_sum "Si O2"
_cell_formula_units_Z 48
_cell_length_a 20.312320
_cell_length_b 8.846501
_cell_length_c 15.750421
_cell_angle_alpha 90.000000
_cell_angle_beta 108.742360
_cell_angle_gamma 90.000000
_cell_volume 2680.160586
_symmetry_space_group_name_H-M "C 2/M"
_symmetry_group_IT_number 12
_symmetry_cell_setting 'monoclinic'
loop_
_space_group_symop_operation_xyz
x,y,z
-x,y,-z
-x,-y,-z
x,-y,z
1/2+x,1/2+y,z
1/2-x,1/2+y,-z
1/2-x,1/2-y,-z
1/2+x,1/2-y,z
loop_
_atom_site_type_symbol
_atom_site_label
_atom_site_fract_x
_atom_site_fract_y
_atom_site_fract_z
Si Si1 0.014365 0.678972 0.757719
Si Si2 0.158092 0.677993 0.898298
Si Si3 0.960730 0.822754 0.570206
Si Si4 0.869580 0.677825 0.765472
Si Si5 0.679681 0.820871 0.437242
Si Si6 0.293955 0.820981 0.898528
O O1 0.012767 0.500000 0.740457
O O2 0.083507 0.732574 0.834234
O O3 0.009510 0.761462 0.665607
O O4 0.949701 0.729317 0.790093
O O5 0.166842 0.500000 0.893106
O O6 0.216345 0.755607 0.864528
O O7 0.166099 0.729702 0.999421
O O8 0.885888 0.741714 0.537449
O O9 0.000000 0.783680 0.500000
O O10 0.948532 0.000000 0.576730
O O11 0.866426 0.500000 0.774282
O O12 0.827596 0.727809 0.664239
O O13 0.835316 0.749913 0.835492
O O14 0.750000 0.750000 0.500000
O O15 0.681528 0.000000 0.448824
O O16 0.288696 0.000000 0.890447
#
# Coordination Sequence:
#
# PCOD8098882 Si02
#       6
#     8   8   8   8   8   8
#     4   9  18  33  51  72  98 126 161 204 247 292
#     4   9  18  31  48  72  99 126 159 199 241 288
#     4  10  21  36  53  74 100 131 169 209 248 295
#     4   8  16  31  50  71  94 124 162 201 238 282
#     4  10  20  35  54  76 103 132 166 207 250 298
#     4   9  17  31  50  70  96 129 161 196 240 288
#
# _framework density 17.909374
#
# number of rings (size 3 to 8) (size 9 to 14) (size 15 to 20)
#    0.000    2.833    0.000    2.000    0.000    4.000 
#    0.000   12.500    0.000    0.000    0.000    9.333 
#    0.000    0.000    0.000    0.000    0.000    0.000 
#
# Total GULP energy -297572.832362 kJ/mol
# GULP energy per Si atom -12398.868015 kJ/mol
# Density = 1.786861 g / cm^3
# Si number density = 17.909374 Si / 1000 Ang^3
#
#
#
# Elastic Constant Matrix: (Units=GPa)
#
#
# Indices 1 2 3 4 5 6 
#
# 1 170.4666 45.5643 116.3877 0.0000 3.0323 0.0000
# 2 45.5643 40.1246 33.8858 0.0000 0.3135 0.0000
# 3 116.3877 33.8858 121.9067 0.0000 1.2579 0.0000
# 4 0.0000 0.0000 0.0000 23.9427 0.0000 2.2619
# 5 3.0323 0.3135 1.2579 0.0000 43.5934 0.0000
# 6 0.0000 0.0000 0.0000 2.2619 0.0000 30.8446
#
#
#
# Elastic Compliance Matrix: (Units=1/GPa)
#
#
# Indices 1 2 3 4 5 6 
#
# 1 0.018662 -0.008031 -0.015577 0.000000 -0.000791 0.000000
# 2 -0.008031 0.036024 -0.002349 0.000000 0.000367 0.000000
# 3 -0.015577 -0.002349 0.023723 0.000000 0.000416 0.000000
# 4 0.000000 0.000000 0.000000 0.042058 0.000000 -0.003084
# 5 -0.000791 0.000367 0.000416 0.000000 0.022980 0.000000
# 6 0.000000 0.000000 0.000000 -0.003084 0.000000 0.032647
#
#
# Mechanical properties :
#
#
# Convention : Reuss Voigt Hill
#
# Bulk Modulus (GPa) = 37.74396 80.46372 59.10384
# Shear Modulus (GPa) = 21.11134 28.78682 24.94908
#
# Velocity S-wave (km/s) = 3.43707 4.01354 3.73644
# Velocity P-wave (km/s) = 6.07223 8.15499 7.18943
#
# Compressibility (1/GPa) = 0.02649431
#
# Stress axis : x y z
#
# Youngs Moduli (GPa) = 53.58435 27.75949 42.15268
#
# Poissons Ratio (x) = 0.22294 0.65660
# Poissons Ratio (y) = 0.43035 0.09904
# Poissons Ratio (z) = 0.83467 0.06522
#
# Static dielectric constant tensor:
#      x y z
#    x 3.532900 0.000000 -0.071730 
#    y 0.000000 3.143960 0.000000 
#    z -0.071730 0.000000 3.517420 
# 
# 
# High freq. dielectric constant tensor:
#      x y z
#    x 1.700710 0.000000 -0.000300 
#    y 0.000000 1.677460 0.000000 
#    z -0.000300 0.000000 1.694250 
# 
# From -- ./inp_files/229889.got.cif
#   From: 2010.06.25/outbox.cif.g09.slc.cpg/sg12_115_cif.got.tgz:229889.got - 2010.06.28 00:19:55.
