data_PCOD8098668
_publ_section_title
;
Structure prediction by ZEFSAII (Michael W. Deem and Ramdas Pophale) SiO2 
 PCOD8098668
Probable space group: C 2/M
;
_chemical_formula_sum "Si O2"
_cell_formula_units_Z 64
_cell_length_a 18.447075
_cell_length_b 14.991536
_cell_length_c 16.016611
_cell_angle_alpha 90.000000
_cell_angle_beta 46.149148
_cell_angle_gamma 90.000000
_cell_volume 3194.237891
_symmetry_space_group_name_H-M "C 2/M"
_symmetry_group_IT_number 12
_symmetry_cell_setting 'monoclinic'
loop_
_space_group_symop_operation_xyz
x,y,z
-x,y,-z
-x,-y,-z
x,-y,z
1/2+x,1/2+y,z
1/2-x,1/2+y,-z
1/2-x,1/2-y,-z
1/2+x,1/2-y,z
loop_
_atom_site_type_symbol
_atom_site_label
_atom_site_fract_x
_atom_site_fract_y
_atom_site_fract_z
Si Si1 0.657524 0.898426 0.046060
Si Si2 0.737597 0.751915 0.246434
Si Si3 0.853278 0.899852 0.781770
Si Si4 0.131894 0.598652 0.249276
Si Si5 0.268708 0.301736 0.399637
Si Si6 0.566779 0.099316 0.520120
Si Si7 0.927656 0.756978 0.983148
Si Si8 0.518786 0.605553 0.781064
O O1 0.672777 0.865479 0.128569
O O2 0.577339 0.832201 0.068575
O O3 0.615550 0.000000 0.075185
O O4 0.766596 0.891717 0.919210
O O5 0.670972 0.665434 0.275930
O O6 0.667979 0.839912 0.297767
O O7 0.779823 0.739515 0.307250
O O8 0.820707 0.774872 0.110847
O O9 0.957094 0.874397 0.745230
O O10 0.858929 0.000000 0.740661
O O11 0.174523 0.500000 0.232681
O O12 0.010163 0.598352 0.339889
O O13 0.250000 0.250000 0.500000
O O14 0.168070 0.356236 0.468188
O O15 0.367256 0.363430 0.326781
O O16 0.500000 0.145806 0.500000
O O17 0.594846 0.000000 0.467035
O O18 0.967724 0.841794 0.898922
O O19 0.000000 0.732254 0.000000
O O20 0.516310 0.500000 0.804422
#
# Coordination Sequence:
#
# PCOD8098668 Si02
#       8
#     8   8   8   8   8   8   8   8
#     4   9  19  36  61  94 127 159 202 256 308 369
#     4  11  22  40  63  92 122 163 207 262 306 371
#     4   9  20  40  66  91 120 162 208 253 309 367
#     4  10  20  34  61  92 118 150 200 258 311 361
#     4  12  27  41  60  88 123 167 209 259 314 374
#     4  10  21  39  60  84 112 153 205 255 301 355
#     4  11  22  37  59  93 131 166 206 247 314 385
#     4  11  24  43  64  93 134 171 205 260 320 379
#
# _framework density 20.036079000000001
#
# number of rings (size 3 to 8) (size 9 to 14) (size 15 to 20)
#    0.000    1.625    2.500    1.875    3.500    4.500 
#    0.000    1.250    0.000    1.500    0.000    0.000 
#    0.000    0.000    0.000    0.000    0.000    0.000 
#
# Total GULP energy -396562.589336 kJ/mol
# GULP energy per Si atom -12392.580917 kJ/mol
# Density = 1.999048 g / cm^3
# Si number density = 20.036079 Si / 1000 Ang^3
#
#
#
# Elastic Constant Matrix: (Units=GPa)
#
#
# Indices 1 2 3 4 5 6 
#
# 1 140.0756 79.9381 40.5053 0.0000 3.2027 0.0000
# 2 79.9381 109.8646 48.8814 0.0000 5.9949 0.0000
# 3 40.5053 48.8814 75.8505 0.0000 11.7035 0.0000
# 4 0.0000 0.0000 0.0000 17.5794 0.0000 -7.6301
# 5 3.2027 5.9949 11.7035 0.0000 36.4768 0.0000
# 6 0.0000 0.0000 0.0000 -7.6301 0.0000 31.1866
#
#
#
# Elastic Compliance Matrix: (Units=1/GPa)
#
#
# Indices 1 2 3 4 5 6 
#
# 1 0.012293 -0.008431 -0.001240 0.000000 0.000704 0.000000
# 2 -0.008431 0.018555 -0.007469 0.000000 0.000087 0.000000
# 3 -0.001240 -0.007469 0.019414 0.000000 -0.004893 0.000000
# 4 0.000000 0.000000 0.000000 0.063643 0.000000 0.015571
# 5 0.000704 0.000087 -0.004893 0.000000 0.028908 0.000000
# 6 0.000000 0.000000 0.000000 0.015571 0.000000 0.035875
#
#
# Mechanical properties :
#
#
# Convention : Reuss Voigt Hill
#
# Bulk Modulus (GPa) = 62.56859 73.82670 68.19764
# Shear Modulus (GPa) = 22.90479 27.47961 25.19220
#
# Velocity S-wave (km/s) = 3.38476 3.70740 3.54975
# Velocity P-wave (km/s) = 6.82431 7.43326 7.13528
#
# Compressibility (1/GPa) = 0.01598246
#
# Stress axis : x y z
#
# Youngs Moduli (GPa) = 81.34770 53.89406 51.50930
#
# Poissons Ratio (x) = 0.45439 0.06386
# Poissons Ratio (y) = 0.68586 0.38471
# Poissons Ratio (z) = 0.10086 0.40252
#
# Static dielectric constant tensor:
#      x y z
#    x 3.815980 0.000000 -0.012720 
#    y 0.000000 3.657670 0.000000 
#    z -0.012720 0.000000 3.880330 
# 
# 
# High freq. dielectric constant tensor:
#      x y z
#    x 1.781360 0.000000 -0.005730 
#    y 0.000000 1.775670 0.000000 
#    z -0.005730 0.000000 1.789280 
# 
# From -- ./inp_files/225693.got.cif
#   From: 2010.06.25/outbox.cif.g09.slc.cpg/sg12_113_cif.got.tgz:225693.got - 2010.06.28 00:19:55.
