data_PCOD8098125
_publ_section_title
;
Structure prediction by ZEFSAII (Michael W. Deem and Ramdas Pophale) SiO2 
 PCOD8098125
Probable space group: C 2/M
;
_chemical_formula_sum "Si O2"
_cell_formula_units_Z 40
_cell_length_a 5.172169
_cell_length_b 20.248380
_cell_length_c 18.329374
_cell_angle_alpha 90.000000
_cell_angle_beta 86.757161
_cell_angle_gamma 90.000000
_cell_volume 1916.525713
_symmetry_space_group_name_H-M "C 2/M"
_symmetry_group_IT_number 12
_symmetry_cell_setting 'monoclinic'
loop_
_space_group_symop_operation_xyz
x,y,z
-x,y,-z
-x,-y,-z
x,-y,z
1/2+x,1/2+y,z
1/2-x,1/2+y,-z
1/2-x,1/2-y,-z
1/2+x,1/2-y,z
loop_
_atom_site_type_symbol
_atom_site_label
_atom_site_fract_x
_atom_site_fract_y
_atom_site_fract_z
Si Si1 0.348938 0.074214 0.076643
Si Si2 0.644839 0.290147 0.124365
Si Si3 0.908786 0.146605 0.730265
Si Si4 0.931569 0.208891 0.577638
Si Si5 0.590728 0.926493 0.224766
O O1 0.147277 0.134851 0.091191
O O2 0.555401 0.078501 0.138497
O O3 0.216388 0.000000 0.079987
O O4 0.500000 0.085064 0.000000
O O5 0.396210 0.252093 0.096688
O O6 0.650075 0.292777 0.213323
O O7 0.661026 0.099731 0.729383
O O8 0.982205 0.164956 0.647161
O O9 0.154767 0.112672 0.761212
O O10 0.131339 0.270107 0.580607
O O11 0.000000 0.171420 0.500000
O O12 0.634547 0.000000 0.251736
#
# Coordination Sequence:
#
# PCOD8098125 Si02
#       5
#     8   8   8   8   8
#     4   9  20  40  62  85 116 156 201 246 295 354
#     4  11  22  37  58  86 116 148 188 238 294 345
#     4  11  20  36  59  82 115 151 187 234 289 351
#     4  10  20  34  55  84 115 147 185 230 283 346
#     4  10  21  37  59  84 109 147 197 242 284 338
#
# _framework density 20.871100999999999
#
# number of rings (size 3 to 8) (size 9 to 14) (size 15 to 20)
#    0.000    1.800    0.000    5.400    0.000    1.600 
#    0.000    9.000    0.000   31.200    0.000    0.000 
#    0.000    0.000    0.000    0.000    0.000    0.000 
#
# Total GULP energy -247885.437440 kJ/mol
# GULP energy per Si atom -12394.271872 kJ/mol
# Density = 2.082360 g / cm^3
# Si number density = 20.871101 Si / 1000 Ang^3
#
#
#
# Elastic Constant Matrix: (Units=GPa)
#
#
# Indices 1 2 3 4 5 6 
#
# 1 129.2797 49.3175 18.3905 0.0000 -4.5606 0.0000
# 2 49.3175 115.7194 37.7607 0.0000 -14.1583 0.0000
# 3 18.3905 37.7607 144.0383 0.0000 -20.8421 0.0000
# 4 0.0000 0.0000 0.0000 19.6806 0.0000 -1.2704
# 5 -4.5606 -14.1583 -20.8421 0.0000 23.0019 0.0000
# 6 0.0000 0.0000 0.0000 -1.2704 0.0000 26.8383
#
#
#
# Elastic Compliance Matrix: (Units=1/GPa)
#
#
# Indices 1 2 3 4 5 6 
#
# 1 0.009254 -0.003961 -0.000265 0.000000 -0.000843 0.000000
# 2 -0.003961 0.011495 -0.001839 0.000000 0.004624 0.000000
# 3 -0.000265 -0.001839 0.008387 0.000000 0.006415 0.000000
# 4 0.000000 0.000000 0.000000 0.050967 0.000000 0.002413
# 5 -0.000843 0.004624 0.006415 0.000000 0.051966 0.000000
# 6 0.000000 0.000000 0.000000 0.002413 0.000000 0.037374
#
#
# Mechanical properties :
#
#
# Convention : Reuss Voigt Hill
#
# Bulk Modulus (GPa) = 58.79976 66.66386 62.73181
# Shear Modulus (GPa) = 26.70340 32.80874 29.75607
#
# Velocity S-wave (km/s) = 3.58081 3.96911 3.77995
# Velocity P-wave (km/s) = 6.73277 7.28115 7.01233
#
# Compressibility (1/GPa) = 0.01700687
#
# Stress axis : x y z
#
# Youngs Moduli (GPa) = 108.06132 86.99220 119.23589
#
# Poissons Ratio (x) = 0.34453 0.03163
# Poissons Ratio (y) = 0.42798 0.21925
# Poissons Ratio (z) = 0.02867 0.15996
#
# Static dielectric constant tensor:
#      x y z
#    x 3.771700 0.000000 -0.175980 
#    y 0.000000 3.935150 0.000000 
#    z -0.175980 0.000000 4.064290 
# 
# 
# High freq. dielectric constant tensor:
#      x y z
#    x 1.827040 0.000000 -0.005580 
#    y 0.000000 1.801520 0.000000 
#    z -0.005580 0.000000 1.813600 
# 
# From -- ./inp_files/252557.got.cif
#   From: 2010.06.25/outbox.cif.g09.slc.cpg/sg12_127_cif.got.tgz:252557.got - 2010.06.28 00:19:55.
