data_PCOD8098222
_publ_section_title
;
Structure prediction by ZEFSAII (Michael W. Deem and Ramdas Pophale) SiO2 
 PCOD8098222
Probable space group: C 2/M
;
_chemical_formula_sum "Si O2"
_cell_formula_units_Z 52
_cell_length_a 8.070408
_cell_length_b 19.499369
_cell_length_c 20.235623
_cell_angle_alpha 90.000000
_cell_angle_beta 56.335256
_cell_angle_gamma 90.000000
_cell_volume 2650.391999
_symmetry_space_group_name_H-M "C 2/M"
_symmetry_group_IT_number 12
_symmetry_cell_setting 'monoclinic'
loop_
_space_group_symop_operation_xyz
x,y,z
-x,y,-z
-x,-y,-z
x,-y,z
1/2+x,1/2+y,z
1/2-x,1/2+y,-z
1/2-x,1/2-y,-z
1/2+x,1/2-y,z
loop_
_atom_site_type_symbol
_atom_site_label
_atom_site_fract_x
_atom_site_fract_y
_atom_site_fract_z
Si Si1 0.856785 0.575154 0.331464
Si Si2 0.118262 0.162483 0.730455
Si Si3 0.331477 0.822769 0.904101
Si Si4 0.784083 0.075832 0.171229
Si Si5 0.000000 0.286175 0.000000
Si Si6 0.764808 0.306074 0.262009
Si Si7 0.427612 0.920143 0.586153
O O1 0.749690 0.500000 0.349277
O O2 0.730232 0.636177 0.326330
O O3 0.064761 0.569300 0.248354
O O4 0.897366 0.593201 0.399132
O O5 0.896427 0.181713 0.758632
O O6 0.090954 0.124149 0.806817
O O7 0.260321 0.229509 0.703953
O O8 0.221687 0.115095 0.652840
O O9 0.221538 0.890908 0.901005
O O10 0.514421 0.807194 0.815927
O O11 0.177217 0.760323 0.932067
O O12 0.409462 0.833670 0.961801
O O13 0.881286 0.000000 0.144546
O O14 0.500000 0.890233 0.500000
O O15 0.377634 0.000000 0.591527
#
# Coordination Sequence:
#
# PCOD8098222 Si02
#       7
#     8   8   8   8   4   8   8
#     4   8  16  32  53  76 103 135 174 217 259 311
#     4  11  20  32  53  80 106 135 179 223 260 311
#     4  10  20  35  55  79 107 138 174 217 266 318
#     4   9  18  34  54  75 102 138 177 217 262 307
#     4  10  20  34  56  82 106 138 176 214 264 328
#     4  11  21  34  55  81 107 136 175 225 269 304
#     4   9  18  35  56  77 107 145 177 211 264 322
#
# _framework density 19.619737000000001
#
# number of rings (size 3 to 8) (size 9 to 14) (size 15 to 20)
#    0.000    2.308    0.000    6.000    0.000    2.462 
#    0.000    4.615    0.000    2.769    0.000    0.000 
#    0.000    0.000    0.000    0.000    0.000    0.000 
#
# Total GULP energy -322305.104378 kJ/mol
# GULP energy per Si atom -12396.350168 kJ/mol
# Density = 1.957508 g / cm^3
# Si number density = 19.619737 Si / 1000 Ang^3
#
#
#
# Elastic Constant Matrix: (Units=GPa)
#
#
# Indices 1 2 3 4 5 6 
#
# 1 120.9500 67.6533 38.4584 0.0000 24.3206 0.0000
# 2 67.6533 130.6702 37.0544 0.0000 26.3457 0.0000
# 3 38.4584 37.0544 77.1508 0.0000 23.9323 0.0000
# 4 0.0000 0.0000 0.0000 19.2877 0.0000 9.5351
# 5 24.3206 26.3457 23.9323 0.0000 34.1118 0.0000
# 6 0.0000 0.0000 0.0000 9.5351 0.0000 32.7993
#
#
#
# Elastic Compliance Matrix: (Units=1/GPa)
#
#
# Indices 1 2 3 4 5 6 
#
# 1 0.012669 -0.005121 -0.002915 0.000000 -0.003032 0.000000
# 2 -0.005121 0.011630 -0.001763 0.000000 -0.004094 0.000000
# 3 -0.002915 -0.001763 0.018143 0.000000 -0.009289 0.000000
# 4 0.000000 0.000000 0.000000 0.060548 0.000000 -0.017602
# 5 -0.003032 -0.004094 -0.009289 0.000000 0.041156 0.000000
# 6 0.000000 0.000000 0.000000 -0.017602 0.000000 0.035606
#
#
# Mechanical properties :
#
#
# Convention : Reuss Voigt Hill
#
# Bulk Modulus (GPa) = 43.77644 68.34480 56.06062
# Shear Modulus (GPa) = 24.15876 29.61341 26.88608
#
# Velocity S-wave (km/s) = 3.51287 3.88927 3.70585
# Velocity P-wave (km/s) = 6.23013 7.42152 6.85177
#
# Compressibility (1/GPa) = 0.02284334
#
# Stress axis : x y z
#
# Youngs Moduli (GPa) = 78.93218 85.98704 55.11829
#
# Poissons Ratio (x) = 0.44037 0.16067
# Poissons Ratio (y) = 0.40424 0.09716
# Poissons Ratio (z) = 0.23009 0.15157
#
# Static dielectric constant tensor:
#      x y z
#    x 3.613430 0.000000 0.340950 
#    y 0.000000 3.934130 0.000000 
#    z 0.340950 0.000000 3.430480 
# 
# 
# High freq. dielectric constant tensor:
#      x y z
#    x 1.760860 0.000000 0.022440 
#    y 0.000000 1.764350 0.000000 
#    z 0.022440 0.000000 1.737000 
# 
# From -- ./inp_files/301069.got.cif
#   From: 2010.06.25/outbox.cif.g09.slc.cpg/sg12_151_cif.got.tgz:301069.got - 2010.06.28 00:19:55.
