data_PCOD8098293
_publ_section_title
;
Structure prediction by ZEFSAII (Michael W. Deem and Ramdas Pophale) SiO2 
 PCOD8098293
Probable space group: C 2/M
;
_chemical_formula_sum "Si O2"
_cell_formula_units_Z 56
_cell_length_a 20.244037
_cell_length_b 8.907307
_cell_length_c 16.010437
_cell_angle_alpha 90.000000
_cell_angle_beta 81.273027
_cell_angle_gamma 90.000000
_cell_volume 2853.575598
_symmetry_space_group_name_H-M "C 2/M"
_symmetry_group_IT_number 12
_symmetry_cell_setting 'monoclinic'
loop_
_space_group_symop_operation_xyz
x,y,z
-x,y,-z
-x,-y,-z
x,-y,z
1/2+x,1/2+y,z
1/2-x,1/2+y,-z
1/2-x,1/2-y,-z
1/2+x,1/2-y,z
loop_
_atom_site_type_symbol
_atom_site_label
_atom_site_fract_x
_atom_site_fract_y
_atom_site_fract_z
Si Si1 0.930102 0.174788 0.468907
Si Si2 0.088008 0.177974 0.179967
Si Si3 0.074044 0.324023 0.009414
Si Si4 0.799286 0.322433 0.557225
Si Si5 0.646930 0.828752 0.829155
Si Si6 0.448854 0.677303 0.278228
Si Si7 0.288848 0.326993 0.732570
O O1 0.874756 0.269247 0.528032
O O2 0.935686 0.237264 0.373823
O O3 0.000000 0.202691 0.500000
O O4 0.909820 0.000000 0.475236
O O5 0.101108 0.242394 0.085966
O O6 0.146514 0.232238 0.230394
O O7 0.018442 0.242853 0.229472
O O8 0.087397 0.000000 0.173385
O O9 0.073022 0.500000 0.027511
O O10 0.124554 0.279170 0.925692
O O11 0.000000 0.266159 0.000000
O O12 0.794204 0.500000 0.550349
O O13 0.750000 0.250000 0.500000
O O14 0.776564 0.272970 0.653521
O O15 0.612105 0.725923 0.767352
O O16 0.726210 0.808469 0.806667
O O17 0.624736 0.000000 0.816746
O O18 0.454009 0.500000 0.279426
O O19 0.298026 0.500000 0.703094
#
# Coordination Sequence:
#
# PCOD8098293 Si02
#       7
#     8   8   8   8   8   8   8
#     4  10  21  39  62  87 119 156 195 245 301 354
#     4  10  21  37  59  86 116 151 190 237 289 342
#     4  10  20  36  57  84 118 153 189 233 289 347
#     4  12  25  41  62  88 120 159 202 247 298 358
#     4  10  21  37  58  82 111 150 192 236 285 342
#     4  10  20  34  56  84 111 145 190 236 284 340
#     4  10  22  41  61  84 116 153 195 242 295 351
#
# _framework density 19.624502
#
# number of rings (size 3 to 8) (size 9 to 14) (size 15 to 20)
#    0.000    1.714    1.429    3.000    0.000    8.000 
#    0.000    1.429    0.000    0.000    0.000    0.000 
#    0.000    0.000    0.000    0.000    0.000    0.000 
#
# Total GULP energy -347349.451145 kJ/mol
# GULP energy per Si atom -12405.337541 kJ/mol
# Density = 1.957984 g / cm^3
# Si number density = 19.624502 Si / 1000 Ang^3
#
#
#
# Elastic Constant Matrix: (Units=GPa)
#
#
# Indices 1 2 3 4 5 6 
#
# 1 96.3635 29.2091 34.9534 0.0000 -0.8596 0.0000
# 2 29.2091 57.0933 34.2236 0.0000 0.2418 0.0000
# 3 34.9534 34.2236 123.8728 0.0000 -4.1287 0.0000
# 4 0.0000 0.0000 0.0000 32.8914 0.0000 0.6674
# 5 -0.8596 0.2418 -4.1287 0.0000 39.7198 0.0000
# 6 0.0000 0.0000 0.0000 0.6674 0.0000 23.8806
#
#
#
# Elastic Compliance Matrix: (Units=1/GPa)
#
#
# Indices 1 2 3 4 5 6 
#
# 1 0.012743 -0.005233 -0.002147 0.000000 0.000084 0.000000
# 2 -0.005233 0.023162 -0.004948 0.000000 -0.000769 0.000000
# 3 -0.002147 -0.004948 0.010080 0.000000 0.001031 0.000000
# 4 0.000000 0.000000 0.000000 0.030420 0.000000 -0.000850
# 5 0.000084 -0.000769 0.001031 0.000000 0.025290 0.000000
# 6 0.000000 0.000000 0.000000 -0.000850 0.000000 0.041899
#
#
# Mechanical properties :
#
#
# Convention : Reuss Voigt Hill
#
# Bulk Modulus (GPa) = 46.88526 52.67797 49.78161
# Shear Modulus (GPa) = 28.51281 31.22791 29.87036
#
# Velocity S-wave (km/s) = 3.81585 3.99340 3.90564
# Velocity P-wave (km/s) = 6.58463 6.94005 6.76467
#
# Compressibility (1/GPa) = 0.02132867
#
# Stress axis : x y z
#
# Youngs Moduli (GPa) = 78.47408 43.17493 99.20475
#
# Poissons Ratio (x) = 0.22592 0.21302
# Poissons Ratio (y) = 0.41062 0.49089
# Poissons Ratio (z) = 0.16850 0.21364
#
# Static dielectric constant tensor:
#      x y z
#    x 3.690700 0.000000 -0.155600 
#    y 0.000000 3.422380 0.000000 
#    z -0.155600 0.000000 3.733860 
# 
# 
# High freq. dielectric constant tensor:
#      x y z
#    x 1.774070 0.000000 -0.005860 
#    y 0.000000 1.747770 0.000000 
#    z -0.005860 0.000000 1.777660 
# 
# From -- ./inp_files/230979.got.cif
#   From: 2010.06.25/outbox.cif.g09.slc.cpg/sg12_116_cif.got.tgz:230979.got - 2010.06.28 00:19:55.
