data_PCOD8098905
_publ_section_title
;
Structure prediction by ZEFSAII (Michael W. Deem and Ramdas Pophale) SiO2 
 PCOD8098905
Probable space group: C 2/M
;
_chemical_formula_sum "Si O2"
_cell_formula_units_Z 56
_cell_length_a 14.110619
_cell_length_b 9.235378
_cell_length_c 25.326836
_cell_angle_alpha 90.000000
_cell_angle_beta 121.349806
_cell_angle_gamma 90.000000
_cell_volume 2818.662381
_symmetry_space_group_name_H-M "C 2/M"
_symmetry_group_IT_number 12
_symmetry_cell_setting 'monoclinic'
loop_
_space_group_symop_operation_xyz
x,y,z
-x,y,-z
-x,-y,-z
x,-y,z
1/2+x,1/2+y,z
1/2-x,1/2+y,-z
1/2-x,1/2-y,-z
1/2+x,1/2-y,z
loop_
_atom_site_type_symbol
_atom_site_label
_atom_site_fract_x
_atom_site_fract_y
_atom_site_fract_z
Si Si1 0.686051 0.328790 0.321537
Si Si2 0.467543 0.832437 0.222145
Si Si3 0.529387 0.337649 0.425820
Si Si4 0.617936 0.333648 0.011136
Si Si5 0.181795 0.164843 0.559882
Si Si6 0.666091 0.332446 0.904207
Si Si7 0.893821 0.336667 0.313282
O O1 0.664379 0.500000 0.317802
O O2 0.580057 0.245805 0.270119
O O3 0.722536 0.271447 0.390352
O O4 0.779887 0.283656 0.306330
O O5 0.415626 0.753371 0.157321
O O6 0.383498 0.818888 0.247271
O O7 0.490602 0.000000 0.214875
O O8 0.551459 0.500000 0.413281
O O9 0.423139 0.328732 0.432340
O O10 0.638359 0.281787 0.489486
O O11 0.503386 0.247039 0.365700
O O12 0.643761 0.500000 0.033613
O O13 0.616331 0.312335 0.947972
O O14 0.500000 0.284067 0.000000
O O15 0.710947 0.233463 0.064567
O O16 0.226988 0.000000 0.570296
O O17 0.671411 0.500000 0.889135
O O18 0.915797 0.500000 0.336796
#
# Coordination Sequence:
#
# PCOD8098905 Si02
#       7
#     8   8   8   8   8   8   8
#     4  10  20  35  54  77 103 135 180 230 272 316
#     4  11  23  39  56  76 109 150 183 216 265 321
#     4   8  14  26  48  74 100 131 171 220 272 326
#     4   9  19  38  63  88 116 149 179 211 258 311
#     4   8  14  27  47  73 102 133 169 215 276 334
#     4  10  21  37  58  86 116 144 180 223 259 301
#     4   9  20  36  53  74 103 139 179 223 272 324
#
# _framework density 19.86758
#
# number of rings (size 3 to 8) (size 9 to 14) (size 15 to 20)
#    0.000    2.714    0.000    2.143    0.000    4.286 
#    0.000    9.286    0.000    0.000    0.000    0.000 
#    0.000    0.000    0.000    0.000    0.000    0.000 
#
# Total GULP energy -347142.607190 kJ/mol
# GULP energy per Si atom -12397.950257 kJ/mol
# Density = 1.982236 g / cm^3
# Si number density = 19.867580 Si / 1000 Ang^3
#
#
#
# Elastic Constant Matrix: (Units=GPa)
#
#
# Indices 1 2 3 4 5 6 
#
# 1 56.0509 23.4272 27.1090 0.0000 14.8862 0.0000
# 2 23.4272 105.2092 66.8997 0.0000 14.6298 0.0000
# 3 27.1090 66.8997 133.6405 0.0000 15.5947 0.0000
# 4 0.0000 0.0000 0.0000 44.0304 0.0000 1.0376
# 5 14.8862 14.6298 15.5947 0.0000 22.4793 0.0000
# 6 0.0000 0.0000 0.0000 1.0376 0.0000 18.9957
#
#
#
# Elastic Compliance Matrix: (Units=1/GPa)
#
#
# Indices 1 2 3 4 5 6 
#
# 1 0.023050 -0.001986 -0.002232 0.000000 -0.012423 0.000000
# 2 -0.001986 0.014567 -0.006459 0.000000 -0.003684 0.000000
# 3 -0.002232 -0.006459 0.011431 0.000000 -0.002249 0.000000
# 4 0.000000 0.000000 0.000000 0.022741 0.000000 -0.001242
# 5 -0.012423 -0.003684 -0.002249 0.000000 0.056670 0.000000
# 6 0.000000 0.000000 0.000000 -0.001242 0.000000 0.052711
#
#
# Mechanical properties :
#
#
# Convention : Reuss Voigt Hill
#
# Bulk Modulus (GPa) = 36.10913 58.86359 47.48636
# Shear Modulus (GPa) = 23.61217 28.93205 26.27211
#
# Velocity S-wave (km/s) = 3.45117 3.82022 3.64037
# Velocity P-wave (km/s) = 5.83910 7.01078 6.45159
#
# Compressibility (1/GPa) = 0.02769383
#
# Stress axis : x y z
#
# Youngs Moduli (GPa) = 43.38436 68.65014 87.47879
#
# Poissons Ratio (x) = 0.13633 0.19524
# Poissons Ratio (y) = 0.08616 0.56505
# Poissons Ratio (z) = 0.09683 0.44343
#
# Static dielectric constant tensor:
#      x y z
#    x 3.579240 0.000000 -0.053110 
#    y 0.000000 3.702170 0.000000 
#    z -0.053110 0.000000 3.769570 
# 
# 
# High freq. dielectric constant tensor:
#      x y z
#    x 1.769830 0.000000 0.000300 
#    y 0.000000 1.776490 0.000000 
#    z 0.000300 0.000000 1.773690 
# 
# From -- ./inp_files/375147.got.cif
#   From: 2010.06.25/outbox.cif.g09.slc.cpg/sg12_188_cif.got.tgz:375147.got - 2010.06.28 00:19:55.
