data_PCOD8098729
_publ_section_title
;
Structure prediction by ZEFSAII (Michael W. Deem and Ramdas Pophale) SiO2 
 PCOD8098729
Probable space group: C 2/M
;
_chemical_formula_sum "Si O2"
_cell_formula_units_Z 56
_cell_length_a 15.275109
_cell_length_b 8.932530
_cell_length_c 26.517718
_cell_angle_alpha 90.000000
_cell_angle_beta 125.264893
_cell_angle_gamma 90.000000
_cell_volume 2954.245768
_symmetry_space_group_name_H-M "C 2/M"
_symmetry_group_IT_number 12
_symmetry_cell_setting 'monoclinic'
loop_
_space_group_symop_operation_xyz
x,y,z
-x,y,-z
-x,-y,-z
x,-y,z
1/2+x,1/2+y,z
1/2-x,1/2+y,-z
1/2-x,1/2-y,-z
1/2+x,1/2-y,z
loop_
_atom_site_type_symbol
_atom_site_label
_atom_site_fract_x
_atom_site_fract_y
_atom_site_fract_z
Si Si1 0.650182 0.177547 0.149356
Si Si2 0.732727 0.176457 0.070982
Si Si3 0.792088 0.178280 0.632107
Si Si4 0.589729 0.176437 0.930180
Si Si5 0.774742 0.821566 0.289947
Si Si6 0.168094 0.825057 0.510320
Si Si7 0.984777 0.826345 0.625319
O O1 0.702492 0.240863 0.115664
O O2 0.530022 0.241379 0.113434
O O3 0.720260 0.230109 0.219954
O O4 0.644958 0.000000 0.144341
O O5 0.844682 0.250221 0.093320
O O6 0.748935 0.000000 0.077362
O O7 0.639473 0.222198 0.000718
O O8 0.793937 0.243816 0.688844
O O9 0.683827 0.242831 0.569153
O O10 0.897937 0.237567 0.636955
O O11 0.786114 0.000000 0.630864
O O12 0.592518 0.000000 0.923644
O O13 0.896620 0.757107 0.329102
O O14 0.771747 0.000000 0.296705
O O15 0.250000 0.750000 0.500000
O O16 0.052023 0.800753 0.445352
O O17 0.192700 0.000000 0.525225
O O18 0.993054 0.000000 0.640290
#
# Coordination Sequence:
#
# PCOD8098729 Si02
#       7
#     8   8   8   8   8   8   8
#     4   9  18  32  51  72  97 132 170 203 240 293
#     4   9  17  31  52  76 100 130 167 203 243 294
#     4  10  20  35  52  74 102 130 162 206 256 299
#     4   9  17  31  51  76 103 128 160 206 252 289
#     4  10  20  35  52  71  95 131 174 204 237 295
#     4   9  16  30  52  76  99 128 165 206 254 301
#     4   8  17  33  52  71  96 128 161 200 247 298
#
# _framework density 18.955767999999999
#
# number of rings (size 3 to 8) (size 9 to 14) (size 15 to 20)
#    0.000    2.857    0.000    2.143    0.000    3.429 
#    0.000   10.714    0.000    3.429    0.000    0.000 
#    0.000    0.000    0.000    0.000    0.000    0.000 
#
# Total GULP energy -347053.956146 kJ/mol
# GULP energy per Si atom -12394.784148 kJ/mol
# Density = 1.891262 g / cm^3
# Si number density = 18.955768 Si / 1000 Ang^3
#
#
#
# Elastic Constant Matrix: (Units=GPa)
#
#
# Indices 1 2 3 4 5 6 
#
# 1 115.9624 23.7992 73.5329 0.0000 -6.7912 0.0000
# 2 23.7992 37.5519 30.9092 0.0000 -3.3869 0.0000
# 3 73.5329 30.9092 133.3917 0.0000 -6.1839 0.0000
# 4 0.0000 0.0000 0.0000 21.3737 0.0000 -5.5776
# 5 -6.7912 -3.3869 -6.1839 0.0000 23.9540 0.0000
# 6 0.0000 0.0000 0.0000 -5.5776 0.0000 25.4276
#
#
#
# Elastic Compliance Matrix: (Units=1/GPa)
#
#
# Indices 1 2 3 4 5 6 
#
# 1 0.013595 -0.002915 -0.006740 0.000000 0.001702 0.000000
# 2 -0.002915 0.033706 -0.006094 0.000000 0.002366 0.000000
# 3 -0.006740 -0.006094 0.012647 0.000000 0.000492 0.000000
# 4 0.000000 0.000000 0.000000 0.049627 0.000000 0.010886
# 5 0.001702 0.002366 0.000492 0.000000 0.042691 0.000000
# 6 0.000000 0.000000 0.000000 0.010886 0.000000 0.041715
#
#
# Mechanical properties :
#
#
# Convention : Reuss Voigt Hill
#
# Bulk Modulus (GPa) = 35.14797 60.37652 47.76224
# Shear Modulus (GPa) = 21.27985 24.72870 23.00427
#
# Velocity S-wave (km/s) = 3.35417 3.61577 3.48742
# Velocity P-wave (km/s) = 5.79508 7.02511 6.43953
#
# Compressibility (1/GPa) = 0.02845115
#
# Stress axis : x y z
#
# Youngs Moduli (GPa) = 73.55404 29.66794 79.06904
#
# Poissons Ratio (x) = 0.08648 0.53294
# Poissons Ratio (y) = 0.21440 0.48183
# Poissons Ratio (z) = 0.49577 0.18079
#
# Static dielectric constant tensor:
#      x y z
#    x 3.602580 0.000000 0.089800 
#    y 0.000000 3.190610 0.000000 
#    z 0.089800 0.000000 3.783250 
# 
# 
# High freq. dielectric constant tensor:
#      x y z
#    x 1.735480 0.000000 -0.001160 
#    y 0.000000 1.703620 0.000000 
#    z -0.001160 0.000000 1.740210 
# 
# From -- ./inp_files/339026.got.cif
#   From: 2010.06.25/outbox.cif.g09.slc.cpg/sg12_170_cif.got.tgz:339026.got - 2010.06.28 00:19:55.
