data_PCOD8098061
_publ_section_title
;
Structure prediction by ZEFSAII (Michael W. Deem and Ramdas Pophale) SiO2 
 PCOD8098061
Probable space group: C 2/M
;
_chemical_formula_sum "Si O2"
_cell_formula_units_Z 48
_cell_length_a 14.411075
_cell_length_b 9.322491
_cell_length_c 26.423532
_cell_angle_alpha 90.000000
_cell_angle_beta 40.623044
_cell_angle_gamma 90.000000
_cell_volume 2311.283756
_symmetry_space_group_name_H-M "C 2/M"
_symmetry_group_IT_number 12
_symmetry_cell_setting 'monoclinic'
loop_
_space_group_symop_operation_xyz
x,y,z
-x,y,-z
-x,-y,-z
x,-y,z
1/2+x,1/2+y,z
1/2-x,1/2+y,-z
1/2-x,1/2-y,-z
1/2+x,1/2-y,z
loop_
_atom_site_type_symbol
_atom_site_label
_atom_site_fract_x
_atom_site_fract_y
_atom_site_fract_z
Si Si1 0.153224 0.163441 0.078023
Si Si2 0.423565 0.158236 0.325568
Si Si3 0.168823 0.169871 0.797894
Si Si4 0.424861 0.159547 0.628721
Si Si5 0.664991 0.331666 0.492048
Si Si6 0.165462 0.164433 0.187144
O O1 0.216038 0.178093 0.108332
O O2 0.991687 0.221907 0.144604
O O3 0.154613 0.000000 0.059127
O O4 0.250000 0.250000 0.000000
O O5 0.492223 0.157883 0.352652
O O6 0.254035 0.193305 0.402825
O O7 0.503566 0.275565 0.258367
O O8 0.442295 0.000000 0.293378
O O9 0.264054 0.212919 0.709070
O O10 0.223872 0.246733 0.825571
O O11 0.181907 0.000000 0.801236
O O12 0.504683 0.266079 0.556115
O O13 0.422668 0.000000 0.605772
O O14 0.654796 0.500000 0.508991
O O15 0.750000 0.250000 0.500000
O O16 0.163271 0.000000 0.206011
#
# Coordination Sequence:
#
# PCOD8098061 Si02
#       6
#     8   8   8   8   8   8
#     4  10  23  41  59  81 108 137 171 214 265 320
#     4   8  15  27  43  67 101 141 177 209 255 312
#     4   9  19  37  57  77 107 145 177 208 259 323
#     4   8  14  25  43  67  95 131 174 213 249 296
#     4   9  15  22  36  63  99 134 171 213 252 295
#     4  10  20  34  55  83 109 134 174 225 263 299
#
# _framework density 20.767679999999999
#
# number of rings (size 3 to 8) (size 9 to 14) (size 15 to 20)
#    0.000    3.000    0.000    3.000    0.000    9.333 
#    0.000    3.333    0.000    1.000    0.000    7.000 
#    0.000    0.000    0.000    0.000    0.000    0.000 
#
# Total GULP energy -297433.349482 kJ/mol
# GULP energy per Si atom -12393.056228 kJ/mol
# Density = 2.072041 g / cm^3
# Si number density = 20.767680 Si / 1000 Ang^3
#
#
#
# Elastic Constant Matrix: (Units=GPa)
#
#
# Indices 1 2 3 4 5 6 
#
# 1 33.2663 10.2808 19.8410 0.0000 -14.8884 -0.0001
# 2 10.2808 79.9811 45.1000 0.0000 -6.5525 -0.0002
# 3 19.8410 45.1000 114.6114 0.0000 -20.8869 0.0000
# 4 0.0000 0.0000 0.0000 43.2535 0.0000 -3.6323
# 5 -14.8884 -6.5525 -20.8869 0.0000 28.8157 0.0000
# 6 -0.0001 -0.0002 0.0000 -3.6323 0.0000 15.2997
#
#
#
# Elastic Compliance Matrix: (Units=1/GPa)
#
#
# Indices 1 2 3 4 5 6 
#
# 1 0.040678 -0.002111 -0.002844 0.000000 0.018476 0.000000
# 2 -0.002111 0.016207 -0.006382 0.000000 -0.002032 0.000000
# 3 -0.002844 -0.006382 0.012901 0.000000 0.006430 0.000000
# 4 0.000000 0.000000 0.000000 0.023590 0.000000 0.005600
# 5 0.018476 -0.002032 0.006430 0.000000 0.048448 0.000000
# 6 0.000000 0.000000 0.000000 0.005600 0.000000 0.066690
#
#
# Mechanical properties :
#
#
# Convention : Reuss Voigt Hill
#
# Bulk Modulus (GPa) = 21.22682 42.03361 31.63021
# Shear Modulus (GPa) = 20.25174 27.64960 23.95067
#
# Velocity S-wave (km/s) = 3.12614 3.65276 3.39966
# Velocity P-wave (km/s) = 4.82427 6.17042 5.53840
#
# Compressibility (1/GPa) = 0.04711021
#
# Stress axis : x y z
#
# Youngs Moduli (GPa) = 24.58327 61.70295 77.51487
#
# Poissons Ratio (x) = 0.13028 0.22046
# Poissons Ratio (y) = 0.05190 0.49471
# Poissons Ratio (z) = 0.06992 0.39380
#
# Static dielectric constant tensor:
#      x y z
#    x 3.368890 0.000000 -0.375790 
#    y 0.000000 3.978570 0.000000 
#    z -0.375790 0.000000 4.295500 
# 
# 
# High freq. dielectric constant tensor:
#      x y z
#    x 1.782170 0.000000 -0.014790 
#    y 0.000000 1.809580 0.000000 
#    z -0.014790 0.000000 1.817090 
# 
# From -- ./inp_files/360259.got.cif
#   From: 2010.06.25/outbox.cif.g09.slc.cpg/sg12_181_cif.got.tgz:360259.got - 2010.06.28 00:19:55.
