data_PCOD8098046
_publ_section_title
;
Structure prediction by ZEFSAII (Michael W. Deem and Ramdas Pophale) SiO2 
 PCOD8098046
Probable space group: C 2/M
;
_chemical_formula_sum "Si O2"
_cell_formula_units_Z 60
_cell_length_a 11.501582
_cell_length_b 23.848655
_cell_length_c 11.627248
_cell_angle_alpha 90.000000
_cell_angle_beta 64.662514
_cell_angle_gamma 90.000000
_cell_volume 2882.518265
_symmetry_space_group_name_H-M "C 2/M"
_symmetry_group_IT_number 12
_symmetry_cell_setting 'monoclinic'
loop_
_space_group_symop_operation_xyz
x,y,z
-x,y,-z
-x,-y,-z
x,-y,z
1/2+x,1/2+y,z
1/2-x,1/2+y,-z
1/2-x,1/2-y,-z
1/2+x,1/2-y,z
loop_
_atom_site_type_symbol
_atom_site_label
_atom_site_fract_x
_atom_site_fract_y
_atom_site_fract_z
Si Si1 0.500000 0.798059 0.000000
Si Si2 0.429509 0.561571 0.761819
Si Si3 0.281302 0.728995 0.811165
Si Si4 0.591661 0.062705 0.353203
Si Si5 0.292412 0.561558 0.443922
Si Si6 0.145433 0.859229 0.393631
Si Si7 0.874613 0.345828 0.835500
Si Si8 0.105634 0.850378 0.045549
O O1 0.368498 0.763337 0.085865
O O2 0.531064 0.836604 0.096624
O O3 0.370953 0.500000 0.812071
O O4 0.557045 0.555051 0.633808
O O5 0.336887 0.597733 0.719801
O O6 0.454058 0.594444 0.869750
O O7 0.294668 0.698926 0.680680
O O8 0.346535 0.789714 0.773737
O O9 0.364663 0.698173 0.874459
O O10 0.500000 0.070499 0.500000
O O11 0.733202 0.075479 0.344401
O O12 0.555711 0.107663 0.271727
O O13 0.582276 0.000000 0.305066
O O14 0.238604 0.500000 0.509934
O O15 0.267026 0.612951 0.543149
O O16 0.000000 0.848186 0.500000
O O17 0.737885 0.370522 0.932564
O O18 0.000000 0.827322 0.000000
#
# Coordination Sequence:
#
# PCOD8098046 Si02
#       8
#     4   8   8   8   8   8   8   8
#     4  10  22  42  61  88 121 156 206 236 290 358
#     4   9  17  30  51  84 117 147 187 237 293 347
#     4  10  23  37  59  87 117 155 194 247 293 349
#     4  10  23  42  60  83 115 154 199 242 289 349
#     4   9  17  33  57  82 113 155 192 232 291 351
#     4   9  18  34  55  86 119 151 192 240 291 347
#     4  11  24  39  63  87 114 159 198 245 293 349
#     4  10  20  34  55  82 116 151 190 240 296 347
#
# _framework density 20.815132999999999
#
# number of rings (size 3 to 8) (size 9 to 14) (size 15 to 20)
#    0.000    2.267    0.000    2.800    5.600    2.933 
#    0.000    1.000    0.000    0.000    0.000    0.000 
#    0.000    0.000    0.000    0.000    0.000    0.000 
#
# Total GULP energy -371786.286139 kJ/mol
# GULP energy per Si atom -12392.876205 kJ/mol
# Density = 2.076776 g / cm^3
# Si number density = 20.815133 Si / 1000 Ang^3
#
#
#
# Elastic Constant Matrix: (Units=GPa)
#
#
# Indices 1 2 3 4 5 6 
#
# 1 70.3120 29.1381 13.9882 0.0000 10.8653 0.0000
# 2 29.1381 142.6338 63.9289 0.0000 10.1757 0.0000
# 3 13.9882 63.9289 74.6006 0.0000 9.4171 0.0000
# 4 0.0000 0.0000 0.0000 62.8484 0.0000 -0.9832
# 5 10.8653 10.1757 9.4171 0.0000 25.2965 0.0000
# 6 0.0000 0.0000 0.0000 -0.9832 0.0000 15.6256
#
#
#
# Elastic Compliance Matrix: (Units=1/GPa)
#
#
# Indices 1 2 3 4 5 6 
#
# 1 0.016339 -0.003048 0.000294 0.000000 -0.005901 0.000000
# 2 -0.003048 0.011976 -0.009704 0.000000 0.000105 0.000000
# 3 0.000294 -0.009704 0.022234 0.000000 -0.004499 0.000000
# 4 0.000000 0.000000 0.000000 0.015927 0.000000 0.001002
# 5 -0.005901 0.000105 -0.004499 0.000000 0.043699 0.000000
# 6 0.000000 0.000000 0.000000 0.001002 0.000000 0.064061
#
#
# Mechanical properties :
#
#
# Convention : Reuss Voigt Hill
#
# Bulk Modulus (GPa) = 39.01631 55.73967 47.37799
# Shear Modulus (GPa) = 24.07360 32.78682 28.43021
#
# Velocity S-wave (km/s) = 3.40449 3.97311 3.69974
# Velocity P-wave (km/s) = 5.85141 6.91983 6.40793
#
# Compressibility (1/GPa) = 0.02563030
#
# Stress axis : x y z
#
# Youngs Moduli (GPa) = 61.20289 83.50255 44.97695
#
# Poissons Ratio (x) = 0.25455 -0.01320
# Poissons Ratio (y) = 0.18657 0.43646
# Poissons Ratio (z) = -0.01797 0.81032
#
# Static dielectric constant tensor:
#      x y z
#    x 4.023210 0.000000 0.177010 
#    y 0.000000 3.872860 0.000000 
#    z 0.177010 0.000000 3.721260 
# 
# 
# High freq. dielectric constant tensor:
#      x y z
#    x 1.807710 0.000000 0.005280 
#    y 0.000000 1.812520 0.000000 
#    z 0.005280 0.000000 1.799630 
# 
# From -- ./inp_files/135320.got.cif
#   From: 2010.06.25/outbox.cif.g09.slc.cpg/sg12_68_cif.got.tgz:135320.got - 2010.06.28 00:19:55.
