data_PCOD8098151
_publ_section_title
;
Structure prediction by ZEFSAII (Michael W. Deem and Ramdas Pophale) SiO2 
 PCOD8098151
Probable space group: C 2/M
;
_chemical_formula_sum "Si O2"
_cell_formula_units_Z 64
_cell_length_a 22.772978
_cell_length_b 9.043903
_cell_length_c 19.448128
_cell_angle_alpha 90.000000
_cell_angle_beta 56.499345
_cell_angle_gamma 90.000000
_cell_volume 3340.079702
_symmetry_space_group_name_H-M "C 2/M"
_symmetry_group_IT_number 12
_symmetry_cell_setting 'monoclinic'
loop_
_space_group_symop_operation_xyz
x,y,z
-x,y,-z
-x,-y,-z
x,-y,z
1/2+x,1/2+y,z
1/2-x,1/2+y,-z
1/2-x,1/2-y,-z
1/2+x,1/2-y,z
loop_
_atom_site_type_symbol
_atom_site_label
_atom_site_fract_x
_atom_site_fract_y
_atom_site_fract_z
Si Si1 0.595872 0.835072 0.235217
Si Si2 0.477361 0.329778 0.231602
Si Si3 0.950884 0.171222 0.095064
Si Si4 0.251299 0.832716 0.928310
Si Si5 0.202833 0.331292 0.443301
Si Si6 0.821163 0.670440 0.691690
Si Si7 0.191606 0.324517 0.840964
Si Si8 0.655882 0.171973 0.620295
O O1 0.543580 0.723310 0.232747
O O2 0.669889 0.829696 0.149601
O O3 0.611202 0.787489 0.304817
O O4 0.563135 0.000000 0.253107
O O5 0.466316 0.500000 0.255199
O O6 0.491452 0.303433 0.141236
O O7 0.407320 0.249128 0.300346
O O8 0.882033 0.272346 0.142916
O O9 0.928855 0.000000 0.100630
O O10 0.000000 0.222075 0.000000
O O11 0.199077 0.747170 0.911211
O O12 0.223670 0.000000 0.954914
O O13 0.250000 0.750000 0.000000
O O14 0.229669 0.500000 0.432597
O O15 0.158622 0.308538 0.401512
O O16 0.270625 0.227475 0.396665
O O17 0.152925 0.292532 0.540279
O O18 0.800117 0.500000 0.721861
O O19 0.754201 0.772047 0.750959
O O20 0.193119 0.500000 0.846175
O O21 0.649830 0.000000 0.639643
#
# Coordination Sequence:
#
# PCOD8098151 Si02
#       8
#     8   8   8   8   8   8   8   8
#     4   9  20  37  56  79 107 142 183 227 275 324
#     4  11  23  38  57  79 109 148 186 226 278 339
#     4  10  23  41  57  76 103 143 187 229 279 333
#     4  10  21  37  58  82 109 143 183 231 280 328
#     4   9  18  34  58  85 113 144 186 229 271 329
#     4   9  18  36  59  81 108 146 185 227 273 324
#     4  11  22  35  54  83 112 141 179 225 277 332
#     4  10  20  34  55  85 116 148 181 224 279 331
#
# _framework density 19.16122
#
# number of rings (size 3 to 8) (size 9 to 14) (size 15 to 20)
#    0.000    2.125    0.000    3.750    1.750    7.750 
#    0.000    0.625    0.000    3.750    0.000    0.000 
#    0.000    0.000    0.000    0.000    0.000    0.000 
#
# Total GULP energy -396804.052512 kJ/mol
# GULP energy per Si atom -12400.126641 kJ/mol
# Density = 1.911761 g / cm^3
# Si number density = 19.161220 Si / 1000 Ang^3
#
#
#
# Elastic Constant Matrix: (Units=GPa)
#
#
# Indices 1 2 3 4 5 6 
#
# 1 97.8408 50.5091 49.8682 0.0000 20.0406 0.0002
# 2 50.5091 111.9170 37.9946 0.0002 6.9008 -0.0005
# 3 49.8682 37.9946 85.3052 -0.0001 27.5941 -0.0004
# 4 0.0000 0.0002 -0.0001 26.1311 0.0000 -0.3710
# 5 20.0406 6.9008 27.5941 0.0000 34.3664 0.0003
# 6 0.0002 -0.0005 -0.0004 -0.3710 0.0003 34.4736
#
#
#
# Elastic Compliance Matrix: (Units=1/GPa)
#
#
# Indices 1 2 3 4 5 6 
#
# 1 0.016935 -0.005256 -0.006357 0.000000 -0.003716 0.000000
# 2 -0.005256 0.012286 -0.003503 0.000000 0.003410 0.000000
# 3 -0.006357 -0.003503 0.021036 0.000000 -0.012480 0.000000
# 4 0.000000 0.000000 0.000000 0.038274 0.000000 0.000412
# 5 -0.003716 0.003410 -0.012480 0.000000 0.040601 0.000000
# 6 0.000000 0.000000 0.000000 0.000412 0.000000 0.029012
#
#
# Mechanical properties :
#
#
# Convention : Reuss Voigt Hill
#
# Bulk Modulus (GPa) = 49.93577 63.53408 56.73492
# Shear Modulus (GPa) = 25.63420 29.44029 27.53725
#
# Velocity S-wave (km/s) = 3.66159 3.92401 3.79507
# Velocity P-wave (km/s) = 6.63278 7.33213 6.99120
#
# Compressibility (1/GPa) = 0.02002573
#
# Stress axis : x y z
#
# Youngs Moduli (GPa) = 59.04886 81.39320 47.53715
#
# Poissons Ratio (x) = 0.42777 0.30220
# Poissons Ratio (y) = 0.31034 0.16652
# Poissons Ratio (z) = 0.37539 0.28512
#
# Static dielectric constant tensor:
#      x y z
#    x 3.247680 0.000000 0.027810 
#    y 0.000000 3.745810 0.000010 
#    z 0.027810 0.000010 3.311770 
# 
# 
# High freq. dielectric constant tensor:
#      x y z
#    x 1.741110 0.000000 0.024160 
#    y 0.000000 1.748730 0.000000 
#    z 0.024160 0.000000 1.741460 
# 
# From -- ./inp_files/319932.got.cif
#   From: 2010.06.25/outbox.cif.g09.slc.cpg/sg12_160_cif.got.tgz:319932.got - 2010.06.28 00:19:55.
