data_PCOD8098113
_publ_section_title
;
Structure prediction by ZEFSAII (Michael W. Deem and Ramdas Pophale) SiO2 
 PCOD8098113
Probable space group: C 2/M
;
_chemical_formula_sum "Si O2"
_cell_formula_units_Z 64
_cell_length_a 19.333084
_cell_length_b 13.090150
_cell_length_c 24.610916
_cell_angle_alpha 90.000000
_cell_angle_beta 32.811867
_cell_angle_gamma 90.000000
_cell_volume 3375.036710
_symmetry_space_group_name_H-M "C 2/M"
_symmetry_group_IT_number 12
_symmetry_cell_setting 'monoclinic'
loop_
_space_group_symop_operation_xyz
x,y,z
-x,y,-z
-x,-y,-z
x,-y,z
1/2+x,1/2+y,z
1/2-x,1/2+y,-z
1/2-x,1/2-y,-z
1/2+x,1/2-y,z
loop_
_atom_site_type_symbol
_atom_site_label
_atom_site_fract_x
_atom_site_fract_y
_atom_site_fract_z
Si Si1 0.305340 0.119317 0.731593
Si Si2 0.075606 0.884168 0.805421
Si Si3 0.489769 0.118827 0.785960
Si Si4 0.194581 0.750342 0.166328
Si Si5 0.536484 0.756381 0.537087
Si Si6 0.024250 0.120293 0.644347
Si Si7 0.869103 0.274857 0.958648
Si Si8 0.173369 0.213394 0.637878
O O1 0.207620 0.142628 0.747866
O O2 0.256430 0.185600 0.814744
O O3 0.445430 0.154585 0.620125
O O4 0.310803 0.000000 0.743247
O O5 0.091879 0.860360 0.731069
O O6 0.958490 0.822848 0.907864
O O7 0.036093 0.000000 0.839756
O O8 0.382651 0.170542 0.819608
O O9 0.452055 0.135637 0.874670
O O10 0.626202 0.170571 0.681161
O O11 0.501359 0.000000 0.765266
O O12 0.108227 0.845886 0.240830
O O13 0.314305 0.800330 0.054824
O O14 0.500000 0.726152 0.500000
O O15 0.525527 0.654620 0.580718
O O16 0.678637 0.800302 0.447071
O O17 0.141827 0.176967 0.597400
O O18 0.040662 0.000000 0.636924
O O19 0.750000 0.250000 0.000000
#
# Coordination Sequence:
#
# PCOD8098113 Si02
#       8
#     8   8   8   8   8   8   8   8
#     4  10  21  35  55  84 113 146 183 223 285 347
#     4  10  20  34  55  84 114 144 180 225 280 339
#     4   9  18  33  55  82 111 144 187 232 279 329
#     4   9  19  36  55  80 116 148 181 233 279 333
#     4  11  22  39  59  82 115 152 189 236 284 344
#     4  10  22  38  58  84 112 150 194 237 283 333
#     4   9  19  33  52  79 108 143 183 223 274 327
#     4  10  20  37  57  83 115 147 186 239 287 326
#
# _framework density 18.962755999999999
#
# number of rings (size 3 to 8) (size 9 to 14) (size 15 to 20)
#    0.000    2.250    1.250    1.875    0.000    5.500 
#    0.000    1.250    0.000    0.000    0.000    3.500 
#    0.000    0.000    0.000    0.000    0.000    0.000 
#
# Total GULP energy -396746.926883 kJ/mol
# GULP energy per Si atom -12398.341465 kJ/mol
# Density = 1.891960 g / cm^3
# Si number density = 18.962756 Si / 1000 Ang^3
#
#
#
# Elastic Constant Matrix: (Units=GPa)
#
#
# Indices 1 2 3 4 5 6 
#
# 1 81.8552 32.3378 26.9860 0.0001 11.9771 0.0000
# 2 32.3378 95.1842 29.2138 0.0000 -0.5409 0.0000
# 3 26.9860 29.2138 83.3656 -0.0001 4.3914 0.0000
# 4 0.0001 0.0000 -0.0001 15.7131 0.0000 -3.3981
# 5 11.9771 -0.5409 4.3914 0.0000 35.9583 0.0000
# 6 0.0000 0.0000 0.0000 -3.3981 0.0000 23.6270
#
#
#
# Elastic Compliance Matrix: (Units=1/GPa)
#
#
# Indices 1 2 3 4 5 6 
#
# 1 0.015750 -0.004362 -0.003311 0.000000 -0.004907 0.000000
# 2 -0.004362 0.012997 -0.003250 0.000000 0.002046 0.000000
# 3 -0.003311 -0.003250 0.014242 0.000000 -0.000685 0.000000
# 4 0.000000 0.000000 0.000000 0.065684 0.000000 0.009447
# 5 -0.004907 0.002046 -0.000685 0.000000 0.029559 0.000000
# 6 0.000000 0.000000 0.000000 0.009447 0.000000 0.043683
#
#
# Mechanical properties :
#
#
# Convention : Reuss Voigt Hill
#
# Bulk Modulus (GPa) = 47.29979 48.60892 47.95436
# Shear Modulus (GPa) = 23.71801 26.51750 25.11776
#
# Velocity S-wave (km/s) = 3.54046 3.74357 3.64343
# Velocity P-wave (km/s) = 6.45839 6.66148 6.56072
#
# Compressibility (1/GPa) = 0.02114174
#
# Stress axis : x y z
#
# Youngs Moduli (GPa) = 63.49305 76.93959 70.21367
#
# Poissons Ratio (x) = 0.33565 0.23248
# Poissons Ratio (y) = 0.27699 0.22821
# Poissons Ratio (z) = 0.21023 0.25007
#
# Static dielectric constant tensor:
#      x y z
#    x 3.613510 0.000000 0.147800 
#    y 0.000000 3.177470 0.000000 
#    z 0.147800 0.000000 3.587830 
# 
# 
# High freq. dielectric constant tensor:
#      x y z
#    x 1.736680 0.000000 0.007680 
#    y 0.000000 1.716470 0.000000 
#    z 0.007680 0.000000 1.744850 
# 
# From -- ./inp_files/365996.got.cif
#   From: 2010.06.25/outbox.cif.g09.slc.cpg/sg12_183_cif.got.tgz:365996.got - 2010.06.28 00:19:55.
