data_PCOD8098748
_publ_section_title
;
Structure prediction by ZEFSAII (Michael W. Deem and Ramdas Pophale) SiO2 
 PCOD8098748
Probable space group: C 2/M
;
_chemical_formula_sum "Si O2"
_cell_formula_units_Z 64
_cell_length_a 17.467410
_cell_length_b 14.541076
_cell_length_c 16.216561
_cell_angle_alpha 90.000000
_cell_angle_beta 57.415525
_cell_angle_gamma 90.000000
_cell_volume 3470.598896
_symmetry_space_group_name_H-M "C 2/M"
_symmetry_group_IT_number 12
_symmetry_cell_setting 'monoclinic'
loop_
_space_group_symop_operation_xyz
x,y,z
-x,y,-z
-x,-y,-z
x,-y,z
1/2+x,1/2+y,z
1/2-x,1/2+y,-z
1/2-x,1/2-y,-z
1/2+x,1/2-y,z
loop_
_atom_site_type_symbol
_atom_site_label
_atom_site_fract_x
_atom_site_fract_y
_atom_site_fract_z
Si Si1 0.697988 0.784293 0.375968
Si Si2 0.075101 0.396187 0.842673
Si Si3 0.686432 0.397171 0.577376
Si Si4 0.043159 0.210590 0.559163
Si Si5 0.229979 0.607593 0.874182
Si Si6 0.132787 0.265899 0.244245
Si Si7 0.278990 0.100400 0.363544
Si Si8 0.383427 0.107044 0.903320
O O1 0.787449 0.833994 0.360038
O O2 0.610464 0.792896 0.487807
O O3 0.681213 0.818782 0.292860
O O4 0.715159 0.674901 0.356922
O O5 0.061974 0.500000 0.880629
O O6 0.146658 0.352692 0.866129
O O7 0.117055 0.387826 0.726056
O O8 0.974509 0.352332 0.895873
O O9 0.669956 0.500000 0.619511
O O10 0.597978 0.365404 0.579169
O O11 0.773388 0.391055 0.465644
O O12 0.000000 0.167383 0.500000
O O13 0.969657 0.247918 0.666287
O O14 0.251412 0.500000 0.841083
O O15 0.318874 0.669709 0.807954
O O16 0.201182 0.617928 0.986179
O O17 0.137066 0.335213 0.166024
O O18 0.242571 0.000000 0.356110
O O19 0.398851 0.000000 0.870270
#
# Coordination Sequence:
#
# PCOD8098748 Si02
#       8
#     8   8   8   8   8   8   8   8
#     4  10  20  35  52  76 108 142 181 213 249 302
#     4   9  17  31  55  80 100 125 168 222 273 309
#     4  10  21  34  52  75 108 147 181 213 250 304
#     4   9  20  35  52  79 108 136 175 225 265 303
#     4  10  20  37  57  80 105 132 174 223 271 319
#     4  11  22  34  56  76 108 148 173 208 265 321
#     4   9  16  29  53  78  98 128 171 217 263 302
#     4  10  22  36  54  80 108 135 172 224 269 312
#
# _framework density 18.440622000000001
#
# number of rings (size 3 to 8) (size 9 to 14) (size 15 to 20)
#    0.000    2.250    1.250    2.250    3.500    2.750 
#    0.000    1.250    0.000    2.250    0.000    0.000 
#    0.000    8.000    0.000    0.000    0.000    0.000 
#
# Total GULP energy -396423.716267 kJ/mol
# GULP energy per Si atom -12388.241133 kJ/mol
# Density = 1.839865 g / cm^3
# Si number density = 18.440622 Si / 1000 Ang^3
#
#
#
# Elastic Constant Matrix: (Units=GPa)
#
#
# Indices 1 2 3 4 5 6 
#
# 1 98.3966 48.3011 32.0159 0.0000 10.1704 0.0000
# 2 48.3011 71.9458 33.4422 0.0000 13.5873 0.0000
# 3 32.0159 33.4422 85.6821 0.0000 2.7951 0.0000
# 4 0.0000 0.0000 0.0000 20.0429 0.0000 1.6740
# 5 10.1704 13.5873 2.7951 0.0000 24.5681 0.0000
# 6 0.0000 0.0000 0.0000 1.6740 0.0000 17.8338
#
#
#
# Elastic Compliance Matrix: (Units=1/GPa)
#
#
# Indices 1 2 3 4 5 6 
#
# 1 0.015490 -0.009187 -0.002167 0.000000 -0.001085 0.000000
# 2 -0.009187 0.024492 -0.005830 0.000000 -0.009079 0.000000
# 3 -0.002167 -0.005830 0.014676 0.000000 0.002452 0.000000
# 4 0.000000 0.000000 0.000000 0.050287 0.000000 -0.004720
# 5 -0.001085 -0.009079 0.002452 0.000000 0.045894 0.000000
# 6 0.000000 0.000000 0.000000 -0.004720 0.000000 0.056516
#
#
# Mechanical properties :
#
#
# Convention : Reuss Voigt Hill
#
# Bulk Modulus (GPa) = 49.28631 53.72700 51.50665
# Shear Modulus (GPa) = 20.12176 21.97332 21.04754
#
# Velocity S-wave (km/s) = 3.30686 3.45566 3.38208
# Velocity P-wave (km/s) = 6.43160 6.71718 6.57594
#
# Compressibility (1/GPa) = 0.02028961
#
# Stress axis : x y z
#
# Youngs Moduli (GPa) = 64.55811 40.83010 68.13715
#
# Poissons Ratio (x) = 0.37511 0.14764
# Poissons Ratio (y) = 0.59311 0.39726
# Poissons Ratio (z) = 0.13988 0.23805
#
# Static dielectric constant tensor:
#      x y z
#    x 3.369950 0.000000 -0.083790 
#    y 0.000000 3.147020 0.000000 
#    z -0.083790 0.000000 3.544790 
# 
# 
# High freq. dielectric constant tensor:
#      x y z
#    x 1.705750 0.000000 -0.000260 
#    y 0.000000 1.679130 0.000000 
#    z -0.000260 0.000000 1.722670 
# 
# From -- ./inp_files/225243.got.cif
#   From: 2010.06.25/outbox.cif.g09.slc.cpg/sg12_113_cif.got.tgz:225243.got - 2010.06.28 00:19:55.
