data_PCOD8098604
_publ_section_title
;
Structure prediction by ZEFSAII (Michael W. Deem and Ramdas Pophale) SiO2 
 PCOD8098604
Probable space group: C 2/M
;
_chemical_formula_sum "Si O2"
_cell_formula_units_Z 40
_cell_length_a 15.507432
_cell_length_b 8.785929
_cell_length_c 14.337088
_cell_angle_alpha 90.000000
_cell_angle_beta 90.830983
_cell_angle_gamma 90.000000
_cell_volume 1953.182604
_symmetry_space_group_name_H-M "C 2/M"
_symmetry_group_IT_number 12
_symmetry_cell_setting 'monoclinic'
loop_
_space_group_symop_operation_xyz
x,y,z
-x,y,-z
-x,-y,-z
x,-y,z
1/2+x,1/2+y,z
1/2-x,1/2+y,-z
1/2-x,1/2-y,-z
1/2+x,1/2-y,z
loop_
_atom_site_type_symbol
_atom_site_label
_atom_site_fract_x
_atom_site_fract_y
_atom_site_fract_z
Si Si1 0.095490 0.176164 0.770743
Si Si2 0.336788 0.175799 0.400494
Si Si3 0.253969 0.821292 0.899163
Si Si4 0.595802 0.325738 0.211708
Si Si5 0.654873 0.174912 0.390935
O O1 0.094015 0.276268 0.676238
O O2 0.171502 0.236476 0.839046
O O3 0.003566 0.198570 0.820873
O O4 0.109406 0.000000 0.744590
O O5 0.377622 0.202166 0.503705
O O6 0.255157 0.283899 0.384265
O O7 0.309353 0.000000 0.388460
O O8 0.342531 0.777081 0.849994
O O9 0.250337 0.000000 0.910775
O O10 0.250000 0.750000 0.000000
O O11 0.624278 0.500000 0.199587
O O12 0.601016 0.280471 0.320558
O O13 0.643594 0.000000 0.360499
#
# Coordination Sequence:
#
# PCOD8098604 Si02
#       5
#     8   8   8   8   8
#     4  10  23  41  62  89 125 161 199 247 304 359
#     4  10  20  34  58  88 121 163 208 247 292 355
#     4  11  24  44  67  90 119 157 197 252 310 362
#     4  11  23  40  63  92 122 160 204 248 298 360
#     4  10  20  35  56  87 125 163 202 249 300 350
#
# _framework density 20.479396999999999
#
# number of rings (size 3 to 8) (size 9 to 14) (size 15 to 20)
#    0.000    1.600    2.000    2.400    0.000    6.400 
#    0.000    8.000    0.000    0.000    0.000    0.000 
#    0.000    0.000    0.000    0.000    0.000    0.000 
#
# Total GULP energy -248053.876376 kJ/mol
# GULP energy per Si atom -12402.693819 kJ/mol
# Density = 2.043278 g / cm^3
# Si number density = 20.479397 Si / 1000 Ang^3
#
#
#
# Elastic Constant Matrix: (Units=GPa)
#
#
# Indices 1 2 3 4 5 6 
#
# 1 101.5941 23.5537 50.4307 0.0000 -9.4937 0.0000
# 2 23.5537 56.2896 36.7716 0.0000 -2.6460 0.0000
# 3 50.4307 36.7716 129.1547 0.0000 -8.1978 0.0000
# 4 0.0000 0.0000 0.0000 38.2265 0.0000 -3.3980
# 5 -9.4937 -2.6460 -8.1978 0.0000 12.2525 0.0000
# 6 0.0000 0.0000 0.0000 -3.3980 0.0000 29.8978
#
#
#
# Elastic Compliance Matrix: (Units=1/GPa)
#
#
# Indices 1 2 3 4 5 6 
#
# 1 0.013030 -0.002568 -0.003917 0.000000 0.006920 0.000000
# 2 -0.002568 0.022334 -0.005406 0.000000 -0.000783 0.000000
# 3 -0.003917 -0.005406 0.011012 0.000000 0.003165 0.000000
# 4 0.000000 0.000000 0.000000 0.026427 0.000000 0.003003
# 5 0.006920 -0.000783 0.003165 0.000000 0.088927 0.000000
# 6 0.000000 0.000000 0.000000 0.003003 0.000000 0.033789
#
#
# Mechanical properties :
#
#
# Convention : Reuss Voigt Hill
#
# Bulk Modulus (GPa) = 44.25907 56.50562 50.38235
# Shear Modulus (GPa) = 22.04276 27.82753 24.93515
#
# Velocity S-wave (km/s) = 3.28432 3.69020 3.49316
# Velocity P-wave (km/s) = 6.00340 6.76817 6.39722
#
# Compressibility (1/GPa) = 0.02259424
#
# Stress axis : x y z
#
# Youngs Moduli (GPa) = 76.74820 44.77414 90.80786
#
# Poissons Ratio (x) = 0.11497 0.35572
# Poissons Ratio (y) = 0.19707 0.49090
# Poissons Ratio (z) = 0.30065 0.24204
#
# Static dielectric constant tensor:
#      x y z
#    x 3.631490 0.000000 0.051370 
#    y 0.000000 3.698400 0.000000 
#    z 0.051370 0.000000 3.804320 
# 
# 
# High freq. dielectric constant tensor:
#      x y z
#    x 1.793840 0.000000 -0.002140 
#    y 0.000000 1.806800 0.000000 
#    z -0.002140 0.000000 1.797920 
# 
# From -- ./inp_files/211340.got.cif
#   From: 2010.06.25/outbox.cif.g09.slc.cpg/sg12_106_cif.got.tgz:211340.got - 2010.06.28 00:19:55.
