data_PCOD8098867
_publ_section_title
;
Structure prediction by ZEFSAII (Michael W. Deem and Ramdas Pophale) SiO2 
 PCOD8098867
Probable space group: C 2/M
;
_chemical_formula_sum "Si O2"
_cell_formula_units_Z 48
_cell_length_a 18.780761
_cell_length_b 8.857629
_cell_length_c 15.356120
_cell_angle_alpha 90.000000
_cell_angle_beta 89.736931
_cell_angle_gamma 90.000000
_cell_volume 2554.509908
_symmetry_space_group_name_H-M "C 2/M"
_symmetry_group_IT_number 12
_symmetry_cell_setting 'monoclinic'
loop_
_space_group_symop_operation_xyz
x,y,z
-x,y,-z
-x,-y,-z
x,-y,z
1/2+x,1/2+y,z
1/2-x,1/2+y,-z
1/2-x,1/2-y,-z
1/2+x,1/2-y,z
loop_
_atom_site_type_symbol
_atom_site_label
_atom_site_fract_x
_atom_site_fract_y
_atom_site_fract_z
Si Si1 0.292775 0.321169 0.078091
Si Si2 0.956345 0.177194 0.086175
Si Si3 0.699795 0.822043 0.429884
Si Si4 0.448304 0.326688 0.581150
Si Si5 0.299232 0.821934 0.763321
Si Si6 0.039883 0.679154 0.241676
O O1 0.286176 0.500000 0.071918
O O2 0.374880 0.271030 0.073857
O O3 0.256629 0.256229 0.166588
O O4 0.250000 0.250000 0.000000
O O5 0.987037 0.268211 0.167009
O O6 0.962204 0.000000 0.106002
O O7 0.000000 0.222003 0.000000
O O8 0.750000 0.750000 0.500000
O O9 0.620606 0.765852 0.446378
O O10 0.725199 0.771742 0.333071
O O11 0.701652 0.000000 0.440312
O O12 0.500000 0.311911 0.500000
O O13 0.428636 0.500000 0.600541
O O14 0.484019 0.254876 0.667195
O O15 0.379801 0.765424 0.781655
O O16 0.299138 0.000000 0.770115
O O17 0.036050 0.500000 0.252363
#
# Coordination Sequence:
#
# PCOD8098867 Si02
#       6
#     8   8   8   8   8   8
#     4  10  20  35  54  75 102 136 173 214 259 309
#     4  10  21  35  52  78 110 142 176 217 266 320
#     4  10  20  35  55  80 110 143 182 226 272 324
#     4  10  21  37  57  80 108 144 182 222 274 332
#     4   8  17  34  53  73 100 136 174 212 259 311
#     4  10  20  35  56  79 104 137 178 224 270 319
#
# _framework density 18.790296999999999
#
# number of rings (size 3 to 8) (size 9 to 14) (size 15 to 20)
#    0.000    2.333    0.000    3.500    0.000    3.667 
#    0.000    7.500    0.000    0.000    0.000    0.000 
#    0.000    0.000    0.000    0.000    0.000    0.000 
#
# Total GULP energy -297593.396590 kJ/mol
# GULP energy per Si atom -12399.724858 kJ/mol
# Density = 1.874753 g / cm^3
# Si number density = 18.790297 Si / 1000 Ang^3
#
#
#
# Elastic Constant Matrix: (Units=GPa)
#
#
# Indices 1 2 3 4 5 6 
#
# 1 125.6756 43.6067 94.2415 0.0000 5.9073 0.0000
# 2 43.6067 67.1989 56.6757 0.0000 5.5530 0.0000
# 3 94.2415 56.6757 160.2244 0.0000 9.5514 0.0000
# 4 0.0000 0.0000 0.0000 33.3763 0.0000 7.7236
# 5 5.9073 5.5530 9.5514 0.0000 40.0689 0.0000
# 6 0.0000 0.0000 0.0000 7.7236 0.0000 27.1305
#
#
#
# Elastic Compliance Matrix: (Units=1/GPa)
#
#
# Indices 1 2 3 4 5 6 
#
# 1 0.014705 -0.003206 -0.007519 0.000000 0.000069 0.000000
# 2 -0.003206 0.021961 -0.005812 0.000000 -0.001185 0.000000
# 3 -0.007519 -0.005812 0.012787 0.000000 -0.001134 0.000000
# 4 0.000000 0.000000 0.000000 0.032074 0.000000 -0.009131
# 5 0.000069 -0.001185 -0.001134 0.000000 0.025382 0.000000
# 6 0.000000 0.000000 0.000000 -0.009131 0.000000 0.039458
#
#
# Mechanical properties :
#
#
# Convention : Reuss Voigt Hill
#
# Bulk Modulus (GPa) = 61.05325 82.46074 71.75699
# Shear Modulus (GPa) = 27.04145 30.68681 28.86413
#
# Velocity S-wave (km/s) = 3.79769 4.04557 3.92359
# Velocity P-wave (km/s) = 7.19669 8.11186 7.66794
#
# Compressibility (1/GPa) = 0.01637915
#
# Stress axis : x y z
#
# Youngs Moduli (GPa) = 68.00602 45.53432 78.20325
#
# Poissons Ratio (x) = 0.14599 0.58801
# Poissons Ratio (y) = 0.21804 0.45450
# Poissons Ratio (z) = 0.51134 0.26464
#
# Static dielectric constant tensor:
#      x y z
#    x 3.262110 0.000000 -0.121470 
#    y 0.000000 3.411710 0.000000 
#    z -0.121470 0.000000 3.700120 
# 
# 
# High freq. dielectric constant tensor:
#      x y z
#    x 1.728640 0.000000 -0.000520 
#    y 0.000000 1.721120 0.000000 
#    z -0.000520 0.000000 1.744460 
# 
# From -- ./inp_files/221565.got.cif
#   From: 2010.06.25/outbox.cif.g09.slc.cpg/sg12_111_cif.got.tgz:221565.got - 2010.06.28 00:19:55.
