data_PCOD8098669
_publ_section_title
;
Structure prediction by ZEFSAII (Michael W. Deem and Ramdas Pophale) SiO2 
 PCOD8098669
Probable space group: C 2/M
;
_chemical_formula_sum "Si O2"
_cell_formula_units_Z 48
_cell_length_a 17.586721
_cell_length_b 18.467233
_cell_length_c 15.158089
_cell_angle_alpha 90.000000
_cell_angle_beta 150.426607
_cell_angle_gamma 90.000000
_cell_volume 2429.695141
_symmetry_space_group_name_H-M "C 2/M"
_symmetry_group_IT_number 12
_symmetry_cell_setting 'monoclinic'
loop_
_space_group_symop_operation_xyz
x,y,z
-x,y,-z
-x,-y,-z
x,-y,z
1/2+x,1/2+y,z
1/2-x,1/2+y,-z
1/2-x,1/2-y,-z
1/2+x,1/2-y,z
loop_
_atom_site_type_symbol
_atom_site_label
_atom_site_fract_x
_atom_site_fract_y
_atom_site_fract_z
Si Si1 0.675183 0.199215 0.157953
Si Si2 0.822220 0.869120 0.820208
Si Si3 0.653072 0.082339 0.817952
Si Si4 0.694975 0.322191 0.895184
Si Si5 0.174748 0.650532 0.495544
Si Si6 0.662311 0.317091 0.506198
O O1 0.702212 0.285185 0.181237
O O2 0.709572 0.166154 0.097422
O O3 0.785375 0.160961 0.342063
O O4 0.500000 0.179589 0.000000
O O5 0.723377 0.913748 0.791152
O O6 0.758835 0.891473 0.659956
O O7 0.000000 0.892049 0.000000
O O8 0.505540 0.133727 0.682234
O O9 0.606532 0.000000 0.791369
O O10 0.779975 0.109427 0.015737
O O11 0.518028 0.321781 0.690103
O O12 0.750000 0.250000 0.000000
O O13 0.248236 0.631492 0.474173
O O14 0.214204 0.734405 0.548913
#
# Coordination Sequence:
#
# PCOD8098669 Si02
#       6
#     8   8   8   8   8   8
#     4  10  20  34  61  93 123 150 197 257 313 349
#     4  10  20  35  57  88 122 162 201 244 296 366
#     4  12  25  39  56  85 126 168 203 244 305 368
#     4  12  21  37  62  88 119 159 200 255 298 355
#     4  10  20  35  58  86 120 154 200 246 301 356
#     4  10  20  35  62  91 115 148 200 260 300 348
#
# _framework density 19.755564
#
# number of rings (size 3 to 8) (size 9 to 14) (size 15 to 20)
#    0.000    1.333    3.333    3.000    4.667    4.333 
#    0.000    2.500    0.000    6.500    0.000    0.000 
#    0.000    0.000    0.000    0.000    0.000    0.000 
#
# Total GULP energy -297613.866132 kJ/mol
# GULP energy per Si atom -12400.577756 kJ/mol
# Density = 1.971060 g / cm^3
# Si number density = 19.755564 Si / 1000 Ang^3
#
#
#
# Elastic Constant Matrix: (Units=GPa)
#
#
# Indices 1 2 3 4 5 6 
#
# 1 157.4177 25.1798 56.7169 0.0000 -11.5524 0.0000
# 2 25.1798 39.2487 14.5104 0.0000 -8.9334 0.0000
# 3 56.7169 14.5104 145.1990 0.0000 -8.8063 0.0000
# 4 0.0000 0.0000 0.0000 8.4506 0.0000 -2.9977
# 5 -11.5524 -8.9334 -8.8063 0.0000 44.1570 0.0000
# 6 0.0000 0.0000 0.0000 -2.9977 0.0000 14.2293
#
#
#
# Elastic Compliance Matrix: (Units=1/GPa)
#
#
# Indices 1 2 3 4 5 6 
#
# 1 0.008012 -0.003975 -0.002686 0.000000 0.000756 0.000000
# 2 -0.003975 0.029511 -0.001111 0.000000 0.004709 0.000000
# 3 -0.002686 -0.001111 0.008089 0.000000 0.000686 0.000000
# 4 0.000000 0.000000 0.000000 0.127893 0.000000 0.026943
# 5 0.000756 0.004709 0.000686 0.000000 0.023934 0.000000
# 6 0.000000 0.000000 0.000000 0.026943 0.000000 0.075954
#
#
# Mechanical properties :
#
#
# Convention : Reuss Voigt Hill
#
# Bulk Modulus (GPa) = 33.25832 59.40885 46.33359
# Shear Modulus (GPa) = 16.72471 29.73125 23.22798
#
# Velocity S-wave (km/s) = 2.91276 3.88358 3.43267
# Velocity P-wave (km/s) = 5.30883 7.08850 6.26221
#
# Compressibility (1/GPa) = 0.03006766
#
# Stress axis : x y z
#
# Youngs Moduli (GPa) = 124.81782 33.88570 123.62360
#
# Poissons Ratio (x) = 0.13468 0.33210
# Poissons Ratio (y) = 0.49610 0.13735
# Poissons Ratio (z) = 0.33531 0.03765
#
# Static dielectric constant tensor:
#      x y z
#    x 3.837900 0.000000 -0.254250 
#    y 0.000000 3.132860 0.000000 
#    z -0.254250 0.000000 3.792530 
# 
# 
# High freq. dielectric constant tensor:
#      x y z
#    x 1.787900 0.000000 -0.005370 
#    y 0.000000 1.705470 0.000000 
#    z -0.005370 0.000000 1.789900 
# 
# From -- ./inp_files/75084.got.cif
#   From: 2010.06.25/outbox.cif.g09.slc.cpg/sg12_38_cif.got.tgz:75084.got - 2010.06.28 00:19:55.
