data_PCOD8098462
_publ_section_title
;
Structure prediction by ZEFSAII (Michael W. Deem and Ramdas Pophale) SiO2 
 PCOD8098462
Probable space group: C 2/M
;
_chemical_formula_sum "Si O2"
_cell_formula_units_Z 32
_cell_length_a 9.442242
_cell_length_b 35.839548
_cell_length_c 5.063722
_cell_angle_alpha 90.000000
_cell_angle_beta 109.983734
_cell_angle_gamma 90.000000
_cell_volume 1610.416374
_symmetry_space_group_name_H-M "C 2/M"
_symmetry_group_IT_number 12
_symmetry_cell_setting 'monoclinic'
loop_
_space_group_symop_operation_xyz
x,y,z
-x,y,-z
-x,-y,-z
x,-y,z
1/2+x,1/2+y,z
1/2-x,1/2+y,-z
1/2-x,1/2-y,-z
1/2+x,1/2-y,z
loop_
_atom_site_type_symbol
_atom_site_label
_atom_site_fract_x
_atom_site_fract_y
_atom_site_fract_z
Si Si1 0.321542 0.458615 0.891171
Si Si2 0.401699 0.151502 0.703638
Si Si3 0.178314 0.913191 0.606186
Si Si4 0.163631 0.265134 0.190205
O O1 0.253234 0.500000 0.894527
O O2 0.269696 0.443536 0.575460
O O3 0.500000 0.461318 0.000000
O O4 0.265878 0.429906 0.080002
O O5 0.500000 0.156446 0.500000
O O6 0.257362 0.125301 0.572999
O O7 0.340460 0.190602 0.774095
O O8 0.500000 0.133120 0.000000
O O9 0.000000 0.905541 0.500000
O O10 0.250000 0.250000 0.500000
O O11 0.250000 0.250000 0.000000
O O12 0.000000 0.249787 0.000000
#
# Coordination Sequence:
#
# PCOD8098462 Si02
#       4
#     8   8   8   8
#     4   9  17  31  53  82 114 145 184 239 291 330
#     4  11  23  41  60  82 118 157 186 226 294 355
#     4  10  20  34  57  86 110 144 196 239 276 333
#     4  11  23  41  63  89 118 154 196 240 293 351
#
# _framework density 19.870639000000001
#
# number of rings (size 3 to 8) (size 9 to 14) (size 15 to 20)
#    0.000    1.750    0.000    6.000    0.000    5.000 
#    0.000    2.500    0.000   15.000    0.000    0.000 
#    0.000    0.000    0.000    0.000    0.000    0.000 
#
# Total GULP energy -198236.939079 kJ/mol
# GULP energy per Si atom -12389.808692 kJ/mol
# Density = 1.982541 g / cm^3
# Si number density = 19.870639 Si / 1000 Ang^3
#
#
#
# Elastic Constant Matrix: (Units=GPa)
#
#
# Indices 1 2 3 4 5 6 
#
# 1 109.2299 73.2023 54.8130 0.0000 -18.7798 0.0000
# 2 73.2023 121.6668 41.0238 0.0000 -12.2899 0.0000
# 3 54.8130 41.0238 138.7151 0.0000 -15.2041 0.0000
# 4 0.0000 0.0000 0.0000 19.8391 0.0000 -7.1759
# 5 -18.7798 -12.2899 -15.2041 0.0000 43.8645 0.0000
# 6 0.0000 0.0000 0.0000 -7.1759 0.0000 27.3252
#
#
#
# Elastic Compliance Matrix: (Units=1/GPa)
#
#
# Indices 1 2 3 4 5 6 
#
# 1 0.017828 -0.009010 -0.003971 0.000000 0.003732 0.000000
# 2 -0.009010 0.013805 -0.000542 0.000000 -0.000178 0.000000
# 3 -0.003971 -0.000542 0.009080 0.000000 0.001296 0.000000
# 4 0.000000 0.000000 0.000000 0.055696 0.000000 0.014626
# 5 0.003732 -0.000178 0.001296 0.000000 0.024794 0.000000
# 6 0.000000 0.000000 0.000000 0.014626 0.000000 0.040437
#
#
# Mechanical properties :
#
#
# Convention : Reuss Voigt Hill
#
# Bulk Modulus (GPa) = 73.16803 78.63221 75.90012
# Shear Modulus (GPa) = 25.87423 31.57726 28.72575
#
# Velocity S-wave (km/s) = 3.61242 3.99073 3.80628
# Velocity P-wave (km/s) = 7.36896 7.80337 7.58927
#
# Compressibility (1/GPa) = 0.01366717
#
# Stress axis : x y z
#
# Youngs Moduli (GPa) = 56.09262 72.43691 110.12856
#
# Poissons Ratio (x) = 0.65268 0.43730
# Poissons Ratio (y) = 0.50542 0.05966
# Poissons Ratio (z) = 0.22273 0.03924
#
# Static dielectric constant tensor:
#      x y z
#    x 3.548500 0.000000 -0.023210 
#    y 0.000000 3.648900 0.000000 
#    z -0.023210 0.000000 3.992460 
# 
# 
# High freq. dielectric constant tensor:
#      x y z
#    x 1.760440 0.000000 -0.014360 
#    y 0.000000 1.777230 0.000000 
#    z -0.014360 0.000000 1.793590 
# 
# From -- ./inp_files/3731.got.cif
#   From: 2010.06.25/outbox.cif.g09.slc.cpg/sg12_2_cif.got.tgz:3731.got - 2010.06.28 00:19:55.
