data_PCOD8098560
_publ_section_title
;
Structure prediction by ZEFSAII (Michael W. Deem and Ramdas Pophale) SiO2 
 PCOD8098560
Probable space group: C 2/M
;
_chemical_formula_sum "Si O2"
_cell_formula_units_Z 56
_cell_length_a 29.314630
_cell_length_b 14.418634
_cell_length_c 11.953321
_cell_angle_alpha 90.000000
_cell_angle_beta 30.924545
_cell_angle_gamma 90.000000
_cell_volume 2596.469140
_symmetry_space_group_name_H-M "C 2/M"
_symmetry_group_IT_number 12
_symmetry_cell_setting 'monoclinic'
loop_
_space_group_symop_operation_xyz
x,y,z
-x,y,-z
-x,-y,-z
x,-y,z
1/2+x,1/2+y,z
1/2-x,1/2+y,-z
1/2-x,1/2-y,-z
1/2+x,1/2-y,z
loop_
_atom_site_type_symbol
_atom_site_label
_atom_site_fract_x
_atom_site_fract_y
_atom_site_fract_z
Si Si1 0.338386 0.728211 0.383947
Si Si2 0.885042 0.601927 0.423262
Si Si3 0.806426 0.896095 0.075222
Si Si4 0.578922 0.100697 0.420194
Si Si5 0.928978 0.107056 0.017062
Si Si6 0.103941 0.797927 0.312559
Si Si7 0.120378 0.892639 0.512166
O O1 0.250000 0.750000 0.500000
O O2 0.387198 0.823340 0.319902
O O3 0.412171 0.670700 0.160412
O O4 0.313886 0.667507 0.546133
O O5 0.892007 0.500000 0.351782
O O6 0.797403 0.611286 0.684682
O O7 0.956490 0.614663 0.374803
O O8 0.852058 0.864706 0.093829
O O9 0.838257 0.000000 0.978555
O O10 0.834407 0.829545 0.917365
O O11 0.500000 0.094081 0.500000
O O12 0.634601 0.191674 0.269320
O O13 0.630499 0.000000 0.305216
O O14 0.922175 0.000000 0.070633
O O15 0.021698 0.127909 0.763505
O O16 0.126473 0.860385 0.372143
O O17 0.000000 0.806688 0.500000
O O18 0.147144 0.000000 0.463458
#
# Coordination Sequence:
#
# PCOD8098560 Si02
#       7
#     8   8   8   8   8   8   8
#     4  12  23  38  60  85 117 160 209 251 296 355
#     4  10  21  39  60  84 117 161 206 245 301 362
#     4  10  20  34  57  91 124 158 194 240 306 374
#     4   9  19  37  59  83 113 155 207 250 290 351
#     4  10  21  39  63  90 124 162 202 248 306 371
#     4  11  20  34  62  93 123 154 194 243 303 368
#     4  11  23  39  61  94 127 159 198 251 312 369
#
# _framework density 21.567751999999999
#
# number of rings (size 3 to 8) (size 9 to 14) (size 15 to 20)
#    0.000    1.571    4.286    1.286    0.000    2.857 
#    0.000    0.000    0.000    4.286    0.000    0.000 
#    0.000    0.000    0.000    0.000    0.000    0.000 
#
# Total GULP energy -346979.563741 kJ/mol
# GULP energy per Si atom -12392.127276 kJ/mol
# Density = 2.151866 g / cm^3
# Si number density = 21.567752 Si / 1000 Ang^3
#
#
#
# Elastic Constant Matrix: (Units=GPa)
#
#
# Indices 1 2 3 4 5 6 
#
# 1 118.8969 47.0020 2.1855 0.0000 8.4888 0.0000
# 2 47.0020 162.8846 17.9967 0.0000 26.5761 0.0000
# 3 2.1855 17.9967 42.1540 0.0000 14.1916 0.0000
# 4 0.0000 0.0000 0.0000 12.8411 0.0000 11.9824
# 5 8.4888 26.5761 14.1916 0.0000 29.5862 0.0000
# 6 0.0000 0.0000 0.0000 11.9824 0.0000 43.2153
#
#
#
# Elastic Compliance Matrix: (Units=1/GPa)
#
#
# Indices 1 2 3 4 5 6 
#
# 1 0.009525 -0.002733 0.000914 0.000000 -0.000717 0.000000
# 2 -0.002733 0.008018 -0.001337 0.000000 -0.005777 0.000000
# 3 0.000914 -0.001337 0.028538 0.000000 -0.012751 0.000000
# 4 0.000000 0.000000 0.000000 0.105057 0.000000 -0.029129
# 5 -0.000717 -0.005777 -0.012751 0.000000 0.045311 0.000000
# 6 0.000000 0.000000 0.000000 -0.029129 0.000000 0.031217
#
#
# Mechanical properties :
#
#
# Convention : Reuss Voigt Hill
#
# Bulk Modulus (GPa) = 25.14348 50.92265 38.03307
# Shear Modulus (GPa) = 20.22380 34.24526 27.23453
#
# Velocity S-wave (km/s) = 3.06549 3.98904 3.55736
# Velocity P-wave (km/s) = 4.92066 6.69914 5.87755
#
# Compressibility (1/GPa) = 0.03977174
#
# Stress axis : x y z
#
# Youngs Moduli (GPa) = 104.98369 124.71739 35.04050
#
# Poissons Ratio (x) = 0.34081 -0.03203
# Poissons Ratio (y) = 0.28689 0.04683
# Poissons Ratio (z) = -0.09597 0.16669
#
# Static dielectric constant tensor:
#      x y z
#    x 4.439990 0.000000 0.042250 
#    y 0.000000 4.436110 0.000000 
#    z 0.042250 0.000000 3.301770 
# 
# 
# High freq. dielectric constant tensor:
#      x y z
#    x 1.881950 0.000000 0.007590 
#    y 0.000000 1.866660 0.000000 
#    z 0.007590 0.000000 1.787550 
# 
# From -- ./inp_files/189249.got.cif
#   From: 2010.06.25/outbox.cif.g09.slc.cpg/sg12_95_cif.got.tgz:189249.got - 2010.06.28 00:19:55.
