data_PCOD8098996
_publ_section_title
;
Structure prediction by ZEFSAII (Michael W. Deem and Ramdas Pophale) SiO2 
 PCOD8098996
Probable space group: C 2/M
;
_chemical_formula_sum "Si O2"
_cell_formula_units_Z 56
_cell_length_a 16.278272
_cell_length_b 12.782744
_cell_length_c 14.384432
_cell_angle_alpha 90.000000
_cell_angle_beta 94.900330
_cell_angle_gamma 90.000000
_cell_volume 2982.186297
_symmetry_space_group_name_H-M "C 2/M"
_symmetry_group_IT_number 12
_symmetry_cell_setting 'monoclinic'
loop_
_space_group_symop_operation_xyz
x,y,z
-x,y,-z
-x,-y,-z
x,-y,z
1/2+x,1/2+y,z
1/2-x,1/2+y,-z
1/2-x,1/2-y,-z
1/2+x,1/2-y,z
loop_
_atom_site_type_symbol
_atom_site_label
_atom_site_fract_x
_atom_site_fract_y
_atom_site_fract_z
Si Si1 0.776763 0.882611 0.681146
Si Si2 0.825797 0.879901 0.182762
Si Si3 0.111056 0.726339 0.653290
Si Si4 0.844731 0.241291 0.536911
Si Si5 0.438626 0.875345 0.687784
Si Si6 0.839389 0.271074 0.835690
Si Si7 0.596771 0.382821 0.004532
O O1 0.682063 0.860317 0.643681
O O2 0.844300 0.857469 0.607109
O O3 0.795499 0.818147 0.773752
O O4 0.788104 0.000000 0.711802
O O5 0.861188 0.814520 0.272230
O O6 0.731095 0.855261 0.147027
O O7 0.832055 0.000000 0.213799
O O8 0.880015 0.854678 0.098323
O O9 0.098884 0.777597 0.548964
O O10 0.028706 0.670055 0.677372
O O11 0.750000 0.250000 0.500000
O O12 0.876082 0.341754 0.599320
O O13 0.410855 0.829903 0.785011
O O14 0.441503 0.000000 0.692097
O O15 0.872494 0.213414 0.930089
O O16 0.631214 0.500000 0.034759
O O17 0.500000 0.386364 0.000000
#
# Coordination Sequence:
#
# PCOD8098996 Si02
#       7
#     8   8   8   8   8   8   8
#     4   9  18  33  53  76 104 140 179 221 268 316
#     4  10  21  37  58  81 108 145 183 220 269 325
#     4  10  20  35  54  81 110 138 179 225 268 318
#     4   9  20  34  50  76 106 139 179 217 257 313
#     4  11  22  36  57  82 109 142 178 221 274 325
#     4  10  20  35  55  80 110 140 179 225 266 320
#     4  10  20  35  57  82 108 144 184 223 271 320
#
# _framework density 18.778168999999998
#
# number of rings (size 3 to 8) (size 9 to 14) (size 15 to 20)
#    0.000    2.143    0.000    3.857    0.000    4.000 
#    0.000    2.857    0.000   14.571    0.000    0.000 
#    0.000    0.000    0.000    0.000    0.000    0.000 
#
# Total GULP energy -347011.718387 kJ/mol
# GULP energy per Si atom -12393.275657 kJ/mol
# Density = 1.873543 g / cm^3
# Si number density = 18.778169 Si / 1000 Ang^3
#
#
#
# Elastic Constant Matrix: (Units=GPa)
#
#
# Indices 1 2 3 4 5 6 
#
# 1 73.2798 50.2607 22.6875 0.0000 -20.6887 0.0000
# 2 50.2607 115.9915 52.9632 0.0000 -5.9518 0.0000
# 3 22.6875 52.9632 100.1668 0.0000 -18.4374 0.0000
# 4 0.0000 0.0000 0.0000 36.2495 0.0000 -33.3398
# 5 -20.6887 -5.9518 -18.4374 0.0000 37.1526 0.0000
# 6 0.0000 0.0000 0.0000 -33.3398 0.0000 79.3082
#
#
#
# Elastic Compliance Matrix: (Units=1/GPa)
#
#
# Indices 1 2 3 4 5 6 
#
# 1 0.023993 -0.010994 0.002767 0.000000 0.012972 0.000000
# 2 -0.010994 0.016458 -0.007543 0.000000 -0.007229 0.000000
# 3 0.002767 -0.007543 0.014754 0.000000 0.007654 0.000000
# 4 0.000000 0.000000 0.000000 0.044976 0.000000 0.018907
# 5 0.012972 -0.007229 0.007654 0.000000 0.036780 0.000000
# 6 0.000000 0.000000 0.000000 0.018907 0.000000 0.020557
#
#
# Mechanical properties :
#
#
# Convention : Reuss Voigt Hill
#
# Bulk Modulus (GPa) = 42.25763 60.14011 51.19887
# Shear Modulus (GPa) = 25.38758 41.44384 33.41571
#
# Velocity S-wave (km/s) = 3.68091 4.70299 4.22299
# Velocity P-wave (km/s) = 6.37322 7.84774 7.14860
#
# Compressibility (1/GPa) = 0.02366437
#
# Stress axis : x y z
#
# Youngs Moduli (GPa) = 41.67952 60.75938 67.77895
#
# Poissons Ratio (x) = 0.66798 -0.18751
# Poissons Ratio (y) = 0.45822 0.51124
# Poissons Ratio (z) = -0.11531 0.45830
#
# Static dielectric constant tensor:
#      x y z
#    x 3.601160 0.000000 -0.163740 
#    y 0.000000 3.581300 0.000000 
#    z -0.163740 0.000000 3.682420 
# 
# 
# High freq. dielectric constant tensor:
#      x y z
#    x 1.731780 0.000000 -0.013700 
#    y 0.000000 1.721590 0.000000 
#    z -0.013700 0.000000 1.736810 
# 
# From -- ./inp_files/213385.got.cif
#   From: 2010.06.25/outbox.cif.g09.slc.cpg/sg12_107_cif.got.tgz:213385.got - 2010.06.28 00:19:55.
