data_PCOD8098105
_publ_section_title
;
Structure prediction by ZEFSAII (Michael W. Deem and Ramdas Pophale) SiO2 
 PCOD8098105
Probable space group: C 2/M
;
_chemical_formula_sum "Si O2"
_cell_formula_units_Z 64
_cell_length_a 23.280484
_cell_length_b 8.778812
_cell_length_c 17.104899
_cell_angle_alpha 90.000000
_cell_angle_beta 77.498129
_cell_angle_gamma 90.000000
_cell_volume 3412.924151
_symmetry_space_group_name_H-M "C 2/M"
_symmetry_group_IT_number 12
_symmetry_cell_setting 'monoclinic'
loop_
_space_group_symop_operation_xyz
x,y,z
-x,y,-z
-x,-y,-z
x,-y,z
1/2+x,1/2+y,z
1/2-x,1/2+y,-z
1/2-x,1/2-y,-z
1/2+x,1/2-y,z
loop_
_atom_site_type_symbol
_atom_site_label
_atom_site_fract_x
_atom_site_fract_y
_atom_site_fract_z
Si Si1 0.850384 0.819448 0.608117
Si Si2 0.035342 0.319633 0.717990
Si Si3 0.597025 0.819937 0.252178
Si Si4 0.619365 0.819393 0.557660
Si Si5 0.193734 0.176298 0.924541
Si Si6 0.816783 0.823825 0.892847
Si Si7 0.718611 0.820017 0.643054
Si Si8 0.633637 0.179971 0.804588
O O1 0.879111 0.758460 0.677787
O O2 0.887943 0.762211 0.523291
O O3 0.784169 0.751487 0.620807
O O4 0.850025 0.000000 0.610886
O O5 0.037543 0.500000 0.717056
O O6 0.065541 0.264112 0.628389
O O7 0.072775 0.264395 0.782304
O O8 0.969072 0.258368 0.743141
O O9 0.635395 0.775268 0.166332
O O10 0.597968 0.000000 0.263549
O O11 0.680381 0.764066 0.580097
O O12 0.618299 0.000000 0.545589
O O13 0.251619 0.273172 0.887246
O O14 0.141142 0.231554 0.883957
O O15 0.208505 0.000000 0.907007
O O16 0.172616 0.206653 0.018861
O O17 0.824138 0.000000 0.867945
O O18 0.687401 0.770180 0.732628
O O19 0.720925 0.000000 0.639829
O O20 0.633260 0.000000 0.820367
#
# Coordination Sequence:
#
# PCOD8098105 Si02
#       8
#     8   8   8   8   8   8   8   8
#     4  11  21  32  48  76 108 135 167 212 269 322
#     4   8  18  36  56  75  99 136 181 224 261 302
#     4  11  22  37  55  75 100 135 181 224 261 306
#     4   9  17  34  55  73  96 132 175 214 256 307
#     4  10  20  34  55  84 112 137 168 206 252 310
#     4  10  21  37  55  78 110 142 169 206 258 309
#     4   8  16  30  50  74 102 133 165 207 258 310
#     4   9  16  32  57  79 101 136 178 217 260 306
#
# _framework density 18.752248000000002
#
# number of rings (size 3 to 8) (size 9 to 14) (size 15 to 20)
#    0.000    2.500    0.000    4.125    0.000    3.000 
#    0.000    9.375    0.000    3.750    0.000    0.000 
#    0.000    0.000    0.000    0.000    0.000    0.000 
#
# Total GULP energy -396792.043215 kJ/mol
# GULP energy per Si atom -12399.751350 kJ/mol
# Density = 1.870957 g / cm^3
# Si number density = 18.752248 Si / 1000 Ang^3
#
#
#
# Elastic Constant Matrix: (Units=GPa)
#
#
# Indices 1 2 3 4 5 6 
#
# 1 112.1300 24.2560 61.7096 0.0000 -3.7630 0.0000
# 2 24.2560 47.8845 32.2239 0.0000 3.5672 0.0000
# 3 61.7096 32.2239 112.6298 0.0000 7.2340 0.0000
# 4 0.0000 0.0000 0.0000 31.2236 0.0000 2.8607
# 5 -3.7630 3.5672 7.2340 0.0000 12.7815 0.0000
# 6 0.0000 0.0000 0.0000 2.8607 0.0000 23.8217
#
#
#
# Elastic Compliance Matrix: (Units=1/GPa)
#
#
# Indices 1 2 3 4 5 6 
#
# 1 0.013890 -0.002721 -0.007412 0.000000 0.009044 0.000000
# 2 -0.002721 0.026519 -0.005779 0.000000 -0.004931 0.000000
# 3 -0.007412 -0.005779 0.015182 0.000000 -0.009162 0.000000
# 4 0.000000 0.000000 0.000000 0.032383 0.000000 -0.003889
# 5 0.009044 -0.004931 -0.009162 0.000000 0.087462 0.000000
# 6 0.000000 0.000000 0.000000 -0.003889 0.000000 0.042446
#
#
# Mechanical properties :
#
#
# Convention : Reuss Voigt Hill
#
# Bulk Modulus (GPa) = 42.08056 56.55814 49.31935
# Shear Modulus (GPa) = 19.40773 23.86235 21.63504
#
# Velocity S-wave (km/s) = 3.22056 3.57109 3.40035
# Velocity P-wave (km/s) = 6.02647 6.87239 6.46329
#
# Compressibility (1/GPa) = 0.02376394
#
# Stress axis : x y z
#
# Youngs Moduli (GPa) = 71.99515 37.70923 65.86810
#
# Poissons Ratio (x) = 0.10262 0.48825
# Poissons Ratio (y) = 0.19593 0.38067
# Poissons Ratio (z) = 0.53366 0.21793
#
# Static dielectric constant tensor:
#      x y z
#    x 3.738950 0.000000 0.011030 
#    y 0.000000 3.178330 0.000000 
#    z 0.011030 0.000000 3.461980 
# 
# 
# High freq. dielectric constant tensor:
#      x y z
#    x 1.723060 0.000000 0.008330 
#    y 0.000000 1.708230 0.000000 
#    z 0.008330 0.000000 1.732850 
# 
# From -- ./inp_files/287611.got.cif
#   From: 2010.06.25/outbox.cif.g09.slc.cpg/sg12_144_cif.got.tgz:287611.got - 2010.06.28 00:19:55.
