data_PCOD8098080
_publ_section_title
;
Structure prediction by ZEFSAII (Michael W. Deem and Ramdas Pophale) SiO2 
 PCOD8098080
Probable space group: C 2/M
;
_chemical_formula_sum "Si O2"
_cell_formula_units_Z 64
_cell_length_a 27.853731
_cell_length_b 9.353492
_cell_length_c 18.475694
_cell_angle_alpha 90.000000
_cell_angle_beta 44.449842
_cell_angle_gamma 90.000000
_cell_volume 3370.796180
_symmetry_space_group_name_H-M "C 2/M"
_symmetry_group_IT_number 12
_symmetry_cell_setting 'monoclinic'
loop_
_space_group_symop_operation_xyz
x,y,z
-x,y,-z
-x,-y,-z
x,-y,z
1/2+x,1/2+y,z
1/2-x,1/2+y,-z
1/2-x,1/2-y,-z
1/2+x,1/2-y,z
loop_
_atom_site_type_symbol
_atom_site_label
_atom_site_fract_x
_atom_site_fract_y
_atom_site_fract_z
Si Si1 0.899004 0.835920 0.500560
Si Si2 0.355044 0.170160 0.689278
Si Si3 0.487365 0.163398 0.094458
Si Si4 0.837623 0.662741 0.222477
Si Si5 0.554453 0.666855 0.293428
Si Si6 0.199096 0.835508 0.871873
Si Si7 0.080711 0.165017 0.102394
Si Si8 0.728853 0.664791 0.452888
O O1 0.876898 0.731379 0.588384
O O2 0.850190 0.810623 0.483650
O O3 0.974870 0.800382 0.392329
O O4 0.892875 0.000000 0.534513
O O5 0.403289 0.236505 0.697684
O O6 0.277483 0.217167 0.792721
O O7 0.363933 0.000000 0.678722
O O8 0.406217 0.176986 0.196586
O O9 0.526135 0.252567 0.112839
O O10 0.513163 0.000000 0.071592
O O11 0.500000 0.222927 0.000000
O O12 0.824797 0.500000 0.212650
O O13 0.843417 0.751864 0.142931
O O14 0.774540 0.721702 0.337190
O O15 0.571218 0.500000 0.288254
O O16 0.575394 0.717176 0.190614
O O17 0.197662 0.000000 0.850719
O O18 0.158755 0.809425 0.990764
O O19 0.059901 0.000000 0.119636
O O20 0.745371 0.500000 0.450606
O O21 0.750000 0.750000 0.500000
#
# Coordination Sequence:
#
# PCOD8098080 Si02
#       8
#     8   8   8   8   8   8   8   8
#     4  10  21  40  63  85 113 151 193 232 277 341
#     4  11  23  39  61  88 113 143 188 242 292 338
#     4  10  20  34  55  83 114 147 186 229 274 330
#     4  10  20  36  56  81 113 152 192 229 277 337
#     4  10  23  41  60  84 114 150 190 235 285 341
#     4  10  21  37  58  85 115 147 190 239 281 331
#     4  10  22  39  58  83 116 153 192 232 280 338
#     4  10  22  37  56  84 118 152 188 230 280 333
#
# _framework density 18.986612000000001
#
# number of rings (size 3 to 8) (size 9 to 14) (size 15 to 20)
#    0.000    1.875    2.500    0.750    1.750    5.250 
#    0.000    0.000    0.000    0.000    0.000    0.000 
#    0.000    0.000    0.000    0.000    0.000    0.000 
#
# Total GULP energy -396859.600185 kJ/mol
# GULP energy per Si atom -12401.862506 kJ/mol
# Density = 1.894340 g / cm^3
# Si number density = 18.986612 Si / 1000 Ang^3
#
#
#
# Elastic Constant Matrix: (Units=GPa)
#
#
# Indices 1 2 3 4 5 6 
#
# 1 119.9728 53.5675 60.8379 0.0473 4.3930 -0.0721
# 2 53.5675 64.1814 47.5691 0.0280 6.3683 -0.0297
# 3 60.8379 47.5691 125.9943 0.0262 -2.6514 -0.0352
# 4 0.0473 0.0280 0.0262 20.5095 -0.0459 -2.9329
# 5 4.3930 6.3683 -2.6514 -0.0459 31.7104 0.0670
# 6 -0.0721 -0.0297 -0.0352 -2.9329 0.0670 33.0947
#
#
#
# Elastic Compliance Matrix: (Units=1/GPa)
#
#
# Indices 1 2 3 4 5 6 
#
# 1 0.014221 -0.009355 -0.003343 -0.000014 -0.000371 0.000019
# 2 -0.009355 0.028623 -0.006394 -0.000020 -0.004987 0.000007
# 3 -0.003343 -0.006394 0.012023 0.000006 0.002753 -0.000005
# 4 -0.000014 -0.000020 0.000006 0.049384 0.000069 0.004376
# 5 -0.000371 -0.004987 0.002753 0.000069 0.032819 -0.000063
# 6 0.000019 0.000007 -0.000005 0.004376 -0.000063 0.030604
#
#
# Mechanical properties :
#
#
# Convention : Reuss Voigt Hill
#
# Bulk Modulus (GPa) = 59.94123 70.45527 65.19825
# Shear Modulus (GPa) = 23.64988 26.94120 25.29554
#
# Velocity S-wave (km/s) = 3.53315 3.77099 3.65400
# Velocity P-wave (km/s) = 6.94859 7.49326 7.22606
#
# Compressibility (1/GPa) = 0.01668301
#
# Stress axis : x y z
#
# Youngs Moduli (GPa) = 70.32004 34.93727 83.17413
#
# Poissons Ratio (x) = 0.32683 0.27801
# Poissons Ratio (y) = 0.65783 0.53185
# Poissons Ratio (z) = 0.23505 0.22340
#
# Static dielectric constant tensor:
#      x y z
#    x 3.435270 -0.000020 -0.151650 
#    y -0.000020 3.419440 0.000030 
#    z -0.151650 0.000030 3.760060 
# 
# 
# High freq. dielectric constant tensor:
#      x y z
#    x 1.737380 0.000000 -0.011530 
#    y 0.000000 1.731440 0.000000 
#    z -0.011530 0.000000 1.749700 
# 
# From -- ./inp_files/295638.got.cif
#   From: 2010.06.25/outbox.cif.g09.slc.cpg/sg12_148_cif.got.tgz:295638.got - 2010.06.28 00:19:55.
