data_PCOD8098371
_publ_section_title
;
Structure prediction by ZEFSAII (Michael W. Deem and Ramdas Pophale) SiO2 
 PCOD8098371
Probable space group: C 2/M
;
_chemical_formula_sum "Si O2"
_cell_formula_units_Z 48
_cell_length_a 24.439501
_cell_length_b 8.997269
_cell_length_c 19.602308
_cell_angle_alpha 90.000000
_cell_angle_beta 33.715113
_cell_angle_gamma 90.000000
_cell_volume 2392.506879
_symmetry_space_group_name_H-M "C 2/M"
_symmetry_group_IT_number 12
_symmetry_cell_setting 'monoclinic'
loop_
_space_group_symop_operation_xyz
x,y,z
-x,y,-z
-x,-y,-z
x,-y,z
1/2+x,1/2+y,z
1/2-x,1/2+y,-z
1/2-x,1/2-y,-z
1/2+x,1/2-y,z
loop_
_atom_site_type_symbol
_atom_site_label
_atom_site_fract_x
_atom_site_fract_y
_atom_site_fract_z
Si Si1 0.236286 0.823609 0.199172
Si Si2 0.948252 0.672481 0.358837
Si Si3 0.672919 0.173818 0.130883
Si Si4 0.041734 0.676739 0.026940
Si Si5 0.370608 0.176392 0.298099
Si Si6 0.813909 0.175873 0.596256
O O1 0.175277 0.740995 0.204255
O O2 0.196386 0.773658 0.314667
O O3 0.226859 0.000000 0.199106
O O4 0.348041 0.766571 0.074907
O O5 0.933008 0.500000 0.390418
O O6 0.877175 0.725590 0.370268
O O7 0.915898 0.761825 0.459910
O O8 0.061555 0.703358 0.220782
O O9 0.697476 0.000000 0.107156
O O10 0.750000 0.250000 0.000000
O O11 0.043525 0.500000 0.021219
O O12 0.970831 0.736383 0.159760
O O13 0.000000 0.742645 0.000000
O O14 0.276026 0.241720 0.356350
O O15 0.368648 0.000000 0.293831
O O16 0.814923 0.000000 0.591066
#
# Coordination Sequence:
#
# PCOD8098371 Si02
#       6
#     8   8   8   8   8   8
#     4  10  20  35  58  88 117 148 187 233 281 331
#     4  10  22  38  56  79 111 151 191 229 278 336
#     4  11  24  42  62  84 110 146 189 233 281 336
#     4   9  14  26  52  83 111 140 180 230 278 328
#     4   9  16  30  53  82 112 143 184 233 280 330
#     4  10  20  34  56  86 115 145 187 233 279 329
#
# _framework density 20.062639000000001
#
# number of rings (size 3 to 8) (size 9 to 14) (size 15 to 20)
#    0.000    2.167    1.667    2.000    0.000    5.333 
#    0.000    3.333    0.000    1.500    0.000    0.000 
#    0.000    0.000    0.000    0.000    0.000    0.000 
#
# Total GULP energy -297541.828781 kJ/mol
# GULP energy per Si atom -12397.576199 kJ/mol
# Density = 2.001698 g / cm^3
# Si number density = 20.062639 Si / 1000 Ang^3
#
#
#
# Elastic Constant Matrix: (Units=GPa)
#
#
# Indices 1 2 3 4 5 6 
#
# 1 116.2650 36.9238 37.0048 -0.0001 15.3520 0.0001
# 2 36.9238 39.8898 34.8572 0.0018 6.5436 -0.0013
# 3 37.0048 34.8572 126.6800 -0.0003 22.0895 -0.0003
# 4 -0.0001 0.0018 -0.0003 28.7196 -0.0004 2.5688
# 5 15.3520 6.5436 22.0895 -0.0004 30.7128 0.0001
# 6 0.0001 -0.0013 -0.0003 2.5688 0.0001 24.6182
#
#
#
# Elastic Compliance Matrix: (Units=1/GPa)
#
#
# Indices 1 2 3 4 5 6 
#
# 1 0.012631 -0.011087 0.000057 0.000001 -0.003993 -0.000001
# 2 -0.011087 0.042745 -0.009034 -0.000003 0.002932 0.000002
# 3 0.000057 -0.009034 0.011471 0.000001 -0.006354 0.000000
# 4 0.000001 -0.000003 0.000001 0.035147 0.000000 -0.003668
# 5 -0.003993 0.002932 -0.006354 0.000000 0.038501 0.000000
# 6 -0.000001 0.000002 0.000000 -0.003668 0.000000 0.041003
#
#
# Mechanical properties :
#
#
# Convention : Reuss Voigt Hill
#
# Bulk Modulus (GPa) = 37.42649 55.60072 46.51361
# Shear Modulus (GPa) = 21.68883 28.41338 25.05110
#
# Velocity S-wave (km/s) = 3.29151 3.76737 3.53745
# Velocity P-wave (km/s) = 5.75679 6.83358 6.31817
#
# Compressibility (1/GPa) = 0.02671904
#
# Stress axis : x y z
#
# Youngs Moduli (GPa) = 79.16992 23.39441 87.17563
#
# Poissons Ratio (x) = 0.25937 -0.00499
# Poissons Ratio (y) = 0.87775 0.78759
# Poissons Ratio (z) = -0.00453 0.21136
#
# Static dielectric constant tensor:
#      x y z
#    x 3.828970 0.000000 0.000420 
#    y 0.000000 3.149050 0.000000 
#    z 0.000420 0.000000 3.735140 
# 
# 
# High freq. dielectric constant tensor:
#      x y z
#    x 1.791280 0.000000 0.004850 
#    y 0.000000 1.733930 0.000000 
#    z 0.004850 0.000000 1.795960 
# 
# From -- ./inp_files/327151.got.cif
#   From: 2010.06.25/outbox.cif.g09.slc.cpg/sg12_164_cif.got.tgz:327151.got - 2010.06.28 00:19:55.
