data_PCOD8098377
_publ_section_title
;
Structure prediction by ZEFSAII (Michael W. Deem and Ramdas Pophale) SiO2 
 PCOD8098377
Probable space group: C 2/M
;
_chemical_formula_sum "Si O2"
_cell_formula_units_Z 56
_cell_length_a 20.268133
_cell_length_b 9.022679
_cell_length_c 14.634829
_cell_angle_alpha 90.000000
_cell_angle_beta 86.421324
_cell_angle_gamma 90.000000
_cell_volume 2671.094271
_symmetry_space_group_name_H-M "C 2/M"
_symmetry_group_IT_number 12
_symmetry_cell_setting 'monoclinic'
loop_
_space_group_symop_operation_xyz
x,y,z
-x,y,-z
-x,-y,-z
x,-y,z
1/2+x,1/2+y,z
1/2-x,1/2+y,-z
1/2-x,1/2-y,-z
1/2+x,1/2-y,z
loop_
_atom_site_type_symbol
_atom_site_label
_atom_site_fract_x
_atom_site_fract_y
_atom_site_fract_z
Si Si1 0.372790 0.324580 0.873744
Si Si2 0.257336 0.175489 0.220404
Si Si3 0.858851 0.171283 0.079221
Si Si4 0.909192 0.670786 0.553871
Si Si5 0.039009 0.325297 0.635984
Si Si6 0.237191 0.327120 0.405107
Si Si7 0.017249 0.829995 0.815519
O O1 0.379541 0.500000 0.878101
O O2 0.315511 0.275260 0.808382
O O3 0.444558 0.257920 0.839297
O O4 0.352880 0.268699 0.976446
O O5 0.311698 0.227565 0.144136
O O6 0.273898 0.249845 0.317106
O O7 0.261914 0.000000 0.231954
O O8 0.935755 0.189001 0.100698
O O9 0.836464 0.000000 0.090858
O O10 0.927400 0.500000 0.541385
O O11 0.910555 0.729947 0.448353
O O12 0.840132 0.698143 0.608521
O O13 0.966618 0.737057 0.612276
O O14 0.042018 0.500000 0.652898
O O15 0.056269 0.248456 0.729524
O O16 0.256351 0.500000 0.409304
O O17 0.250000 0.250000 0.500000
O O18 0.008291 0.000000 0.789526
#
# Coordination Sequence:
#
# PCOD8098377 Si02
#       7
#     8   8   8   8   8   8   8
#     4   9  19  38  62  85 114 153 197 240 287 343
#     4  11  23  39  60  86 116 154 196 241 289 342
#     4  10  21  38  60  86 117 154 193 239 291 346
#     4   8  17  34  55  77 105 144 188 227 273 333
#     4   9  17  33  56  80 107 144 184 226 279 339
#     4  11  23  39  58  83 115 153 192 234 283 340
#     4  10  20  34  56  86 116 146 187 236 289 342
#
# _framework density 20.96519
#
# number of rings (size 3 to 8) (size 9 to 14) (size 15 to 20)
#    0.000    2.286    0.000    3.429    2.000    2.286 
#    0.000    5.000    0.000    1.714    0.000    0.000 
#    0.000    0.000    0.000    0.000    0.000    0.000 
#
# Total GULP energy -347100.932894 kJ/mol
# GULP energy per Si atom -12396.461889 kJ/mol
# Density = 2.091747 g / cm^3
# Si number density = 20.965190 Si / 1000 Ang^3
#
#
#
# Elastic Constant Matrix: (Units=GPa)
#
#
# Indices 1 2 3 4 5 6 
#
# 1 57.0967 24.2015 10.1449 0.0000 -6.9837 0.0000
# 2 24.2015 67.5334 41.4843 0.0000 -0.6742 0.0000
# 3 10.1449 41.4843 133.2464 0.0000 -3.0207 0.0000
# 4 0.0000 0.0000 0.0000 31.3012 0.0000 -2.3290
# 5 -6.9837 -0.6742 -3.0207 0.0000 32.2523 0.0000
# 6 0.0000 0.0000 0.0000 -2.3290 0.0000 21.7328
#
#
#
# Elastic Compliance Matrix: (Units=1/GPa)
#
#
# Indices 1 2 3 4 5 6 
#
# 1 0.021388 -0.008262 0.001047 0.000000 0.004557 0.000000
# 2 -0.008262 0.021502 -0.006109 0.000000 -0.001912 0.000000
# 3 0.001047 -0.006109 0.009349 0.000000 0.000975 0.000000
# 4 0.000000 0.000000 0.000000 0.032204 0.000000 0.003451
# 5 0.004557 -0.001912 0.000975 0.000000 0.032044 0.000000
# 6 0.000000 0.000000 0.000000 0.003451 0.000000 0.046383
#
#
# Mechanical properties :
#
#
# Convention : Reuss Voigt Hill
#
# Bulk Modulus (GPa) = 39.07607 45.50420 42.29013
# Shear Modulus (GPa) = 25.24655 29.19366 27.22010
#
# Velocity S-wave (km/s) = 3.47394 3.73565 3.60717
# Velocity P-wave (km/s) = 5.89661 6.35283 6.12897
#
# Compressibility (1/GPa) = 0.02559111
#
# Stress axis : x y z
#
# Youngs Moduli (GPa) = 46.75618 46.50801 106.96276
#
# Poissons Ratio (x) = 0.38427 -0.11202
# Poissons Ratio (y) = 0.38632 0.65338
# Poissons Ratio (z) = -0.04897 0.28409
#
# Static dielectric constant tensor:
#      x y z
#    x 4.158330 0.000000 0.004310 
#    y 0.000000 3.404740 0.000000 
#    z 0.004310 0.000000 3.841570 
# 
# 
# High freq. dielectric constant tensor:
#      x y z
#    x 1.826740 0.000000 -0.000880 
#    y 0.000000 1.783070 0.000000 
#    z -0.000880 0.000000 1.834720 
# 
# From -- ./inp_files/230842.got.cif
#   From: 2010.06.25/outbox.cif.g09.slc.cpg/sg12_116_cif.got.tgz:230842.got - 2010.06.28 00:19:55.
