data_PCOD8098000
_publ_section_title
;
Structure prediction by ZEFSAII (Michael W. Deem and Ramdas Pophale) SiO2 
 PCOD8098000
Probable space group: C 2/M
;
_chemical_formula_sum "Si O2"
_cell_formula_units_Z 48
_cell_length_a 11.700866
_cell_length_b 26.179279
_cell_length_c 11.790862
_cell_angle_alpha 90.000000
_cell_angle_beta 132.146408
_cell_angle_gamma 90.000000
_cell_volume 2677.891052
_symmetry_space_group_name_H-M "C 2/M"
_symmetry_group_IT_number 12
_symmetry_cell_setting 'monoclinic'
loop_
_space_group_symop_operation_xyz
x,y,z
-x,y,-z
-x,-y,-z
x,-y,z
1/2+x,1/2+y,z
1/2-x,1/2+y,-z
1/2-x,1/2-y,-z
1/2+x,1/2-y,z
loop_
_atom_site_type_symbol
_atom_site_label
_atom_site_fract_x
_atom_site_fract_y
_atom_site_fract_z
Si Si1 0.811135 0.134947 0.558273
Si Si2 0.316717 0.443040 0.375089
Si Si3 0.329988 0.187054 0.347318
Si Si4 0.833715 0.696773 0.084922
Si Si5 0.310680 0.790283 0.701072
Si Si6 0.673763 0.639712 0.793087
O O1 0.757882 0.085562 0.449743
O O2 0.728215 0.135275 0.626771
O O3 0.752799 0.186058 0.457019
O O4 0.993178 0.136007 0.694387
O O5 0.500000 0.444933 0.500000
O O6 0.245906 0.500000 0.323629
O O7 0.264325 0.411659 0.228216
O O8 0.500000 0.202098 0.500000
O O9 0.320328 0.180978 0.206652
O O10 0.212164 0.229899 0.312879
O O11 0.009327 0.699342 0.162142
O O12 0.750000 0.750000 0.000000
O O13 0.757186 0.649044 0.968036
O O14 0.210481 0.812055 0.738278
#
# Coordination Sequence:
#
# PCOD8098000 Si02
#       6
#     8   8   8   8   8   8
#     4  10  20  35  56  79 105 139 181 224 263 324
#     4   8  16  34  61  87 105 130 176 231 279 317
#     4  12  23  35  53  75 108 155 188 216 259 323
#     4  12  24  35  49  78 113 153 182 218 262 317
#     4  11  21  35  52  73 110 147 187 219 254 316
#     4  10  20  34  55  82 108 139 175 230 272 306
#
# _framework density 17.924551999999998
#
# number of rings (size 3 to 8) (size 9 to 14) (size 15 to 20)
#    0.000    1.500    3.333    4.500    0.000    2.000 
#    0.000    0.000    0.000    9.500    0.000    4.667 
#    0.000    0.000    0.000    0.000    0.000    0.000 
#
# Total GULP energy -297542.211288 kJ/mol
# GULP energy per Si atom -12397.592137 kJ/mol
# Density = 1.788375 g / cm^3
# Si number density = 17.924552 Si / 1000 Ang^3
#
#
#
# Elastic Constant Matrix: (Units=GPa)
#
#
# Indices 1 2 3 4 5 6 
#
# 1 82.4019 34.0926 46.3879 0.0000 -11.3924 0.0000
# 2 34.0926 102.5081 46.5405 0.0000 -15.4121 0.0000
# 3 46.3879 46.5405 126.0014 0.0000 -16.5491 0.0000
# 4 0.0000 0.0000 0.0000 17.1472 0.0000 0.1089
# 5 -11.3924 -15.4121 -16.5491 0.0000 38.6217 0.0000
# 6 0.0000 0.0000 0.0000 0.1089 0.0000 15.8099
#
#
#
# Elastic Compliance Matrix: (Units=1/GPa)
#
#
# Indices 1 2 3 4 5 6 
#
# 1 0.016229 -0.003054 -0.004639 0.000000 0.001581 0.000000
# 2 -0.003054 0.012631 -0.003176 0.000000 0.002779 0.000000
# 3 -0.004639 -0.003176 0.011096 0.000000 0.002119 0.000000
# 4 0.000000 0.000000 0.000000 0.058321 0.000000 -0.000402
# 5 0.001581 0.002779 0.002119 0.000000 0.028375 0.000000
# 6 0.000000 0.000000 0.000000 -0.000402 0.000000 0.063254
#
#
# Mechanical properties :
#
#
# Convention : Reuss Voigt Hill
#
# Bulk Modulus (GPa) = 54.89221 62.77260 58.83241
# Shear Modulus (GPa) = 22.96557 26.57511 24.77034
#
# Velocity S-wave (km/s) = 3.58332 3.85464 3.72145
# Velocity P-wave (km/s) = 6.91453 7.40996 7.16653
#
# Compressibility (1/GPa) = 0.01821752
#
# Stress axis : x y z
#
# Youngs Moduli (GPa) = 61.61702 79.17209 90.12382
#
# Poissons Ratio (x) = 0.24176 0.41812
# Poissons Ratio (y) = 0.18815 0.28625
# Poissons Ratio (z) = 0.28586 0.25147
#
# Static dielectric constant tensor:
#      x y z
#    x 3.418820 0.000000 -0.167930 
#    y 0.000000 3.399650 0.000000 
#    z -0.167930 0.000000 3.491560 
# 
# 
# High freq. dielectric constant tensor:
#      x y z
#    x 1.697330 0.000000 -0.005870 
#    y 0.000000 1.656400 0.000000 
#    z -0.005870 0.000000 1.696390 
# 
# From -- ./inp_files/51942.got.cif
#   From: 2010.06.25/outbox.cif.g09.slc.cpg/sg12_26_cif.got.tgz:51942.got - 2010.06.28 00:19:55.
