data_PCOD8098722
_publ_section_title
;
Structure prediction by ZEFSAII (Michael W. Deem and Ramdas Pophale) SiO2 
 PCOD8098722
Probable space group: C 2/M
;
_chemical_formula_sum "Si O2"
_cell_formula_units_Z 64
_cell_length_a 19.907433
_cell_length_b 12.493482
_cell_length_c 18.381958
_cell_angle_alpha 90.000000
_cell_angle_beta 131.101596
_cell_angle_gamma 90.000000
_cell_volume 3445.083611
_symmetry_space_group_name_H-M "C 2/M"
_symmetry_group_IT_number 12
_symmetry_cell_setting 'monoclinic'
loop_
_space_group_symop_operation_xyz
x,y,z
-x,y,-z
-x,-y,-z
x,-y,z
1/2+x,1/2+y,z
1/2-x,1/2+y,-z
1/2-x,1/2-y,-z
1/2+x,1/2-y,z
loop_
_atom_site_type_symbol
_atom_site_label
_atom_site_fract_x
_atom_site_fract_y
_atom_site_fract_z
Si Si1 0.934303 0.122329 0.098259
Si Si2 0.056948 0.623184 0.373972
Si Si3 0.391800 0.301615 0.482275
Si Si4 0.383611 0.753496 0.200789
Si Si5 0.791745 0.712146 0.604229
Si Si6 0.711130 0.623089 0.124333
Si Si7 0.069052 0.118189 0.639269
Si Si8 0.859431 0.875395 0.769818
O O1 0.898807 0.208475 0.131120
O O2 0.035667 0.147779 0.149283
O O3 0.924842 0.000000 0.120933
O O4 0.878521 0.138356 0.985411
O O5 0.047909 0.500000 0.388957
O O6 0.095563 0.684318 0.472432
O O7 0.124031 0.636497 0.352805
O O8 0.961104 0.666220 0.281017
O O9 0.291190 0.348119 0.416621
O O10 0.410318 0.295745 0.409184
O O11 0.461166 0.381031 0.572427
O O12 0.288934 0.810910 0.140389
O O13 0.382368 0.650641 0.252503
O O14 0.750000 0.750000 0.500000
O O15 0.820760 0.812243 0.673865
O O16 0.741181 0.500000 0.147098
O O17 0.689662 0.662879 0.190998
O O18 0.100681 0.000000 0.639195
O O19 0.840968 0.000000 0.742752
#
# Coordination Sequence:
#
# PCOD8098722 Si02
#       8
#     8   8   8   8   8   8   8   8
#     4  10  20  36  60  88 113 146 189 238 288 332
#     4  10  21  35  51  74 109 149 187 225 275 336
#     4   9  19  34  52  74 106 140 188 229 274 325
#     4  11  20  36  54  82 114 149 183 227 282 338
#     4  10  20  35  51  79 108 144 186 225 273 329
#     4  10  21  36  59  88 117 148 186 232 285 341
#     4  10  20  35  54  78 107 143 184 235 284 327
#     4  10  20  37  59  85 115 145 185 237 287 333
#
# _framework density 18.577197000000002
#
# number of rings (size 3 to 8) (size 9 to 14) (size 15 to 20)
#    0.000    2.000    1.250    3.000    0.000    4.500 
#    0.000    7.500    0.000    0.000    0.000    0.875 
#    0.000    0.000    0.000    0.000    0.000    0.000 
#
# Total GULP energy -396610.909841 kJ/mol
# GULP energy per Si atom -12394.090933 kJ/mol
# Density = 1.853491 g / cm^3
# Si number density = 18.577197 Si / 1000 Ang^3
#
#
#
# Elastic Constant Matrix: (Units=GPa)
#
#
# Indices 1 2 3 4 5 6 
#
# 1 110.9037 43.9309 33.1652 0.0000 9.7329 0.0000
# 2 43.9309 86.6321 30.7127 0.0000 -8.6948 0.0000
# 3 33.1652 30.7127 81.8440 0.0000 0.1661 0.0000
# 4 0.0000 0.0000 0.0000 23.8365 0.0000 -3.8571
# 5 9.7329 -8.6948 0.1661 0.0000 33.7438 0.0000
# 6 0.0000 0.0000 0.0000 -3.8571 0.0000 26.8199
#
#
#
# Elastic Compliance Matrix: (Units=1/GPa)
#
#
# Indices 1 2 3 4 5 6 
#
# 1 0.012686 -0.005921 -0.002908 0.000000 -0.005170 0.000000
# 2 -0.005921 0.016493 -0.003802 0.000000 0.005976 0.000000
# 3 -0.002908 -0.003802 0.014824 0.000000 -0.000214 0.000000
# 4 0.000000 0.000000 0.000000 0.042952 0.000000 0.006177
# 5 -0.005170 0.005976 -0.000214 0.000000 0.032667 0.000000
# 6 0.000000 0.000000 0.000000 0.006177 0.000000 0.038174
#
#
# Mechanical properties :
#
#
# Convention : Reuss Voigt Hill
#
# Bulk Modulus (GPa) = 53.35979 54.99972 54.17976
# Shear Modulus (GPa) = 26.41237 28.31809 27.36523
#
# Velocity S-wave (km/s) = 3.77472 3.90852 3.84220
# Velocity P-wave (km/s) = 6.91257 7.07383 6.99366
#
# Compressibility (1/GPa) = 0.01874070
#
# Stress axis : x y z
#
# Youngs Moduli (GPa) = 78.82992 60.63119 67.45792
#
# Poissons Ratio (x) = 0.35898 0.19618
# Poissons Ratio (y) = 0.46673 0.25648
# Poissons Ratio (z) = 0.22925 0.23053
#
# Static dielectric constant tensor:
#      x y z
#    x 4.584060 0.000000 0.187410 
#    y 0.000000 3.206530 0.000000 
#    z 0.187410 0.000000 3.372680 
# 
# 
# High freq. dielectric constant tensor:
#      x y z
#    x 1.736330 0.000000 0.004630 
#    y 0.000000 1.695920 0.000000 
#    z 0.004630 0.000000 1.720390 
# 
# From -- ./inp_files/283312.got.cif
#   From: 2010.06.25/outbox.cif.g09.slc.cpg/sg12_142_cif.got.tgz:283312.got - 2010.06.28 00:19:55.
