data_PCOD8098846
_publ_section_title
;
Structure prediction by ZEFSAII (Michael W. Deem and Ramdas Pophale) SiO2 
 PCOD8098846
Probable space group: C 2/M
;
_chemical_formula_sum "Si O2"
_cell_formula_units_Z 44
_cell_length_a 17.073096
_cell_length_b 16.892568
_cell_length_c 16.602710
_cell_angle_alpha 90.000000
_cell_angle_beta 25.835818
_cell_angle_gamma 90.000000
_cell_volume 2086.738500
_symmetry_space_group_name_H-M "C 2/M"
_symmetry_group_IT_number 12
_symmetry_cell_setting 'monoclinic'
loop_
_space_group_symop_operation_xyz
x,y,z
-x,y,-z
-x,-y,-z
x,-y,z
1/2+x,1/2+y,z
1/2-x,1/2+y,-z
1/2-x,1/2-y,-z
1/2+x,1/2-y,z
loop_
_atom_site_type_symbol
_atom_site_label
_atom_site_fract_x
_atom_site_fract_y
_atom_site_fract_z
Si Si1 0.500000 0.304914 0.000000
Si Si2 0.876202 0.908060 0.250654
Si Si3 0.275566 0.408222 0.968484
Si Si4 0.815262 0.590394 0.261165
Si Si5 0.193226 0.661695 0.888080
Si Si6 0.621542 0.093872 0.624698
O O1 0.632405 0.359584 0.824450
O O2 0.619973 0.251345 0.949404
O O3 0.724179 0.872864 0.451326
O O4 0.841731 0.000000 0.262830
O O5 0.071231 0.894155 0.108332
O O6 0.269477 0.500000 0.947542
O O7 0.087372 0.380531 0.183070
O O8 0.319500 0.353485 0.848820
O O9 0.756205 0.500000 0.308064
O O10 0.713124 0.639585 0.284832
O O11 0.776604 0.623185 0.387609
O O12 0.029843 0.599794 0.051620
O O13 0.637694 0.000000 0.608637
#
# Coordination Sequence:
#
# PCOD8098846 Si02
#       6
#     4   8   8   8   8   8
#     4  10  21  34  49  70 102 138 168 202 247 296
#     4  10  20  35  54  73  96 131 172 211 247 284
#     4   9  17  32  56  80  99 125 163 205 249 295
#     4   8  12  23  46  72  99 129 158 194 243 295
#     4   9  16  28  47  74 103 131 161 195 244 300
#     4   8  15  29  50  76 100 124 163 209 247 287
#
# _framework density 21.085536000000001
#
# number of rings (size 3 to 8) (size 9 to 14) (size 15 to 20)
#    0.000    3.273    0.000    3.545    0.000    0.727 
#    0.000   10.000    0.000   15.273    0.000    0.000 
#    0.000    0.000    0.000    0.000    0.000    0.000 
#
# Total GULP energy -272556.546413 kJ/mol
# GULP energy per Si atom -12388.933928 kJ/mol
# Density = 2.103754 g / cm^3
# Si number density = 21.085536 Si / 1000 Ang^3
#
#
#
# Elastic Constant Matrix: (Units=GPa)
#
#
# Indices 1 2 3 4 5 6 
#
# 1 40.2804 20.5593 29.5790 0.0277 9.3308 -0.0050
# 2 20.5593 57.3971 10.4556 -0.0252 2.5134 -0.0291
# 3 29.5790 10.4556 79.7678 0.0158 7.3969 -0.0604
# 4 0.0277 -0.0252 0.0158 10.0564 0.0119 8.8703
# 5 9.3308 2.5134 7.3969 0.0119 21.8672 0.0074
# 6 -0.0050 -0.0291 -0.0604 8.8703 0.0074 18.7741
#
#
#
# Elastic Compliance Matrix: (Units=1/GPa)
#
#
# Indices 1 2 3 4 5 6 
#
# 1 0.044310 -0.012840 -0.013557 -0.000131 -0.012846 0.000016
# 2 -0.012840 0.021605 0.001705 0.000092 0.002419 -0.000009
# 3 -0.013557 0.001705 0.017366 -0.000058 -0.000286 0.000082
# 4 -0.000131 0.000092 -0.000058 0.170491 -0.000001 -0.080553
# 5 -0.012846 0.002419 -0.000286 -0.000001 0.051031 -0.000021
# 6 0.000016 -0.000009 0.000082 -0.080553 -0.000021 0.091324
#
#
# Mechanical properties :
#
#
# Convention : Reuss Voigt Hill
#
# Bulk Modulus (GPa) = 29.49942 33.18147 31.34045
# Shear Modulus (GPa) = 10.94548 17.92965 14.43756
#
# Velocity S-wave (km/s) = 2.28085 2.91920 2.61954
# Velocity P-wave (km/s) = 4.57789 5.20894 4.90358
#
# Compressibility (1/GPa) = 0.03389897
#
# Stress axis : x y z
#
# Youngs Moduli (GPa) = 22.56826 46.28538 57.58226
#
# Poissons Ratio (x) = 0.59429 0.78062
# Poissons Ratio (y) = 0.28977 -0.09817
# Poissons Ratio (z) = 0.30595 -0.07891
#
# Static dielectric constant tensor:
#      x y z
#    x 3.780790 -0.000050 0.445580 
#    y -0.000050 3.453620 0.000090 
#    z 0.445580 0.000090 3.933160 
# 
# 
# High freq. dielectric constant tensor:
#      x y z
#    x 1.809060 0.000000 0.031890 
#    y 0.000000 1.796380 0.000010 
#    z 0.031890 0.000010 1.806080 
# 
# From -- ./inp_files/226489.got.cif
#   From: 2010.06.25/outbox.cif.g09.slc.cpg/sg12_114_cif.got.tgz:226489.got - 2010.06.28 00:19:55.
