data_PCOD8098825
_publ_section_title
;
Structure prediction by ZEFSAII (Michael W. Deem and Ramdas Pophale) SiO2 
 PCOD8098825
Probable space group: C 2/M
;
_chemical_formula_sum "Si O2"
_cell_formula_units_Z 56
_cell_length_a 25.108016
_cell_length_b 9.071177
_cell_length_c 15.905987
_cell_angle_alpha 90.000000
_cell_angle_beta 55.690295
_cell_angle_gamma 90.000000
_cell_volume 2992.390012
_symmetry_space_group_name_H-M "C 2/M"
_symmetry_group_IT_number 12
_symmetry_cell_setting 'monoclinic'
loop_
_space_group_symop_operation_xyz
x,y,z
-x,y,-z
-x,-y,-z
x,-y,z
1/2+x,1/2+y,z
1/2-x,1/2+y,-z
1/2-x,1/2-y,-z
1/2+x,1/2-y,z
loop_
_atom_site_type_symbol
_atom_site_label
_atom_site_fract_x
_atom_site_fract_y
_atom_site_fract_z
Si Si1 0.147758 0.828871 0.587925
Si Si2 0.840052 0.828532 0.007310
Si Si3 0.216355 0.329213 0.216499
Si Si4 0.109975 0.826848 0.218776
Si Si5 0.242174 0.669355 0.384091
Si Si6 0.486496 0.173588 0.270999
Si Si7 0.960650 0.672601 0.956365
O O1 0.190102 0.777328 0.471344
O O2 0.187342 0.799855 0.638884
O O3 0.083086 0.734862 0.644509
O O4 0.130462 0.000000 0.592524
O O5 0.850995 0.784968 0.900664
O O6 0.890795 0.745449 0.020770
O O7 0.851215 0.000000 0.012536
O O8 0.769090 0.780846 0.100227
O O9 0.198046 0.500000 0.222712
O O10 0.151885 0.234319 0.259050
O O11 0.245202 0.295907 0.282645
O O12 0.040292 0.749414 0.281924
O O13 0.099584 0.000000 0.238156
O O14 0.221956 0.500000 0.419577
O O15 0.500773 0.214898 0.161938
O O16 0.488283 0.000000 0.285841
O O17 0.950003 0.500000 0.973989
O O18 0.000000 0.736337 0.000000
#
# Coordination Sequence:
#
# PCOD8098825 Si02
#       7
#     8   8   8   8   8   8   8
#     4  10  20  36  58  82 108 137 175 221 268 318
#     4   9  19  33  51  76 107 144 180 215 260 312
#     4  10  20  35  55  79 108 142 181 220 264 316
#     4  10  20  35  53  79 110 142 182 222 261 310
#     4   9  20  37  56  80 109 140 175 217 267 322
#     4  10  20  35  56  77 105 145 179 214 267 320
#     4   9  19  33  48  74 109 141 177 218 258 309
#
# _framework density 18.714137000000001
#
# number of rings (size 3 to 8) (size 9 to 14) (size 15 to 20)
#    0.000    2.429    0.000    1.714    2.000    3.143 
#    0.000    0.714    0.000    4.286    0.000    0.000 
#    0.000    0.000    0.000    0.000    0.000    0.000 
#
# Total GULP energy -347272.702492 kJ/mol
# GULP energy per Si atom -12402.596518 kJ/mol
# Density = 1.867154 g / cm^3
# Si number density = 18.714137 Si / 1000 Ang^3
#
#
#
# Elastic Constant Matrix: (Units=GPa)
#
#
# Indices 1 2 3 4 5 6 
#
# 1 115.9498 45.9422 35.4456 0.0000 -11.3791 0.0001
# 2 45.9422 66.0560 26.5869 -0.0001 -8.7881 0.0002
# 3 35.4456 26.5869 50.8946 0.0000 -9.0088 0.0000
# 4 0.0000 -0.0001 0.0000 26.0419 0.0000 -4.4033
# 5 -11.3791 -8.7881 -9.0088 0.0000 27.2122 0.0000
# 6 0.0001 0.0002 0.0000 -4.4033 0.0000 37.7772
#
#
#
# Elastic Compliance Matrix: (Units=1/GPa)
#
#
# Indices 1 2 3 4 5 6 
#
# 1 0.013072 -0.006753 -0.005306 0.000000 0.001529 0.000000
# 2 -0.006753 0.022899 -0.006852 0.000000 0.002303 0.000000
# 3 -0.005306 -0.006852 0.027766 0.000000 0.004761 0.000000
# 4 0.000000 0.000000 0.000000 0.039172 0.000000 0.004566
# 5 0.001529 0.002303 0.004761 0.000000 0.039707 0.000000
# 6 0.000000 0.000000 0.000000 0.004566 0.000000 0.027003
#
#
# Mechanical properties :
#
#
# Convention : Reuss Voigt Hill
#
# Bulk Modulus (GPa) = 38.58565 49.87220 44.22892
# Shear Modulus (GPa) = 23.13968 26.53463 24.83716
#
# Velocity S-wave (km/s) = 3.52018 3.76958 3.64701
# Velocity P-wave (km/s) = 6.09798 6.75675 6.43580
#
# Compressibility (1/GPa) = 0.02591637
#
# Stress axis : x y z
#
# Youngs Moduli (GPa) = 76.49911 43.66916 36.01569
#
# Poissons Ratio (x) = 0.29489 0.19109
# Poissons Ratio (y) = 0.51658 0.24677
# Poissons Ratio (z) = 0.40589 0.29921
#
# Static dielectric constant tensor:
#      x y z
#    x 3.504850 0.000000 0.017080 
#    y 0.000000 3.400420 0.000000 
#    z 0.017080 0.000000 3.271580 
# 
# 
# High freq. dielectric constant tensor:
#      x y z
#    x 1.734120 0.000000 -0.002320 
#    y 0.000000 1.729450 0.000000 
#    z -0.002320 0.000000 1.707160 
# 
# From -- ./inp_files/238337.got.cif
#   From: 2010.06.25/outbox.cif.g09.slc.cpg/sg12_120_cif.got.tgz:238337.got - 2010.06.28 00:19:55.
