data_PCOD8098328
_publ_section_title
;
Structure prediction by ZEFSAII (Michael W. Deem and Ramdas Pophale) SiO2 
 PCOD8098328
Probable space group: C 2/M
;
_chemical_formula_sum "Si O2"
_cell_formula_units_Z 40
_cell_length_a 33.987145
_cell_length_b 13.897379
_cell_length_c 10.266610
_cell_angle_alpha 90.000000
_cell_angle_beta 24.691371
_cell_angle_gamma 90.000000
_cell_volume 2025.678739
_symmetry_space_group_name_H-M "C 2/M"
_symmetry_group_IT_number 12
_symmetry_cell_setting 'monoclinic'
loop_
_space_group_symop_operation_xyz
x,y,z
-x,y,-z
-x,-y,-z
x,-y,z
1/2+x,1/2+y,z
1/2-x,1/2+y,-z
1/2-x,1/2-y,-z
1/2+x,1/2-y,z
loop_
_atom_site_type_symbol
_atom_site_label
_atom_site_fract_x
_atom_site_fract_y
_atom_site_fract_z
Si Si1 0.598860 0.387378 0.478708
Si Si2 0.403639 0.713434 0.047362
Si Si3 0.920236 0.609088 0.839287
Si Si4 0.611646 0.605016 0.158716
Si Si5 0.789791 0.890695 0.601507
O O1 0.573467 0.500000 0.550307
O O2 0.644996 0.356707 0.200739
O O3 0.672707 0.362375 0.368863
O O4 0.501711 0.332316 0.797220
O O5 0.328114 0.688327 0.384871
O O6 0.417758 0.827524 0.979547
O O7 0.359355 0.675537 0.044255
O O8 0.943469 0.500000 0.812481
O O9 0.000000 0.648587 0.500000
O O10 0.822355 0.614767 0.056264
O O11 0.500000 0.597029 0.500000
O O12 0.655958 0.500000 0.996423
O O13 0.822296 0.000000 0.466218
#
# Coordination Sequence:
#
# PCOD8098328 Si02
#       5
#     8   8   8   8   8
#     4   9  17  30  52  84 115 138 164 212 281 337
#     4  11  18  31  54  83 109 134 173 224 277 317
#     4  10  22  39  55  72 103 151 196 220 244 305
#     4   8  14  25  44  74 111 141 161 194 258 332
#     4  10  20  34  56  85 111 136 172 222 275 320
#
# _framework density 19.746468
#
# number of rings (size 3 to 8) (size 9 to 14) (size 15 to 20)
#    0.000    2.400    0.000    6.000    0.000    1.600 
#    0.000    4.000    0.000    2.400    0.000    5.600 
#    0.000    0.000    0.000    0.000    0.000    0.000 
#
# Total GULP energy -247925.789662 kJ/mol
# GULP energy per Si atom -12396.289483 kJ/mol
# Density = 1.970152 g / cm^3
# Si number density = 19.746468 Si / 1000 Ang^3
#
#
#
# Elastic Constant Matrix: (Units=GPa)
#
#
# Indices 1 2 3 4 5 6 
#
# 1 126.9900 40.4762 50.7468 0.0000 12.8316 0.0000
# 2 40.4762 80.4597 27.4295 0.0000 5.4846 0.0000
# 3 50.7468 27.4295 63.8314 0.0000 -3.7160 0.0000
# 4 0.0000 0.0000 0.0000 17.8673 0.0000 7.5966
# 5 12.8316 5.4846 -3.7160 0.0000 25.8421 0.0000
# 6 0.0000 0.0000 0.0000 7.5966 0.0000 18.4880
#
#
#
# Elastic Compliance Matrix: (Units=1/GPa)
#
#
# Indices 1 2 3 4 5 6 
#
# 1 0.013540 -0.002904 -0.009956 0.000000 -0.007539 0.000000
# 2 -0.002904 0.015612 -0.004547 0.000000 -0.002525 0.000000
# 3 -0.009956 -0.004547 0.026098 0.000000 0.009661 0.000000
# 4 0.000000 0.000000 0.000000 0.067815 0.000000 -0.027865
# 5 -0.007539 -0.002525 0.009661 0.000000 0.044365 0.000000
# 6 0.000000 0.000000 0.000000 -0.027865 0.000000 0.065539
#
#
# Mechanical properties :
#
#
# Convention : Reuss Voigt Hill
#
# Bulk Modulus (GPa) = 48.93249 56.50957 52.72103
# Shear Modulus (GPa) = 18.20868 22.61473 20.41170
#
# Velocity S-wave (km/s) = 3.03994 3.38783 3.21859
# Velocity P-wave (km/s) = 6.09556 6.63196 6.36941
#
# Compressibility (1/GPa) = 0.02043632
#
# Stress axis : x y z
#
# Youngs Moduli (GPa) = 73.85321 64.05475 38.31752
#
# Poissons Ratio (x) = 0.18600 0.38148
# Poissons Ratio (y) = 0.21445 0.17424
# Poissons Ratio (z) = 0.73527 0.29127
#
# Static dielectric constant tensor:
#      x y z
#    x 3.973800 0.000000 0.222250 
#    y 0.000000 3.691160 0.000000 
#    z 0.222250 0.000000 3.326070 
# 
# 
# High freq. dielectric constant tensor:
#      x y z
#    x 1.760310 0.000000 0.005930 
#    y 0.000000 1.766930 0.000000 
#    z 0.005930 0.000000 1.744020 
# 
# From -- ./inp_files/72860.got.cif
#   From: 2010.06.25/outbox.cif.g09.slc.cpg/sg12_37_cif.got.tgz:72860.got - 2010.06.28 00:19:55.
