data_PCOD8098416
_publ_section_title
;
Structure prediction by ZEFSAII (Michael W. Deem and Ramdas Pophale) SiO2 
 PCOD8098416
Probable space group: C 2/M
;
_chemical_formula_sum "Si O2"
_cell_formula_units_Z 48
_cell_length_a 22.315203
_cell_length_b 9.157574
_cell_length_c 22.391194
_cell_angle_alpha 90.000000
_cell_angle_beta 148.417138
_cell_angle_gamma 90.000000
_cell_volume 2396.441935
_symmetry_space_group_name_H-M "C 2/M"
_symmetry_group_IT_number 12
_symmetry_cell_setting 'monoclinic'
loop_
_space_group_symop_operation_xyz
x,y,z
-x,y,-z
-x,-y,-z
x,-y,z
1/2+x,1/2+y,z
1/2-x,1/2+y,-z
1/2-x,1/2-y,-z
1/2+x,1/2-y,z
loop_
_atom_site_type_symbol
_atom_site_label
_atom_site_fract_x
_atom_site_fract_y
_atom_site_fract_z
Si Si1 0.117267 0.672774 0.130767
Si Si2 0.567279 0.668768 0.320474
Si Si3 0.574480 0.169351 0.445299
Si Si4 0.161392 0.333705 0.885100
Si Si5 0.193290 0.835270 0.307088
Si Si6 0.181708 0.335152 0.763879
O O1 0.120610 0.500000 0.134104
O O2 0.123687 0.729103 0.204276
O O3 0.228457 0.729469 0.190822
O O4 0.000000 0.728608 0.000000
O O5 0.536067 0.500000 0.304161
O O6 0.612690 0.735363 0.420856
O O7 0.457762 0.755703 0.205242
O O8 0.660827 0.689393 0.348394
O O9 0.668847 0.192336 0.577678
O O10 0.448514 0.215248 0.362041
O O11 0.569250 0.000000 0.420108
O O12 0.151354 0.500000 0.898270
O O13 0.201804 0.324992 0.851314
O O14 0.250000 0.250000 0.000000
O O15 0.164631 0.000000 0.262522
O O16 0.202679 0.500000 0.758457
#
# Coordination Sequence:
#
# PCOD8098416 Si02
#       6
#     8   8   8   8   8   8
#     4  11  26  43  58  82 114 152 198 247 297 343
#     4  10  20  34  56  90 123 154 192 234 288 348
#     4   9  19  38  62  90 120 152 192 238 292 347
#     4  10  21  36  57  85 116 154 195 239 291 344
#     4  10  22  39  61  87 118 158 198 236 286 353
#     4   9  20  39  61  83 112 151 191 236 289 346
#
# _framework density 20.029693999999999
#
# number of rings (size 3 to 8) (size 9 to 14) (size 15 to 20)
#    0.000    2.167    0.000    3.000    2.333    7.333 
#    0.000    3.333    0.000    0.000    0.000    0.000 
#    0.000    0.000    0.000    0.000    0.000    0.000 
#
# Total GULP energy -297590.818021 kJ/mol
# GULP energy per Si atom -12399.617418 kJ/mol
# Density = 1.998411 g / cm^3
# Si number density = 20.029694 Si / 1000 Ang^3
#
#
#
# Elastic Constant Matrix: (Units=GPa)
#
#
# Indices 1 2 3 4 5 6 
#
# 1 71.7833 37.8810 32.2406 0.0000 10.8113 0.0000
# 2 37.8810 108.2083 56.5097 0.0000 3.1838 0.0000
# 3 32.2406 56.5097 127.9548 0.0000 0.7124 0.0000
# 4 0.0000 0.0000 0.0000 31.9293 0.0000 -2.8119
# 5 10.8113 3.1838 0.7124 0.0000 18.7923 0.0000
# 6 0.0000 0.0000 0.0000 -2.8119 0.0000 35.7181
#
#
#
# Elastic Compliance Matrix: (Units=1/GPa)
#
#
# Indices 1 2 3 4 5 6 
#
# 1 0.019309 -0.005134 -0.002541 0.000000 -0.010142 0.000000
# 2 -0.005134 0.013440 -0.004647 0.000000 0.000853 0.000000
# 3 -0.002541 -0.004647 0.010498 0.000000 0.001851 0.000000
# 4 0.000000 0.000000 0.000000 0.031538 0.000000 0.002483
# 5 -0.010142 0.000853 0.001851 0.000000 0.058834 0.000000
# 6 0.000000 0.000000 0.000000 0.002483 0.000000 0.028192
#
#
# Mechanical properties :
#
#
# Convention : Reuss Voigt Hill
#
# Bulk Modulus (GPa) = 53.75666 62.35654 58.05660
# Shear Modulus (GPa) = 25.95292 29.37562 27.66427
#
# Velocity S-wave (km/s) = 3.60352 3.83378 3.72043
# Velocity P-wave (km/s) = 6.64910 7.12719 6.89229
#
# Compressibility (1/GPa) = 0.01860235
#
# Stress axis : x y z
#
# Youngs Moduli (GPa) = 51.78899 74.40260 95.26003
#
# Poissons Ratio (x) = 0.38198 0.24210
# Poissons Ratio (y) = 0.26588 0.44267
# Poissons Ratio (z) = 0.13162 0.34574
#
# Static dielectric constant tensor:
#      x y z
#    x 3.513950 0.000000 0.108550 
#    y 0.000000 3.677230 0.000000 
#    z 0.108550 0.000000 3.706090 
# 
# 
# High freq. dielectric constant tensor:
#      x y z
#    x 1.772930 0.000000 0.005580 
#    y 0.000000 1.781280 0.000000 
#    z 0.005580 0.000000 1.793780 
# 
# From -- ./inp_files/348889.got.cif
#   From: 2010.06.25/outbox.cif.g09.slc.cpg/sg12_175_cif.got.tgz:348889.got - 2010.06.28 00:19:55.
