data_PCOD8098189
_publ_section_title
;
Structure prediction by ZEFSAII (Michael W. Deem and Ramdas Pophale) SiO2 
 PCOD8098189
Probable space group: C 2/M
;
_chemical_formula_sum "Si O2"
_cell_formula_units_Z 48
_cell_length_a 23.135019
_cell_length_b 9.000455
_cell_length_c 23.763388
_cell_angle_alpha 90.000000
_cell_angle_beta 28.486357
_cell_angle_gamma 90.000000
_cell_volume 2360.016669
_symmetry_space_group_name_H-M "C 2/M"
_symmetry_group_IT_number 12
_symmetry_cell_setting 'monoclinic'
loop_
_space_group_symop_operation_xyz
x,y,z
-x,y,-z
-x,-y,-z
x,-y,z
1/2+x,1/2+y,z
1/2-x,1/2+y,-z
1/2-x,1/2-y,-z
1/2+x,1/2-y,z
loop_
_atom_site_type_symbol
_atom_site_label
_atom_site_fract_x
_atom_site_fract_y
_atom_site_fract_z
Si Si1 0.918786 0.171517 0.208008
Si Si2 0.141416 0.324554 0.626718
Si Si3 0.161753 0.667325 0.833516
Si Si4 0.946637 0.166289 0.601997
Si Si5 0.931066 0.673469 0.725467
Si Si6 0.659058 0.328639 0.946783
O O1 0.862640 0.266257 0.306355
O O2 0.862180 0.227279 0.198462
O O3 0.883864 0.000000 0.246958
O O4 0.064909 0.191887 0.078795
O O5 0.162542 0.500000 0.609164
O O6 0.250000 0.250000 0.500000
O O7 0.013022 0.280080 0.708318
O O8 0.111967 0.500000 0.866325
O O9 0.303728 0.665853 0.721712
O O10 0.106539 0.734227 0.938762
O O11 0.990498 0.254748 0.619187
O O12 0.000000 0.242530 0.500000
O O13 0.999871 0.000000 0.561605
O O14 0.936011 0.500000 0.711333
O O15 0.791722 0.726473 0.854133
O O16 0.665439 0.500000 0.921882
#
# Coordination Sequence:
#
# PCOD8098189 Si02
#       6
#     8   8   8   8   8   8
#     4  11  23  38  59  86 117 157 196 233 287 344
#     4  11  25  43  61  84 115 152 195 241 287 340
#     4  10  20  34  55  87 122 154 190 237 287 339
#     4   9  19  34  54  82 113 149 189 233 286 336
#     4   9  20  39  60  83 111 147 191 238 284 336
#     4   9  19  38  61  86 118 152 189 237 290 345
#
# _framework density 20.338837999999999
#
# number of rings (size 3 to 8) (size 9 to 14) (size 15 to 20)
#    0.000    2.167    0.000    2.000    2.333    6.333 
#    0.000    0.000    0.000    0.000    0.000    0.000 
#    0.000    0.000    0.000    0.000    0.000    0.000 
#
# Total GULP energy -297600.871341 kJ/mol
# GULP energy per Si atom -12400.036306 kJ/mol
# Density = 2.029255 g / cm^3
# Si number density = 20.338838 Si / 1000 Ang^3
#
#
#
# Elastic Constant Matrix: (Units=GPa)
#
#
# Indices 1 2 3 4 5 6 
#
# 1 89.4044 40.0679 36.3702 0.0004 5.7961 -0.0003
# 2 40.0679 74.5808 38.6968 0.0041 0.1681 -0.0030
# 3 36.3702 38.6968 90.2265 0.0002 24.0442 -0.0004
# 4 0.0004 0.0041 0.0002 30.9915 -0.0008 6.8260
# 5 5.7961 0.1681 24.0442 -0.0008 26.6723 0.0002
# 6 -0.0003 -0.0030 -0.0004 6.8260 0.0002 32.3138
#
#
#
# Elastic Compliance Matrix: (Units=1/GPa)
#
#
# Indices 1 2 3 4 5 6 
#
# 1 0.015526 -0.006608 -0.003338 0.000001 -0.000323 -0.000001
# 2 -0.006608 0.021714 -0.009207 -0.000003 0.009599 0.000002
# 3 -0.003338 -0.009207 0.021281 0.000001 -0.018401 -0.000001
# 4 0.000001 -0.000003 0.000001 0.033841 0.000000 -0.007149
# 5 -0.000323 0.009599 -0.018401 0.000000 0.054090 0.000000
# 6 -0.000001 0.000002 -0.000001 -0.007149 0.000000 0.032457
#
#
# Mechanical properties :
#
#
# Convention : Reuss Voigt Hill
#
# Bulk Modulus (GPa) = 49.47074 53.83127 51.65100
# Shear Modulus (GPa) = 22.32605 27.26730 24.79667
#
# Velocity S-wave (km/s) = 3.31676 3.66546 3.49546
# Velocity P-wave (km/s) = 6.24851 6.66625 6.46076
#
# Compressibility (1/GPa) = 0.02021397
#
# Stress axis : x y z
#
# Youngs Moduli (GPa) = 64.40969 46.05314 46.98981
#
# Poissons Ratio (x) = 0.30433 0.15686
# Poissons Ratio (y) = 0.42564 0.43264
# Poissons Ratio (z) = 0.21500 0.42402
#
# Static dielectric constant tensor:
#      x y z
#    x 3.701070 0.000000 -0.126590 
#    y 0.000000 3.834990 0.000010 
#    z -0.126590 0.000010 3.866600 
# 
# 
# High freq. dielectric constant tensor:
#      x y z
#    x 1.786450 0.000000 -0.004490 
#    y 0.000000 1.794240 0.000000 
#    z -0.004490 0.000000 1.804310 
# 
# From -- ./inp_files/348742.got.cif
#   From: 2010.06.25/outbox.cif.g09.slc.cpg/sg12_175_cif.got.tgz:348742.got - 2010.06.28 00:19:55.
