data_PCOD8098686
_publ_section_title
;
Structure prediction by ZEFSAII (Michael W. Deem and Ramdas Pophale) SiO2 
 PCOD8098686
Probable space group: C 2/M
;
_chemical_formula_sum "Si O2"
_cell_formula_units_Z 64
_cell_length_a 18.060967
_cell_length_b 14.393255
_cell_length_c 16.188331
_cell_angle_alpha 90.000000
_cell_angle_beta 133.922580
_cell_angle_gamma 90.000000
_cell_volume 3031.112932
_symmetry_space_group_name_H-M "C 2/M"
_symmetry_group_IT_number 12
_symmetry_cell_setting 'monoclinic'
loop_
_space_group_symop_operation_xyz
x,y,z
-x,y,-z
-x,-y,-z
x,-y,z
1/2+x,1/2+y,z
1/2-x,1/2+y,-z
1/2-x,1/2-y,-z
1/2+x,1/2-y,z
loop_
_atom_site_type_symbol
_atom_site_label
_atom_site_fract_x
_atom_site_fract_y
_atom_site_fract_z
Si Si1 0.578489 0.896098 0.822342
Si Si2 0.091688 0.225213 0.726776
Si Si3 0.302062 0.603271 0.053003
Si Si4 0.979005 0.136437 0.074995
Si Si5 0.536785 0.157708 0.113243
Si Si6 0.764613 0.221647 0.314237
Si Si7 0.894448 0.108475 0.541061
Si Si8 0.677291 0.602952 0.332521
O O1 0.546020 0.822474 0.726681
O O2 0.493812 0.900685 0.829736
O O3 0.585598 0.000000 0.789650
O O4 0.688028 0.862745 0.942911
O O5 0.147544 0.171305 0.842895
O O6 0.172409 0.247803 0.718126
O O7 0.000565 0.164193 0.618896
O O8 0.297188 0.500000 0.087795
O O9 0.369204 0.600314 0.021133
O O10 0.973374 0.247078 0.069122
O O11 0.065778 0.101509 0.204546
O O12 0.000000 0.095783 0.000000
O O13 0.657841 0.175835 0.204568
O O14 0.500000 0.106605 0.000000
O O15 0.821726 0.145319 0.412753
O O16 0.750749 0.318821 0.351557
O O17 0.837074 0.126242 0.582642
O O18 0.917881 0.000000 0.544867
O O19 0.726823 0.500000 0.360151
#
# Coordination Sequence:
#
# PCOD8098686 Si02
#       8
#     8   8   8   8   8   8   8   8
#     4  11  25  40  61  92 131 178 215 252 313 396
#     4  12  23  42  65  91 131 166 211 269 322 378
#     4  11  22  37  62  95 129 172 216 262 323 376
#     4  10  20  34  62  96 132 168 210 267 318 369
#     4  10  21  41  63  92 129 172 216 260 320 381
#     4  11  25  40  66  97 125 166 211 267 323 379
#     4  11  24  46  72  95 120 158 217 276 324 373
#     4  10  21  40  64  93 129 166 208 263 320 377
#
# _framework density 21.114356000000001
#
# number of rings (size 3 to 8) (size 9 to 14) (size 15 to 20)
#    0.000    1.250    2.500    3.375    5.250    3.750 
#    0.000    1.875    0.000    1.500    0.000    0.000 
#    0.000    0.000    0.000    0.000    0.000    0.000 
#
# Total GULP energy -396897.569815 kJ/mol
# GULP energy per Si atom -12403.049057 kJ/mol
# Density = 2.106630 g / cm^3
# Si number density = 21.114356 Si / 1000 Ang^3
#
#
#
# Elastic Constant Matrix: (Units=GPa)
#
#
# Indices 1 2 3 4 5 6 
#
# 1 136.9883 41.7723 36.5505 0.0000 -10.0892 0.0000
# 2 41.7723 98.9995 38.0421 0.0000 8.6224 0.0000
# 3 36.5505 38.0421 84.9464 0.0000 -4.7651 0.0000
# 4 0.0000 0.0000 0.0000 41.7011 0.0000 -4.1211
# 5 -10.0892 8.6224 -4.7651 0.0000 32.9223 0.0000
# 6 0.0000 0.0000 0.0000 -4.1211 0.0000 21.5170
#
#
#
# Elastic Compliance Matrix: (Units=1/GPa)
#
#
# Indices 1 2 3 4 5 6 
#
# 1 0.009153 -0.003274 -0.002285 0.000000 0.003332 0.000000
# 2 -0.003274 0.013923 -0.005129 0.000000 -0.005392 0.000000
# 3 -0.002285 -0.005129 0.015212 0.000000 0.002845 0.000000
# 4 0.000000 0.000000 0.000000 0.024443 0.000000 0.004681
# 5 0.003332 -0.005392 0.002845 0.000000 0.033220 0.000000
# 6 0.000000 0.000000 0.000000 0.004681 0.000000 0.047371
#
#
# Mechanical properties :
#
#
# Convention : Reuss Voigt Hill
#
# Bulk Modulus (GPa) = 59.13118 61.51822 60.32470
# Shear Modulus (GPa) = 29.35365 32.86604 31.10985
#
# Velocity S-wave (km/s) = 3.73261 3.94962 3.84265
# Velocity P-wave (km/s) = 6.82953 7.07095 6.95129
#
# Compressibility (1/GPa) = 0.01691155
#
# Stress axis : x y z
#
# Youngs Moduli (GPa) = 109.24818 71.82283 65.73791
#
# Poissons Ratio (x) = 0.23517 0.15023
# Poissons Ratio (y) = 0.35771 0.33716
# Poissons Ratio (z) = 0.24966 0.36837
#
# Static dielectric constant tensor:
#      x y z
#    x 4.071900 0.000000 -0.143890 
#    y 0.000000 3.901880 0.000000 
#    z -0.143890 0.000000 3.731050 
# 
# 
# High freq. dielectric constant tensor:
#      x y z
#    x 1.831260 0.000000 -0.007070 
#    y 0.000000 1.836790 0.000000 
#    z -0.007070 0.000000 1.814300 
# 
# From -- ./inp_files/225761.got.cif
#   From: 2010.06.25/outbox.cif.g09.slc.cpg/sg12_113_cif.got.tgz:225761.got - 2010.06.28 00:19:55.
