data_PCOD8098824
_publ_section_title
;
Structure prediction by ZEFSAII (Michael W. Deem and Ramdas Pophale) SiO2 
 PCOD8098824
Probable space group: C 2/M
;
_chemical_formula_sum "Si O2"
_cell_formula_units_Z 64
_cell_length_a 21.139912
_cell_length_b 12.530565
_cell_length_c 19.759382
_cell_angle_alpha 90.000000
_cell_angle_beta 41.803378
_cell_angle_gamma 90.000000
_cell_volume 3488.969178
_symmetry_space_group_name_H-M "C 2/M"
_symmetry_group_IT_number 12
_symmetry_cell_setting 'monoclinic'
loop_
_space_group_symop_operation_xyz
x,y,z
-x,y,-z
-x,-y,-z
x,-y,z
1/2+x,1/2+y,z
1/2-x,1/2+y,-z
1/2-x,1/2-y,-z
1/2+x,1/2-y,z
loop_
_atom_site_type_symbol
_atom_site_label
_atom_site_fract_x
_atom_site_fract_y
_atom_site_fract_z
Si Si1 0.081531 0.754218 0.887419
Si Si2 0.636134 0.237637 0.276402
Si Si3 0.997880 0.378592 0.700977
Si Si4 0.756351 0.373866 0.693345
Si Si5 0.304770 0.122033 0.101289
Si Si6 0.180431 0.727822 0.492166
Si Si7 0.469465 0.123135 0.872400
Si Si8 0.032869 0.122882 0.550486
O O1 0.153605 0.846737 0.806780
O O2 0.128398 0.655715 0.889997
O O3 0.040341 0.700575 0.854080
O O4 0.000000 0.807048 0.000000
O O5 0.597505 0.135125 0.267120
O O6 0.666311 0.195705 0.326495
O O7 0.718340 0.295534 0.168848
O O8 0.549548 0.320463 0.342019
O O9 0.020222 0.500000 0.693606
O O10 0.090833 0.333859 0.591763
O O11 0.975362 0.329948 0.792329
O O12 0.775042 0.500000 0.686230
O O13 0.763428 0.341621 0.608789
O O14 0.270691 0.000000 0.140260
O O15 0.361877 0.133457 0.985621
O O16 0.250000 0.750000 0.500000
O O17 0.137348 0.831638 0.487482
O O18 0.502525 0.000000 0.852643
O O19 0.000000 0.140970 0.500000
O O20 0.036381 0.000000 0.567355
#
# Coordination Sequence:
#
# PCOD8098824 Si02
#       8
#     8   8   8   8   8   8   8   8
#     4   9  18  33  53  78 106 137 173 218 272 324
#     4  10  20  35  53  79 105 141 181 222 267 319
#     4  10  21  35  53  74 105 144 181 219 262 316
#     4  11  22  36  55  77 106 142 182 223 265 319
#     4   9  17  30  53  80 106 135 174 221 269 322
#     4  11  23  39  57  82 111 141 182 225 274 326
#     4   9  17  32  52  77 106 138 174 219 273 321
#     4  10  20  37  58  81 110 142 178 223 277 328
#
# _framework density 18.343527000000002
#
# number of rings (size 3 to 8) (size 9 to 14) (size 15 to 20)
#    0.000    2.125    1.250    2.250    0.000    3.250 
#    0.000    2.500    0.000    0.750    0.000    0.000 
#    0.000    0.000    0.000    0.000    0.000    0.000 
#
# Total GULP energy -396575.701079 kJ/mol
# GULP energy per Si atom -12392.990659 kJ/mol
# Density = 1.830178 g / cm^3
# Si number density = 18.343527 Si / 1000 Ang^3
#
#
#
# Elastic Constant Matrix: (Units=GPa)
#
#
# Indices 1 2 3 4 5 6 
#
# 1 110.5481 29.7501 44.9376 0.0000 1.1580 0.0000
# 2 29.7501 76.6609 41.9033 0.0000 -3.0123 0.0000
# 3 44.9376 41.9033 108.6463 0.0000 7.5429 0.0000
# 4 0.0000 0.0000 0.0000 25.0619 0.0000 -0.7646
# 5 1.1580 -3.0123 7.5429 0.0000 32.0448 0.0000
# 6 0.0000 0.0000 0.0000 -0.7646 0.0000 19.7941
#
#
#
# Elastic Compliance Matrix: (Units=1/GPa)
#
#
# Indices 1 2 3 4 5 6 
#
# 1 0.011186 -0.002270 -0.003770 0.000000 0.000270 0.000000
# 2 -0.002270 0.017299 -0.005949 0.000000 0.003109 0.000000
# 3 -0.003770 -0.005949 0.013305 0.000000 -0.003555 0.000000
# 4 0.000000 0.000000 0.000000 0.039948 0.000000 0.001543
# 5 0.000270 0.003109 -0.003555 0.000000 0.032325 0.000000
# 6 0.000000 0.000000 0.000000 0.001543 0.000000 0.050580
#
#
# Mechanical properties :
#
#
# Convention : Reuss Voigt Hill
#
# Bulk Modulus (GPa) = 56.14042 58.78191 57.46117
# Shear Modulus (GPa) = 25.69908 27.33112 26.51510
#
# Velocity S-wave (km/s) = 3.74704 3.86419 3.80606
# Velocity P-wave (km/s) = 7.02794 7.21276 7.12095
#
# Compressibility (1/GPa) = 0.01781248
#
# Stress axis : x y z
#
# Youngs Moduli (GPa) = 89.39426 57.80600 75.16060
#
# Poissons Ratio (x) = 0.13121 0.28337
# Poissons Ratio (y) = 0.20290 0.44714
# Poissons Ratio (z) = 0.33703 0.34389
#
# Static dielectric constant tensor:
#      x y z
#    x 3.555510 0.000000 0.129820 
#    y 0.000000 3.281240 0.000000 
#    z 0.129820 0.000000 3.637570 
# 
# 
# High freq. dielectric constant tensor:
#      x y z
#    x 1.708400 0.000000 0.002430 
#    y 0.000000 1.701450 0.000000 
#    z 0.002430 0.000000 1.720460 
# 
# From -- ./inp_files/245915.got.cif
#   From: 2010.06.25/outbox.cif.g09.slc.cpg/sg12_123_cif.got.tgz:245915.got - 2010.06.28 00:19:55.
