data_PCOD8098308
_publ_section_title
;
Structure prediction by ZEFSAII (Michael W. Deem and Ramdas Pophale) SiO2 
 PCOD8098308
Probable space group: C 2/M
;
_chemical_formula_sum "Si O2"
_cell_formula_units_Z 64
_cell_length_a 14.188279
_cell_length_b 11.934358
_cell_length_c 18.809958
_cell_angle_alpha 90.000000
_cell_angle_beta 86.622364
_cell_angle_gamma 90.000000
_cell_volume 3179.519834
_symmetry_space_group_name_H-M "C 2/M"
_symmetry_group_IT_number 12
_symmetry_cell_setting 'monoclinic'
loop_
_space_group_symop_operation_xyz
x,y,z
-x,y,-z
-x,-y,-z
x,-y,z
1/2+x,1/2+y,z
1/2-x,1/2+y,-z
1/2-x,1/2-y,-z
1/2+x,1/2-y,z
loop_
_atom_site_type_symbol
_atom_site_label
_atom_site_fract_x
_atom_site_fract_y
_atom_site_fract_z
Si Si1 0.784612 0.127832 0.926128
Si Si2 0.605498 0.375250 0.827662
Si Si3 0.751355 0.127582 0.539365
Si Si4 0.991433 0.753218 0.720464
Si Si5 0.399703 0.242105 0.030907
Si Si6 0.209967 0.734628 0.217552
Si Si7 0.040414 0.125579 0.423941
Si Si8 0.669704 0.123834 0.687262
O O1 0.679825 0.145369 0.963906
O O2 0.799812 0.199380 0.855213
O O3 0.798304 0.000000 0.904890
O O4 0.863835 0.159971 0.980246
O O5 0.589852 0.500000 0.856419
O O6 0.529340 0.353231 0.768877
O O7 0.584683 0.289008 0.891186
O O8 0.714728 0.365666 0.796195
O O9 0.750000 0.250000 0.500000
O O10 0.847684 0.121405 0.578037
O O11 0.669505 0.136697 0.601771
O O12 0.740434 0.000000 0.500819
O O13 0.894317 0.697713 0.752888
O O14 0.988885 0.797105 0.640063
O O15 0.067277 0.654688 0.721335
O O16 0.500000 0.192638 0.000000
O O17 0.246958 0.807261 0.281016
O O18 0.000000 0.175694 0.500000
O O19 0.998795 0.000000 0.414683
O O20 0.690502 0.000000 0.711748
#
# Coordination Sequence:
#
# PCOD8098308 Si02
#       8
#     8   8   8   8   8   8   8   8
#     4  10  21  36  57  82 112 151 193 233 280 340
#     4  10  22  37  56  83 115 148 186 234 287 339
#     4  10  20  37  59  84 117 154 191 241 298 353
#     4  11  21  36  59  84 110 147 194 238 283 349
#     4  10  21  37  55  83 117 147 185 235 285 334
#     4  10  21  37  56  82 113 149 193 240 282 343
#     4  10  20  34  56  84 113 147 191 240 288 344
#     4  10  21  37  57  82 114 150 191 241 294 347
#
# _framework density 20.128826
#
# number of rings (size 3 to 8) (size 9 to 14) (size 15 to 20)
#    0.000    1.875    1.250    2.625    0.000    4.250 
#    0.000    3.125    0.000   11.250    0.000    0.000 
#    0.000    0.000    0.000    0.000    0.000    0.000 
#
# Total GULP energy -396483.797702 kJ/mol
# GULP energy per Si atom -12390.118678 kJ/mol
# Density = 2.008301 g / cm^3
# Si number density = 20.128826 Si / 1000 Ang^3
#
#
#
# Elastic Constant Matrix: (Units=GPa)
#
#
# Indices 1 2 3 4 5 6 
#
# 1 106.4723 -7.3074 18.8163 0.0000 -15.6775 0.0000
# 2 -7.3074 64.4348 9.7315 0.0000 3.1671 0.0000
# 3 18.8163 9.7315 85.8120 0.0000 1.6931 0.0000
# 4 0.0000 0.0000 0.0000 7.9897 0.0000 -10.4742
# 5 -15.6775 3.1671 1.6931 0.0000 33.9264 0.0000
# 6 0.0000 0.0000 0.0000 -10.4742 0.0000 4.3446
#
#
#
# Elastic Compliance Matrix: (Units=1/GPa)
#
#
# Indices 1 2 3 4 5 6 
#
# 1 0.010670 0.001359 -0.002591 0.000000 0.004933 0.000000
# 2 0.001359 0.016028 -0.002101 0.000000 -0.000764 0.000000
# 3 -0.002591 -0.002101 0.012492 0.000000 -0.001625 0.000000
# 4 0.000000 0.000000 0.000000 -0.057931 0.000000 -0.139663
# 5 0.004933 -0.000764 -0.001625 0.000000 0.031907 0.000000
# 6 0.000000 0.000000 0.000000 -0.139663 0.000000 -0.106535
#
#
# Mechanical properties :
#
#
# Convention : Reuss Voigt Hill
#
# Bulk Modulus (GPa) = 30.74616 33.24445 31.99530
# Shear Modulus (GPa) = -65.90928 24.95074 -20.47927
#
# Velocity S-wave (km/s) = -5.72842 3.52455 -3.19315
# Velocity P-wave (km/s) = 5.33341 5.75456 1.52802
#
# Compressibility (1/GPa) = 0.03252439
#
# Stress axis : x y z
#
# Youngs Moduli (GPa) = 93.72408 62.38903 80.05259
#
# Poissons Ratio (x) = -0.08478 0.20742
# Poissons Ratio (y) = -0.12736 0.16816
# Poissons Ratio (z) = 0.24284 0.13106
#
# Static dielectric constant tensor:
#      x y z
#    x 3.836220 0.000000 -0.055390 
#    y 0.000000 3.562240 0.000000 
#    z -0.055390 0.000000 3.758070 
# 
# 
# High freq. dielectric constant tensor:
#      x y z
#    x 1.794420 0.000000 -0.007420 
#    y 0.000000 1.762950 0.000000 
#    z -0.007420 0.000000 1.790400 
# 
# From -- ./inp_files/269295.got.cif
#   From: 2010.06.25/outbox.cif.g09.slc.cpg/sg12_135_cif.got.tgz:269295.got - 2010.06.28 00:19:55.
