data_PCOD8098090
_publ_section_title
;
Structure prediction by ZEFSAII (Michael W. Deem and Ramdas Pophale) SiO2 
 PCOD8098090
Probable space group: C 2/M
;
_chemical_formula_sum "Si O2"
_cell_formula_units_Z 56
_cell_length_a 29.810298
_cell_length_b 8.820963
_cell_length_c 12.344917
_cell_angle_alpha 90.000000
_cell_angle_beta 105.887265
_cell_angle_gamma 90.000000
_cell_volume 3122.167858
_symmetry_space_group_name_H-M "C 2/M"
_symmetry_group_IT_number 12
_symmetry_cell_setting 'monoclinic'
loop_
_space_group_symop_operation_xyz
x,y,z
-x,y,-z
-x,-y,-z
x,-y,z
1/2+x,1/2+y,z
1/2-x,1/2+y,-z
1/2-x,1/2-y,-z
1/2+x,1/2-y,z
loop_
_atom_site_type_symbol
_atom_site_label
_atom_site_fract_x
_atom_site_fract_y
_atom_site_fract_z
Si Si1 0.296909 0.823399 0.659552
Si Si2 0.392784 0.321458 0.398378
Si Si3 0.046764 0.826626 0.971816
Si Si4 0.611773 0.326060 0.213694
Si Si5 0.444306 0.823679 0.632206
Si Si6 0.948893 0.324827 0.251110
Si Si7 0.300073 0.176649 0.409608
O O1 0.337374 0.748674 0.757599
O O2 0.308588 0.791476 0.541926
O O3 0.248445 0.747589 0.661520
O O4 0.293821 0.000000 0.683103
O O5 0.390142 0.500000 0.408684
O O6 0.425410 0.256562 0.513510
O O7 0.413670 0.277038 0.296464
O O8 0.340962 0.255010 0.369907
O O9 0.056594 0.719487 0.877253
O O10 0.039813 0.000000 0.928180
O O11 0.090517 0.811411 0.080419
O O12 0.000000 0.769401 0.000000
O O13 0.615935 0.500000 0.253394
O O14 0.578633 0.240801 0.275265
O O15 0.499110 0.793689 0.672906
O O16 0.431601 0.000000 0.616018
O O17 0.935533 0.500000 0.256669
O O18 0.299298 0.000000 0.382952
#
# Coordination Sequence:
#
# PCOD8098090 Si02
#       7
#     8   8   8   8   8   8   8
#     4  10  20  34  55  83 115 148 184 229 279 333
#     4  12  24  37  57  82 114 152 189 229 281 340
#     4  10  21  38  58  82 112 148 191 237 279 326
#     4  11  21  34  57  84 115 150 186 231 282 331
#     4  11  22  36  54  81 115 150 188 231 279 333
#     4  11  24  39  57  80 112 152 194 235 279 332
#     4  10  20  35  56  82 115 147 183 229 278 335
#
# _framework density 17.936256
#
# number of rings (size 3 to 8) (size 9 to 14) (size 15 to 20)
#    0.000    1.286    2.857    3.857    0.000    6.000 
#    0.000    0.000    0.000    0.857    0.000    0.000 
#    0.000    0.000    0.000    0.000    0.000    0.000 
#
# Total GULP energy -347393.218076 kJ/mol
# GULP energy per Si atom -12406.900646 kJ/mol
# Density = 1.789543 g / cm^3
# Si number density = 17.936256 Si / 1000 Ang^3
#
#
#
# Elastic Constant Matrix: (Units=GPa)
#
#
# Indices 1 2 3 4 5 6 
#
# 1 126.5236 72.1161 42.3851 0.0000 5.8154 0.0000
# 2 72.1161 127.1646 43.2012 0.0000 5.5579 0.0000
# 3 42.3851 43.2012 56.8817 0.0000 -2.5214 0.0000
# 4 0.0000 0.0000 0.0000 29.7507 0.0000 0.7808
# 5 5.8154 5.5579 -2.5214 0.0000 27.8072 0.0000
# 6 0.0000 0.0000 0.0000 0.7808 0.0000 34.0748
#
#
#
# Elastic Compliance Matrix: (Units=1/GPa)
#
#
# Indices 1 2 3 4 5 6 
#
# 1 0.012938 -0.005303 -0.005709 0.000000 -0.002164 0.000000
# 2 -0.005303 0.013004 -0.006015 0.000000 -0.002035 0.000000
# 3 -0.005709 -0.006015 0.026616 0.000000 0.004809 0.000000
# 4 0.000000 0.000000 0.000000 0.033633 0.000000 -0.000771
# 5 -0.002164 -0.002035 0.004809 0.000000 0.037257 0.000000
# 6 0.000000 0.000000 0.000000 -0.000771 0.000000 0.029365
#
#
# Mechanical properties :
#
#
# Convention : Reuss Voigt Hill
#
# Bulk Modulus (GPa) = 54.04328 69.55275 61.79802
# Shear Modulus (GPa) = 25.90203 28.51770 27.20987
#
# Velocity S-wave (km/s) = 3.80428 3.99174 3.89913
# Velocity P-wave (km/s) = 7.03511 7.75289 7.40270
#
# Compressibility (1/GPa) = 0.01850369
#
# Stress axis : x y z
#
# Youngs Moduli (GPa) = 77.28880 76.90093 37.57186
#
# Poissons Ratio (x) = 0.40784 0.21450
# Poissons Ratio (y) = 0.40990 0.22598
# Poissons Ratio (z) = 0.44124 0.46253
#
# Static dielectric constant tensor:
#      x y z
#    x 3.436190 0.000000 0.127040 
#    y 0.000000 3.488270 0.000000 
#    z 0.127040 0.000000 3.159530 
# 
# 
# High freq. dielectric constant tensor:
#      x y z
#    x 1.697810 0.000000 0.009940 
#    y 0.000000 1.712320 0.000000 
#    z 0.009940 0.000000 1.675100 
# 
# From -- ./inp_files/186838.got.cif
#   From: 2010.06.25/outbox.cif.g09.slc.cpg/sg12_94_cif.got.tgz:186838.got - 2010.06.28 00:19:55.
