data_PCOD8098422
_publ_section_title
;
Structure prediction by ZEFSAII (Michael W. Deem and Ramdas Pophale) SiO2 
 PCOD8098422
Probable space group: C 2/M
;
_chemical_formula_sum "Si O2"
_cell_formula_units_Z 64
_cell_length_a 11.092949
_cell_length_b 19.446664
_cell_length_c 23.153011
_cell_angle_alpha 90.000000
_cell_angle_beta 43.623649
_cell_angle_gamma 90.000000
_cell_volume 3445.857595
_symmetry_space_group_name_H-M "C 2/M"
_symmetry_group_IT_number 12
_symmetry_cell_setting 'monoclinic'
loop_
_space_group_symop_operation_xyz
x,y,z
-x,y,-z
-x,-y,-z
x,-y,z
1/2+x,1/2+y,z
1/2-x,1/2+y,-z
1/2-x,1/2-y,-z
1/2+x,1/2-y,z
loop_
_atom_site_type_symbol
_atom_site_label
_atom_site_fract_x
_atom_site_fract_y
_atom_site_fract_z
Si Si1 0.988370 0.423115 0.676571
Si Si2 0.601299 0.294735 0.906284
Si Si3 0.756231 0.575740 0.089832
Si Si4 0.036167 0.351698 0.198103
Si Si5 0.387621 0.621280 0.209603
Si Si6 0.382413 0.779717 0.407699
Si Si7 0.730297 0.253007 0.681504
Si Si8 0.011163 0.641713 0.080353
O O1 0.065958 0.500000 0.637756
O O2 0.975278 0.410789 0.749804
O O3 0.789458 0.422294 0.723386
O O4 0.104578 0.363523 0.604457
O O5 0.811192 0.295690 0.842282
O O6 0.566504 0.352723 0.870651
O O7 0.538154 0.221882 0.904118
O O8 0.500000 0.314778 0.000000
O O9 0.816107 0.500000 0.049733
O O10 0.549812 0.574655 0.171582
O O11 0.847293 0.595594 0.118423
O O12 0.822891 0.630530 0.019143
O O13 0.849508 0.314462 0.261714
O O14 0.067312 0.383642 0.124307
O O15 0.375956 0.682538 0.258838
O O16 0.250000 0.750000 0.500000
O O17 0.308079 0.748605 0.373837
O O18 0.570472 0.754020 0.365034
#
# Coordination Sequence:
#
# PCOD8098422 Si02
#       8
#     8   8   8   8   8   8   8   8
#     4   9  20  38  59  85 110 148 183 219 278 340
#     4  11  20  32  51  80 107 140 196 248 300 319
#     4  11  23  35  46  69 106 157 194 223 280 336
#     4  10  21  33  53  80 109 143 185 240 281 332
#     4  10  20  34  57  78 108 142 186 244 274 330
#     4  10  21  38  63  92 117 146 177 232 283 353
#     4  10  20  34  60  89 115 139 185 228 295 337
#     4  11  21  32  50  70 108 147 189 241 284 332
#
# _framework density 18.573025000000001
#
# number of rings (size 3 to 8) (size 9 to 14) (size 15 to 20)
#    0.000    1.750    2.500    3.750    1.750    2.000 
#    0.000    0.000    0.000   16.875    0.000    0.000 
#    0.000    0.000    0.000    0.000    0.000    0.000 
#
# Total GULP energy -396501.973928 kJ/mol
# GULP energy per Si atom -12390.686685 kJ/mol
# Density = 1.853075 g / cm^3
# Si number density = 18.573025 Si / 1000 Ang^3
#
#
#
# Elastic Constant Matrix: (Units=GPa)
#
#
# Indices 1 2 3 4 5 6 
#
# 1 103.3786 20.8538 31.9707 -0.0037 1.6005 0.0010
# 2 20.8538 82.6361 29.5701 0.0157 0.5575 -0.0043
# 3 31.9707 29.5701 74.1462 0.0587 2.9221 -0.0108
# 4 -0.0037 0.0157 0.0587 15.8419 -0.0081 -4.0630
# 5 1.6005 0.5575 2.9221 -0.0081 29.9706 -0.0042
# 6 0.0010 -0.0043 -0.0108 -4.0630 -0.0042 9.3079
#
#
#
# Elastic Compliance Matrix: (Units=1/GPa)
#
#
# Indices 1 2 3 4 5 6 
#
# 1 0.011279 -0.001292 -0.004342 0.000020 -0.000155 0.000002
# 2 -0.001292 0.014266 -0.005145 0.000006 0.000305 0.000003
# 3 -0.004342 -0.005145 0.017465 -0.000064 -0.001375 -0.000010
# 4 0.000020 0.000006 -0.000064 0.071082 0.000029 0.031028
# 5 -0.000155 0.000305 -0.001375 0.000029 0.033503 0.000026
# 6 0.000002 0.000003 -0.000010 0.031028 0.000026 0.120980
#
#
# Mechanical properties :
#
#
# Convention : Reuss Voigt Hill
#
# Bulk Modulus (GPa) = 46.61221 47.21669 46.91445
# Shear Modulus (GPa) = 16.81905 22.87516 19.84710
#
# Velocity S-wave (km/s) = 3.01252 3.51327 3.27249
# Velocity P-wave (km/s) = 6.10341 6.47571 6.29231
#
# Compressibility (1/GPa) = 0.02145361
#
# Stress axis : x y z
#
# Youngs Moduli (GPa) = 88.66069 70.09663 57.25707
#
# Poissons Ratio (x) = 0.09053 0.24862
# Poissons Ratio (y) = 0.11451 0.29456
# Poissons Ratio (z) = 0.38498 0.36062
#
# Static dielectric constant tensor:
#      x y z
#    x 3.685090 -0.000010 0.017950 
#    y -0.000010 3.216450 0.000010 
#    z 0.017950 0.000010 3.325220 
# 
# 
# High freq. dielectric constant tensor:
#      x y z
#    x 1.737410 0.000000 -0.002640 
#    y 0.000000 1.702480 0.000000 
#    z -0.002640 0.000000 1.702240 
# 
# From -- ./inp_files/336668.got.cif
#   From: 2010.06.25/outbox.cif.g09.slc.cpg/sg12_169_cif.got.tgz:336668.got - 2010.06.28 00:19:55.
