data_PCOD8098543
_publ_section_title
;
Structure prediction by ZEFSAII (Michael W. Deem and Ramdas Pophale) SiO2 
 PCOD8098543
Probable space group: C 2/M
;
_chemical_formula_sum "Si O2"
_cell_formula_units_Z 40
_cell_length_a 4.919299
_cell_length_b 24.503982
_cell_length_c 17.762512
_cell_angle_alpha 90.000000
_cell_angle_beta 69.193783
_cell_angle_gamma 90.000000
_cell_volume 2001.506469
_symmetry_space_group_name_H-M "C 2/M"
_symmetry_group_IT_number 12
_symmetry_cell_setting 'monoclinic'
loop_
_space_group_symop_operation_xyz
x,y,z
-x,y,-z
-x,-y,-z
x,-y,z
1/2+x,1/2+y,z
1/2-x,1/2+y,-z
1/2-x,1/2-y,-z
1/2+x,1/2-y,z
loop_
_atom_site_type_symbol
_atom_site_label
_atom_site_fract_x
_atom_site_fract_y
_atom_site_fract_z
Si Si1 0.177834 0.286763 0.811505
Si Si2 0.762572 0.562539 0.808957
Si Si3 0.854487 0.107238 0.723407
Si Si4 0.689510 0.561906 0.554980
Si Si5 0.820057 0.364821 0.946943
O O1 0.494716 0.265224 0.802747
O O2 0.230962 0.331121 0.740250
O O3 0.005924 0.314272 0.897297
O O4 0.666679 0.500000 0.823122
O O5 0.521081 0.594600 0.784809
O O6 0.782101 0.587040 0.890413
O O7 0.079649 0.567073 0.738805
O O8 0.065597 0.100926 0.631775
O O9 0.500000 0.563761 0.500000
O O10 0.714150 0.500000 0.584488
O O11 0.000000 0.585228 0.500000
O O12 0.500000 0.343210 0.000000
O O13 0.000000 0.388846 0.000000
#
# Coordination Sequence:
#
# PCOD8098543 Si02
#       5
#     8   8   8   8   8
#     4  11  23  40  61  82 107 149 197 242 291 332
#     4  11  22  37  59  84 115 157 192 225 280 346
#     4  11  22  39  60  85 118 150 193 238 274 337
#     4  10  20  34  57  89 120 149 179 219 278 337
#     4  11  23  38  56  84 117 146 189 242 291 343
#
# _framework density 19.984945
#
# number of rings (size 3 to 8) (size 9 to 14) (size 15 to 20)
#    0.000    1.200    0.000    9.000    0.000    4.800 
#    0.000    0.000    0.000    3.600    0.000    0.000 
#    0.000    0.000    0.000    0.000    0.000    0.000 
#
# Total GULP energy -248082.028331 kJ/mol
# GULP energy per Si atom -12404.101417 kJ/mol
# Density = 1.993946 g / cm^3
# Si number density = 19.984945 Si / 1000 Ang^3
#
#
#
# Elastic Constant Matrix: (Units=GPa)
#
#
# Indices 1 2 3 4 5 6 
#
# 1 102.3382 20.9837 22.0485 0.0000 -11.0915 0.0000
# 2 20.9837 92.6016 44.3467 0.0000 -7.7809 0.0000
# 3 22.0485 44.3467 104.1212 0.0000 -19.6412 0.0000
# 4 0.0000 0.0000 0.0000 18.5846 0.0000 -1.1531
# 5 -11.0915 -7.7809 -19.6412 0.0000 39.2283 0.0000
# 6 0.0000 0.0000 0.0000 -1.1531 0.0000 32.5244
#
#
#
# Elastic Compliance Matrix: (Units=1/GPa)
#
#
# Indices 1 2 3 4 5 6 
#
# 1 0.010587 -0.001682 -0.001131 0.000000 0.002094 0.000000
# 2 -0.001682 0.013835 -0.005641 0.000000 -0.000556 0.000000
# 3 -0.001131 -0.005641 0.013224 0.000000 0.005182 0.000000
# 4 0.000000 0.000000 0.000000 0.053927 0.000000 0.001912
# 5 0.002094 -0.000556 0.005182 0.000000 0.028568 0.000000
# 6 0.000000 0.000000 0.000000 0.001912 0.000000 0.030814
#
#
# Mechanical properties :
#
#
# Convention : Reuss Voigt Hill
#
# Bulk Modulus (GPa) = 48.21928 52.64656 50.43292
# Shear Modulus (GPa) = 28.60829 32.17959 30.39394
#
# Velocity S-wave (km/s) = 3.78761 4.01707 3.90403
# Velocity P-wave (km/s) = 6.58089 6.92215 6.75368
#
# Compressibility (1/GPa) = 0.02073859
#
# Stress axis : x y z
#
# Youngs Moduli (GPa) = 94.45695 72.28113 75.62062
#
# Poissons Ratio (x) = 0.12155 0.08550
# Poissons Ratio (y) = 0.15884 0.42659
# Poissons Ratio (z) = 0.10680 0.40775
#
# Static dielectric constant tensor:
#      x y z
#    x 3.924020 0.000000 -0.121840 
#    y 0.000000 3.379910 0.000000 
#    z -0.121840 0.000000 3.507980 
# 
# 
# High freq. dielectric constant tensor:
#      x y z
#    x 1.808640 0.000000 -0.006110 
#    y 0.000000 1.760000 0.000000 
#    z -0.006110 0.000000 1.768780 
# 
# From -- ./inp_files/191511.got.cif
#   From: 2010.06.25/outbox.cif.g09.slc.cpg/sg12_96_cif.got.tgz:191511.got - 2010.06.28 00:19:55.
