data_PCOD8098760
_publ_section_title
;
Structure prediction by ZEFSAII (Michael W. Deem and Ramdas Pophale) SiO2 
 PCOD8098760
Probable space group: C 2/M
;
_chemical_formula_sum "Si O2"
_cell_formula_units_Z 48
_cell_length_a 19.685030
_cell_length_b 8.868998
_cell_length_c 15.323099
_cell_angle_alpha 90.000000
_cell_angle_beta 85.654061
_cell_angle_gamma 90.000000
_cell_volume 2667.514066
_symmetry_space_group_name_H-M "C 2/M"
_symmetry_group_IT_number 12
_symmetry_cell_setting 'monoclinic'
loop_
_space_group_symop_operation_xyz
x,y,z
-x,y,-z
-x,-y,-z
x,-y,z
1/2+x,1/2+y,z
1/2-x,1/2+y,-z
1/2-x,1/2-y,-z
1/2+x,1/2-y,z
loop_
_atom_site_type_symbol
_atom_site_label
_atom_site_fract_x
_atom_site_fract_y
_atom_site_fract_z
Si Si1 0.662030 0.174265 0.088854
Si Si2 0.413576 0.831881 0.429083
Si Si3 0.592201 0.819846 0.756731
Si Si4 0.053545 0.177446 0.215078
Si Si5 0.700331 0.825197 0.889209
Si Si6 0.925970 0.670392 0.613754
O O1 0.599098 0.271140 0.129547
O O2 0.731738 0.227618 0.127360
O O3 0.650238 0.000000 0.112632
O O4 0.664767 0.203233 0.985355
O O5 0.383349 0.759588 0.342475
O O6 0.493667 0.834938 0.405182
O O7 0.395986 0.756062 0.525384
O O8 0.385036 0.000000 0.441208
O O9 0.520356 0.749608 0.790689
O O10 0.648585 0.768576 0.820205
O O11 0.582970 0.000000 0.755750
O O12 0.091786 0.228397 0.300794
O O13 0.045645 0.000000 0.216644
O O14 0.719727 0.000000 0.875589
O O15 0.898503 0.500000 0.631474
#
# Coordination Sequence:
#
# PCOD8098760 Si02
#       6
#     8   8   8   8   8   8
#     4  10  20  35  53  71  95 128 162 196 239 290
#     4   7  11  22  44  69  92 122 156 189 229 283
#     4   9  17  32  52  74 100 127 157 194 240 289
#     4  11  21  31  46  72 102 129 162 202 239 274
#     4   9  19  35  55  75  94 122 160 199 239 288
#     4   8  13  25  44  66  93 125 159 191 232 283
#
# _framework density 17.994281000000001
#
# number of rings (size 3 to 8) (size 9 to 14) (size 15 to 20)
#    0.000    3.000    0.000    4.000    0.000    2.000 
#    0.000   10.000    0.000    1.000    0.000    0.000 
#    0.000    0.000    0.000    0.000    0.000    0.000 
#
# Total GULP energy -297323.340692 kJ/mol
# GULP energy per Si atom -12388.472529 kJ/mol
# Density = 1.795333 g / cm^3
# Si number density = 17.994281 Si / 1000 Ang^3
#
#
#
# Elastic Constant Matrix: (Units=GPa)
#
#
# Indices 1 2 3 4 5 6 
#
# 1 45.6646 17.8032 35.7527 0.0000 24.0997 0.0000
# 2 17.8032 54.2629 19.9115 0.0000 8.7981 0.0000
# 3 35.7527 19.9115 92.1108 0.0000 37.1272 0.0000
# 4 0.0000 0.0000 0.0000 16.6142 0.0000 -2.5212
# 5 24.0997 8.7981 37.1272 0.0000 23.4612 0.0000
# 6 0.0000 0.0000 0.0000 -2.5212 0.0000 23.2513
#
#
#
# Elastic Compliance Matrix: (Units=1/GPa)
#
#
# Indices 1 2 3 4 5 6 
#
# 1 0.052510 -0.009677 0.005491 0.000000 -0.059000 0.000000
# 2 -0.009677 0.021828 -0.004611 0.000000 0.009051 0.000000
# 3 0.005491 -0.004611 0.031199 0.000000 -0.053284 0.000000
# 4 0.000000 0.000000 0.000000 0.061197 0.000000 0.006636
# 5 -0.059000 0.009051 -0.053284 0.000000 0.184157 0.000000
# 6 0.000000 0.000000 0.000000 0.006636 0.000000 0.043728
#
#
# Mechanical properties :
#
#
# Convention : Reuss Voigt Hill
#
# Bulk Modulus (GPa) = 11.37081 37.66370 24.51725
# Shear Modulus (GPa) = 11.32441 20.57007 15.94724
#
# Velocity S-wave (km/s) = 2.51137 3.38471 2.98021
# Velocity P-wave (km/s) = 3.83955 6.02091 5.04943
#
# Compressibility (1/GPa) = 0.08794451
#
# Stress axis : x y z
#
# Youngs Moduli (GPa) = 19.04416 45.81265 32.05253
#
# Poissons Ratio (x) = 0.44332 -0.17602
# Poissons Ratio (y) = 0.18429 0.14778
# Poissons Ratio (z) = -0.10458 0.21122
#
# Static dielectric constant tensor:
#      x y z
#    x 2.950080 0.000000 0.217580 
#    y 0.000000 3.127690 0.000000 
#    z 0.217580 0.000000 4.024790 
# 
# 
# High freq. dielectric constant tensor:
#      x y z
#    x 1.652200 0.000000 0.008280 
#    y 0.000000 1.672760 0.000000 
#    z 0.008280 0.000000 1.719660 
# 
# From -- ./inp_files/229274.got.cif
#   From: 2010.06.25/outbox.cif.g09.slc.cpg/sg12_115_cif.got.tgz:229274.got - 2010.06.28 00:19:55.
