data_PCOD8098786
_publ_section_title
;
Structure prediction by ZEFSAII (Michael W. Deem and Ramdas Pophale) SiO2 
 PCOD8098786
Probable space group: C 2/M
;
_chemical_formula_sum "Si O2"
_cell_formula_units_Z 56
_cell_length_a 18.978463
_cell_length_b 8.913590
_cell_length_c 18.798670
_cell_angle_alpha 90.000000
_cell_angle_beta 115.639910
_cell_angle_gamma 90.000000
_cell_volume 2866.960050
_symmetry_space_group_name_H-M "C 2/M"
_symmetry_group_IT_number 12
_symmetry_cell_setting 'monoclinic'
loop_
_space_group_symop_operation_xyz
x,y,z
-x,y,-z
-x,-y,-z
x,-y,z
1/2+x,1/2+y,z
1/2-x,1/2+y,-z
1/2-x,1/2-y,-z
1/2+x,1/2-y,z
loop_
_atom_site_type_symbol
_atom_site_label
_atom_site_fract_x
_atom_site_fract_y
_atom_site_fract_z
Si Si1 0.575089 0.329043 0.570994
Si Si2 0.678370 0.323686 0.226317
Si Si3 0.603455 0.828517 0.322152
Si Si4 0.661522 0.679010 0.746912
Si Si5 0.436776 0.828342 0.179475
Si Si6 0.330883 0.670481 0.524038
Si Si7 0.513681 0.675035 0.086378
O O1 0.500000 0.248941 0.500000
O O2 0.550277 0.500000 0.576215
O O3 0.604974 0.258006 0.658567
O O4 0.647728 0.318432 0.549240
O O5 0.694163 0.500000 0.238004
O O6 0.664552 0.259452 0.299062
O O7 0.751859 0.243673 0.222794
O O8 0.602560 0.285219 0.145644
O O9 0.516098 0.812547 0.257563
O O10 0.604008 0.754072 0.400181
O O11 0.631455 0.000000 0.338183
O O12 0.665718 0.500000 0.746532
O O13 0.629194 0.734004 0.808556
O O14 0.450806 0.762686 0.107091
O O15 0.409238 0.000000 0.161135
O O16 0.325442 0.500000 0.547298
O O17 0.250000 0.750000 0.500000
O O18 0.496960 0.500000 0.089537
O O19 0.500000 0.727569 0.000000
#
# Coordination Sequence:
#
# PCOD8098786 Si02
#       7
#     8   8   8   8   8   8   8
#     4   9  19  34  51  72  99 136 182 228 271 314
#     4  10  20  35  57  83 111 143 179 223 276 329
#     4  10  20  35  53  75 105 141 184 229 273 326
#     4  11  21  35  56  80 110 146 185 228 274 327
#     4  10  21  36  56  82 111 143 180 222 268 322
#     4  11  21  33  51  74 102 137 180 232 285 331
#     4   9  19  38  63  88 112 140 177 220 268 327
#
# _framework density 19.532883000000002
#
# number of rings (size 3 to 8) (size 9 to 14) (size 15 to 20)
#    0.000    2.000    0.000    3.857    0.000    4.857 
#    0.000    2.857    0.000    5.143    0.000    0.000 
#    0.000    0.000    0.000    0.000    0.000    0.000 
#
# Total GULP energy -347229.945071 kJ/mol
# GULP energy per Si atom -12401.069467 kJ/mol
# Density = 1.948843 g / cm^3
# Si number density = 19.532883 Si / 1000 Ang^3
#
#
#
# Elastic Constant Matrix: (Units=GPa)
#
#
# Indices 1 2 3 4 5 6 
#
# 1 102.2668 43.8568 24.3055 0.0000 -14.5677 0.0000
# 2 43.8568 95.5564 31.1735 0.0000 -9.7563 0.0000
# 3 24.3055 31.1735 91.3002 0.0000 -17.0193 0.0000
# 4 0.0000 0.0000 0.0000 25.6891 0.0000 -2.1876
# 5 -14.5677 -9.7563 -17.0193 0.0000 24.7466 0.0000
# 6 0.0000 0.0000 0.0000 -2.1876 0.0000 34.4159
#
#
#
# Elastic Compliance Matrix: (Units=1/GPa)
#
#
# Indices 1 2 3 4 5 6 
#
# 1 0.012883 -0.005160 -0.000726 0.000000 0.005050 0.000000
# 2 -0.005160 0.013945 -0.003360 0.000000 0.000149 0.000000
# 3 -0.000726 -0.003360 0.013727 0.000000 0.007688 0.000000
# 4 0.000000 0.000000 0.000000 0.039139 0.000000 0.002488
# 5 0.005050 0.000149 0.007688 0.000000 0.048729 0.000000
# 6 0.000000 0.000000 0.000000 0.002488 0.000000 0.029215
#
#
# Mechanical properties :
#
#
# Convention : Reuss Voigt Hill
#
# Bulk Modulus (GPa) = 45.32748 54.19944 49.76346
# Shear Modulus (GPa) = 27.25039 29.62282 28.43660
#
# Velocity S-wave (km/s) = 3.73916 3.89853 3.81968
# Velocity P-wave (km/s) = 6.47286 6.93345 6.70711
#
# Compressibility (1/GPa) = 0.02206167
#
# Stress axis : x y z
#
# Youngs Moduli (GPa) = 77.61945 71.71167 72.85160
#
# Poissons Ratio (x) = 0.37006 0.05292
# Poissons Ratio (y) = 0.40055 0.24476
# Poissons Ratio (z) = 0.05638 0.24093
#
# Static dielectric constant tensor:
#      x y z
#    x 3.498530 0.000000 -0.056930 
#    y 0.000000 3.558260 0.000000 
#    z -0.056930 0.000000 3.637690 
# 
# 
# High freq. dielectric constant tensor:
#      x y z
#    x 1.763600 0.000000 -0.007320 
#    y 0.000000 1.755300 0.000000 
#    z -0.007320 0.000000 1.752070 
# 
# From -- ./inp_files/275189.got.cif
#   From: 2010.06.25/outbox.cif.g09.slc.cpg/sg12_138_cif.got.tgz:275189.got - 2010.06.28 00:19:55.
