data_PCOD8098478
_publ_section_title
;
Structure prediction by ZEFSAII (Michael W. Deem and Ramdas Pophale) SiO2 
 PCOD8098478
Probable space group: C 2/M
;
_chemical_formula_sum "Si O2"
_cell_formula_units_Z 36
_cell_length_a 8.989136
_cell_length_b 17.056284
_cell_length_c 14.285811
_cell_angle_alpha 90.000000
_cell_angle_beta 53.677909
_cell_angle_gamma 90.000000
_cell_volume 1764.739534
_symmetry_space_group_name_H-M "C 2/M"
_symmetry_group_IT_number 12
_symmetry_cell_setting 'monoclinic'
loop_
_space_group_symop_operation_xyz
x,y,z
-x,y,-z
-x,-y,-z
x,-y,z
1/2+x,1/2+y,z
1/2-x,1/2+y,-z
1/2-x,1/2-y,-z
1/2+x,1/2-y,z
loop_
_atom_site_type_symbol
_atom_site_label
_atom_site_fract_x
_atom_site_fract_y
_atom_site_fract_z
Si Si1 0.099736 0.302775 0.697624
Si Si2 0.000000 0.155711 0.500000
Si Si3 0.595579 0.912428 0.371712
Si Si4 0.518292 0.374870 0.702127
Si Si5 0.880800 0.587987 0.134017
O O1 0.311654 0.294123 0.582345
O O2 0.013093 0.217322 0.726637
O O3 0.090062 0.343090 0.802115
O O4 0.964804 0.355369 0.686874
O O5 0.026659 0.106161 0.586250
O O6 0.500000 0.879563 0.500000
O O7 0.814612 0.914549 0.305352
O O8 0.526176 0.000000 0.373812
O O9 0.334884 0.413185 0.813139
O O10 0.935461 0.500000 0.149330
O O11 0.000000 0.611188 0.000000
#
# Coordination Sequence:
#
# PCOD8098478 Si02
#       5
#     8   4   8   8   8
#     4  11  22  37  61  87 117 156 195 237 286 349
#     4  10  20  34  57  86 121 158 188 224 286 352
#     4  11  22  35  53  87 125 151 184 236 292 344
#     4  11  22  37  61  87 117 156 195 237 286 349
#     4  10  23  44  63  81 113 157 202 244 288 340
#
# _framework density 20.399611
#
# number of rings (size 3 to 8) (size 9 to 14) (size 15 to 20)
#    0.000    1.333    2.222    4.667    3.111    0.889 
#    0.000    4.444    0.000    4.000    0.000    0.000 
#    0.000    0.000    0.000    0.000    0.000    0.000 
#
# Total GULP energy -223129.358565 kJ/mol
# GULP energy per Si atom -12396.075476 kJ/mol
# Density = 2.035318 g / cm^3
# Si number density = 20.399611 Si / 1000 Ang^3
#
#
#
# Elastic Constant Matrix: (Units=GPa)
#
#
# Indices 1 2 3 4 5 6 
#
# 1 105.3897 16.7843 38.2194 0.0001 -6.3032 0.0001
# 2 16.7843 89.7816 31.6197 0.0000 9.8111 0.0000
# 3 38.2194 31.6197 134.9936 0.0000 -9.9367 0.0000
# 4 0.0001 0.0000 0.0000 -265.5820 0.0000 -274.9402
# 5 -6.3032 9.8111 -9.9367 0.0000 18.0001 0.0000
# 6 0.0001 0.0000 0.0000 -274.9402 0.0000 -240.7376
#
#
#
# Elastic Compliance Matrix: (Units=1/GPa)
#
#
# Indices 1 2 3 4 5 6 
#
# 1 0.010819 -0.001507 -0.002471 0.000000 0.003246 0.000000
# 2 -0.001507 0.013752 -0.003529 0.000000 -0.009971 0.000000
# 3 -0.002471 -0.003529 0.009393 0.000000 0.006243 0.000000
# 4 0.000000 0.000000 0.000000 0.020653 0.000000 -0.023587
# 5 0.003246 -0.009971 0.006243 0.000000 0.065574 0.000000
# 6 0.000000 0.000000 0.000000 -0.023587 0.000000 0.022784
#
#
# Mechanical properties :
#
#
# Convention : Reuss Voigt Hill
#
# Bulk Modulus (GPa) = 52.76683 55.93463 54.35073
# Shear Modulus (GPa) = 30.43123 -81.42782 -25.49829
#
# Velocity S-wave (km/s) = 3.86652 -6.32479 -3.53928
# Velocity P-wave (km/s) = 6.77171 5.08511 3.16209
#
# Compressibility (1/GPa) = 0.01895130
#
# Stress axis : x y z
#
# Youngs Moduli (GPa) = 92.43108 72.71570 106.45704
#
# Poissons Ratio (x) = 0.10958 0.26307
# Poissons Ratio (y) = 0.13929 0.37564
# Poissons Ratio (z) = 0.22841 0.25658
#
# Static dielectric constant tensor:
#      x y z
#    x 4.019240 0.000000 -0.159990 
#    y 0.000000 3.715460 0.000000 
#    z -0.159990 0.000000 3.558530 
# 
# 
# High freq. dielectric constant tensor:
#      x y z
#    x 1.810030 0.000000 -0.012140 
#    y 0.000000 1.800340 0.000000 
#    z -0.012140 0.000000 1.771130 
# 
# From -- ./inp_files/195248.got.cif
#   From: 2010.06.25/outbox.cif.g09.slc.cpg/sg12_98_cif.got.tgz:195248.got - 2010.06.28 00:19:55.
