data_PCOD8098874
_publ_section_title
;
Structure prediction by ZEFSAII (Michael W. Deem and Ramdas Pophale) SiO2 
 PCOD8098874
Probable space group: C 2/M
;
_chemical_formula_sum "Si O2"
_cell_formula_units_Z 64
_cell_length_a 18.713035
_cell_length_b 8.983322
_cell_length_c 31.852361
_cell_angle_alpha 90.000000
_cell_angle_beta 141.018100
_cell_angle_gamma 90.000000
_cell_volume 3368.411587
_symmetry_space_group_name_H-M "C 2/M"
_symmetry_group_IT_number 12
_symmetry_cell_setting 'monoclinic'
loop_
_space_group_symop_operation_xyz
x,y,z
-x,y,-z
-x,-y,-z
x,-y,z
1/2+x,1/2+y,z
1/2-x,1/2+y,-z
1/2-x,1/2-y,-z
1/2+x,1/2-y,z
loop_
_atom_site_type_symbol
_atom_site_label
_atom_site_fract_x
_atom_site_fract_y
_atom_site_fract_z
Si Si1 0.670707 0.829601 0.844089
Si Si2 0.667389 0.676395 0.929098
Si Si3 0.510009 0.323310 0.632860
Si Si4 0.933748 0.329418 0.824485
Si Si5 0.405774 0.167143 0.719008
Si Si6 0.049118 0.676585 0.477474
Si Si7 0.221792 0.828503 0.785617
Si Si8 0.694395 0.324805 0.403124
O O1 0.703102 0.734295 0.899575
O O2 0.539102 0.813040 0.773084
O O3 0.737418 0.766113 0.834781
O O4 0.705686 0.000000 0.868133
O O5 0.679420 0.500000 0.936092
O O6 0.538939 0.722149 0.881825
O O7 0.750000 0.750000 0.000000
O O8 0.508785 0.500000 0.626830
O O9 0.522676 0.250088 0.592819
O O10 0.617692 0.270871 0.709488
O O11 0.395173 0.263034 0.603374
O O12 0.978904 0.500000 0.843702
O O13 0.875827 0.292129 0.753307
O O14 0.840214 0.304574 0.816666
O O15 0.339299 0.279043 0.659066
O O16 0.367043 0.000000 0.690201
O O17 0.039746 0.500000 0.469558
O O18 0.178577 0.733742 0.530441
O O19 0.000000 0.730306 0.500000
O O20 0.200251 0.000000 0.787503
O O21 0.691621 0.500000 0.403233
#
# Coordination Sequence:
#
# PCOD8098874 Si02
#       8
#     8   8   8   8   8   8   8   8
#     4  10  20  36  58  87 120 151 190 233 277 336
#     4  11  22  39  64  90 119 156 195 233 276 330
#     4  10  21  36  56  80 105 142 189 233 282 344
#     4   9  20  37  56  84 121 153 187 233 283 336
#     4   9  18  32  53  80 107 142 184 229 279 333
#     4  10  23  39  52  73 107 144 184 237 295 346
#     4  10  20  36  58  85 120 152 186 237 292 341
#     4  10  20  35  54  75 104 140 186 235 282 344
#
# _framework density 19.000053000000001
#
# number of rings (size 3 to 8) (size 9 to 14) (size 15 to 20)
#    0.000    2.125    1.250    2.625    1.750    4.250 
#    0.000    0.625    0.000    3.750    0.000    0.000 
#    0.000    0.000    0.000    0.000    0.000    0.000 
#
# Total GULP energy -396853.026722 kJ/mol
# GULP energy per Si atom -12401.657085 kJ/mol
# Density = 1.895681 g / cm^3
# Si number density = 19.000053 Si / 1000 Ang^3
#
#
#
# Elastic Constant Matrix: (Units=GPa)
#
#
# Indices 1 2 3 4 5 6 
#
# 1 109.5297 47.2539 51.2735 0.0000 -15.2153 0.0000
# 2 47.2539 72.7352 44.8105 -0.0001 -10.9342 0.0001
# 3 51.2735 44.8105 102.9077 0.0000 -22.1371 0.0000
# 4 0.0000 -0.0001 0.0000 33.4559 0.0000 -8.2759
# 5 -15.2153 -10.9342 -22.1371 0.0000 19.3706 0.0000
# 6 0.0000 0.0001 0.0000 -8.2759 0.0000 26.8780
#
#
#
# Elastic Compliance Matrix: (Units=1/GPa)
#
#
# Indices 1 2 3 4 5 6 
#
# 1 0.014000 -0.006473 -0.003417 0.000000 0.003437 0.000000
# 2 -0.006473 0.021823 -0.006260 0.000000 0.000079 0.000000
# 3 -0.003417 -0.006260 0.016984 0.000000 0.013191 0.000000
# 4 0.000000 0.000000 0.000000 0.032354 0.000000 0.009962
# 5 0.003437 0.000079 0.013191 0.000000 0.069445 0.000000
# 6 0.000000 0.000000 0.000000 0.009962 0.000000 0.040273
#
#
# Mechanical properties :
#
#
# Convention : Reuss Voigt Hill
#
# Bulk Modulus (GPa) = 48.76871 63.53871 56.15371
# Shear Modulus (GPa) = 21.36620 25.39656 23.38138
#
# Velocity S-wave (km/s) = 3.35704 3.66000 3.51179
# Velocity P-wave (km/s) = 6.38355 7.16762 6.78692
#
# Compressibility (1/GPa) = 0.02050495
#
# Stress axis : x y z
#
# Youngs Moduli (GPa) = 71.42927 45.82380 58.87998
#
# Poissons Ratio (x) = 0.29663 0.20120
# Poissons Ratio (y) = 0.46238 0.36860
# Poissons Ratio (z) = 0.24409 0.28686
#
# Static dielectric constant tensor:
#      x y z
#    x 3.914280 0.000000 -0.132420 
#    y 0.000000 3.389830 0.000000 
#    z -0.132420 0.000000 3.412590 
# 
# 
# High freq. dielectric constant tensor:
#      x y z
#    x 1.744530 0.000000 -0.009750 
#    y 0.000000 1.730930 0.000000 
#    z -0.009750 0.000000 1.730420 
# 
# From -- ./inp_files/378384.got.cif
#   From: 2010.06.25/outbox.cif.g09.slc.cpg/sg12_190_cif.got.tgz:378384.got - 2010.06.28 00:19:55.
