data_PCOD8098930
_publ_section_title
;
Structure prediction by ZEFSAII (Michael W. Deem and Ramdas Pophale) SiO2 
 PCOD8098930
Probable space group: C 2/M
;
_chemical_formula_sum "Si O2"
_cell_formula_units_Z 56
_cell_length_a 19.155904
_cell_length_b 8.869535
_cell_length_c 21.770920
_cell_angle_alpha 90.000000
_cell_angle_beta 123.612126
_cell_angle_gamma 90.000000
_cell_volume 3080.513681
_symmetry_space_group_name_H-M "C 2/M"
_symmetry_group_IT_number 12
_symmetry_cell_setting 'monoclinic'
loop_
_space_group_symop_operation_xyz
x,y,z
-x,y,-z
-x,-y,-z
x,-y,z
1/2+x,1/2+y,z
1/2-x,1/2+y,-z
1/2-x,1/2-y,-z
1/2+x,1/2-y,z
loop_
_atom_site_type_symbol
_atom_site_label
_atom_site_fract_x
_atom_site_fract_y
_atom_site_fract_z
Si Si1 0.043751 0.822974 0.304924
Si Si2 0.365676 0.827089 0.440007
Si Si3 0.930423 0.822274 0.014955
Si Si4 0.065416 0.677884 0.849278
Si Si5 0.281866 0.823352 0.577816
Si Si6 0.990556 0.672665 0.395196
Si Si7 0.748048 0.173745 0.934590
O O1 0.130959 0.740186 0.356820
O O2 0.983923 0.779539 0.332869
O O3 0.004163 0.767076 0.222376
O O4 0.058068 0.000000 0.309234
O O5 0.286176 0.717234 0.403200
O O6 0.419536 0.808700 0.528416
O O7 0.418616 0.776773 0.406906
O O8 0.336493 0.000000 0.419324
O O9 0.941441 0.733178 0.083854
O O10 0.941896 0.000000 0.033175
O O11 0.835552 0.787517 0.941399
O O12 0.000000 0.765617 0.000000
O O13 0.046909 0.500000 0.838146
O O14 0.156778 0.716069 0.861613
O O15 0.250000 0.750000 0.500000
O O16 0.290037 0.000000 0.572009
O O17 0.977821 0.500000 0.368345
O O18 0.747030 0.000000 0.949000
O O19 0.750000 0.250000 0.000000
#
# Coordination Sequence:
#
# PCOD8098930 Si02
#       7
#     8   8   8   8   8   8   8
#     4  12  24  37  55  79 108 145 188 234 284 335
#     4   9  18  34  56  80 105 135 175 223 275 327
#     4   9  17  32  56  85 114 143 178 219 264 322
#     4  10  20  35  54  77 108 145 183 226 274 325
#     4  12  23  36  55  80 109 143 185 232 281 336
#     4   9  18  34  56  79 105 137 174 221 274 328
#     4   8  15  29  51  77 103 135 174 211 253 306
#
# _framework density 18.178785999999999
#
# number of rings (size 3 to 8) (size 9 to 14) (size 15 to 20)
#    0.000    2.143    1.429    3.857    0.000    1.429 
#    0.000    2.857    0.000    6.857    0.000    0.000 
#    0.000    0.000    0.000    0.000    0.000    0.000 
#
# Total GULP energy -346965.239627 kJ/mol
# GULP energy per Si atom -12391.615701 kJ/mol
# Density = 1.813741 g / cm^3
# Si number density = 18.178786 Si / 1000 Ang^3
#
#
#
# Elastic Constant Matrix: (Units=GPa)
#
#
# Indices 1 2 3 4 5 6 
#
# 1 122.8578 46.8907 49.5433 0.0000 15.5878 0.0000
# 2 46.8907 101.4137 45.5530 0.0000 8.7469 0.0000
# 3 49.5433 45.5530 87.2339 0.0000 13.0228 0.0000
# 4 0.0000 0.0000 0.0000 28.0409 0.0000 -1.8521
# 5 15.5878 8.7469 13.0228 0.0000 24.9786 0.0000
# 6 0.0000 0.0000 0.0000 -1.8521 0.0000 28.6889
#
#
#
# Elastic Compliance Matrix: (Units=1/GPa)
#
#
# Indices 1 2 3 4 5 6 
#
# 1 0.011564 -0.003035 -0.004407 0.000000 -0.003856 0.000000
# 2 -0.003035 0.013706 -0.005422 0.000000 -0.000079 0.000000
# 3 -0.004407 -0.005422 0.017463 0.000000 -0.004455 0.000000
# 4 0.000000 0.000000 0.000000 0.035815 0.000000 0.002312
# 5 -0.003856 -0.000079 -0.004455 0.000000 0.044791 0.000000
# 6 0.000000 0.000000 0.000000 0.002312 0.000000 0.035006
#
#
# Mechanical properties :
#
#
# Convention : Reuss Voigt Hill
#
# Bulk Modulus (GPa) = 58.80525 66.16437 62.48481
# Shear Modulus (GPa) = 26.35162 27.64292 26.99727
#
# Velocity S-wave (km/s) = 3.81147 3.90374 3.85788
# Velocity P-wave (km/s) = 7.19640 7.53620 7.36826
#
# Compressibility (1/GPa) = 0.01700529
#
# Stress axis : x y z
#
# Youngs Moduli (GPa) = 86.47302 72.96097 57.26398
#
# Poissons Ratio (x) = 0.22141 0.25239
# Poissons Ratio (y) = 0.26242 0.31048
# Poissons Ratio (z) = 0.38112 0.39559
#
# Static dielectric constant tensor:
#      x y z
#    x 3.831770 0.000000 0.326090 
#    y 0.000000 3.299040 0.000000 
#    z 0.326090 0.000000 3.267560 
# 
# 
# High freq. dielectric constant tensor:
#      x y z
#    x 1.715750 0.000000 0.015460 
#    y 0.000000 1.705030 0.000000 
#    z 0.015460 0.000000 1.676480 
# 
# From -- ./inp_files/342025.got.cif
#   From: 2010.06.25/outbox.cif.g09.slc.cpg/sg12_172_cif.got.tgz:342025.got - 2010.06.28 00:19:55.
