data_PCOD8098966
_publ_section_title
;
Structure prediction by ZEFSAII (Michael W. Deem and Ramdas Pophale) SiO2 
 PCOD8098966
Probable space group: C 2/M
;
_chemical_formula_sum "Si O2"
_cell_formula_units_Z 40
_cell_length_a 27.313977
_cell_length_b 8.505061
_cell_length_c 9.635706
_cell_angle_alpha 90.000000
_cell_angle_beta 109.674156
_cell_angle_gamma 90.000000
_cell_volume 2107.767677
_symmetry_space_group_name_H-M "C 2/M"
_symmetry_group_IT_number 12
_symmetry_cell_setting 'monoclinic'
loop_
_space_group_symop_operation_xyz
x,y,z
-x,y,-z
-x,-y,-z
x,-y,z
1/2+x,1/2+y,z
1/2-x,1/2+y,-z
1/2-x,1/2-y,-z
1/2+x,1/2-y,z
loop_
_atom_site_type_symbol
_atom_site_label
_atom_site_fract_x
_atom_site_fract_y
_atom_site_fract_z
Si Si1 0.664985 0.184434 0.658226
Si Si2 0.218736 0.185494 0.220038
Si Si3 0.368032 0.684549 0.654883
Si Si4 0.361744 0.315959 0.081683
Si Si5 0.559899 0.816742 0.054361
O O1 0.723419 0.257438 0.719442
O O2 0.633083 0.269597 0.506771
O O3 0.635830 0.219725 0.773632
O O4 0.665672 0.000000 0.628998
O O5 0.186279 0.237785 0.324955
O O6 0.223031 0.000000 0.217641
O O7 0.188413 0.243988 0.053636
O O8 0.377078 0.500000 0.682645
O O9 0.415566 0.773968 0.773352
O O10 0.358480 0.500000 0.111349
O O11 0.413354 0.281726 0.042937
O O12 0.567465 0.000000 0.030791
O O13 0.500000 0.767943 0.000000
#
# Coordination Sequence:
#
# PCOD8098966 Si02
#       5
#     8   8   8   8   8
#     4  11  20  32  51  78 113 147 178 214 259 304
#     4   8  17  32  51  76 107 145 182 214 251 304
#     4  10  20  35  54  79 109 140 178 218 259 309
#     4  10  20  35  54  79 109 140 178 218 259 309
#     4  10  21  39  61  81 101 130 171 218 268 321
#
# _framework density 18.977423000000002
#
# number of rings (size 3 to 8) (size 9 to 14) (size 15 to 20)
#    0.000    2.200    0.000    4.800    0.000    1.600 
#    0.000   11.000    0.000    6.000    0.000    0.000 
#    0.000    0.000    0.000    0.000    0.000    0.000 
#
# Total GULP energy -248051.699774 kJ/mol
# GULP energy per Si atom -12402.584989 kJ/mol
# Density = 1.893423 g / cm^3
# Si number density = 18.977423 Si / 1000 Ang^3
#
#
#
# Elastic Constant Matrix: (Units=GPa)
#
#
# Indices 1 2 3 4 5 6 
#
# 1 97.9070 15.3812 48.6419 0.0000 15.6922 0.0000
# 2 15.3812 37.4537 5.4633 0.0000 3.4557 0.0000
# 3 48.6419 5.4633 127.0498 0.0000 -6.7202 0.0000
# 4 0.0000 0.0000 0.0000 29.5396 0.0000 -1.7081
# 5 15.6922 3.4557 -6.7202 0.0000 20.3510 0.0000
# 6 0.0000 0.0000 0.0000 -1.7081 0.0000 25.4394
#
#
#
# Elastic Compliance Matrix: (Units=1/GPa)
#
#
# Indices 1 2 3 4 5 6 
#
# 1 0.016685 -0.004509 -0.006956 0.000000 -0.014397 0.000000
# 2 -0.004509 0.028603 0.000431 0.000000 -0.001238 0.000000
# 3 -0.006956 0.000431 0.010987 0.000000 0.008918 0.000000
# 4 0.000000 0.000000 0.000000 0.033985 0.000000 0.002282
# 5 -0.014397 -0.001238 0.008918 0.000000 0.063394 0.000000
# 6 0.000000 0.000000 0.000000 0.002282 0.000000 0.039462
#
#
# Mechanical properties :
#
#
# Convention : Reuss Voigt Hill
#
# Bulk Modulus (GPa) = 29.23349 44.59813 36.91581
# Shear Modulus (GPa) = 22.06659 27.92761 24.99710
#
# Velocity S-wave (km/s) = 3.41366 3.84034 3.63327
# Velocity P-wave (km/s) = 5.56554 6.57388 6.09061
#
# Compressibility (1/GPa) = 0.03420734
#
# Stress axis : x y z
#
# Youngs Moduli (GPa) = 59.93252 34.96164 91.01507
#
# Poissons Ratio (x) = 0.15765 0.63308
# Poissons Ratio (y) = 0.27025 -0.03923
# Poissons Ratio (z) = 0.41688 -0.01507
#
# Static dielectric constant tensor:
#      x y z
#    x 3.436240 0.000000 0.054690 
#    y 0.000000 3.316410 0.000000 
#    z 0.054690 0.000000 3.460110 
# 
# 
# High freq. dielectric constant tensor:
#      x y z
#    x 1.720390 0.000000 -0.002760 
#    y 0.000000 1.732310 0.000000 
#    z -0.002760 0.000000 1.741010 
# 
# From -- ./inp_files/52314.got.cif
#   From: 2010.06.25/outbox.cif.g09.slc.cpg/sg12_27_cif.got.tgz:52314.got - 2010.06.28 00:19:55.
