data_PCOD8098211
_publ_section_title
;
Structure prediction by ZEFSAII (Michael W. Deem and Ramdas Pophale) SiO2 
 PCOD8098211
Probable space group: C 2/M
;
_chemical_formula_sum "Si O2"
_cell_formula_units_Z 56
_cell_length_a 16.365892
_cell_length_b 9.174629
_cell_length_c 22.971282
_cell_angle_alpha 90.000000
_cell_angle_beta 122.877168
_cell_angle_gamma 90.000000
_cell_volume 2896.730163
_symmetry_space_group_name_H-M "C 2/M"
_symmetry_group_IT_number 12
_symmetry_cell_setting 'monoclinic'
loop_
_space_group_symop_operation_xyz
x,y,z
-x,y,-z
-x,-y,-z
x,-y,z
1/2+x,1/2+y,z
1/2-x,1/2+y,-z
1/2-x,1/2-y,-z
1/2+x,1/2-y,z
loop_
_atom_site_type_symbol
_atom_site_label
_atom_site_fract_x
_atom_site_fract_y
_atom_site_fract_z
Si Si1 0.943555 0.336654 0.691801
Si Si2 0.220242 0.169450 0.844463
Si Si3 0.905243 0.167111 0.315159
Si Si4 0.600952 0.840094 0.570723
Si Si5 0.755626 0.164620 0.443263
Si Si6 0.053269 0.667107 0.849354
Si Si7 0.942014 0.672669 0.920626
O O1 0.975107 0.500000 0.682459
O O2 0.830519 0.312173 0.636251
O O3 0.994870 0.205531 0.678107
O O4 0.966698 0.321581 0.768836
O O5 0.181721 0.192757 0.764065
O O6 0.151268 0.250009 0.865471
O O7 0.330968 0.231930 0.885055
O O8 0.218777 0.000000 0.861650
O O9 0.899335 0.282645 0.364087
O O10 0.907478 0.000000 0.338179
O O11 0.500000 0.860745 0.500000
O O12 0.649978 0.716150 0.552511
O O13 0.652354 0.000000 0.590996
O O14 0.750000 0.250000 0.500000
O O15 0.766931 0.000000 0.466891
O O16 0.085168 0.500000 0.871929
O O17 0.003623 0.733642 0.888814
O O18 0.935852 0.500000 0.911403
O O19 0.000000 0.722522 0.000000
#
# Coordination Sequence:
#
# PCOD8098211 Si02
#       7
#     8   8   8   8   8   8   8
#     4   9  19  35  55  77 105 140 177 222 274 329
#     4   9  19  35  56  82 115 147 185 234 282 331
#     4  10  20  34  56  81 106 138 179 227 276 327
#     4  11  24  39  54  75 106 142 180 224 275 328
#     4  11  23  37  55  78 106 141 181 225 275 327
#     4   9  18  34  57  81 110 147 189 229 276 336
#     4   9  18  33  56  84 113 150 192 230 274 337
#
# _framework density 19.332142000000001
#
# number of rings (size 3 to 8) (size 9 to 14) (size 15 to 20)
#    0.000    2.286    0.000    2.143    2.000    6.857 
#    0.000    0.714    0.000    0.857    0.000    0.000 
#    0.000    0.000    0.000    0.000    0.000    0.000 
#
# Total GULP energy -346969.475536 kJ/mol
# GULP energy per Si atom -12391.766983 kJ/mol
# Density = 1.928814 g / cm^3
# Si number density = 19.332142 Si / 1000 Ang^3
#
#
#
# Elastic Constant Matrix: (Units=GPa)
#
#
# Indices 1 2 3 4 5 6 
#
# 1 127.0593 43.5848 66.1465 0.0000 -3.2271 0.0000
# 2 43.5848 75.2312 51.0451 0.0000 4.4059 0.0000
# 3 66.1465 51.0451 100.0950 0.0000 -8.5733 0.0000
# 4 0.0000 0.0000 0.0000 27.4800 0.0000 -6.5148
# 5 -3.2271 4.4059 -8.5733 0.0000 31.8644 0.0000
# 6 0.0000 0.0000 0.0000 -6.5148 0.0000 34.7481
#
#
#
# Elastic Compliance Matrix: (Units=1/GPa)
#
#
# Indices 1 2 3 4 5 6 
#
# 1 0.012291 -0.002411 -0.006917 0.000000 -0.000283 0.000000
# 2 -0.002411 0.021875 -0.010074 0.000000 -0.005979 0.000000
# 3 -0.006917 -0.010074 0.020225 0.000000 0.006134 0.000000
# 4 0.000000 0.000000 0.000000 0.038083 0.000000 0.007140
# 5 -0.000283 -0.005979 0.006134 0.000000 0.033831 0.000000
# 6 0.000000 0.000000 0.000000 0.007140 0.000000 0.030117
#
#
# Mechanical properties :
#
#
# Convention : Reuss Voigt Hill
#
# Bulk Modulus (GPa) = 64.16135 69.32647 66.74391
# Shear Modulus (GPa) = 24.94730 28.25911 26.60320
#
# Velocity S-wave (km/s) = 3.59619 3.82746 3.71362
# Velocity P-wave (km/s) = 7.10665 7.44789 7.27927
#
# Compressibility (1/GPa) = 0.01558571
#
# Stress axis : x y z
#
# Youngs Moduli (GPa) = 81.35870 45.71474 49.44456
#
# Poissons Ratio (x) = 0.11021 0.34202
# Poissons Ratio (y) = 0.19614 0.49812
# Poissons Ratio (z) = 0.56278 0.46055
#
# Static dielectric constant tensor:
#      x y z
#    x 3.429340 0.000000 0.105380 
#    y 0.000000 3.557010 0.000000 
#    z 0.105380 0.000000 3.543140 
# 
# 
# High freq. dielectric constant tensor:
#      x y z
#    x 1.749830 0.000000 -0.002300 
#    y 0.000000 1.740810 0.000000 
#    z -0.002300 0.000000 1.757680 
# 
# From -- ./inp_files/338578.got.cif
#   From: 2010.06.25/outbox.cif.g09.slc.cpg/sg12_170_cif.got.tgz:338578.got - 2010.06.28 00:19:55.
