data_PCOD8098798
_publ_section_title
;
Structure prediction by ZEFSAII (Michael W. Deem and Ramdas Pophale) SiO2 
 PCOD8098798
Probable space group: C 2/M
;
_chemical_formula_sum "Si O2"
_cell_formula_units_Z 64
_cell_length_a 11.313358
_cell_length_b 17.695607
_cell_length_c 20.472592
_cell_angle_alpha 90.000000
_cell_angle_beta 123.583452
_cell_angle_gamma 90.000000
_cell_volume 3414.421041
_symmetry_space_group_name_H-M "C 2/M"
_symmetry_group_IT_number 12
_symmetry_cell_setting 'monoclinic'
loop_
_space_group_symop_operation_xyz
x,y,z
-x,y,-z
-x,-y,-z
x,-y,z
1/2+x,1/2+y,z
1/2-x,1/2+y,-z
1/2-x,1/2-y,-z
1/2+x,1/2-y,z
loop_
_atom_site_type_symbol
_atom_site_label
_atom_site_fract_x
_atom_site_fract_y
_atom_site_fract_z
Si Si1 0.503713 0.672094 0.307075
Si Si2 0.353964 0.189065 0.995712
Si Si3 0.002079 0.584174 0.857259
Si Si4 0.717161 0.585020 0.847460
Si Si5 0.927127 0.664211 0.702809
Si Si6 0.532413 0.084133 0.408862
Si Si7 0.614705 0.692343 0.586436
Si Si8 0.694973 0.139711 0.571069
O O1 0.408519 0.619493 0.233331
O O2 0.543386 0.747113 0.278546
O O3 0.441042 0.696847 0.357067
O O4 0.642849 0.623135 0.363699
O O5 0.252671 0.141501 0.917180
O O6 0.500000 0.217592 0.000000
O O7 0.250000 0.250000 0.000000
O O8 0.397842 0.132949 0.066206
O O9 0.067435 0.500000 0.870164
O O10 0.847667 0.578336 0.839473
O O11 0.990012 0.622827 0.784066
O O12 0.678090 0.500000 0.860823
O O13 0.013628 0.632003 0.668079
O O14 0.761450 0.645413 0.636769
O O15 0.665914 0.123939 0.485711
O O16 0.396855 0.081506 0.414766
O O17 0.575041 0.000000 0.400907
O O18 0.500000 0.656138 0.500000
O O19 0.648554 0.775211 0.570861
#
# Coordination Sequence:
#
# PCOD8098798 Si02
#       8
#     8   8   8   8   8   8   8   8
#     4  11  21  35  57  81 112 146 188 249 290 337
#     4  10  21  40  67  97 121 156 196 240 290 350
#     4  10  20  37  60  86 119 154 191 235 284 348
#     4  10  21  38  60  87 120 153 191 235 287 351
#     4  11  21  34  56  84 109 147 195 241 294 335
#     4  11  21  36  53  75 112 151 197 242 287 356
#     4  11  19  34  54  77 107 140 192 246 291 334
#     4  10  20  35  53  76 106 152 200 236 292 350
#
# _framework density 18.744026999999999
#
# number of rings (size 3 to 8) (size 9 to 14) (size 15 to 20)
#    0.000    1.500    3.750    3.000    0.000    4.500 
#    0.000    0.000    0.000    4.875    0.000    0.000 
#    0.000    0.000    0.000    0.000    0.000    0.000 
#
# Total GULP energy -396567.883635 kJ/mol
# GULP energy per Si atom -12392.746364 kJ/mol
# Density = 1.870137 g / cm^3
# Si number density = 18.744027 Si / 1000 Ang^3
#
#
#
# Elastic Constant Matrix: (Units=GPa)
#
#
# Indices 1 2 3 4 5 6 
#
# 1 50.3987 31.6840 31.2747 0.0000 -3.3116 0.0000
# 2 31.6840 91.0198 37.1685 0.0000 -3.9408 0.0000
# 3 31.2747 37.1685 110.6474 0.0000 -12.0393 0.0000
# 4 0.0000 0.0000 0.0000 5.8216 0.0000 -1.0810
# 5 -3.3116 -3.9408 -12.0393 0.0000 27.0268 0.0000
# 6 0.0000 0.0000 0.0000 -1.0810 0.0000 21.8910
#
#
#
# Elastic Compliance Matrix: (Units=1/GPa)
#
#
# Indices 1 2 3 4 5 6 
#
# 1 0.027896 -0.007523 -0.005365 0.000000 -0.000069 0.000000
# 2 -0.007523 0.014762 -0.002836 0.000000 -0.000033 0.000000
# 3 -0.005365 -0.002836 0.011971 0.000000 0.004261 0.000000
# 4 0.000000 0.000000 0.000000 0.173363 0.000000 0.008561
# 5 -0.000069 -0.000033 0.004261 0.000000 0.038885 0.000000
# 6 0.000000 0.000000 0.000000 0.008561 0.000000 0.046104
#
#
# Mechanical properties :
#
#
# Convention : Reuss Voigt Hill
#
# Bulk Modulus (GPa) = 43.13983 50.25784 46.69884
# Shear Modulus (GPa) = 14.19828 21.07714 17.63771
#
# Velocity S-wave (km/s) = 2.75523 3.35695 3.07086
# Velocity P-wave (km/s) = 5.76081 6.47275 6.12713
#
# Compressibility (1/GPa) = 0.02318043
#
# Stress axis : x y z
#
# Youngs Moduli (GPa) = 35.84755 67.74172 83.53786
#
# Poissons Ratio (x) = 0.50959 0.44821
# Poissons Ratio (y) = 0.26967 0.23692
# Poissons Ratio (z) = 0.19233 0.19212
#
# Static dielectric constant tensor:
#      x y z
#    x 3.593110 0.000000 0.073940 
#    y 0.000000 3.434410 0.000000 
#    z 0.073940 0.000000 3.527430 
# 
# 
# High freq. dielectric constant tensor:
#      x y z
#    x 1.717170 0.000000 -0.004540 
#    y 0.000000 1.721130 0.000000 
#    z -0.004540 0.000000 1.738990 
# 
# From -- ./inp_files/306212.got.cif
#   From: 2010.06.25/outbox.cif.g09.slc.cpg/sg12_154_cif.got.tgz:306212.got - 2010.06.28 00:19:55.
