data_PCOD8098620
_publ_section_title
;
Structure prediction by ZEFSAII (Michael W. Deem and Ramdas Pophale) SiO2 
 PCOD8098620
Probable space group: C 2/M
;
_chemical_formula_sum "Si O2"
_cell_formula_units_Z 56
_cell_length_a 20.117737
_cell_length_b 8.778356
_cell_length_c 17.362996
_cell_angle_alpha 90.000000
_cell_angle_beta 72.123467
_cell_angle_gamma 90.000000
_cell_volume 2918.275390
_symmetry_space_group_name_H-M "C 2/M"
_symmetry_group_IT_number 12
_symmetry_cell_setting 'monoclinic'
loop_
_space_group_symop_operation_xyz
x,y,z
-x,y,-z
-x,-y,-z
x,-y,z
1/2+x,1/2+y,z
1/2-x,1/2+y,-z
1/2-x,1/2-y,-z
1/2+x,1/2-y,z
loop_
_atom_site_type_symbol
_atom_site_label
_atom_site_fract_x
_atom_site_fract_y
_atom_site_fract_z
Si Si1 0.824398 0.823721 0.668040
Si Si2 0.176974 0.175620 0.507402
Si Si3 0.571770 0.676075 0.673008
Si Si4 0.426128 0.177887 0.751501
Si Si5 0.182589 0.175168 0.763891
Si Si6 0.845831 0.823364 0.913515
Si Si7 0.189900 0.676542 0.919044
O O1 0.845973 0.795883 0.572072
O O2 0.874315 0.720792 0.701312
O O3 0.744259 0.778210 0.708263
O O4 0.833196 0.000000 0.688867
O O5 0.250000 0.250000 0.500000
O O6 0.116712 0.238668 0.584872
O O7 0.187704 0.000000 0.522561
O O8 0.550028 0.500000 0.668893
O O9 0.503933 0.780058 0.699739
O O10 0.614617 0.698040 0.736139
O O11 0.407045 0.267793 0.836015
O O12 0.419731 0.000000 0.770371
O O13 0.161959 0.228073 0.856759
O O14 0.207017 0.000000 0.755922
O O15 0.772309 0.791006 0.897972
O O16 0.855332 0.000000 0.929314
O O17 0.851211 0.730937 0.990882
O O18 0.174248 0.500000 0.911032
#
# Coordination Sequence:
#
# PCOD8098620 Si02
#       7
#     8   8   8   8   8   8   8
#     4  11  22  37  61  89 120 157 198 246 298 354
#     4  10  21  38  62  90 119 155 198 248 299 351
#     4  10  23  42  61  85 121 161 198 243 303 359
#     4  12  25  40  60  87 121 160 201 247 298 354
#     4  11  21  36  61  90 120 156 200 246 293 352
#     4  10  20  36  59  87 121 157 194 243 299 351
#     4  10  20  34  58  90 122 155 196 244 293 347
#
# _framework density 19.189416999999999
#
# number of rings (size 3 to 8) (size 9 to 14) (size 15 to 20)
#    0.000    1.429    2.857    3.000    0.000    4.000 
#    0.000    3.571    0.000    4.286    0.000    0.000 
#    0.000    0.000    0.000    0.000    0.000    0.000 
#
# Total GULP energy -347369.623094 kJ/mol
# GULP energy per Si atom -12406.057968 kJ/mol
# Density = 1.914574 g / cm^3
# Si number density = 19.189417 Si / 1000 Ang^3
#
#
#
# Elastic Constant Matrix: (Units=GPa)
#
#
# Indices 1 2 3 4 5 6 
#
# 1 58.9737 20.9268 22.6112 0.0000 -11.5579 0.0000
# 2 20.9268 56.1356 25.5420 0.0000 2.5184 0.0000
# 3 22.6112 25.5420 108.5067 0.0000 -7.9341 0.0000
# 4 0.0000 0.0000 0.0000 32.3036 0.0000 -1.4838
# 5 -11.5579 2.5184 -7.9341 0.0000 28.9010 0.0000
# 6 0.0000 0.0000 0.0000 -1.4838 0.0000 31.5712
#
#
#
# Elastic Compliance Matrix: (Units=1/GPa)
#
#
# Indices 1 2 3 4 5 6 
#
# 1 0.022293 -0.007727 -0.002169 0.000000 0.008993 0.000000
# 2 -0.007727 0.022903 -0.004238 0.000000 -0.006249 0.000000
# 3 -0.002169 -0.004238 0.010847 0.000000 0.002480 0.000000
# 4 0.000000 0.000000 0.000000 0.031023 0.000000 0.001458
# 5 0.008993 -0.006249 0.002480 0.000000 0.039423 0.000000
# 6 0.000000 0.000000 0.000000 0.001458 0.000000 0.031743
#
#
# Mechanical properties :
#
#
# Convention : Reuss Voigt Hill
#
# Bulk Modulus (GPa) = 36.00398 40.19733 38.10066
# Shear Modulus (GPa) = 25.54169 28.85757 27.19963
#
# Velocity S-wave (km/s) = 3.65229 3.88213 3.76896
# Velocity P-wave (km/s) = 6.04886 6.40997 6.23203
#
# Compressibility (1/GPa) = 0.02777471
#
# Stress axis : x y z
#
# Youngs Moduli (GPa) = 44.85762 43.66176 92.19187
#
# Poissons Ratio (x) = 0.33738 0.19996
# Poissons Ratio (y) = 0.34662 0.39072
# Poissons Ratio (z) = 0.09730 0.18504
#
# Static dielectric constant tensor:
#      x y z
#    x 3.297660 0.000000 0.094450 
#    y 0.000000 3.600730 0.000000 
#    z 0.094450 0.000000 3.801270 
# 
# 
# High freq. dielectric constant tensor:
#      x y z
#    x 1.725090 0.000000 0.006390 
#    y 0.000000 1.753750 0.000000 
#    z 0.006390 0.000000 1.764150 
# 
# From -- ./inp_files/275253.got.cif
#   From: 2010.06.25/outbox.cif.g09.slc.cpg/sg12_138_cif.got.tgz:275253.got - 2010.06.28 00:19:55.
