data_PCOD8098673
_publ_section_title
;
Structure prediction by ZEFSAII (Michael W. Deem and Ramdas Pophale) SiO2 
 PCOD8098673
Probable space group: C 2/M
;
_chemical_formula_sum "Si O2"
_cell_formula_units_Z 56
_cell_length_a 9.359163
_cell_length_b 18.932763
_cell_length_c 16.974862
_cell_angle_alpha 90.000000
_cell_angle_beta 106.314743
_cell_angle_gamma 90.000000
_cell_volume 2886.740254
_symmetry_space_group_name_H-M "C 2/M"
_symmetry_group_IT_number 12
_symmetry_cell_setting 'monoclinic'
loop_
_space_group_symop_operation_xyz
x,y,z
-x,y,-z
-x,-y,-z
x,-y,z
1/2+x,1/2+y,z
1/2-x,1/2+y,-z
1/2-x,1/2-y,-z
1/2+x,1/2-y,z
loop_
_atom_site_type_symbol
_atom_site_label
_atom_site_fract_x
_atom_site_fract_y
_atom_site_fract_z
Si Si1 0.355052 0.081713 0.726058
Si Si2 0.159198 0.823445 0.223335
Si Si3 0.353528 0.168919 0.577580
Si Si4 0.688881 0.679921 0.810056
Si Si5 0.834701 0.583072 0.141893
Si Si6 0.333172 0.820941 0.990638
Si Si7 0.815935 0.304186 0.401053
O O1 0.357647 0.099918 0.633366
O O2 0.220959 0.124371 0.745847
O O3 0.511422 0.102848 0.790474
O O4 0.320162 0.000000 0.730221
O O5 0.240398 0.755090 0.200480
O O6 0.196620 0.889430 0.172874
O O7 0.218769 0.842620 0.319597
O O8 0.985001 0.809240 0.202015
O O9 0.238997 0.224554 0.595800
O O10 0.515517 0.204525 0.601929
O O11 0.305244 0.150054 0.480331
O O12 0.760459 0.647718 0.900334
O O13 0.817481 0.500000 0.127137
O O14 0.827000 0.619090 0.055727
O O15 0.500000 0.797564 0.000000
O O16 0.250000 0.750000 0.000000
#
# Coordination Sequence:
#
# PCOD8098673 Si02
#       7
#     8   8   8   8   8   8   8
#     4  11  23  42  62  89 126 168 210 252 308 369
#     4  12  22  40  65  93 126 159 209 257 305 367
#     4  10  20  36  59  95 121 157 202 255 312 357
#     4  12  24  38  66  94 120 162 211 259 306 365
#     4  11  25  43  64  89 128 169 204 254 313 367
#     4  12  24  40  64  95 123 156 211 261 307 361
#     4  10  20  34  61  94 122 152 204 256 303 360
#
# _framework density 19.399042999999999
#
# number of rings (size 3 to 8) (size 9 to 14) (size 15 to 20)
#    0.000    0.857    5.714    2.571    0.000    1.429 
#    0.000    2.857    0.000    0.857    0.000    0.000 
#    0.000    0.000    0.000    0.000    0.000    0.000 
#
# Total GULP energy -347267.621707 kJ/mol
# GULP energy per Si atom -12402.415061 kJ/mol
# Density = 1.935489 g / cm^3
# Si number density = 19.399043 Si / 1000 Ang^3
#
#
#
# Elastic Constant Matrix: (Units=GPa)
#
#
# Indices 1 2 3 4 5 6 
#
# 1 149.8411 50.3214 45.8880 0.0000 0.9652 0.0000
# 2 50.3214 105.4621 47.2873 0.0000 -10.6730 0.0000
# 3 45.8880 47.2873 158.2726 0.0000 -4.5319 0.0000
# 4 0.0000 0.0000 0.0000 28.1573 0.0000 1.4352
# 5 0.9652 -10.6730 -4.5319 0.0000 29.5971 0.0000
# 6 0.0000 0.0000 0.0000 1.4352 0.0000 16.9702
#
#
#
# Elastic Compliance Matrix: (Units=1/GPa)
#
#
# Indices 1 2 3 4 5 6 
#
# 1 0.008292 -0.003502 -0.001408 0.000000 -0.001749 0.000000
# 2 -0.003502 0.012793 -0.002683 0.000000 0.004317 0.000000
# 3 -0.001408 -0.002683 0.007535 0.000000 0.000232 0.000000
# 4 0.000000 0.000000 0.000000 0.035668 0.000000 -0.003017
# 5 -0.001749 0.004317 0.000232 0.000000 0.035436 0.000000
# 6 0.000000 0.000000 0.000000 -0.003017 0.000000 0.059182
#
#
# Mechanical properties :
#
#
# Convention : Reuss Voigt Hill
#
# Bulk Modulus (GPa) = 74.44182 77.84102 76.14142
# Shear Modulus (GPa) = 27.99992 32.95020 30.47506
#
# Velocity S-wave (km/s) = 3.80329 4.12582 3.96783
# Velocity P-wave (km/s) = 7.59894 7.93157 7.76704
#
# Compressibility (1/GPa) = 0.01343331
#
# Stress axis : x y z
#
# Youngs Moduli (GPa) = 120.59237 78.16628 132.71939
#
# Poissons Ratio (x) = 0.27378 0.18685
# Poissons Ratio (y) = 0.42237 0.35611
# Poissons Ratio (z) = 0.16978 0.20973
#
# Static dielectric constant tensor:
#      x y z
#    x 3.647700 0.000000 -0.084090 
#    y 0.000000 3.208520 0.000000 
#    z -0.084090 0.000000 4.090790 
# 
# 
# High freq. dielectric constant tensor:
#      x y z
#    x 1.765510 0.000000 -0.009240 
#    y 0.000000 1.723300 0.000000 
#    z -0.009240 0.000000 1.778100 
# 
# From -- ./inp_files/257199.got.cif
#   From: 2010.06.25/outbox.cif.g09.slc.cpg/sg12_129_cif.got.tgz:257199.got - 2010.06.28 00:19:55.
