data_PCOD8098637
_publ_section_title
;
Structure prediction by ZEFSAII (Michael W. Deem and Ramdas Pophale) SiO2 
 PCOD8098637
Probable space group: C 2/M
;
_chemical_formula_sum "Si O2"
_cell_formula_units_Z 56
_cell_length_a 16.509334
_cell_length_b 13.927660
_cell_length_c 12.334257
_cell_angle_alpha 90.000000
_cell_angle_beta 109.454189
_cell_angle_gamma 90.000000
_cell_volume 2674.176472
_symmetry_space_group_name_H-M "C 2/M"
_symmetry_group_IT_number 12
_symmetry_cell_setting 'monoclinic'
loop_
_space_group_symop_operation_xyz
x,y,z
-x,y,-z
-x,-y,-z
x,-y,z
1/2+x,1/2+y,z
1/2-x,1/2+y,-z
1/2-x,1/2-y,-z
1/2+x,1/2-y,z
loop_
_atom_site_type_symbol
_atom_site_label
_atom_site_fract_x
_atom_site_fract_y
_atom_site_fract_z
Si Si1 0.579106 0.112021 0.958900
Si Si2 0.297865 0.391681 0.841492
Si Si3 0.427549 0.395045 0.725547
Si Si4 0.731502 0.390748 0.507144
Si Si5 0.917383 0.756994 0.233073
Si Si6 0.772943 0.888866 0.077766
Si Si7 0.184302 0.278801 0.627644
O O1 0.577239 0.166662 0.843938
O O2 0.569316 0.000000 0.926827
O O3 0.500000 0.146250 0.000000
O O4 0.671758 0.132045 0.056496
O O5 0.260106 0.500000 0.812319
O O6 0.393820 0.388405 0.834350
O O7 0.241699 0.316391 0.751859
O O8 0.298046 0.360424 0.966057
O O9 0.469291 0.500000 0.724999
O O10 0.349614 0.380534 0.607771
O O11 0.495328 0.313631 0.737047
O O12 0.749573 0.500000 0.550677
O O13 0.813156 0.349456 0.475438
O O14 0.716838 0.327504 0.607518
O O15 0.834187 0.824293 0.178049
O O16 0.909454 0.725403 0.356749
O O17 0.793853 0.000000 0.109371
#
# Coordination Sequence:
#
# PCOD8098637 Si02
#       7
#     8   8   8   8   8   8   8
#     4  10  23  39  54  76 114 164 202 232 275 327
#     4   9  18  36  60  83 116 153 190 237 288 348
#     4   9  20  36  55  85 117 149 186 236 304 353
#     4   9  20  40  62  84 114 146 186 247 304 353
#     4  12  23  33  59  88 118 152 196 242 281 343
#     4  10  21  37  57  85 118 153 194 240 289 340
#     4  10  20  34  59  88 108 147 196 233 287 350
#
# _framework density 20.941026000000001
#
# number of rings (size 3 to 8) (size 9 to 14) (size 15 to 20)
#    0.000    2.143    1.429    2.143    2.000    3.429 
#    0.000    3.571    0.000    8.571    0.000   17.000 
#    0.000    0.000    0.000    0.000    0.000    0.000 
#
# Total GULP energy -347033.129138 kJ/mol
# GULP energy per Si atom -12394.040326 kJ/mol
# Density = 2.089336 g / cm^3
# Si number density = 20.941026 Si / 1000 Ang^3
#
#
#
# Elastic Constant Matrix: (Units=GPa)
#
#
# Indices 1 2 3 4 5 6 
#
# 1 117.0645 33.6124 29.1681 0.0000 -22.8118 0.0000
# 2 33.6124 96.9024 19.7674 0.0000 -9.2439 0.0000
# 3 29.1681 19.7674 39.6911 0.0000 -17.7224 0.0000
# 4 0.0000 0.0000 0.0000 26.3177 0.0000 2.7076
# 5 -22.8118 -9.2439 -17.7224 0.0000 30.5609 0.0000
# 6 0.0000 0.0000 0.0000 2.7076 0.0000 34.8514
#
#
#
# Elastic Compliance Matrix: (Units=1/GPa)
#
#
# Indices 1 2 3 4 5 6 
#
# 1 0.011456 -0.002488 -0.004989 0.000000 0.004905 0.000000
# 2 -0.002488 0.012028 -0.004543 0.000000 -0.000853 0.000000
# 3 -0.004989 -0.004543 0.038926 0.000000 0.017475 0.000000
# 4 0.000000 0.000000 0.000000 0.038303 0.000000 -0.002976
# 5 0.004905 -0.000853 0.017475 0.000000 0.046259 0.000000
# 6 0.000000 0.000000 0.000000 -0.002976 0.000000 0.028924
#
#
# Mechanical properties :
#
#
# Convention : Reuss Voigt Hill
#
# Bulk Modulus (GPa) = 26.06228 46.52821 36.29524
# Shear Modulus (GPa) = 23.50431 29.75336 26.62884
#
# Velocity S-wave (km/s) = 3.35387 3.77346 3.56983
# Velocity P-wave (km/s) = 5.24123 6.42279 5.86186
#
# Compressibility (1/GPa) = 0.03836962
#
# Stress axis : x y z
#
# Youngs Moduli (GPa) = 87.29348 83.13954 25.68944
#
# Poissons Ratio (x) = 0.20684 0.12817
# Poissons Ratio (y) = 0.21718 0.11671
# Poissons Ratio (z) = 0.43553 0.37771
#
# Static dielectric constant tensor:
#      x y z
#    x 4.144830 0.000000 -0.363780 
#    y 0.000000 4.017500 0.000000 
#    z -0.363780 0.000000 3.524220 
# 
# 
# High freq. dielectric constant tensor:
#      x y z
#    x 1.822720 0.000000 -0.029440 
#    y 0.000000 1.839000 0.000000 
#    z -0.029440 0.000000 1.788270 
# 
# From -- ./inp_files/156766.got.cif
#   From: 2010.06.25/outbox.cif.g09.slc.cpg/sg12_79_cif.got.tgz:156766.got - 2010.06.28 00:19:55.
