data_PCOD8098072
_publ_section_title
;
Structure prediction by ZEFSAII (Michael W. Deem and Ramdas Pophale) SiO2 
 PCOD8098072
Probable space group: C 2/M
;
_chemical_formula_sum "Si O2"
_cell_formula_units_Z 64
_cell_length_a 18.620856
_cell_length_b 19.637571
_cell_length_c 12.086298
_cell_angle_alpha 90.000000
_cell_angle_beta 52.464601
_cell_angle_gamma 90.000000
_cell_volume 3504.623282
_symmetry_space_group_name_H-M "C 2/M"
_symmetry_group_IT_number 12
_symmetry_cell_setting 'monoclinic'
loop_
_space_group_symop_operation_xyz
x,y,z
-x,y,-z
-x,-y,-z
x,-y,z
1/2+x,1/2+y,z
1/2-x,1/2+y,-z
1/2-x,1/2-y,-z
1/2+x,1/2-y,z
loop_
_atom_site_type_symbol
_atom_site_label
_atom_site_fract_x
_atom_site_fract_y
_atom_site_fract_z
Si Si1 0.221546 0.077410 0.638591
Si Si2 0.200605 0.579774 0.200923
Si Si3 0.599048 0.235834 0.672049
Si Si4 0.768746 0.824130 0.577839
Si Si5 0.452361 0.182134 0.655277
Si Si6 0.031686 0.131869 0.852206
Si Si7 0.865797 0.922811 0.888686
Si Si8 0.901758 0.166967 0.643368
O O1 0.283443 0.098312 0.684968
O O2 0.239188 0.122145 0.514214
O O3 0.120113 0.085852 0.777738
O O4 0.239760 0.000000 0.587020
O O5 0.178144 0.500000 0.208630
O O6 0.117724 0.625607 0.237081
O O7 0.284694 0.600792 0.044769
O O8 0.663953 0.198406 0.702428
O O9 0.670506 0.258735 0.511012
O O10 0.525423 0.186927 0.685685
O O11 0.546305 0.300804 0.766495
O O12 0.820211 0.853238 0.636312
O O13 0.500000 0.154864 0.500000
O O14 0.403214 0.253872 0.675862
O O15 0.957925 0.082273 0.869963
O O16 0.000000 0.158674 0.000000
O O17 0.874983 0.875546 0.774521
O O18 0.851481 0.000000 0.862342
O O19 0.000000 0.146220 0.500000
#
# Coordination Sequence:
#
# PCOD8098072 Si02
#       8
#     8   8   8   8   8   8   8   8
#     4  10  20  34  55  83 113 146 185 229 283 341
#     4  10  23  39  57  84 114 149 193 236 287 339
#     4  10  20  36  55  82 113 144 185 230 282 331
#     4  10  20  35  58  82 112 148 181 232 281 327
#     4  11  20  37  60  83 115 145 185 238 284 335
#     4  11  20  33  53  82 115 147 185 227 278 343
#     4  11  23  39  56  81 118 157 188 231 286 338
#     4  11  21  37  57  89 116 149 193 230 276 343
#
# _framework density 18.261590999999999
#
# number of rings (size 3 to 8) (size 9 to 14) (size 15 to 20)
#    0.000    1.500    5.000    1.875    3.500    2.000 
#    2.250    0.625    0.000    0.000    0.000    1.750 
#    0.000    0.000    0.000    0.000    0.000    0.000 
#
# Total GULP energy -396694.844841 kJ/mol
# GULP energy per Si atom -12396.713901 kJ/mol
# Density = 1.822003 g / cm^3
# Si number density = 18.261591 Si / 1000 Ang^3
#
#
#
# Elastic Constant Matrix: (Units=GPa)
#
#
# Indices 1 2 3 4 5 6 
#
# 1 119.5934 42.0288 26.2525 0.0000 -3.3488 0.0000
# 2 42.0288 70.3546 38.7108 0.0000 -6.8617 0.0000
# 3 26.2525 38.7108 53.8964 0.0000 -1.6993 0.0000
# 4 0.0000 0.0000 0.0000 18.7395 0.0000 -3.6223
# 5 -3.3488 -6.8617 -1.6993 0.0000 24.1046 0.0000
# 6 0.0000 0.0000 0.0000 -3.6223 0.0000 19.1502
#
#
#
# Elastic Compliance Matrix: (Units=1/GPa)
#
#
# Indices 1 2 3 4 5 6 
#
# 1 0.010619 -0.005816 -0.001003 0.000000 -0.000251 0.000000
# 2 -0.005816 0.027441 -0.016693 0.000000 0.005827 0.000000
# 3 -0.001003 -0.016693 0.030947 0.000000 -0.002710 0.000000
# 4 0.000000 0.000000 0.000000 0.055388 0.000000 0.010477
# 5 -0.000251 0.005827 -0.002710 0.000000 0.042919 0.000000
# 6 0.000000 0.000000 0.000000 0.010477 0.000000 0.054201
#
#
# Mechanical properties :
#
#
# Convention : Reuss Voigt Hill
#
# Bulk Modulus (GPa) = 45.48948 50.86984 48.17966
# Shear Modulus (GPa) = 18.12477 21.52234 19.82355
#
# Velocity S-wave (km/s) = 3.15383 3.43674 3.29832
# Velocity P-wave (km/s) = 6.18273 6.60794 6.39887
#
# Compressibility (1/GPa) = 0.02198310
#
# Stress axis : x y z
#
# Youngs Moduli (GPa) = 94.17301 36.44144 32.31366
#
# Poissons Ratio (x) = 0.21195 0.03240
# Poissons Ratio (y) = 0.54773 0.53941
# Poissons Ratio (z) = 0.09443 0.60831
#
# Static dielectric constant tensor:
#      x y z
#    x 3.744740 0.000000 -0.099380 
#    y 0.000000 3.176850 0.000000 
#    z -0.099380 0.000000 3.229680 
# 
# 
# High freq. dielectric constant tensor:
#      x y z
#    x 1.718880 0.000000 -0.003480 
#    y 0.000000 1.696520 0.000000 
#    z -0.003480 0.000000 1.689840 
# 
# From -- ./inp_files/159554.got.cif
#   From: 2010.06.25/outbox.cif.g09.slc.cpg/sg12_80_cif.got.tgz:159554.got - 2010.06.28 00:19:55.
