data_PCOD8098213
_publ_section_title
;
Structure prediction by ZEFSAII (Michael W. Deem and Ramdas Pophale) SiO2 
 PCOD8098213
Probable space group: C 2/M
;
_chemical_formula_sum "Si O2"
_cell_formula_units_Z 56
_cell_length_a 32.323422
_cell_length_b 9.054060
_cell_length_c 12.473889
_cell_angle_alpha 90.000000
_cell_angle_beta 124.190960
_cell_angle_gamma 90.000000
_cell_volume 3019.652419
_symmetry_space_group_name_H-M "C 2/M"
_symmetry_group_IT_number 12
_symmetry_cell_setting 'monoclinic'
loop_
_space_group_symop_operation_xyz
x,y,z
-x,y,-z
-x,-y,-z
x,-y,z
1/2+x,1/2+y,z
1/2-x,1/2+y,-z
1/2-x,1/2-y,-z
1/2+x,1/2-y,z
loop_
_atom_site_type_symbol
_atom_site_label
_atom_site_fract_x
_atom_site_fract_y
_atom_site_fract_z
Si Si1 0.105025 0.826650 0.550908
Si Si2 0.190115 0.172971 0.513055
Si Si3 0.709865 0.673401 0.303033
Si Si4 0.104727 0.327114 0.764954
Si Si5 0.468774 0.831260 0.056138
Si Si6 0.372167 0.674269 0.986959
Si Si7 0.008158 0.666250 0.342274
O O1 0.139749 0.779445 0.501453
O O2 0.125534 0.744647 0.686550
O O3 0.048338 0.780470 0.444651
O O4 0.106636 0.000000 0.574569
O O5 0.236982 0.250283 0.638089
O O6 0.185835 0.222192 0.382387
O O7 0.199085 0.000000 0.535955
O O8 0.718631 0.500000 0.314393
O O9 0.673945 0.723223 0.154527
O O10 0.116371 0.500000 0.784150
O O11 0.133240 0.254428 0.906789
O O12 0.045472 0.295288 0.684886
O O13 0.422125 0.723168 0.998736
O O14 0.505386 0.818155 0.210588
O O15 0.449486 0.000000 0.016464
O O16 0.500000 0.777977 0.000000
O O17 0.373898 0.500000 0.007973
O O18 0.024239 0.500000 0.398620
#
# Coordination Sequence:
#
# PCOD8098213 Si02
#       7
#     8   8   8   8   8   8   8
#     4  11  22  34  54  81 110 139 178 226 270 317
#     4   9  20  37  55  80 110 138 173 220 268 318
#     4   9  19  37  58  80 108 139 174 218 269 323
#     4  10  21  38  56  76 108 145 184 222 260 318
#     4   9  19  34  50  75 111 146 183 219 254 312
#     4  10  20  34  56  81 107 139 177 221 273 320
#     4   9  19  34  51  74 106 145 183 219 260 308
#
# _framework density 18.545180999999999
#
# number of rings (size 3 to 8) (size 9 to 14) (size 15 to 20)
#    0.000    2.429    0.000    2.571    2.000    7.143 
#    0.000    0.714    0.000    0.000    0.000    0.000 
#    0.000    0.000    0.000    0.000    0.000    0.000 
#
# Total GULP energy -347258.343893 kJ/mol
# GULP energy per Si atom -12402.083710 kJ/mol
# Density = 1.850297 g / cm^3
# Si number density = 18.545181 Si / 1000 Ang^3
#
#
#
# Elastic Constant Matrix: (Units=GPa)
#
#
# Indices 1 2 3 4 5 6 
#
# 1 59.3260 33.1575 45.9523 0.0000 -9.2140 0.0000
# 2 33.1575 71.6224 53.0164 0.0000 1.3503 0.0000
# 3 45.9523 53.0164 113.1476 0.0000 5.8938 0.0000
# 4 0.0000 0.0000 0.0000 33.6799 0.0000 1.2899
# 5 -9.2140 1.3503 5.8938 0.0000 25.0317 0.0000
# 6 0.0000 0.0000 0.0000 1.2899 0.0000 29.9028
#
#
#
# Elastic Compliance Matrix: (Units=1/GPa)
#
#
# Indices 1 2 3 4 5 6 
#
# 1 0.030637 -0.007192 -0.009800 0.000000 0.013973 0.000000
# 2 -0.007192 0.023102 -0.007796 0.000000 -0.002058 0.000000
# 3 -0.009800 -0.007796 0.016844 0.000000 -0.007153 0.000000
# 4 0.000000 0.000000 0.000000 0.029740 0.000000 -0.001283
# 5 0.013973 -0.002058 -0.007153 0.000000 0.046888 0.000000
# 6 0.000000 0.000000 0.000000 -0.001283 0.000000 0.033497
#
#
# Mechanical properties :
#
#
# Convention : Reuss Voigt Hill
#
# Bulk Modulus (GPa) = 47.60881 56.48315 52.04598
# Shear Modulus (GPa) = 21.07151 25.18753 23.12952
#
# Velocity S-wave (km/s) = 3.37445 3.68934 3.53540
# Velocity P-wave (km/s) = 6.39610 6.97649 6.69259
#
# Compressibility (1/GPa) = 0.02100452
#
# Stress axis : x y z
#
# Youngs Moduli (GPa) = 32.64015 43.28712 59.36910
#
# Poissons Ratio (x) = 0.31134 0.58184
# Poissons Ratio (y) = 0.23476 0.46285
# Poissons Ratio (z) = 0.31988 0.33748
#
# Static dielectric constant tensor:
#      x y z
#    x 3.352910 0.000000 -0.205380 
#    y 0.000000 3.361060 0.000000 
#    z -0.205380 0.000000 3.512790 
# 
# 
# High freq. dielectric constant tensor:
#      x y z
#    x 1.706210 0.000000 -0.014830 
#    y 0.000000 1.721140 0.000000 
#    z -0.014830 0.000000 1.724950 
# 
# From -- ./inp_files/187747.got.cif
#   From: 2010.06.25/outbox.cif.g09.slc.cpg/sg12_94_cif.got.tgz:187747.got - 2010.06.28 00:19:55.
