data_PCOD8098200
_publ_section_title
;
Structure prediction by ZEFSAII (Michael W. Deem and Ramdas Pophale) SiO2 
 PCOD8098200
Probable space group: C 2/M
;
_chemical_formula_sum "Si O2"
_cell_formula_units_Z 56
_cell_length_a 12.420505
_cell_length_b 12.588171
_cell_length_c 21.955334
_cell_angle_alpha 90.000000
_cell_angle_beta 62.148168
_cell_angle_gamma 90.000000
_cell_volume 3035.094108
_symmetry_space_group_name_H-M "C 2/M"
_symmetry_group_IT_number 12
_symmetry_cell_setting 'monoclinic'
loop_
_space_group_symop_operation_xyz
x,y,z
-x,y,-z
-x,-y,-z
x,-y,z
1/2+x,1/2+y,z
1/2-x,1/2+y,-z
1/2-x,1/2-y,-z
1/2+x,1/2-y,z
loop_
_atom_site_type_symbol
_atom_site_label
_atom_site_fract_x
_atom_site_fract_y
_atom_site_fract_z
Si Si1 0.766522 0.118031 0.061637
Si Si2 0.299134 0.877425 0.284940
Si Si3 0.540843 0.785793 0.169075
Si Si4 0.118695 0.375542 0.506739
Si Si5 0.435342 0.375383 0.731910
Si Si6 0.841565 0.763474 0.387941
Si Si7 0.915058 0.701733 0.975510
O O1 0.667660 0.147468 0.140305
O O2 0.698971 0.128000 0.013112
O O3 0.816251 0.000000 0.059137
O O4 0.877518 0.199361 0.029085
O O5 0.430427 0.859404 0.220020
O O6 0.285383 0.804636 0.347828
O O7 0.192856 0.846503 0.265745
O O8 0.287010 0.000000 0.307656
O O9 0.554934 0.679754 0.204883
O O10 0.518221 0.756340 0.103847
O O11 0.122563 0.500000 0.519184
O O12 0.112677 0.316062 0.572366
O O13 0.238134 0.343104 0.438025
O O14 0.000000 0.343125 0.500000
O O15 0.449241 0.500000 0.739150
O O16 0.544068 0.334748 0.660828
O O17 0.000000 0.635337 0.000000
#
# Coordination Sequence:
#
# PCOD8098200 Si02
#       7
#     8   8   8   8   8   8   8
#     4   9  19  35  52  74 102 132 167 212 264 314
#     4  10  20  34  56  78 102 139 179 217 259 306
#     4   9  20  34  52  76 104 131 173 219 260 311
#     4  10  20  34  56  82 110 145 176 207 256 309
#     4  10  21  36  55  76 104 140 176 215 264 309
#     4  10  20  36  54  80 113 137 174 222 253 299
#     4   9  20  35  53  77 104 132 171 218 266 318
#
# _framework density 18.450828999999999
#
# number of rings (size 3 to 8) (size 9 to 14) (size 15 to 20)
#    0.857    1.571    0.000    2.143    2.000    1.143 
#    0.000    0.000    0.000   11.143    0.000    0.000 
#    0.000    0.000    0.000    0.000    0.000    0.000 
#
# Total GULP energy -347001.366347 kJ/mol
# GULP energy per Si atom -12392.905941 kJ/mol
# Density = 1.840883 g / cm^3
# Si number density = 18.450829 Si / 1000 Ang^3
#
#
#
# Elastic Constant Matrix: (Units=GPa)
#
#
# Indices 1 2 3 4 5 6 
#
# 1 61.1541 12.2760 14.5179 0.0000 13.0429 0.0000
# 2 12.2760 72.4324 14.9353 0.0000 2.9135 0.0000
# 3 14.5179 14.9353 77.5993 0.0000 6.5981 0.0000
# 4 0.0000 0.0000 0.0000 17.2033 0.0000 -4.2742
# 5 13.0429 2.9135 6.5981 0.0000 26.5791 0.0000
# 6 0.0000 0.0000 0.0000 -4.2742 0.0000 20.5808
#
#
#
# Elastic Compliance Matrix: (Units=1/GPa)
#
#
# Indices 1 2 3 4 5 6 
#
# 1 0.019238 -0.002420 -0.002404 0.000000 -0.008579 0.000000
# 2 -0.002420 0.014702 -0.002391 0.000000 0.000169 0.000000
# 3 -0.002404 -0.002391 0.013969 0.000000 -0.002026 0.000000
# 4 0.000000 0.000000 0.000000 0.061291 0.000000 0.012729
# 5 -0.008579 0.000169 -0.002026 0.000000 0.042317 0.000000
# 6 0.000000 0.000000 0.000000 0.012729 0.000000 0.051233
#
#
# Mechanical properties :
#
#
# Convention : Reuss Voigt Hill
#
# Bulk Modulus (GPa) = 29.86944 32.73825 31.30385
# Shear Modulus (GPa) = 21.89708 24.16973 23.03341
#
# Velocity S-wave (km/s) = 3.44871 3.62325 3.53706
# Velocity P-wave (km/s) = 5.66409 5.94020 5.80379
#
# Compressibility (1/GPa) = 0.03347903
#
# Stress axis : x y z
#
# Youngs Moduli (GPa) = 51.97982 68.01622 71.58696
#
# Poissons Ratio (x) = 0.16458 0.17210
# Poissons Ratio (y) = 0.12578 0.17119
# Poissons Ratio (z) = 0.12496 0.16266
#
# Static dielectric constant tensor:
#      x y z
#    x 3.380780 0.000000 -0.061210 
#    y 0.000000 3.182240 0.000000 
#    z -0.061210 0.000000 3.360640 
# 
# 
# High freq. dielectric constant tensor:
#      x y z
#    x 1.721810 0.000000 -0.006220 
#    y 0.000000 1.707130 0.000000 
#    z -0.006220 0.000000 1.716300 
# 
# From -- ./inp_files/304683.got.cif
#   From: 2010.06.25/outbox.cif.g09.slc.cpg/sg12_153_cif.got.tgz:304683.got - 2010.06.28 00:19:55.
