data_PCOD8098226
_publ_section_title
;
Structure prediction by ZEFSAII (Michael W. Deem and Ramdas Pophale) SiO2 
 PCOD8098226
Probable space group: C 2/M
;
_chemical_formula_sum "Si O2"
_cell_formula_units_Z 64
_cell_length_a 20.066600
_cell_length_b 9.114403
_cell_length_c 29.612959
_cell_angle_alpha 90.000000
_cell_angle_beta 143.298377
_cell_angle_gamma 90.000000
_cell_volume 3236.899339
_symmetry_space_group_name_H-M "C 2/M"
_symmetry_group_IT_number 12
_symmetry_cell_setting 'monoclinic'
loop_
_space_group_symop_operation_xyz
x,y,z
-x,y,-z
-x,-y,-z
x,-y,z
1/2+x,1/2+y,z
1/2-x,1/2+y,-z
1/2-x,1/2-y,-z
1/2+x,1/2-y,z
loop_
_atom_site_type_symbol
_atom_site_label
_atom_site_fract_x
_atom_site_fract_y
_atom_site_fract_z
Si Si1 0.657560 0.668790 0.755815
Si Si2 0.509102 0.173016 0.160028
Si Si3 0.091836 0.833267 0.400904
Si Si4 0.164691 0.169240 0.985561
Si Si5 0.123213 0.668021 0.576558
Si Si6 0.229947 0.169345 0.260703
Si Si7 0.156206 0.333474 0.847622
Si Si8 0.241812 0.170851 0.565434
O O1 0.695772 0.500000 0.777358
O O2 0.539599 0.687573 0.666937
O O3 0.746804 0.761826 0.775851
O O4 0.646646 0.724123 0.800841
O O5 0.630655 0.243537 0.231523
O O6 0.436107 0.209407 0.164885
O O7 0.518237 0.000000 0.156986
O O8 0.453005 0.247329 0.084856
O O9 0.144466 0.786786 0.477305
O O10 0.139769 0.731116 0.387392
O O11 0.125010 0.000000 0.407296
O O12 0.217305 0.180384 0.064258
O O13 0.151573 0.000000 0.963906
O O14 0.250000 0.250000 0.000000
O O15 0.126440 0.500000 0.562246
O O16 0.158962 0.684109 0.648204
O O17 0.213840 0.757052 0.597655
O O18 0.000000 0.733423 0.500000
O O19 0.195808 0.000000 0.235935
O O20 0.134741 0.500000 0.819743
O O21 0.254779 0.000000 0.580357
#
# Coordination Sequence:
#
# PCOD8098226 Si02
#       8
#     8   8   8   8   8   8   8   8
#     4  11  23  38  58  82 114 153 193 240 288 343
#     4  10  21  38  61  89 121 153 191 242 289 341
#     4   9  20  37  54  78 112 147 186 234 289 343
#     4   9  17  33  58  88 120 154 192 236 286 341
#     4  10  22  39  58  80 110 149 193 238 289 348
#     4  11  24  40  59  83 116 156 194 239 296 352
#     4   9  20  37  59  88 120 153 190 233 283 343
#     4  10  20  34  56  82 107 142 188 239 289 339
#
# _framework density 19.772009000000001
#
# number of rings (size 3 to 8) (size 9 to 14) (size 15 to 20)
#    0.000    2.125    0.000    3.375    1.750    5.750 
#    0.000    0.625    0.000    3.750    0.000    0.000 
#    0.000    0.000    0.000    0.000    0.000    0.000 
#
# Total GULP energy -396811.131162 kJ/mol
# GULP energy per Si atom -12400.347849 kJ/mol
# Density = 1.972701 g / cm^3
# Si number density = 19.772009 Si / 1000 Ang^3
#
#
#
# Elastic Constant Matrix: (Units=GPa)
#
#
# Indices 1 2 3 4 5 6 
#
# 1 89.4243 53.2395 22.7709 0.0000 -2.8307 -0.0001
# 2 53.2395 121.4599 39.7819 0.0000 -2.0264 -0.0001
# 3 22.7709 39.7819 77.4527 0.0000 5.0867 0.0000
# 4 0.0000 0.0000 0.0000 32.8345 0.0000 0.4900
# 5 -2.8307 -2.0264 5.0867 0.0000 21.1186 0.0000
# 6 -0.0001 -0.0001 0.0000 0.4900 0.0000 33.1166
#
#
#
# Elastic Compliance Matrix: (Units=1/GPa)
#
#
# Indices 1 2 3 4 5 6 
#
# 1 0.015299 -0.006209 -0.001427 0.000000 0.001799 0.000000
# 2 -0.006209 0.012520 -0.004704 0.000000 0.001502 0.000000
# 3 -0.001427 -0.004704 0.016043 0.000000 -0.004507 0.000000
# 4 0.000000 0.000000 0.000000 0.030463 0.000000 -0.000451
# 5 0.001799 0.001502 -0.004507 0.000000 0.048822 0.000000
# 6 0.000000 0.000000 0.000000 -0.000451 0.000000 0.030203
#
#
# Mechanical properties :
#
#
# Convention : Reuss Voigt Hill
#
# Bulk Modulus (GPa) = 52.13046 57.76905 54.94976
# Shear Modulus (GPa) = 27.11129 28.91690 28.01410
#
# Velocity S-wave (km/s) = 3.70698 3.82844 3.76820
# Velocity P-wave (km/s) = 6.68919 6.98739 6.83992
#
# Compressibility (1/GPa) = 0.01918264
#
# Stress axis : x y z
#
# Youngs Moduli (GPa) = 65.36203 79.86911 62.33299
#
# Poissons Ratio (x) = 0.49589 0.08896
# Poissons Ratio (y) = 0.40582 0.29323
# Poissons Ratio (z) = 0.09328 0.37572
#
# Static dielectric constant tensor:
#      x y z
#    x 3.294130 0.000000 -0.004360 
#    y 0.000000 3.678660 0.000000 
#    z -0.004360 0.000000 3.733300 
# 
# 
# High freq. dielectric constant tensor:
#      x y z
#    x 1.748430 0.000000 0.000390 
#    y 0.000000 1.780640 0.000000 
#    z 0.000390 0.000000 1.772100 
# 
# From -- ./inp_files/378499.got.cif
#   From: 2010.06.25/outbox.cif.g09.slc.cpg/sg12_190_cif.got.tgz:378499.got - 2010.06.28 00:19:55.
