data_PCOD8098418
_publ_section_title
;
Structure prediction by ZEFSAII (Michael W. Deem and Ramdas Pophale) SiO2 
 PCOD8098418
Probable space group: C 2/M
;
_chemical_formula_sum "Si O2"
_cell_formula_units_Z 64
_cell_length_a 18.925285
_cell_length_b 14.425310
_cell_length_c 11.799563
_cell_angle_alpha 90.000000
_cell_angle_beta 79.800789
_cell_angle_gamma 90.000000
_cell_volume 3170.414206
_symmetry_space_group_name_H-M "C 2/M"
_symmetry_group_IT_number 12
_symmetry_cell_setting 'monoclinic'
loop_
_space_group_symop_operation_xyz
x,y,z
-x,y,-z
-x,-y,-z
x,-y,z
1/2+x,1/2+y,z
1/2-x,1/2+y,-z
1/2-x,1/2-y,-z
1/2+x,1/2-y,z
loop_
_atom_site_type_symbol
_atom_site_label
_atom_site_fract_x
_atom_site_fract_y
_atom_site_fract_z
Si Si1 0.978187 0.891040 0.635888
Si Si2 0.563413 0.765160 0.730169
Si Si3 0.421466 0.755021 0.019755
Si Si4 0.565962 0.109289 0.185803
Si Si5 0.218828 0.258865 0.630852
Si Si6 0.316675 0.603700 0.726807
Si Si7 0.687232 0.396953 0.014944
Si Si8 0.220107 0.393835 0.223646
O O1 0.897025 0.856314 0.684703
O O2 0.000000 0.868815 0.500000
O O3 0.028801 0.834048 0.707831
O O4 0.988035 0.000000 0.660390
O O5 0.503268 0.845223 0.732641
O O6 0.634202 0.778463 0.634376
O O7 0.599464 0.772825 0.844651
O O8 0.421943 0.847957 0.942930
O O9 0.374029 0.677574 0.977252
O O10 0.500000 0.710742 0.000000
O O11 0.635266 0.129326 0.245400
O O12 0.553297 0.000000 0.174395
O O13 0.250000 0.250000 0.500000
O O14 0.256361 0.346705 0.673401
O O15 0.235832 0.167443 0.700148
O O16 0.319020 0.500000 0.680228
O O17 0.287362 0.609889 0.863206
O O18 0.656674 0.500000 0.998224
O O19 0.752722 0.374123 0.912291
O O20 0.233574 0.500000 0.254866
#
# Coordination Sequence:
#
# PCOD8098418 Si02
#       8
#     8   8   8   8   8   8   8   8
#     4  10  21  40  64  87 118 161 205 251 304 370
#     4  11  23  37  59  91 121 159 203 250 310 364
#     4  10  20  34  56  90 127 160 193 244 313 375
#     4  10  23  42  63  88 123 169 212 252 301 367
#     4  12  25  40  62  90 125 162 200 258 313 364
#     4  10  22  39  60  88 117 156 206 248 299 366
#     4  10  20  36  61  91 123 159 200 252 315 380
#     4  10  22  41  65  89 119 164 210 254 309 376
#
# _framework density 20.186637000000001
#
# number of rings (size 3 to 8) (size 9 to 14) (size 15 to 20)
#    0.000    1.625    1.250    3.750    1.750    5.500 
#    0.000    0.000    0.000    1.875    0.000    0.000 
#    0.000    0.000    0.000    0.000    0.000    0.000 
#
# Total GULP energy -396681.815056 kJ/mol
# GULP energy per Si atom -12396.306721 kJ/mol
# Density = 2.014069 g / cm^3
# Si number density = 20.186637 Si / 1000 Ang^3
#
#
#
# Elastic Constant Matrix: (Units=GPa)
#
#
# Indices 1 2 3 4 5 6 
#
# 1 132.5824 70.3795 34.9515 0.0000 -9.5477 0.0000
# 2 70.3795 107.9843 44.6585 0.0000 1.5856 0.0000
# 3 34.9515 44.6585 93.0979 0.0000 -15.7536 0.0000
# 4 0.0000 0.0000 0.0000 128.8971 0.0000 79.7310
# 5 -9.5477 1.5856 -15.7536 0.0000 30.2380 0.0000
# 6 0.0000 0.0000 0.0000 79.7310 0.0000 86.8893
#
#
#
# Elastic Compliance Matrix: (Units=1/GPa)
#
#
# Indices 1 2 3 4 5 6 
#
# 1 0.012047 -0.007906 -0.000018 0.000000 0.004209 0.000000
# 2 -0.007906 0.017160 -0.006403 0.000000 -0.006732 0.000000
# 3 -0.000018 -0.006403 0.015217 0.000000 0.008258 0.000000
# 4 0.000000 0.000000 0.000000 0.017942 0.000000 -0.016464
# 5 0.004209 -0.006732 0.008258 0.000000 0.039055 0.000000
# 6 0.000000 0.000000 0.000000 -0.016464 0.000000 0.026617
#
#
# Mechanical properties :
#
#
# Convention : Reuss Voigt Hill
#
# Bulk Modulus (GPa) = 63.40933 70.40484 66.90709
# Shear Modulus (GPa) = 30.87394 61.44989 46.16191
#
# Velocity S-wave (km/s) = 3.91503 5.52331 4.78719
# Velocity P-wave (km/s) = 7.20530 8.69647 7.98577
#
# Compressibility (1/GPa) = 0.01577055
#
# Stress axis : x y z
#
# Youngs Moduli (GPa) = 83.00649 58.27413 65.71682
#
# Poissons Ratio (x) = 0.46073 0.00119
# Poissons Ratio (y) = 0.65627 0.42076
# Poissons Ratio (z) = 0.00150 0.37311
#
# Static dielectric constant tensor:
#      x y z
#    x 4.080570 0.000000 -0.038160 
#    y 0.000000 3.054020 0.000000 
#    z -0.038160 0.000000 3.735900 
# 
# 
# High freq. dielectric constant tensor:
#      x y z
#    x 1.796580 0.000000 -0.008610 
#    y 0.000000 1.789500 0.000000 
#    z -0.008610 0.000000 1.781830 
# 
# From -- ./inp_files/156628.got.cif
#   From: 2010.06.25/outbox.cif.g09.slc.cpg/sg12_79_cif.got.tgz:156628.got - 2010.06.28 00:19:55.
