data_PCOD8098929
_publ_section_title
;
Structure prediction by ZEFSAII (Michael W. Deem and Ramdas Pophale) SiO2 
 PCOD8098929
Probable space group: C 2/M
;
_chemical_formula_sum "Si O2"
_cell_formula_units_Z 64
_cell_length_a 25.410873
_cell_length_b 9.241455
_cell_length_c 14.996139
_cell_angle_alpha 90.000000
_cell_angle_beta 72.608812
_cell_angle_gamma 90.000000
_cell_volume 3360.609798
_symmetry_space_group_name_H-M "C 2/M"
_symmetry_group_IT_number 12
_symmetry_cell_setting 'monoclinic'
loop_
_space_group_symop_operation_xyz
x,y,z
-x,y,-z
-x,-y,-z
x,-y,z
1/2+x,1/2+y,z
1/2-x,1/2+y,-z
1/2-x,1/2-y,-z
1/2+x,1/2-y,z
loop_
_atom_site_type_symbol
_atom_site_label
_atom_site_fract_x
_atom_site_fract_y
_atom_site_fract_z
Si Si1 0.628100 0.667682 0.078472
Si Si2 0.584069 0.164707 0.596517
Si Si3 0.004502 0.169402 0.099466
Si Si4 0.018761 0.839282 0.389997
Si Si5 0.098549 0.665673 0.783383
Si Si6 0.182596 0.328959 0.889295
Si Si7 0.805105 0.831649 0.779614
Si Si8 0.123461 0.670566 0.385017
O O1 0.635118 0.500000 0.049648
O O2 0.563977 0.712856 0.109056
O O3 0.651715 0.702108 0.163768
O O4 0.662463 0.757954 0.990073
O O5 0.530364 0.263401 0.638411
O O6 0.619366 0.180237 0.669858
O O7 0.620322 0.210258 0.492070
O O8 0.563713 0.000000 0.592345
O O9 0.958168 0.248595 0.179494
O O10 0.993473 0.000000 0.112408
O O11 0.000000 0.222221 0.000000
O O12 0.072974 0.741583 0.356484
O O13 0.000000 0.855144 0.500000
O O14 0.030558 0.000000 0.343497
O O15 0.086169 0.500000 0.813697
O O16 0.145498 0.726828 0.825242
O O17 0.178981 0.500000 0.902639
O O18 0.244909 0.279179 0.840076
O O19 0.821264 0.740346 0.683559
O O20 0.804935 0.000000 0.753724
O O21 0.123173 0.500000 0.368849
#
# Coordination Sequence:
#
# PCOD8098929 Si02
#       8
#     8   8   8   8   8   8   8   8
#     4  10  21  37  57  80 110 143 177 223 278 331
#     4   9  19  35  53  77 110 145 182 223 270 322
#     4  10  20  35  54  80 112 143 175 221 275 325
#     4   9  17  30  50  75 104 138 174 216 267 319
#     4  10  21  36  56  81 110 146 184 223 270 324
#     4  10  21  38  58  80 108 143 184 229 274 322
#     4  10  22  38  56  80 110 144 184 230 275 321
#     4  10  20  35  54  77 108 144 183 227 271 319
#
# _framework density 19.044163000000001
#
# number of rings (size 3 to 8) (size 9 to 14) (size 15 to 20)
#    0.000    2.250    1.250    1.125    1.750    4.250 
#    0.000    0.625    0.000    0.000    0.000    0.000 
#    0.000    0.000    0.000    0.000    0.000    0.000 
#
# Total GULP energy -396799.972976 kJ/mol
# GULP energy per Si atom -12399.999156 kJ/mol
# Density = 1.900082 g / cm^3
# Si number density = 19.044163 Si / 1000 Ang^3
#
#
#
# Elastic Constant Matrix: (Units=GPa)
#
#
# Indices 1 2 3 4 5 6 
#
# 1 99.3386 29.4981 45.3602 0.0000 -13.0716 0.0000
# 2 29.4981 62.8882 39.7554 0.0000 -9.1501 0.0000
# 3 45.3602 39.7554 103.2533 0.0000 -4.6376 0.0000
# 4 0.0000 0.0000 0.0000 30.4580 0.0000 -7.4771
# 5 -13.0716 -9.1501 -4.6376 0.0000 22.9579 0.0000
# 6 0.0000 0.0000 0.0000 -7.4771 0.0000 20.1297
#
#
#
# Elastic Compliance Matrix: (Units=1/GPa)
#
#
# Indices 1 2 3 4 5 6 
#
# 1 0.013798 -0.002583 -0.004804 0.000000 0.005856 0.000000
# 2 -0.002583 0.022609 -0.007298 0.000000 0.006066 0.000000
# 3 -0.004804 -0.007298 0.014483 0.000000 -0.002718 0.000000
# 4 0.000000 0.000000 0.000000 0.036126 0.000000 0.013419
# 5 0.005856 0.006066 -0.002718 0.000000 0.048761 0.000000
# 6 0.000000 0.000000 0.000000 0.013419 0.000000 0.054662
#
#
# Mechanical properties :
#
#
# Convention : Reuss Voigt Hill
#
# Bulk Modulus (GPa) = 46.46806 54.96750 50.71778
# Shear Modulus (GPa) = 22.02814 24.76687 23.39751
#
# Velocity S-wave (km/s) = 3.40470 3.61015 3.50893
# Velocity P-wave (km/s) = 6.31737 6.80466 6.56554
#
# Compressibility (1/GPa) = 0.02152016
#
# Stress axis : x y z
#
# Youngs Moduli (GPa) = 72.47546 44.23058 69.04594
#
# Poissons Ratio (x) = 0.11425 0.33169
# Poissons Ratio (y) = 0.18720 0.50388
# Poissons Ratio (z) = 0.34817 0.32279
#
# Static dielectric constant tensor:
#      x y z
#    x 3.489220 0.000000 0.070670 
#    y 0.000000 3.478050 0.000000 
#    z 0.070670 0.000000 3.482130 
# 
# 
# High freq. dielectric constant tensor:
#      x y z
#    x 1.726030 0.000000 0.004630 
#    y 0.000000 1.736470 0.000000 
#    z 0.004630 0.000000 1.746650 
# 
# From -- ./inp_files/243901.got.cif
#   From: 2010.06.25/outbox.cif.g09.slc.cpg/sg12_122_cif.got.tgz:243901.got - 2010.06.28 00:19:55.
