data_PCOD8098816
_publ_section_title
;
Structure prediction by ZEFSAII (Michael W. Deem and Ramdas Pophale) SiO2 
 PCOD8098816
Probable space group: C 2/M
;
_chemical_formula_sum "Si O2"
_cell_formula_units_Z 56
_cell_length_a 28.548413
_cell_length_b 8.923050
_cell_length_c 19.449398
_cell_angle_alpha 90.000000
_cell_angle_beta 144.641752
_cell_angle_gamma 90.000000
_cell_volume 2867.115624
_symmetry_space_group_name_H-M "C 2/M"
_symmetry_group_IT_number 12
_symmetry_cell_setting 'monoclinic'
loop_
_space_group_symop_operation_xyz
x,y,z
-x,y,-z
-x,-y,-z
x,-y,z
1/2+x,1/2+y,z
1/2-x,1/2+y,-z
1/2-x,1/2-y,-z
1/2+x,1/2-y,z
loop_
_atom_site_type_symbol
_atom_site_label
_atom_site_fract_x
_atom_site_fract_y
_atom_site_fract_z
Si Si1 0.756281 0.675005 0.212072
Si Si2 0.515111 0.677319 0.802262
Si Si3 0.307450 0.676685 0.012575
Si Si4 0.955363 0.824072 0.877662
Si Si5 0.120700 0.170806 0.457513
Si Si6 0.708244 0.821506 0.291323
Si Si7 0.583046 0.329024 0.566299
O O1 0.744164 0.500000 0.211662
O O2 0.721819 0.723604 0.097699
O O3 0.707712 0.764098 0.212411
O O4 0.850241 0.717203 0.324640
O O5 0.513115 0.500000 0.789810
O O6 0.510355 0.716459 0.877583
O O7 0.437790 0.749290 0.669205
O O8 0.599660 0.736239 0.871183
O O9 0.302942 0.500000 0.017989
O O10 0.250000 0.750000 0.000000
O O11 0.870589 0.739702 0.764964
O O12 0.937620 0.000000 0.861683
O O13 0.000000 0.766416 0.000000
O O14 0.211192 0.241270 0.572660
O O15 0.074562 0.184883 0.474458
O O16 0.133053 0.000000 0.450198
O O17 0.709055 0.000000 0.290808
O O18 0.500000 0.275828 0.500000
O O19 0.604979 0.500000 0.613287
#
# Coordination Sequence:
#
# PCOD8098816 Si02
#       7
#     8   8   8   8   8   8   8
#     4  10  20  35  53  78 110 143 181 226 274 328
#     4   9  18  34  55  77 105 144 182 222 270 326
#     4  10  22  37  56  80 108 144 185 227 275 327
#     4  10  20  35  57  82 108 142 184 223 267 329
#     4   8  16  31  50  76 107 138 179 223 264 321
#     4  10  20  35  56  82 110 140 179 227 275 325
#     4   9  18  31  52  79 103 138 184 229 274 326
#
# _framework density 19.531825000000001
#
# number of rings (size 3 to 8) (size 9 to 14) (size 15 to 20)
#    0.000    2.571    0.000    2.571    2.000    4.571 
#    0.000    0.714    0.000    4.286    0.000    0.000 
#    0.000    0.000    0.000    0.000    0.000    0.000 
#
# Total GULP energy -347099.623149 kJ/mol
# GULP energy per Si atom -12396.415112 kJ/mol
# Density = 1.948737 g / cm^3
# Si number density = 19.531825 Si / 1000 Ang^3
#
#
#
# Elastic Constant Matrix: (Units=GPa)
#
#
# Indices 1 2 3 4 5 6 
#
# 1 118.8866 23.2734 61.7826 0.0000 18.9510 0.0000
# 2 23.2734 30.9146 23.2679 0.0000 -2.6569 0.0000
# 3 61.7826 23.2679 135.8754 0.0000 -2.5345 0.0000
# 4 0.0000 0.0000 0.0000 22.3150 0.0000 4.8784
# 5 18.9510 -2.6569 -2.5345 0.0000 27.2948 0.0000
# 6 0.0000 0.0000 0.0000 4.8784 0.0000 28.9672
#
#
#
# Elastic Compliance Matrix: (Units=1/GPa)
#
#
# Indices 1 2 3 4 5 6 
#
# 1 0.014645 -0.007848 -0.005529 0.000000 -0.011446 0.000000
# 2 -0.007848 0.041590 -0.003382 0.000000 0.009183 0.000000
# 3 -0.005529 -0.003382 0.010537 0.000000 0.004488 0.000000
# 4 0.000000 0.000000 0.000000 0.046526 0.000000 -0.007836
# 5 -0.011446 0.009183 0.004488 0.000000 0.045894 0.000000
# 6 0.000000 0.000000 0.000000 -0.007836 0.000000 0.035841
#
#
# Mechanical properties :
#
#
# Convention : Reuss Voigt Hill
#
# Bulk Modulus (GPa) = 30.07150 55.81382 42.94266
# Shear Modulus (GPa) = 20.86490 27.53893 24.20191
#
# Velocity S-wave (km/s) = 3.27196 3.75901 3.52391
# Velocity P-wave (km/s) = 5.45012 6.89043 6.21216
#
# Compressibility (1/GPa) = 0.03325407
#
# Stress axis : x y z
#
# Youngs Moduli (GPa) = 68.28082 24.04404 94.90744
#
# Poissons Ratio (x) = 0.18869 0.52473
# Poissons Ratio (y) = 0.53586 0.32101
# Poissons Ratio (z) = 0.37751 0.08133
#
# Static dielectric constant tensor:
#      x y z
#    x 3.599310 0.000000 0.102080 
#    y 0.000000 3.219560 0.000000 
#    z 0.102080 0.000000 3.896420 
# 
# 
# High freq. dielectric constant tensor:
#      x y z
#    x 1.765320 0.000000 0.007040 
#    y 0.000000 1.720860 0.000000 
#    z 0.007040 0.000000 1.771870 
# 
# From -- ./inp_files/287372.got.cif
#   From: 2010.06.25/outbox.cif.g09.slc.cpg/sg12_144_cif.got.tgz:287372.got - 2010.06.28 00:19:55.
