data_PCOD8098353
_publ_section_title
;
Structure prediction by ZEFSAII (Michael W. Deem and Ramdas Pophale) SiO2 
 PCOD8098353
Probable space group: C 2/M
;
_chemical_formula_sum "Si O2"
_cell_formula_units_Z 64
_cell_length_a 23.530415
_cell_length_b 9.192672
_cell_length_c 28.395837
_cell_angle_alpha 90.000000
_cell_angle_beta 149.104105
_cell_angle_gamma 90.000000
_cell_volume 3153.910516
_symmetry_space_group_name_H-M "C 2/M"
_symmetry_group_IT_number 12
_symmetry_cell_setting 'monoclinic'
loop_
_space_group_symop_operation_xyz
x,y,z
-x,y,-z
-x,-y,-z
x,-y,z
1/2+x,1/2+y,z
1/2-x,1/2+y,-z
1/2-x,1/2-y,-z
1/2+x,1/2-y,z
loop_
_atom_site_type_symbol
_atom_site_label
_atom_site_fract_x
_atom_site_fract_y
_atom_site_fract_z
Si Si1 0.674462 0.829084 0.984816
Si Si2 0.288906 0.168323 0.789744
Si Si3 0.448495 0.332999 0.839153
Si Si4 0.795455 0.166670 0.168287
Si Si5 0.950450 0.170354 0.415748
Si Si6 0.150597 0.834589 0.329539
Si Si7 0.615782 0.165780 0.470679
Si Si8 0.987604 0.335022 0.698643
O O1 0.554167 0.758306 0.898300
O O2 0.667577 0.000000 0.967763
O O3 0.750000 0.750000 0.000000
O O4 0.721440 0.802756 0.070221
O O5 0.390907 0.264961 0.844137
O O6 0.274605 0.203530 0.834786
O O7 0.178789 0.208393 0.681756
O O8 0.319669 0.000000 0.803902
O O9 0.482241 0.500000 0.873414
O O10 0.359843 0.323811 0.733908
O O11 0.901117 0.268687 0.242917
O O12 0.836145 0.000000 0.199018
O O13 0.000000 0.230434 0.500000
O O14 0.014417 0.244045 0.418746
O O15 0.970735 0.000000 0.425616
O O16 0.268214 0.767164 0.428952
O O17 0.050199 0.747586 0.281562
O O18 0.141658 0.000000 0.341119
O O19 0.608684 0.175619 0.409103
O O20 0.604915 0.000000 0.480550
O O21 0.012175 0.500000 0.730472
#
# Coordination Sequence:
#
# PCOD8098353 Si02
#       8
#     8   8   8   8   8   8   8   8
#     4  11  24  43  67  93 121 154 196 243 297 360
#     4  10  21  39  61  86 119 157 198 242 292 351
#     4  11  24  41  62  89 120 156 198 244 297 351
#     4  10  22  41  64  87 117 161 199 236 298 366
#     4  10  20  34  56  85 116 155 203 249 290 340
#     4  10  22  39  57  80 117 162 200 238 295 362
#     4  10  21  36  54  82 117 155 198 242 295 353
#     4  11  22  35  57  89 119 151 198 251 297 345
#
# _framework density 20.292269999999998
#
# number of rings (size 3 to 8) (size 9 to 14) (size 15 to 20)
#    0.000    1.625    1.250    3.000    0.000    7.750 
#    0.000    2.500    0.000    0.000    0.000    0.000 
#    0.000    0.000    0.000    0.000    0.000    0.000 
#
# Total GULP energy -396932.299415 kJ/mol
# GULP energy per Si atom -12404.134357 kJ/mol
# Density = 2.024608 g / cm^3
# Si number density = 20.292270 Si / 1000 Ang^3
#
#
#
# Elastic Constant Matrix: (Units=GPa)
#
#
# Indices 1 2 3 4 5 6 
#
# 1 122.4626 58.7948 32.8930 -0.0002 9.1840 0.0000
# 2 58.7948 99.5073 41.9988 -0.0001 11.9013 0.0003
# 3 32.8930 41.9988 81.7664 0.0004 2.9239 0.0001
# 4 -0.0002 -0.0001 0.0004 28.4607 0.0002 3.7985
# 5 9.1840 11.9013 2.9239 0.0002 36.9621 0.0000
# 6 0.0000 0.0003 0.0001 3.7985 0.0000 37.4362
#
#
#
# Elastic Compliance Matrix: (Units=1/GPa)
#
#
# Indices 1 2 3 4 5 6 
#
# 1 0.011555 -0.006107 -0.001483 0.000000 -0.000787 0.000000
# 2 -0.006107 0.016561 -0.005930 0.000000 -0.003346 0.000000
# 3 -0.001483 -0.005930 0.015836 0.000000 0.001025 0.000000
# 4 0.000000 0.000000 0.000000 0.035619 0.000000 -0.003614
# 5 -0.000787 -0.003346 0.001025 0.000000 0.028247 0.000000
# 6 0.000000 0.000000 0.000000 -0.003614 0.000000 0.027079
#
#
# Mechanical properties :
#
#
# Convention : Reuss Voigt Hill
#
# Bulk Modulus (GPa) = 59.13299 63.45661 61.29480
# Shear Modulus (GPa) = 29.83740 31.90844 30.87292
#
# Velocity S-wave (km/s) = 3.83872 3.96971 3.90476
# Velocity P-wave (km/s) = 6.98939 7.23537 7.11345
#
# Compressibility (1/GPa) = 0.01691103
#
# Stress axis : x y z
#
# Youngs Moduli (GPa) = 86.53958 60.38227 63.14761
#
# Poissons Ratio (x) = 0.36878 0.09367
# Poissons Ratio (y) = 0.52853 0.37447
# Poissons Ratio (z) = 0.12837 0.35807
#
# Static dielectric constant tensor:
#      x y z
#    x 3.641270 0.000000 -0.151040 
#    y 0.000000 3.680080 0.000000 
#    z -0.151040 0.000000 3.740730 
# 
# 
# High freq. dielectric constant tensor:
#      x y z
#    x 1.796120 0.000000 -0.006560 
#    y 0.000000 1.791420 0.000000 
#    z -0.006560 0.000000 1.796060 
# 
# From -- ./inp_files/382504.got.cif
#   From: 2010.06.25/outbox.cif.g09.slc.cpg/sg12_192_cif.got.tgz:382504.got - 2010.06.28 00:19:55.
