data_PCOD8098005
_publ_section_title
;
Structure prediction by ZEFSAII (Michael W. Deem and Ramdas Pophale) SiO2 
 PCOD8098005
Probable space group: C 2/M
;
_chemical_formula_sum "Si O2"
_cell_formula_units_Z 64
_cell_length_a 20.485465
_cell_length_b 9.035616
_cell_length_c 23.307234
_cell_angle_alpha 90.000000
_cell_angle_beta 50.902837
_cell_angle_gamma 90.000000
_cell_volume 3348.108290
_symmetry_space_group_name_H-M "C 2/M"
_symmetry_group_IT_number 12
_symmetry_cell_setting 'monoclinic'
loop_
_space_group_symop_operation_xyz
x,y,z
-x,y,-z
-x,-y,-z
x,-y,z
1/2+x,1/2+y,z
1/2-x,1/2+y,-z
1/2-x,1/2-y,-z
1/2+x,1/2-y,z
loop_
_atom_site_type_symbol
_atom_site_label
_atom_site_fract_x
_atom_site_fract_y
_atom_site_fract_z
Si Si1 0.466504 0.328252 0.866704
Si Si2 0.920742 0.661430 0.006031
Si Si3 0.480368 0.670754 0.332905
Si Si4 0.286016 0.667726 0.153515
Si Si5 0.269249 0.675885 0.701206
Si Si6 0.887802 0.333470 0.811625
Si Si7 0.135366 0.170103 0.703694
Si Si8 0.541288 0.327574 0.420455
O O1 0.452436 0.500000 0.886369
O O2 0.395671 0.272211 0.862034
O O3 0.558086 0.295435 0.789229
O O4 0.454677 0.240535 0.931040
O O5 0.879466 0.500000 0.014383
O O6 0.859329 0.766136 0.074911
O O7 0.000000 0.629038 0.000000
O O8 0.505036 0.500000 0.306108
O O9 0.554938 0.775497 0.271544
O O10 0.394325 0.707166 0.345627
O O11 0.476048 0.699091 0.403772
O O12 0.309059 0.500000 0.158753
O O13 0.272897 0.760255 0.218381
O O14 0.206773 0.671799 0.156327
O O15 0.266549 0.500000 0.706277
O O16 0.215006 0.729114 0.676227
O O17 0.365035 0.737033 0.642747
O O18 0.915556 0.500000 0.812266
O O19 0.163235 0.000000 0.693063
O O20 0.500000 0.253216 0.500000
O O21 0.553884 0.500000 0.424870
#
# Coordination Sequence:
#
# PCOD8098005 Si02
#       8
#     8   8   8   8   8   8   8   8
#     4  10  21  37  57  79 108 148 188 226 275 332
#     4  11  24  39  55  77 106 142 185 234 282 325
#     4   9  17  34  58  81 109 148 189 225 270 330
#     4  11  23  37  56  80 109 145 183 226 280 336
#     4  11  21  34  57  85 112 143 185 236 278 325
#     4  10  20  34  55  82 109 140 180 230 278 323
#     4   9  19  34  55  81 111 149 187 227 275 330
#     4   9  18  34  58  86 113 144 185 229 274 329
#
# _framework density 19.115272000000001
#
# number of rings (size 3 to 8) (size 9 to 14) (size 15 to 20)
#    0.000    2.000    1.250    3.375    0.000    7.500 
#    0.000    0.625    0.000    3.375    0.000    0.000 
#    0.000    0.000    0.000    0.000    0.000    0.000 
#
# Total GULP energy -396708.984365 kJ/mol
# GULP energy per Si atom -12397.155761 kJ/mol
# Density = 1.907177 g / cm^3
# Si number density = 19.115272 Si / 1000 Ang^3
#
#
#
# Elastic Constant Matrix: (Units=GPa)
#
#
# Indices 1 2 3 4 5 6 
#
# 1 112.6645 47.2333 46.3569 0.0001 16.9235 0.0005
# 2 47.2333 84.4608 30.1256 0.0001 2.0187 0.0005
# 3 46.3569 30.1256 68.3971 0.0000 25.4159 0.0001
# 4 0.0001 0.0001 0.0000 19.2773 0.0000 2.0086
# 5 16.9235 2.0187 25.4159 0.0000 24.6395 0.0002
# 6 0.0005 0.0005 0.0001 2.0086 0.0002 31.5450
#
#
#
# Elastic Compliance Matrix: (Units=1/GPa)
#
#
# Indices 1 2 3 4 5 6 
#
# 1 0.014197 -0.005759 -0.005898 0.000000 -0.003195 0.000000
# 2 -0.005759 0.017569 -0.007734 0.000000 0.010494 0.000000
# 3 -0.005898 -0.007734 0.032891 0.000000 -0.029243 0.000000
# 4 0.000000 0.000000 0.000000 0.052221 0.000000 -0.003325
# 5 -0.003195 0.010494 -0.029243 0.000000 0.072084 0.000000
# 6 0.000000 0.000000 0.000000 -0.003325 0.000000 0.031913
#
#
# Mechanical properties :
#
#
# Convention : Reuss Voigt Hill
#
# Bulk Modulus (GPa) = 38.65024 56.99488 47.82256
# Shear Modulus (GPa) = 18.63703 24.54612 21.59158
#
# Velocity S-wave (km/s) = 3.12586 3.58734 3.36452
# Velocity P-wave (km/s) = 5.76987 6.85856 6.33763
#
# Compressibility (1/GPa) = 0.02587306
#
# Stress axis : x y z
#
# Youngs Moduli (GPa) = 70.43546 56.92002 30.40337
#
# Poissons Ratio (x) = 0.32783 0.17933
# Poissons Ratio (y) = 0.40567 0.23515
# Poissons Ratio (z) = 0.41545 0.44023
#
# Static dielectric constant tensor:
#      x y z
#    x 3.669220 0.000000 0.111880 
#    y 0.000000 3.635190 0.000000 
#    z 0.111880 0.000000 3.417760 
# 
# 
# High freq. dielectric constant tensor:
#      x y z
#    x 1.754640 0.000000 0.013210 
#    y 0.000000 1.742330 0.000000 
#    z 0.013210 0.000000 1.721460 
# 
# From -- ./inp_files/345950.got.cif
#   From: 2010.06.25/outbox.cif.g09.slc.cpg/sg12_173_cif.got.tgz:345950.got - 2010.06.28 00:19:55.
