data_PCOD8098953
_publ_section_title
;
Structure prediction by ZEFSAII (Michael W. Deem and Ramdas Pophale) SiO2 
 PCOD8098953
Probable space group: C 2/M
;
_chemical_formula_sum "Si O2"
_cell_formula_units_Z 56
_cell_length_a 22.389878
_cell_length_b 9.217113
_cell_length_c 29.548003
_cell_angle_alpha 90.000000
_cell_angle_beta 28.103591
_cell_angle_gamma 90.000000
_cell_volume 2872.483940
_symmetry_space_group_name_H-M "C 2/M"
_symmetry_group_IT_number 12
_symmetry_cell_setting 'monoclinic'
loop_
_space_group_symop_operation_xyz
x,y,z
-x,y,-z
-x,-y,-z
x,-y,z
1/2+x,1/2+y,z
1/2-x,1/2+y,-z
1/2-x,1/2-y,-z
1/2+x,1/2-y,z
loop_
_atom_site_type_symbol
_atom_site_label
_atom_site_fract_x
_atom_site_fract_y
_atom_site_fract_z
Si Si1 0.752878 0.328746 0.217260
Si Si2 0.734789 0.168747 0.624683
Si Si3 0.449599 0.167261 0.330734
Si Si4 0.257313 0.832056 0.866224
Si Si5 0.867557 0.169598 0.223376
Si Si6 0.842129 0.167305 0.971646
Si Si7 0.535940 0.666440 0.590408
O O1 0.777199 0.500000 0.202652
O O2 0.789618 0.268535 0.143350
O O3 0.841467 0.249246 0.193811
O O4 0.607200 0.287484 0.326044
O O5 0.634172 0.225145 0.654867
O O6 0.721072 0.263217 0.678787
O O7 0.876892 0.195202 0.511482
O O8 0.711795 0.000000 0.651940
O O9 0.595485 0.196395 0.221270
O O10 0.409323 0.246638 0.403593
O O11 0.418976 0.000000 0.359341
O O12 0.233366 0.000000 0.869423
O O13 0.178424 0.782999 0.962823
O O14 0.013515 0.197286 0.138954
O O15 0.837531 0.000000 0.238066
O O16 0.805365 0.000000 0.992111
O O17 0.750000 0.250000 0.000000
O O18 0.540383 0.500000 0.602269
#
# Coordination Sequence:
#
# PCOD8098953 Si02
#       7
#     8   8   8   8   8   8   8
#     4  10  21  38  57  79 107 142 183 226 270 319
#     4  10  20  35  54  78 109 146 183 223 271 321
#     4   9  17  30  53  82 109 138 174 216 269 327
#     4   9  18  35  57  80 108 142 176 217 268 322
#     4  11  24  39  55  79 109 143 182 225 268 316
#     4  10  22  39  60  85 113 143 176 216 267 322
#     4   9  19  34  54  79 108 142 181 224 271 320
#
# _framework density 19.495322000000002
#
# number of rings (size 3 to 8) (size 9 to 14) (size 15 to 20)
#    0.000    2.286    0.000    2.143    0.000    5.714 
#    0.000    8.571    0.000    0.000    0.000    0.000 
#    0.000    0.000    0.000    0.000    0.000    0.000 
#
# Total GULP energy -347309.958309 kJ/mol
# GULP energy per Si atom -12403.927082 kJ/mol
# Density = 1.945095 g / cm^3
# Si number density = 19.495322 Si / 1000 Ang^3
#
#
#
# Elastic Constant Matrix: (Units=GPa)
#
#
# Indices 1 2 3 4 5 6 
#
# 1 108.5055 58.8013 29.5874 0.0006 9.6144 -0.0035
# 2 58.8013 83.9279 35.4390 0.0010 8.1600 -0.0146
# 3 29.5874 35.4390 71.7187 0.0004 20.9357 0.0013
# 4 0.0006 0.0010 0.0004 27.4509 0.0000 4.1461
# 5 9.6144 8.1600 20.9357 0.0000 27.1795 0.0011
# 6 -0.0035 -0.0146 0.0013 4.1461 0.0011 38.8992
#
#
#
# Elastic Compliance Matrix: (Units=1/GPa)
#
#
# Indices 1 2 3 4 5 6 
#
# 1 0.015009 -0.010041 -0.000723 0.000000 -0.001738 -0.000002
# 2 -0.010041 0.021826 -0.007439 -0.000002 0.002730 0.000008
# 3 -0.000723 -0.007439 0.022178 0.000000 -0.014594 -0.000003
# 4 0.000000 -0.000002 0.000000 0.037025 0.000000 -0.003946
# 5 -0.001738 0.002730 -0.014594 0.000000 0.047829 0.000000
# 6 -0.000002 0.000008 -0.000003 -0.003946 0.000000 0.026128
#
#
# Mechanical properties :
#
#
# Convention : Reuss Voigt Hill
#
# Bulk Modulus (GPa) = 44.23661 56.86752 50.55207
# Shear Modulus (GPa) = 23.37144 28.06088 25.71616
#
# Velocity S-wave (km/s) = 3.46616 3.79801 3.63587
# Velocity P-wave (km/s) = 6.22568 6.96178 6.60400
#
# Compressibility (1/GPa) = 0.02260571
#
# Stress axis : x y z
#
# Youngs Moduli (GPa) = 66.62786 45.81699 45.09011
#
# Poissons Ratio (x) = 0.46006 0.03259
# Poissons Ratio (y) = 0.66902 0.33544
# Poissons Ratio (z) = 0.04816 0.34085
#
# Static dielectric constant tensor:
#      x y z
#    x 3.456710 0.000000 0.003900 
#    y 0.000000 3.509080 0.000000 
#    z 0.003900 0.000000 3.636910 
# 
# 
# High freq. dielectric constant tensor:
#      x y z
#    x 1.757180 0.000000 0.002370 
#    y 0.000000 1.754920 0.000000 
#    z 0.002370 0.000000 1.763120 
# 
# From -- ./inp_files/380599.got.cif
#   From: 2010.06.25/outbox.cif.g09.slc.cpg/sg12_191_cif.got.tgz:380599.got - 2010.06.28 00:19:55.
