data_PCOD8098358
_publ_section_title
;
Structure prediction by ZEFSAII (Michael W. Deem and Ramdas Pophale) SiO2 
 PCOD8098358
Probable space group: C 2/M
;
_chemical_formula_sum "Si O2"
_cell_formula_units_Z 56
_cell_length_a 21.351740
_cell_length_b 14.734392
_cell_length_c 8.483950
_cell_angle_alpha 90.000000
_cell_angle_beta 86.767573
_cell_angle_gamma 90.000000
_cell_volume 2664.845806
_symmetry_space_group_name_H-M "C 2/M"
_symmetry_group_IT_number 12
_symmetry_cell_setting 'monoclinic'
loop_
_space_group_symop_operation_xyz
x,y,z
-x,y,-z
-x,-y,-z
x,-y,z
1/2+x,1/2+y,z
1/2-x,1/2+y,-z
1/2-x,1/2-y,-z
1/2+x,1/2-y,z
loop_
_atom_site_type_symbol
_atom_site_label
_atom_site_fract_x
_atom_site_fract_y
_atom_site_fract_z
Si Si1 0.696805 0.898989 0.740516
Si Si2 0.981272 0.606577 0.822247
Si Si3 0.796830 0.827660 0.934848
Si Si4 0.867021 0.706903 0.702127
Si Si5 0.255595 0.897700 0.598345
Si Si6 0.869841 0.897283 0.220621
Si Si7 0.087329 0.279170 0.663149
O O1 0.747959 0.899832 0.870534
O O2 0.734492 0.867727 0.581443
O O3 0.640217 0.827547 0.764918
O O4 0.667470 0.000000 0.730796
O O5 0.986409 0.500000 0.781937
O O6 0.911187 0.641516 0.800016
O O7 0.024378 0.663546 0.695568
O O8 0.000000 0.626149 0.000000
O O9 0.850976 0.797337 0.802682
O O10 0.750000 0.750000 0.000000
O O11 0.836422 0.879195 0.060630
O O12 0.798904 0.660803 0.705893
O O13 0.896255 0.724375 0.524787
O O14 0.182532 0.883269 0.638498
O O15 0.276821 0.000000 0.624654
O O16 0.922174 0.822386 0.262026
O O17 0.897925 0.000000 0.218624
#
# Coordination Sequence:
#
# PCOD8098358 Si02
#       7
#     8   8   8   8   8   8   8
#     4  10  20  34  56  85 121 159 199 245 302 364
#     4  11  25  42  64  94 127 162 200 247 306 368
#     4  12  21  35  56  86 123 162 197 249 304 366
#     4  11  22  38  61  86 121 164 202 249 303 365
#     4   9  18  33  54  85 118 154 197 243 297 362
#     4  11  22  37  59  87 121 159 202 253 308 361
#     4  11  22  40  62  87 121 162 208 255 301 359
#
# _framework density 21.014347999999998
#
# number of rings (size 3 to 8) (size 9 to 14) (size 15 to 20)
#    0.000    1.286    2.857    3.429    0.000    4.571 
#    0.000    0.714    0.000    6.429    0.000    0.000 
#    0.000    0.000    0.000    0.000    0.000    0.000 
#
# Total GULP energy -347072.484556 kJ/mol
# GULP energy per Si atom -12395.445877 kJ/mol
# Density = 2.096652 g / cm^3
# Si number density = 21.014348 Si / 1000 Ang^3
#
#
#
# Elastic Constant Matrix: (Units=GPa)
#
#
# Indices 1 2 3 4 5 6 
#
# 1 44.6970 29.2449 9.9126 0.0000 0.2332 0.0000
# 2 29.2449 112.4879 22.7388 0.0000 3.8950 0.0000
# 3 9.9126 22.7388 62.0310 0.0000 4.6961 0.0000
# 4 0.0000 0.0000 0.0000 29.8223 0.0000 2.6512
# 5 0.2332 3.8950 4.6961 0.0000 34.9062 0.0000
# 6 0.0000 0.0000 0.0000 2.6512 0.0000 28.1137
#
#
#
# Elastic Compliance Matrix: (Units=1/GPa)
#
#
# Indices 1 2 3 4 5 6 
#
# 1 0.027186 -0.006702 -0.001950 0.000000 0.000829 0.000000
# 2 -0.006702 0.011266 -0.002998 0.000000 -0.000809 0.000000
# 3 -0.001950 -0.002998 0.017685 0.000000 -0.002032 0.000000
# 4 0.000000 0.000000 0.000000 0.033815 0.000000 -0.003189
# 5 0.000829 -0.000809 -0.002032 0.000000 0.029006 0.000000
# 6 0.000000 0.000000 0.000000 -0.003189 0.000000 0.035871
#
#
# Mechanical properties :
#
#
# Convention : Reuss Voigt Hill
#
# Bulk Modulus (GPa) = 30.45299 38.11203 34.28251
# Shear Modulus (GPa) = 26.44430 29.05642 27.75036
#
# Velocity S-wave (km/s) = 3.55123 3.72249 3.63787
# Velocity P-wave (km/s) = 5.59803 6.05405 5.83050
#
# Compressibility (1/GPa) = 0.03283750
#
# Stress axis : x y z
#
# Youngs Moduli (GPa) = 36.78307 88.76005 56.54424
#
# Poissons Ratio (x) = 0.59491 0.11027
# Poissons Ratio (y) = 0.24654 0.16950
# Poissons Ratio (z) = 0.07173 0.26607
#
# Static dielectric constant tensor:
#      x y z
#    x 3.754930 0.000000 -0.003270 
#    y 0.000000 3.914130 0.000000 
#    z -0.003270 0.000000 3.921980 
# 
# 
# High freq. dielectric constant tensor:
#      x y z
#    x 1.795680 0.000000 0.002760 
#    y 0.000000 1.824240 0.000000 
#    z 0.002760 0.000000 1.834440 
# 
# From -- ./inp_files/86339.got.cif
#   From: 2010.06.25/outbox.cif.g09.slc.cpg/sg12_44_cif.got.tgz:86339.got - 2010.06.28 00:19:55.
