data_PCOD8098888
_publ_section_title
;
Structure prediction by ZEFSAII (Michael W. Deem and Ramdas Pophale) SiO2 
 PCOD8098888
Probable space group: C 2/M
;
_chemical_formula_sum "Si O2"
_cell_formula_units_Z 64
_cell_length_a 11.175382
_cell_length_b 16.924380
_cell_length_c 16.368019
_cell_angle_alpha 90.000000
_cell_angle_beta 91.107298
_cell_angle_gamma 90.000000
_cell_volume 3095.210267
_symmetry_space_group_name_H-M "C 2/M"
_symmetry_group_IT_number 12
_symmetry_cell_setting 'monoclinic'
loop_
_space_group_symop_operation_xyz
x,y,z
-x,y,-z
-x,-y,-z
x,-y,z
1/2+x,1/2+y,z
1/2-x,1/2+y,-z
1/2-x,1/2-y,-z
1/2+x,1/2-y,z
loop_
_atom_site_type_symbol
_atom_site_label
_atom_site_fract_x
_atom_site_fract_y
_atom_site_fract_z
Si Si1 0.671018 0.909736 0.213604
Si Si2 0.378615 0.593646 0.770002
Si Si3 0.628887 0.094269 0.034993
Si Si4 0.453220 0.908841 0.626836
Si Si5 0.765347 0.838570 0.470588
Si Si6 0.387369 0.405654 0.323209
Si Si7 0.377521 0.405828 0.953572
Si Si8 0.714241 0.092392 0.630350
O O1 0.639039 0.869809 0.126776
O O2 0.562597 0.900467 0.275701
O O3 0.788590 0.874507 0.257846
O O4 0.699263 0.000000 0.192949
O O5 0.375647 0.500000 0.777945
O O6 0.490206 0.619380 0.716570
O O7 0.381244 0.628962 0.861213
O O8 0.267034 0.627243 0.715885
O O9 0.624645 0.000000 0.031589
O O10 0.500000 0.126639 0.000000
O O11 0.750466 0.123846 0.990247
O O12 0.358915 0.861535 0.573023
O O13 0.583172 0.872052 0.610883
O O14 0.441611 0.000000 0.599720
O O15 0.750000 0.750000 0.500000
O O16 0.871747 0.857094 0.407814
O O17 0.794744 0.889183 0.552265
O O18 0.374332 0.500000 0.340259
O O19 0.379213 0.500000 0.954782
O O20 0.500000 0.375284 0.000000
O O21 0.704323 0.000000 0.643575
#
# Coordination Sequence:
#
# PCOD8098888 Si02
#       8
#     8   8   8   8   8   8   8   8
#     4   8  14  25  44  68  96 135 174 208 251 310
#     4   9  18  30  48  73 101 139 179 212 254 312
#     4   9  16  22  35  65 103 136 167 210 266 315
#     4   9  18  34  57  76 100 140 182 218 259 320
#     4  11  22  36  52  77 103 132 171 223 275 325
#     4   9  17  33  53  72  99 138 183 217 254 315
#     4   9  16  26  41  65 104 145 173 205 257 322
#     4  10  20  35  54  76 103 137 179 222 264 316
#
# _framework density 20.677109000000002
#
# number of rings (size 3 to 8) (size 9 to 14) (size 15 to 20)
#    0.000    2.750    0.000    3.000    1.750    4.500 
#    4.500    1.875    0.000    0.000    0.000    0.000 
#    0.000   13.000    0.500    0.000    0.000    0.000 
#
# Total GULP energy -396427.887612 kJ/mol
# GULP energy per Si atom -12388.371488 kJ/mol
# Density = 2.063005 g / cm^3
# Si number density = 20.677109 Si / 1000 Ang^3
#
#
#
# Elastic Constant Matrix: (Units=GPa)
#
#
# Indices 1 2 3 4 5 6 
#
# 1 118.5900 22.2664 63.6046 0.0000 -2.0003 0.0000
# 2 22.2664 27.3484 25.1316 0.0000 -2.1158 0.0000
# 3 63.6046 25.1316 177.9672 0.0000 0.9724 0.0000
# 4 0.0000 0.0000 0.0000 0.9898 0.0000 -3.8091
# 5 -2.0003 -2.1158 0.9724 0.0000 30.6677 0.0000
# 6 0.0000 0.0000 0.0000 -3.8091 0.0000 4.8357
#
#
#
# Elastic Compliance Matrix: (Units=1/GPa)
#
#
# Indices 1 2 3 4 5 6 
#
# 1 0.011312 -0.006276 -0.003159 0.000000 0.000405 0.000000
# 2 -0.006276 0.045794 -0.004240 0.000000 0.002884 0.000000
# 3 -0.003159 -0.004240 0.007351 0.000000 -0.000732 0.000000
# 4 0.000000 0.000000 0.000000 -0.497360 0.000000 -0.391770
# 5 0.000405 0.002884 -0.000732 0.000000 0.032856 0.000000
# 6 0.000000 0.000000 0.000000 -0.391770 0.000000 -0.101801
#
#
# Mechanical properties :
#
#
# Convention : Reuss Voigt Hill
#
# Bulk Modulus (GPa) = 26.94835 60.65676 43.80256
# Shear Modulus (GPa) = -10.81944 21.49217 5.33637
#
# Velocity S-wave (km/s) = -2.28996 3.22750 1.60823
# Velocity P-wave (km/s) = 2.46360 6.57935 4.96776
#
# Compressibility (1/GPa) = 0.03710802
#
# Stress axis : x y z
#
# Youngs Moduli (GPa) = 88.40387 21.83703 136.04277
#
# Poissons Ratio (x) = 0.13704 0.42972
# Poissons Ratio (y) = 0.55479 0.57677
# Poissons Ratio (z) = 0.27925 0.09258
#
# Static dielectric constant tensor:
#      x y z
#    x 4.057340 0.000000 -0.004610 
#    y 0.000000 2.999010 0.000000 
#    z -0.004610 0.000000 4.186950 
# 
# 
# High freq. dielectric constant tensor:
#      x y z
#    x 1.815220 0.000000 0.000820 
#    y 0.000000 1.730670 0.000000 
#    z 0.000820 0.000000 1.829130 
# 
# From -- ./inp_files/206680.got.cif
#   From: 2010.06.25/outbox.cif.g09.slc.cpg/sg12_104_cif.got.tgz:206680.got - 2010.06.28 00:19:55.
