data_PCOD8098442
_publ_section_title
;
Structure prediction by ZEFSAII (Michael W. Deem and Ramdas Pophale) SiO2 
 PCOD8098442
Probable space group: C 2/M
;
_chemical_formula_sum "Si O2"
_cell_formula_units_Z 64
_cell_length_a 24.937758
_cell_length_b 8.814464
_cell_length_c 29.152594
_cell_angle_alpha 90.000000
_cell_angle_beta 149.786894
_cell_angle_gamma 90.000000
_cell_volume 3224.678092
_symmetry_space_group_name_H-M "C 2/M"
_symmetry_group_IT_number 12
_symmetry_cell_setting 'monoclinic'
loop_
_space_group_symop_operation_xyz
x,y,z
-x,y,-z
-x,-y,-z
x,-y,z
1/2+x,1/2+y,z
1/2-x,1/2+y,-z
1/2-x,1/2-y,-z
1/2+x,1/2-y,z
loop_
_atom_site_type_symbol
_atom_site_label
_atom_site_fract_x
_atom_site_fract_y
_atom_site_fract_z
Si Si1 0.307523 0.330662 0.287463
Si Si2 0.018057 0.677033 0.706415
Si Si3 0.853851 0.822633 0.515362
Si Si4 0.614277 0.178168 0.206632
Si Si5 0.258006 0.671443 0.149516
Si Si6 0.513545 0.825367 0.457741
Si Si7 0.041300 0.820870 0.981153
Si Si8 0.626916 0.176825 0.318837
O O1 0.355678 0.500000 0.329664
O O2 0.231678 0.287776 0.273682
O O3 0.241045 0.323797 0.191573
O O4 0.400545 0.207679 0.350253
O O5 0.037690 0.500000 0.712526
O O6 0.127717 0.764568 0.780940
O O7 0.924615 0.729091 0.603322
O O8 0.977624 0.710305 0.728265
O O9 0.897306 0.785408 0.496726
O O10 0.731459 0.763112 0.423806
O O11 0.864141 0.000000 0.534411
O O12 0.529558 0.264174 0.113104
O O13 0.611036 0.245816 0.256112
O O14 0.587762 0.000000 0.185247
O O15 0.251015 0.500000 0.125796
O O16 0.160979 0.767769 0.057479
O O17 0.500000 0.779857 0.500000
O O18 0.545277 0.000000 0.473744
O O19 0.038453 0.000000 0.979968
O O20 0.000000 0.757180 0.000000
O O21 0.648065 0.000000 0.327326
#
# Coordination Sequence:
#
# PCOD8098442 Si02
#       8
#     8   8   8   8   8   8   8   8
#     4  10  20  34  57  84 114 151 191 237 289 344
#     4  11  22  39  61  87 120 156 196 246 296 340
#     4  11  21  37  60  85 115 155 203 245 287 346
#     4  10  20  39  63  87 116 152 196 243 291 349
#     4  11  22  38  61  90 116 150 196 237 284 346
#     4  11  23  35  50  79 119 158 194 238 295 350
#     4  11  23  38  60  91 124 154 186 234 297 356
#     4   9  21  39  61  87 116 154 199 246 294 342
#
# _framework density 19.846943
#
# number of rings (size 3 to 8) (size 9 to 14) (size 15 to 20)
#    0.000    1.500    2.500    3.000    0.000    3.500 
#    0.000    5.000    0.000    0.000    0.000    0.000 
#    0.000    0.000    0.000    0.000    0.000    0.000 
#
# Total GULP energy -396785.388154 kJ/mol
# GULP energy per Si atom -12399.543380 kJ/mol
# Density = 1.980177 g / cm^3
# Si number density = 19.846943 Si / 1000 Ang^3
#
#
#
# Elastic Constant Matrix: (Units=GPa)
#
#
# Indices 1 2 3 4 5 6 
#
# 1 97.5371 20.7599 28.5420 0.0000 7.6292 -0.0001
# 2 20.7599 51.8741 21.1391 -0.0005 4.7937 0.0013
# 3 28.5420 21.1391 96.8526 0.0001 10.0033 0.0000
# 4 0.0000 -0.0005 0.0001 25.7068 0.0000 -3.4303
# 5 7.6292 4.7937 10.0033 0.0000 22.2300 -0.0001
# 6 -0.0001 0.0013 0.0000 -3.4303 -0.0001 20.5186
#
#
#
# Elastic Compliance Matrix: (Units=1/GPa)
#
#
# Indices 1 2 3 4 5 6 
#
# 1 0.011913 -0.003541 -0.002511 0.000000 -0.002195 0.000000
# 2 -0.003541 0.022357 -0.003632 0.000000 -0.001971 -0.000001
# 3 -0.002511 -0.003632 0.012258 0.000000 -0.003871 0.000000
# 4 0.000000 0.000000 0.000000 0.039788 0.000000 0.006652
# 5 -0.002195 -0.001971 -0.003871 0.000000 0.047904 0.000000
# 6 0.000000 -0.000001 0.000000 0.006652 0.000000 0.049848
#
#
# Mechanical properties :
#
#
# Convention : Reuss Voigt Hill
#
# Bulk Modulus (GPa) = 36.82193 43.01619 39.91906
# Shear Modulus (GPa) = 23.53050 25.41259 24.47155
#
# Velocity S-wave (km/s) = 3.44699 3.58219 3.51524
# Velocity P-wave (km/s) = 5.86818 6.23141 6.05252
#
# Compressibility (1/GPa) = 0.02715773
#
# Stress axis : x y z
#
# Youngs Moduli (GPa) = 83.94391 44.72854 81.58241
#
# Poissons Ratio (x) = 0.15840 0.20485
# Poissons Ratio (y) = 0.29728 0.29634
# Poissons Ratio (z) = 0.21078 0.16247
#
# Static dielectric constant tensor:
#      x y z
#    x 3.787570 0.000000 -0.008580 
#    y 0.000000 3.467680 0.000000 
#    z -0.008580 0.000000 3.592140 
# 
# 
# High freq. dielectric constant tensor:
#      x y z
#    x 1.776260 0.000000 0.004880 
#    y 0.000000 1.764770 0.000000 
#    z 0.004880 0.000000 1.769880 
# 
# From -- ./inp_files/382413.got.cif
#   From: 2010.06.25/outbox.cif.g09.slc.cpg/sg12_192_cif.got.tgz:382413.got - 2010.06.28 00:19:55.
