data_PCOD8098820
_publ_section_title
;
Structure prediction by ZEFSAII (Michael W. Deem and Ramdas Pophale) SiO2 
 PCOD8098820
Probable space group: C 2/M
;
_chemical_formula_sum "Si O2"
_cell_formula_units_Z 40
_cell_length_a 24.099300
_cell_length_b 8.837089
_cell_length_c 24.314506
_cell_angle_alpha 90.000000
_cell_angle_beta 156.042947
_cell_angle_gamma 90.000000
_cell_volume 2102.618643
_symmetry_space_group_name_H-M "C 2/M"
_symmetry_group_IT_number 12
_symmetry_cell_setting 'monoclinic'
loop_
_space_group_symop_operation_xyz
x,y,z
-x,y,-z
-x,-y,-z
x,-y,z
1/2+x,1/2+y,z
1/2-x,1/2+y,-z
1/2-x,1/2-y,-z
1/2+x,1/2-y,z
loop_
_atom_site_type_symbol
_atom_site_label
_atom_site_fract_x
_atom_site_fract_y
_atom_site_fract_z
Si Si1 0.603779 0.677280 0.238473
Si Si2 0.716390 0.169814 0.242448
Si Si3 0.871608 0.169940 0.486559
Si Si4 0.326495 0.319921 0.228487
Si Si5 0.670687 0.820600 0.978581
O O1 0.582111 0.500000 0.223379
O O2 0.604548 0.729935 0.174663
O O3 0.746919 0.727282 0.397359
O O4 0.483152 0.760429 0.161567
O O5 0.854912 0.164671 0.404829
O O6 0.750556 0.243405 0.214237
O O7 0.655753 0.000000 0.180845
O O8 0.018133 0.242875 0.634345
O O9 0.858553 0.000000 0.499218
O O10 0.334991 0.500000 0.241757
O O11 0.244467 0.265121 0.101119
O O12 0.671632 0.000000 0.974633
O O13 0.750000 0.750000 0.000000
#
# Coordination Sequence:
#
# PCOD8098820 Si02
#       5
#     8   8   8   8   8
#     4  10  20  35  53  78 113 146 174 210 261 316
#     4   8  15  30  56  84 111 137 170 213 261 316
#     4   8  15  31  56  84 110 136 171 213 262 317
#     4   9  17  32  58  85 106 137 179 218 260 315
#     4  11  23  40  58  76 102 139 183 226 267 310
#
# _framework density 19.023896000000001
#
# number of rings (size 3 to 8) (size 9 to 14) (size 15 to 20)
#    1.200    1.600    0.000    2.400    0.000    3.200 
#    0.000   11.000    0.000    0.000    0.000    0.000 
#    0.000    0.000    0.000    0.000    0.000    0.000 
#
# Total GULP energy -247792.739611 kJ/mol
# GULP energy per Si atom -12389.636981 kJ/mol
# Density = 1.898060 g / cm^3
# Si number density = 19.023896 Si / 1000 Ang^3
#
#
#
# Elastic Constant Matrix: (Units=GPa)
#
#
# Indices 1 2 3 4 5 6 
#
# 1 77.5594 28.6362 29.3905 0.0000 30.3440 0.0000
# 2 28.6362 75.4004 20.9962 -0.0010 10.6189 -0.0002
# 3 29.3905 20.9962 44.5510 -0.0019 22.4357 -0.0004
# 4 0.0000 -0.0010 -0.0019 15.5627 -0.0003 6.6791
# 5 30.3440 10.6189 22.4357 -0.0003 28.4871 0.0000
# 6 0.0000 -0.0002 -0.0004 6.6791 0.0000 27.9904
#
#
#
# Elastic Compliance Matrix: (Units=1/GPa)
#
#
# Indices 1 2 3 4 5 6 
#
# 1 0.024512 -0.005517 -0.002415 -0.000001 -0.022151 0.000000
# 2 -0.005517 0.016508 -0.006631 0.000000 0.004945 0.000000
# 3 -0.002415 -0.006631 0.040810 0.000004 -0.027097 0.000000
# 4 -0.000001 0.000000 0.000004 0.071587 -0.000002 -0.017082
# 5 -0.022151 0.004945 -0.027097 -0.000002 0.078195 0.000000
# 6 0.000000 0.000000 0.000000 -0.017082 0.000000 0.039803
#
#
# Mechanical properties :
#
#
# Convention : Reuss Voigt Hill
#
# Bulk Modulus (GPa) = 18.97411 39.50628 29.24020
# Shear Modulus (GPa) = 15.71786 22.30725 19.01255
#
# Velocity S-wave (km/s) = 2.87752 3.42803 3.16476
# Velocity P-wave (km/s) = 4.58646 6.03989 5.36264
#
# Compressibility (1/GPa) = 0.05270339
#
# Stress axis : x y z
#
# Youngs Moduli (GPa) = 40.79663 60.57741 24.50364
#
# Poissons Ratio (x) = 0.33422 0.05919
# Poissons Ratio (y) = 0.22508 0.16248
# Poissons Ratio (z) = 0.09854 0.40167
#
# Static dielectric constant tensor:
#      x y z
#    x 3.300430 0.000000 0.072070 
#    y 0.000000 3.117500 0.000000 
#    z 0.072070 0.000000 3.416180 
# 
# 
# High freq. dielectric constant tensor:
#      x y z
#    x 1.720860 0.000000 0.015390 
#    y 0.000000 1.709560 0.000000 
#    z 0.015390 0.000000 1.732520 
# 
# From -- ./inp_files/368915.got.cif
#   From: 2010.06.25/outbox.cif.g09.slc.cpg/sg12_185_cif.got.tgz:368915.got - 2010.06.28 00:19:55.
