data_PCOD8098467
_publ_section_title
;
Structure prediction by ZEFSAII (Michael W. Deem and Ramdas Pophale) SiO2 
 PCOD8098467
Probable space group: C 2/M
;
_chemical_formula_sum "Si O2"
_cell_formula_units_Z 56
_cell_length_a 19.644481
_cell_length_b 8.712053
_cell_length_c 18.641303
_cell_angle_alpha 90.000000
_cell_angle_beta 113.609749
_cell_angle_gamma 90.000000
_cell_volume 2923.293757
_symmetry_space_group_name_H-M "C 2/M"
_symmetry_group_IT_number 12
_symmetry_cell_setting 'monoclinic'
loop_
_space_group_symop_operation_xyz
x,y,z
-x,y,-z
-x,-y,-z
x,-y,z
1/2+x,1/2+y,z
1/2-x,1/2+y,-z
1/2-x,1/2-y,-z
1/2+x,1/2-y,z
loop_
_atom_site_type_symbol
_atom_site_label
_atom_site_fract_x
_atom_site_fract_y
_atom_site_fract_z
Si Si1 0.417321 0.328655 0.994077
Si Si2 0.778173 0.818718 0.300672
Si Si3 0.032880 0.679444 0.846729
Si Si4 0.871370 0.680936 0.834753
Si Si5 0.809055 0.819311 0.472086
Si Si6 0.036690 0.679058 0.440747
Si Si7 0.074485 0.819927 0.716467
O O1 0.389284 0.500000 0.001229
O O2 0.415489 0.221925 0.063667
O O3 0.500000 0.334026 0.000000
O O4 0.365549 0.257244 0.910663
O O5 0.698592 0.755520 0.240137
O O6 0.796506 0.750090 0.386936
O O7 0.842780 0.770192 0.272650
O O8 0.773369 0.000000 0.304474
O O9 0.040623 0.500000 0.833075
O O10 0.063502 0.779494 0.794487
O O11 0.947051 0.725477 0.825187
O O12 0.867600 0.500000 0.845046
O O13 0.750000 0.750000 0.500000
O O14 0.888780 0.774964 0.536303
O O15 0.800388 0.000000 0.467279
O O16 0.055555 0.500000 0.445389
O O17 0.000000 0.726910 0.500000
O O18 0.983668 0.722279 0.353366
O O19 0.061291 0.000000 0.697620
#
# Coordination Sequence:
#
# PCOD8098467 Si02
#       7
#     8   8   8   8   8   8   8
#     4   9  17  32  54  82 114 145 182 230 280 333
#     4   9  20  38  58  80 113 152 186 229 287 343
#     4  10  20  34  57  86 114 146 187 234 282 339
#     4   9  18  35  58  82 110 147 186 228 282 340
#     4  11  23  40  61  87 118 153 193 239 292 346
#     4  11  23  40  61  84 113 152 197 241 286 340
#     4  11  22  38  59  83 114 151 192 235 285 343
#
# _framework density 19.156472999999998
#
# number of rings (size 3 to 8) (size 9 to 14) (size 15 to 20)
#    0.000    2.000    1.429    2.143    2.000    2.857 
#    0.000    3.571    0.000    0.000    0.000    0.000 
#    0.000    0.000    0.000    0.000    0.000    0.000 
#
# Total GULP energy -347260.789945 kJ/mol
# GULP energy per Si atom -12402.171069 kJ/mol
# Density = 1.911287 g / cm^3
# Si number density = 19.156473 Si / 1000 Ang^3
#
#
#
# Elastic Constant Matrix: (Units=GPa)
#
#
# Indices 1 2 3 4 5 6 
#
# 1 109.9379 30.5240 52.9376 0.0000 -4.5569 0.0000
# 2 30.5240 53.1384 19.4498 0.0000 -3.7662 0.0000
# 3 52.9376 19.4498 104.3084 0.0000 -7.4996 0.0000
# 4 0.0000 0.0000 0.0000 32.2602 0.0000 -6.7836
# 5 -4.5569 -3.7662 -7.4996 0.0000 30.0398 0.0000
# 6 0.0000 0.0000 0.0000 -6.7836 0.0000 18.8884
#
#
#
# Elastic Compliance Matrix: (Units=1/GPa)
#
#
# Indices 1 2 3 4 5 6 
#
# 1 0.013431 -0.005608 -0.005779 0.000000 -0.000108 0.000000
# 2 -0.005608 0.022616 -0.001251 0.000000 0.001673 0.000000
# 3 -0.005779 -0.001251 0.012910 0.000000 0.002190 0.000000
# 4 0.000000 0.000000 0.000000 0.033530 0.000000 0.012042
# 5 -0.000108 0.001673 0.002190 0.000000 0.034029 0.000000
# 6 0.000000 0.000000 0.000000 0.012042 0.000000 0.057267
#
#
# Mechanical properties :
#
#
# Convention : Reuss Voigt Hill
#
# Bulk Modulus (GPa) = 42.22368 52.57861 47.40114
# Shear Modulus (GPa) = 24.16006 27.20255 25.68131
#
# Velocity S-wave (km/s) = 3.55518 3.77240 3.66540
# Velocity P-wave (km/s) = 6.24033 6.81771 6.53540
#
# Compressibility (1/GPa) = 0.02368339
#
# Stress axis : x y z
#
# Youngs Moduli (GPa) = 74.45458 44.21569 77.45745
#
# Poissons Ratio (x) = 0.24795 0.44759
# Poissons Ratio (y) = 0.41752 0.09689
# Poissons Ratio (z) = 0.43024 0.05531
#
# Static dielectric constant tensor:
#      x y z
#    x 3.418840 0.000000 -0.052960 
#    y 0.000000 3.426750 0.000000 
#    z -0.052960 0.000000 3.702280 
# 
# 
# High freq. dielectric constant tensor:
#      x y z
#    x 1.732890 0.000000 -0.001810 
#    y 0.000000 1.739350 0.000000 
#    z -0.001810 0.000000 1.755960 
# 
# From -- ./inp_files/275626.got.cif
#   From: 2010.06.25/outbox.cif.g09.slc.cpg/sg12_138_cif.got.tgz:275626.got - 2010.06.28 00:19:55.
