data_PCOD8098489
_publ_section_title
;
Structure prediction by ZEFSAII (Michael W. Deem and Ramdas Pophale) SiO2 
 PCOD8098489
Probable space group: C 2/M
;
_chemical_formula_sum "Si O2"
_cell_formula_units_Z 48
_cell_length_a 20.506562
_cell_length_b 8.896707
_cell_length_c 15.037119
_cell_angle_alpha 90.000000
_cell_angle_beta 111.666831
_cell_angle_gamma 90.000000
_cell_volume 2549.555272
_symmetry_space_group_name_H-M "C 2/M"
_symmetry_group_IT_number 12
_symmetry_cell_setting 'monoclinic'
loop_
_space_group_symop_operation_xyz
x,y,z
-x,y,-z
-x,-y,-z
x,-y,z
1/2+x,1/2+y,z
1/2-x,1/2+y,-z
1/2-x,1/2-y,-z
1/2+x,1/2-y,z
loop_
_atom_site_type_symbol
_atom_site_label
_atom_site_fract_x
_atom_site_fract_y
_atom_site_fract_z
Si Si1 0.418394 0.175848 0.462331
Si Si2 0.817587 0.826649 0.757696
Si Si3 0.178258 0.823471 0.934940
Si Si4 0.676355 0.673382 0.442656
Si Si5 0.077919 0.178194 0.037822
Si Si6 0.326866 0.676459 0.269818
O O1 0.500000 0.214709 0.500000
O O2 0.385518 0.252921 0.532189
O O3 0.384617 0.237209 0.355421
O O4 0.403438 0.000000 0.461530
O O5 0.844276 0.807248 0.670659
O O6 0.879324 0.769309 0.853516
O O7 0.750258 0.724274 0.739086
O O8 0.797646 0.000000 0.767818
O O9 0.159093 0.778345 0.825041
O O10 0.188484 0.000000 0.950179
O O11 0.250000 0.750000 0.000000
O O12 0.116709 0.764163 0.968417
O O13 0.683087 0.500000 0.473089
O O14 0.750000 0.750000 0.500000
O O15 0.072265 0.000000 0.034166
O O16 0.000000 0.249662 0.000000
O O17 0.334966 0.500000 0.289949
#
# Coordination Sequence:
#
# PCOD8098489 Si02
#       6
#     8   8   8   8   8   8
#     4  11  25  43  61  84 118 159 200 246 303 358
#     4  10  20  35  59  86 114 153 193 236 289 349
#     4  10  20  34  57  87 115 150 193 238 287 344
#     4  11  22  36  60  91 119 153 198 245 292 351
#     4   9  18  34  56  83 115 150 189 233 283 341
#     4  11  22  35  58  89 117 151 195 246 296 350
#
# _framework density 18.826813000000001
#
# number of rings (size 3 to 8) (size 9 to 14) (size 15 to 20)
#    0.000    1.667    3.333    1.500    0.000    4.000 
#    0.000    3.333    0.000    2.000    0.000    0.000 
#    0.000    0.000    0.000    0.000    0.000    0.000 
#
# Total GULP energy -297670.875285 kJ/mol
# GULP energy per Si atom -12402.953137 kJ/mol
# Density = 1.878396 g / cm^3
# Si number density = 18.826813 Si / 1000 Ang^3
#
#
#
# Elastic Constant Matrix: (Units=GPa)
#
#
# Indices 1 2 3 4 5 6 
#
# 1 160.4232 63.7311 91.6154 0.0000 -1.0991 0.0000
# 2 63.7311 70.0429 49.2399 0.0000 -1.8977 0.0000
# 3 91.6154 49.2399 160.1297 0.0000 -5.1155 0.0000
# 4 0.0000 0.0000 0.0000 22.2240 0.0000 -4.1332
# 5 -1.0991 -1.8977 -5.1155 0.0000 38.2618 0.0000
# 6 0.0000 0.0000 0.0000 -4.1332 0.0000 21.7492
#
#
#
# Elastic Compliance Matrix: (Units=1/GPa)
#
#
# Indices 1 2 3 4 5 6 
#
# 1 0.011783 -0.007636 -0.004414 0.000000 -0.000630 0.000000
# 2 -0.007636 0.023163 -0.002736 0.000000 0.000564 0.000000
# 3 -0.004414 -0.002736 0.009644 0.000000 0.001027 0.000000
# 4 0.000000 0.000000 0.000000 0.046645 0.000000 0.008864
# 5 -0.000630 0.000564 0.001027 0.000000 0.026283 0.000000
# 6 0.000000 0.000000 0.000000 0.008864 0.000000 0.047663
#
#
# Mechanical properties :
#
#
# Convention : Reuss Voigt Hill
#
# Bulk Modulus (GPa) = 66.57848 88.86319 77.72083
# Shear Modulus (GPa) = 25.03009 28.84762 26.93886
#
# Velocity S-wave (km/s) = 3.65018 3.91866 3.78680
# Velocity P-wave (km/s) = 7.29421 8.23270 7.77762
#
# Compressibility (1/GPa) = 0.01501987
#
# Stress axis : x y z
#
# Youngs Moduli (GPa) = 84.86644 43.17179 103.68769
#
# Poissons Ratio (x) = 0.32964 0.45765
# Poissons Ratio (y) = 0.64801 0.28370
# Poissons Ratio (z) = 0.37458 0.11812
#
# Static dielectric constant tensor:
#      x y z
#    x 3.612250 0.000000 -0.277160 
#    y 0.000000 3.396480 0.000000 
#    z -0.277160 0.000000 4.731080 
# 
# 
# High freq. dielectric constant tensor:
#      x y z
#    x 1.731700 0.000000 -0.007810 
#    y 0.000000 1.720260 0.000000 
#    z -0.007810 0.000000 1.749040 
# 
# From -- ./inp_files/229892.got.cif
#   From: 2010.06.25/outbox.cif.g09.slc.cpg/sg12_115_cif.got.tgz:229892.got - 2010.06.28 00:19:55.
