data_PCOD8098329
_publ_section_title
;
Structure prediction by ZEFSAII (Michael W. Deem and Ramdas Pophale) SiO2 
 PCOD8098329
Probable space group: C 2/M
;
_chemical_formula_sum "Si O2"
_cell_formula_units_Z 64
_cell_length_a 20.089763
_cell_length_b 9.262093
_cell_length_c 18.746524
_cell_angle_alpha 90.000000
_cell_angle_beta 90.216382
_cell_angle_gamma 90.000000
_cell_volume 3488.201832
_symmetry_space_group_name_H-M "C 2/M"
_symmetry_group_IT_number 12
_symmetry_cell_setting 'monoclinic'
loop_
_space_group_symop_operation_xyz
x,y,z
-x,y,-z
-x,-y,-z
x,-y,z
1/2+x,1/2+y,z
1/2-x,1/2+y,-z
1/2-x,1/2-y,-z
1/2+x,1/2-y,z
loop_
_atom_site_type_symbol
_atom_site_label
_atom_site_fract_x
_atom_site_fract_y
_atom_site_fract_z
Si Si1 0.702625 0.666199 0.052609
Si Si2 0.559347 0.834269 0.201268
Si Si3 0.990192 0.333880 0.347272
Si Si4 0.129018 0.167407 0.591530
Si Si5 0.308983 0.665534 0.788338
Si Si6 0.604317 0.334504 0.426475
Si Si7 0.449659 0.330629 0.938708
Si Si8 0.745498 0.665382 0.360088
O O1 0.713705 0.500000 0.035390
O O2 0.722622 0.702993 0.134659
O O3 0.625713 0.710045 0.039385
O O4 0.750000 0.750000 0.000000
O O5 0.506362 0.818655 0.264076
O O6 0.628186 0.765357 0.227900
O O7 0.529747 0.752702 0.132716
O O8 0.572559 0.000000 0.181371
O O9 0.981919 0.500000 0.369610
O O10 0.047278 0.267184 0.396478
O O11 0.921071 0.251821 0.357575
O O12 0.107983 0.191933 0.510390
O O13 0.202627 0.228299 0.603491
O O14 0.128654 0.000000 0.612267
O O15 0.334774 0.500000 0.789266
O O16 0.254818 0.688240 0.725783
O O17 0.585645 0.500000 0.409018
O O18 0.673740 0.292644 0.390609
O O19 0.456087 0.500000 0.923418
O O20 0.500000 0.279234 0.000000
O O21 0.763375 0.500000 0.379416
#
# Coordination Sequence:
#
# PCOD8098329 Si02
#       8
#     8   8   8   8   8   8   8   8
#     4   9  18  33  54  81 109 140 176 217 264 316
#     4  10  20  34  56  85 111 140 184 232 271 318
#     4  11  23  38  57  82 113 148 187 230 278 331
#     4  11  24  38  54  82 116 146 183 233 281 331
#     4   9  18  35  59  81 106 146 188 222 267 326
#     4  10  21  38  61  84 107 143 188 230 279 336
#     4   9  19  37  59  81 109 144 184 222 265 326
#     4  10  20  37  60  82 110 146 183 229 282 332
#
# _framework density 18.347560999999999
#
# number of rings (size 3 to 8) (size 9 to 14) (size 15 to 20)
#    0.000    2.125    1.250    2.625    0.000    7.250 
#    2.250    0.000    0.000    0.000    0.000    0.000 
#    0.000    0.000    0.000    0.000    0.000    0.000 
#
# Total GULP energy -396880.996658 kJ/mol
# GULP energy per Si atom -12402.531146 kJ/mol
# Density = 1.830580 g / cm^3
# Si number density = 18.347561 Si / 1000 Ang^3
#
#
#
# Elastic Constant Matrix: (Units=GPa)
#
#
# Indices 1 2 3 4 5 6 
#
# 1 64.1650 39.5380 27.7577 0.0000 -3.5805 0.0000
# 2 39.5380 90.2555 43.8628 0.0000 -1.4786 0.0000
# 3 27.7577 43.8628 64.1098 0.0000 -10.6271 0.0000
# 4 0.0000 0.0000 0.0000 30.8877 0.0000 -2.4237
# 5 -3.5805 -1.4786 -10.6271 0.0000 29.0399 0.0000
# 6 0.0000 0.0000 0.0000 -2.4237 0.0000 33.1756
#
#
#
# Elastic Compliance Matrix: (Units=1/GPa)
#
#
# Indices 1 2 3 4 5 6 
#
# 1 0.022170 -0.007637 -0.004243 0.000000 0.000792 0.000000
# 2 -0.007637 0.019576 -0.010728 0.000000 -0.003871 0.000000
# 3 -0.004243 -0.010728 0.026186 0.000000 0.008514 0.000000
# 4 0.000000 0.000000 0.000000 0.032562 0.000000 0.002379
# 5 0.000792 -0.003871 0.008514 0.000000 0.037451 0.000000
# 6 0.000000 0.000000 0.000000 0.002379 0.000000 0.030316
#
#
# Mechanical properties :
#
#
# Convention : Reuss Voigt Hill
#
# Bulk Modulus (GPa) = 44.02121 48.98304 46.50213
# Shear Modulus (GPa) = 22.61925 25.77877 24.19901
#
# Velocity S-wave (km/s) = 3.51496 3.75243 3.63564
# Velocity P-wave (km/s) = 6.36540 6.74756 6.55926
#
# Compressibility (1/GPa) = 0.02271632
#
# Stress axis : x y z
#
# Youngs Moduli (GPa) = 45.10511 51.08380 38.18774
#
# Poissons Ratio (x) = 0.39015 0.16201
# Poissons Ratio (y) = 0.34448 0.40969
# Poissons Ratio (z) = 0.19136 0.54804
#
# Static dielectric constant tensor:
#      x y z
#    x 3.248590 0.000000 0.033590 
#    y 0.000000 3.430080 0.000000 
#    z 0.033590 0.000000 3.555770 
# 
# 
# High freq. dielectric constant tensor:
#      x y z
#    x 1.698470 0.000000 -0.001390 
#    y 0.000000 1.715170 0.000000 
#    z -0.001390 0.000000 1.721070 
# 
# From -- ./inp_files/281252.got.cif
#   From: 2010.06.25/outbox.cif.g09.slc.cpg/sg12_141_cif.got.tgz:281252.got - 2010.06.28 00:19:55.
