data_PCOD8098192
_publ_section_title
;
Structure prediction by ZEFSAII (Michael W. Deem and Ramdas Pophale) SiO2 
 PCOD8098192
Probable space group: C 2/M
;
_chemical_formula_sum "Si O2"
_cell_formula_units_Z 64
_cell_length_a 8.748444
_cell_length_b 26.796332
_cell_length_c 19.353590
_cell_angle_alpha 90.000000
_cell_angle_beta 43.152213
_cell_angle_gamma 90.000000
_cell_volume 3103.022999
_symmetry_space_group_name_H-M "C 2/M"
_symmetry_group_IT_number 12
_symmetry_cell_setting 'monoclinic'
loop_
_space_group_symop_operation_xyz
x,y,z
-x,y,-z
-x,-y,-z
x,-y,z
1/2+x,1/2+y,z
1/2-x,1/2+y,-z
1/2-x,1/2-y,-z
1/2+x,1/2-y,z
loop_
_atom_site_type_symbol
_atom_site_label
_atom_site_fract_x
_atom_site_fract_y
_atom_site_fract_z
Si Si1 0.149595 0.151011 0.386359
Si Si2 0.654784 0.942077 0.389109
Si Si3 0.617713 0.141792 0.031289
Si Si4 0.618780 0.886033 0.264618
Si Si5 0.985889 0.193872 0.166139
Si Si6 0.407192 0.555954 0.678823
Si Si7 0.102837 0.556603 0.131375
Si Si8 0.256905 0.704614 0.779677
O O1 0.409866 0.150569 0.321111
O O2 0.070762 0.095390 0.390733
O O3 0.122043 0.190200 0.332205
O O4 0.000000 0.169571 0.500000
O O5 0.500000 0.918774 0.500000
O O6 0.567755 0.919238 0.347358
O O7 0.914864 0.930704 0.319989
O O8 0.607968 0.000000 0.397903
O O9 0.716775 0.092306 0.035945
O O10 0.441741 0.165350 0.142757
O O11 0.500000 0.124343 0.000000
O O12 0.803249 0.183789 0.953677
O O13 0.666453 0.923152 0.185621
O O14 0.836872 0.854795 0.209602
O O15 0.059874 0.202391 0.220472
O O16 0.845994 0.240529 0.185680
O O17 0.452889 0.500000 0.634295
O O18 0.163620 0.558736 0.793392
O O19 0.192768 0.500000 0.093528
#
# Coordination Sequence:
#
# PCOD8098192 Si02
#       8
#     8   8   8   8   8   8   8   8
#     4  11  22  39  63  90 128 169 208 257 313 378
#     4  10  20  34  55  87 124 166 218 265 313 373
#     4  10  22  41  67  95 122 165 209 261 317 378
#     4  11  22  38  59  92 129 167 209 260 321 369
#     4  11  25  41  70  91 122 163 211 264 327 377
#     4   9  18  34  59  84 120 169 212 258 310 371
#     4  10  21  40  63  90 130 170 212 260 314 381
#     4  11  22  45  63  95 125 159 211 266 317 376
#
# _framework density 20.625048
#
# number of rings (size 3 to 8) (size 9 to 14) (size 15 to 20)
#    0.000    1.625    2.500    3.000    1.750    1.500 
#    0.000    5.000    0.000    0.000    0.000    0.000 
#    0.000    0.000    0.000    0.000    0.000    0.000 
#
# Total GULP energy -396862.291779 kJ/mol
# GULP energy per Si atom -12401.946618 kJ/mol
# Density = 2.057810 g / cm^3
# Si number density = 20.625048 Si / 1000 Ang^3
#
#
#
# Elastic Constant Matrix: (Units=GPa)
#
#
# Indices 1 2 3 4 5 6 
#
# 1 108.2358 41.5400 32.0117 0.0000 9.9624 0.0000
# 2 41.5400 106.0287 36.7017 0.0000 15.4240 0.0000
# 3 32.0117 36.7017 84.0252 0.0000 27.7218 0.0000
# 4 0.0000 0.0000 0.0000 22.9883 0.0000 -2.2387
# 5 9.9624 15.4240 27.7218 0.0000 31.8927 0.0000
# 6 0.0000 0.0000 0.0000 -2.2387 0.0000 33.8473
#
#
#
# Elastic Compliance Matrix: (Units=1/GPa)
#
#
# Indices 1 2 3 4 5 6 
#
# 1 0.011430 -0.003530 -0.003082 0.000000 0.000815 0.000000
# 2 -0.003530 0.012262 -0.003391 0.000000 -0.001880 0.000000
# 3 -0.003082 -0.003391 0.019205 0.000000 -0.014091 0.000000
# 4 0.000000 0.000000 0.000000 0.043782 0.000000 0.002896
# 5 0.000815 -0.001880 -0.014091 0.000000 0.044258 0.000000
# 6 0.000000 0.000000 0.000000 0.002896 0.000000 0.029736
#
#
# Mechanical properties :
#
#
# Convention : Reuss Voigt Hill
#
# Bulk Modulus (GPa) = 43.68313 57.64406 50.66359
# Shear Modulus (GPa) = 26.55209 30.28142 28.41675
#
# Velocity S-wave (km/s) = 3.59189 3.83585 3.71587
# Velocity P-wave (km/s) = 6.19902 6.90127 6.55955
#
# Compressibility (1/GPa) = 0.02289213
#
# Stress axis : x y z
#
# Youngs Moduli (GPa) = 87.48667 81.55562 52.06903
#
# Poissons Ratio (x) = 0.28789 0.16047
# Poissons Ratio (y) = 0.30883 0.17655
# Poissons Ratio (z) = 0.26962 0.27653
#
# Static dielectric constant tensor:
#      x y z
#    x 3.778160 0.000000 -0.013010 
#    y 0.000000 3.735550 0.000000 
#    z -0.013010 0.000000 3.629040 
# 
# 
# High freq. dielectric constant tensor:
#      x y z
#    x 1.816410 0.000000 0.002590 
#    y 0.000000 1.804560 0.000000 
#    z 0.002590 0.000000 1.790620 
# 
# From -- ./inp_files/260305.got.cif
#   From: 2010.06.25/outbox.cif.g09.slc.cpg/sg12_131_cif.got.tgz:260305.got - 2010.06.28 00:19:55.
