data_PCOD8098738
_publ_section_title
;
Structure prediction by ZEFSAII (Michael W. Deem and Ramdas Pophale) SiO2 
 PCOD8098738
Probable space group: C 2/M
;
_chemical_formula_sum "Si O2"
_cell_formula_units_Z 56
_cell_length_a 21.976914
_cell_length_b 8.821219
_cell_length_c 18.011317
_cell_angle_alpha 90.000000
_cell_angle_beta 59.197828
_cell_angle_gamma 90.000000
_cell_volume 2999.189149
_symmetry_space_group_name_H-M "C 2/M"
_symmetry_group_IT_number 12
_symmetry_cell_setting 'monoclinic'
loop_
_space_group_symop_operation_xyz
x,y,z
-x,y,-z
-x,-y,-z
x,-y,z
1/2+x,1/2+y,z
1/2-x,1/2+y,-z
1/2-x,1/2-y,-z
1/2+x,1/2-y,z
loop_
_atom_site_type_symbol
_atom_site_label
_atom_site_fract_x
_atom_site_fract_y
_atom_site_fract_z
Si Si1 0.797732 0.171110 0.259982
Si Si2 0.794425 0.673056 0.537922
Si Si3 0.816726 0.175328 0.919724
Si Si4 0.424856 0.823256 0.122683
Si Si5 0.418130 0.678355 0.551354
Si Si6 0.572662 0.323333 0.028230
Si Si7 0.322535 0.322400 0.748763
O O1 0.759468 0.184610 0.361371
O O2 0.866395 0.279038 0.220071
O O3 0.746824 0.228306 0.227184
O O4 0.821004 0.000000 0.227498
O O5 0.811423 0.500000 0.505567
O O6 0.750000 0.750000 0.500000
O O7 0.869519 0.749431 0.515687
O O8 0.884721 0.216398 0.925091
O O9 0.838079 0.228626 0.823389
O O10 0.798881 0.000000 0.929530
O O11 0.750000 0.250000 0.000000
O O12 0.493306 0.724002 0.096727
O O13 0.442915 0.000000 0.114701
O O14 0.396235 0.776005 0.059042
O O15 0.500000 0.737710 0.500000
O O16 0.416825 0.500000 0.537238
O O17 0.386733 0.719821 0.652444
O O18 0.576483 0.500000 0.004647
O O19 0.305561 0.500000 0.752363
#
# Coordination Sequence:
#
# PCOD8098738 Si02
#       7
#     8   8   8   8   8   8   8
#     4  10  20  35  55  79 104 138 177 216 265 320
#     4  10  21  37  58  83 113 144 183 231 280 334
#     4  10  21  34  51  75 104 139 175 217 263 309
#     4  11  21  34  53  76 102 137 178 221 268 316
#     4   9  18  35  59  84 112 148 186 225 278 338
#     4  10  20  35  52  73 105 141 178 219 262 314
#     4   9  18  34  54  78 107 138 176 219 262 317
#
# _framework density 18.671714000000001
#
# number of rings (size 3 to 8) (size 9 to 14) (size 15 to 20)
#    0.000    2.143    0.000    4.286    0.000    6.000 
#    2.571    0.000    0.000    0.000    0.000    0.000 
#    0.000    0.000    0.000    0.000    0.000    0.000 
#
# Total GULP energy -347071.372962 kJ/mol
# GULP energy per Si atom -12395.406177 kJ/mol
# Density = 1.862922 g / cm^3
# Si number density = 18.671714 Si / 1000 Ang^3
#
#
#
# Elastic Constant Matrix: (Units=GPa)
#
#
# Indices 1 2 3 4 5 6 
#
# 1 119.0506 40.0316 59.5246 0.0000 11.5488 0.0001
# 2 40.0316 55.4864 23.9121 0.0000 3.4365 0.0003
# 3 59.5246 23.9121 76.0880 0.0000 -2.6576 0.0000
# 4 0.0000 0.0000 0.0000 26.7673 0.0000 -2.8908
# 5 11.5488 3.4365 -2.6576 0.0000 35.3000 0.0000
# 6 0.0001 0.0003 0.0000 -2.8908 0.0000 30.3235
#
#
#
# Elastic Compliance Matrix: (Units=1/GPa)
#
#
# Indices 1 2 3 4 5 6 
#
# 1 0.016934 -0.007020 -0.011241 0.000000 -0.005703 0.000000
# 2 -0.007020 0.023983 -0.002052 0.000000 -0.000193 0.000000
# 3 -0.011241 -0.002052 0.022777 0.000000 0.005592 0.000000
# 4 0.000000 0.000000 0.000000 0.037748 0.000000 0.003599
# 5 -0.005703 -0.000193 0.005592 0.000000 0.030634 0.000000
# 6 0.000000 0.000000 0.000000 0.003599 0.000000 0.033321
#
#
# Mechanical properties :
#
#
# Convention : Reuss Voigt Hill
#
# Bulk Modulus (GPa) = 43.34933 55.28463 49.31698
# Shear Modulus (GPa) = 23.39611 26.95527 25.17569
#
# Velocity S-wave (km/s) = 3.54365 3.80365 3.67595
# Velocity P-wave (km/s) = 6.32536 6.99738 6.66984
#
# Compressibility (1/GPa) = 0.02306841
#
# Stress axis : x y z
#
# Youngs Moduli (GPa) = 59.05407 41.69562 43.90476
#
# Poissons Ratio (x) = 0.29269 0.49351
# Poissons Ratio (y) = 0.41454 0.09011
# Poissons Ratio (z) = 0.66380 0.08557
#
# Static dielectric constant tensor:
#      x y z
#    x 3.442290 0.000000 0.182400 
#    y 0.000000 3.380920 0.000000 
#    z 0.182400 0.000000 3.404970 
# 
# 
# High freq. dielectric constant tensor:
#      x y z
#    x 1.724880 0.000000 -0.003750 
#    y 0.000000 1.727910 0.000000 
#    z -0.003750 0.000000 1.723410 
# 
# From -- ./inp_files/280946.got.cif
#   From: 2010.06.25/outbox.cif.g09.slc.cpg/sg12_141_cif.got.tgz:280946.got - 2010.06.28 00:19:55.
