data_PCOD8098344
_publ_section_title
;
Structure prediction by ZEFSAII (Michael W. Deem and Ramdas Pophale) SiO2 
 PCOD8098344
Probable space group: C 2/M
;
_chemical_formula_sum "Si O2"
_cell_formula_units_Z 56
_cell_length_a 28.430283
_cell_length_b 8.820881
_cell_length_c 19.598410
_cell_angle_alpha 90.000000
_cell_angle_beta 36.787920
_cell_angle_gamma 90.000000
_cell_volume 2943.306520
_symmetry_space_group_name_H-M "C 2/M"
_symmetry_group_IT_number 12
_symmetry_cell_setting 'monoclinic'
loop_
_space_group_symop_operation_xyz
x,y,z
-x,y,-z
-x,-y,-z
x,-y,z
1/2+x,1/2+y,z
1/2-x,1/2+y,-z
1/2-x,1/2-y,-z
1/2+x,1/2-y,z
loop_
_atom_site_type_symbol
_atom_site_label
_atom_site_fract_x
_atom_site_fract_y
_atom_site_fract_z
Si Si1 0.377974 0.826206 0.431221
Si Si2 0.752485 0.322706 0.330191
Si Si3 0.056811 0.325059 0.229741
Si Si4 0.701607 0.678381 0.117830
Si Si5 0.222986 0.825622 0.839904
Si Si6 0.055670 0.825784 0.087201
Si Si7 0.398898 0.177039 0.250958
O O1 0.322588 0.713585 0.536602
O O2 0.466364 0.800941 0.355599
O O3 0.372443 0.781354 0.358244
O O4 0.351426 0.000000 0.472986
O O5 0.754000 0.500000 0.311989
O O6 0.745659 0.229208 0.268994
O O7 0.830745 0.272040 0.279061
O O8 0.080953 0.500000 0.205601
O O9 0.111001 0.231168 0.218706
O O10 0.072339 0.271888 0.134813
O O11 0.706397 0.500000 0.104956
O O12 0.735660 0.727240 0.150456
O O13 0.750000 0.750000 0.000000
O O14 0.246613 0.000000 0.823338
O O15 0.128947 0.804001 0.951368
O O16 0.977613 0.767895 0.139413
O O17 0.045196 0.000000 0.121124
O O18 0.418298 0.000000 0.223307
#
# Coordination Sequence:
#
# PCOD8098344 Si02
#       7
#     8   8   8   8   8   8   8
#     4   9  19  37  60  85 114 151 192 236 286 339
#     4  11  23  38  57  83 115 155 196 239 289 342
#     4  10  20  36  60  88 118 149 186 237 290 338
#     4  12  23  37  61  90 118 150 189 233 283 340
#     4  11  24  40  57  82 118 155 192 237 289 344
#     4  10  20  34  56  85 114 148 192 239 287 339
#     4   9  20  37  58  84 115 151 193 238 291 343
#
# _framework density 19.026222000000001
#
# number of rings (size 3 to 8) (size 9 to 14) (size 15 to 20)
#    0.000    1.714    1.429    4.286    0.000    6.286 
#    0.000    3.571    0.000    4.286    0.000    0.000 
#    0.000    0.000    0.000    0.000    0.000    0.000 
#
# Total GULP energy -347330.345241 kJ/mol
# GULP energy per Si atom -12404.655187 kJ/mol
# Density = 1.898292 g / cm^3
# Si number density = 19.026222 Si / 1000 Ang^3
#
#
#
# Elastic Constant Matrix: (Units=GPa)
#
#
# Indices 1 2 3 4 5 6 
#
# 1 111.6576 48.2528 33.9062 -0.0009 -4.7918 -0.0001
# 2 48.2528 109.0043 28.8149 0.0151 -5.6662 -0.0084
# 3 33.9062 28.8149 37.0138 0.0042 0.7834 -0.0006
# 4 -0.0009 0.0151 0.0042 32.0452 -0.0016 -3.3392
# 5 -4.7918 -5.6662 0.7834 -0.0016 23.4268 0.0021
# 6 -0.0001 -0.0084 -0.0006 -3.3392 0.0021 32.8722
#
#
#
# Elastic Compliance Matrix: (Units=1/GPa)
#
#
# Indices 1 2 3 4 5 6 
#
# 1 0.013439 -0.003226 -0.009848 0.000003 0.002298 -0.000001
# 2 -0.003226 0.012555 -0.006873 -0.000005 0.002606 0.000002
# 3 -0.009848 -0.006873 0.041496 -0.000003 -0.005064 -0.000001
# 4 0.000003 -0.000005 -0.000003 0.031540 0.000001 0.003204
# 5 0.002298 0.002606 -0.005064 0.000001 0.043956 -0.000002
# 6 -0.000001 0.000002 -0.000001 0.003204 -0.000002 0.030746
#
#
# Mechanical properties :
#
#
# Convention : Reuss Voigt Hill
#
# Bulk Modulus (GPa) = 36.23879 53.29153 44.76516
# Shear Modulus (GPa) = 22.43913 27.44897 24.94405
#
# Velocity S-wave (km/s) = 3.43793 3.80240 3.62475
# Velocity P-wave (km/s) = 5.90316 6.88099 6.41074
#
# Compressibility (1/GPa) = 0.02759474
#
# Stress axis : x y z
#
# Youngs Moduli (GPa) = 74.40866 79.65196 24.09878
#
# Poissons Ratio (x) = 0.25700 0.23732
# Poissons Ratio (y) = 0.24008 0.16564
# Poissons Ratio (z) = 0.73276 0.54747
#
# Static dielectric constant tensor:
#      x y z
#    x 3.637120 0.000000 -0.242490 
#    y 0.000000 3.542680 0.000010 
#    z -0.242490 0.000010 3.379630 
# 
# 
# High freq. dielectric constant tensor:
#      x y z
#    x 1.739860 0.000000 -0.015670 
#    y 0.000000 1.750430 0.000000 
#    z -0.015670 0.000000 1.728510 
# 
# From -- ./inp_files/292391.got.cif
#   From: 2010.06.25/outbox.cif.g09.slc.cpg/sg12_147_cif.got.tgz:292391.got - 2010.06.28 00:19:55.
