data_PCOD8098356
_publ_section_title
;
Structure prediction by ZEFSAII (Michael W. Deem and Ramdas Pophale) SiO2 
 PCOD8098356
Probable space group: C 2/M
;
_chemical_formula_sum "Si O2"
_cell_formula_units_Z 56
_cell_length_a 9.477194
_cell_length_b 17.530610
_cell_length_c 27.459934
_cell_angle_alpha 90.000000
_cell_angle_beta 141.275667
_cell_angle_gamma 90.000000
_cell_volume 2854.006825
_symmetry_space_group_name_H-M "C 2/M"
_symmetry_group_IT_number 12
_symmetry_cell_setting 'monoclinic'
loop_
_space_group_symop_operation_xyz
x,y,z
-x,y,-z
-x,-y,-z
x,-y,z
1/2+x,1/2+y,z
1/2-x,1/2+y,-z
1/2-x,1/2-y,-z
1/2+x,1/2-y,z
loop_
_atom_site_type_symbol
_atom_site_label
_atom_site_fract_x
_atom_site_fract_y
_atom_site_fract_z
Si Si1 0.019988 0.909994 0.728244
Si Si2 0.740366 0.410841 0.433353
Si Si3 0.019008 0.327900 0.145563
Si Si4 0.720106 0.409000 0.533462
Si Si5 0.219584 0.170594 0.162130
Si Si6 0.851552 0.084604 0.007587
Si Si7 0.661661 0.090561 0.709417
O O1 0.280268 0.888178 0.795784
O O2 0.896410 0.872493 0.647932
O O3 0.889160 0.883287 0.742069
O O4 0.999372 0.000000 0.720282
O O5 0.687521 0.500000 0.417875
O O6 0.677023 0.375176 0.468189
O O7 0.000000 0.393247 0.500000
O O8 0.887202 0.318478 0.161299
O O9 0.126293 0.250340 0.155798
O O10 0.856849 0.359618 0.059453
O O11 0.500000 0.377603 0.500000
O O12 0.734507 0.500000 0.535483
O O13 0.947711 0.379650 0.620658
O O14 0.352095 0.129550 0.241450
O O15 0.002547 0.119424 0.091082
O O16 0.767078 0.000000 0.000690
O O17 0.000000 0.076374 0.000000
O O18 0.651977 0.000000 0.714447
#
# Coordination Sequence:
#
# PCOD8098356 Si02
#       7
#     8   8   8   8   8   8   8
#     4  10  20  34  56  85 117 150 192 241 287 340
#     4   9  15  28  49  76 110 149 186 230 290 338
#     4  11  23  39  60  84 115 155 193 230 279 341
#     4   9  17  28  47  78 114 147 186 237 286 337
#     4  11  23  39  60  83 116 156 191 231 281 339
#     4   9  19  38  63  91 117 142 182 233 282 334
#     4  10  20  35  55  84 119 151 189 241 291 335
#
# _framework density 19.621537
#
# number of rings (size 3 to 8) (size 9 to 14) (size 15 to 20)
#    0.000    2.143    1.429    2.143    2.000    1.714 
#    0.000    2.143    0.000    6.857    0.000    0.000 
#    0.000    0.000    0.000    0.000    0.000    0.000 
#
# Total GULP energy -347034.902841 kJ/mol
# GULP energy per Si atom -12394.103673 kJ/mol
# Density = 1.957688 g / cm^3
# Si number density = 19.621537 Si / 1000 Ang^3
#
#
#
# Elastic Constant Matrix: (Units=GPa)
#
#
# Indices 1 2 3 4 5 6 
#
# 1 127.0971 23.5359 35.3942 -0.0004 4.2696 0.0000
# 2 23.5359 39.9038 11.8276 -0.0005 -0.0368 0.0000
# 3 35.3942 11.8276 94.4824 -0.0018 0.7899 0.0002
# 4 -0.0004 -0.0005 -0.0018 7.8200 -0.0004 -2.5114
# 5 4.2696 -0.0368 0.7899 -0.0004 36.1387 0.0000
# 6 0.0000 0.0000 0.0002 -2.5114 0.0000 24.6893
#
#
#
# Elastic Compliance Matrix: (Units=1/GPa)
#
#
# Indices 1 2 3 4 5 6 
#
# 1 0.009626 -0.004790 -0.002997 -0.000001 -0.001077 0.000000
# 2 -0.004790 0.028410 -0.001767 0.000001 0.000633 0.000000
# 3 -0.002997 -0.001767 0.011927 0.000003 0.000092 0.000000
# 4 -0.000001 0.000001 0.000003 0.132196 0.000001 0.013447
# 5 -0.001077 0.000633 0.000092 0.000001 0.027797 0.000000
# 6 0.000000 0.000000 0.000000 0.013447 0.000000 0.041871
#
#
# Mechanical properties :
#
#
# Convention : Reuss Voigt Hill
#
# Bulk Modulus (GPa) = 32.41107 44.77763 38.59435
# Shear Modulus (GPa) = 17.77959 26.44464 22.11212
#
# Velocity S-wave (km/s) = 3.01346 3.67513 3.36062
# Velocity P-wave (km/s) = 5.35368 6.39367 5.89665
#
# Compressibility (1/GPa) = 0.03085366
#
# Stress axis : x y z
#
# Youngs Moduli (GPa) = 103.88645 35.19899 83.84128
#
# Poissons Ratio (x) = 0.16861 0.25130
# Poissons Ratio (y) = 0.49762 0.14817
# Poissons Ratio (z) = 0.31138 0.06221
#
# Static dielectric constant tensor:
#      x y z
#    x 3.630980 0.000000 -0.070840 
#    y 0.000000 3.262410 0.000000 
#    z -0.070840 0.000000 3.947020 
# 
# 
# High freq. dielectric constant tensor:
#      x y z
#    x 1.766760 0.000000 -0.004000 
#    y 0.000000 1.729610 0.000000 
#    z -0.004000 0.000000 1.779650 
# 
# From -- ./inp_files/257219.got.cif
#   From: 2010.06.25/outbox.cif.g09.slc.cpg/sg12_129_cif.got.tgz:257219.got - 2010.06.28 00:19:55.
