data_PCOD8098383
_publ_section_title
;
Structure prediction by ZEFSAII (Michael W. Deem and Ramdas Pophale) SiO2 
 PCOD8098383
Probable space group: C 2/M
;
_chemical_formula_sum "Si O2"
_cell_formula_units_Z 56
_cell_length_a 19.476746
_cell_length_b 13.711300
_cell_length_c 16.244955
_cell_angle_alpha 90.000000
_cell_angle_beta 42.101547
_cell_angle_gamma 90.000000
_cell_volume 2908.558297
_symmetry_space_group_name_H-M "C 2/M"
_symmetry_group_IT_number 12
_symmetry_cell_setting 'monoclinic'
loop_
_space_group_symop_operation_xyz
x,y,z
-x,y,-z
-x,-y,-z
x,-y,z
1/2+x,1/2+y,z
1/2-x,1/2+y,-z
1/2-x,1/2-y,-z
1/2+x,1/2-y,z
loop_
_atom_site_type_symbol
_atom_site_label
_atom_site_fract_x
_atom_site_fract_y
_atom_site_fract_z
Si Si1 0.910654 0.388870 0.245690
Si Si2 0.261107 0.261610 0.850053
Si Si3 0.604084 0.788574 0.126257
Si Si4 0.384042 0.385085 0.617159
Si Si5 0.194490 0.887447 0.483675
Si Si6 0.455833 0.385835 0.243731
Si Si7 0.896543 0.786802 0.139921
O O1 0.910881 0.500000 0.213972
O O2 0.815090 0.371026 0.393378
O O3 0.901211 0.322288 0.173044
O O4 0.012084 0.365795 0.207485
O O5 0.333172 0.195591 0.844896
O O6 0.335381 0.340367 0.742470
O O7 0.201584 0.199790 0.832711
O O8 0.176843 0.312610 0.983708
O O9 0.559922 0.677809 0.156017
O O10 0.500000 0.351369 0.500000
O O11 0.375223 0.500000 0.636185
O O12 0.324830 0.344076 0.590013
O O13 0.120956 0.842456 0.618334
O O14 0.163842 0.000000 0.508889
O O15 0.483400 0.500000 0.228305
O O16 0.393452 0.367360 0.214845
O O17 0.000000 0.807277 0.000000
#
# Coordination Sequence:
#
# PCOD8098383 Si02
#       7
#     8   8   8   8   8   8   8
#     4  10  20  37  59  85 114 147 185 231 288 344
#     4  11  21  39  53  81 121 146 186 236 280 333
#     4  10  23  38  57  80 119 154 189 235 277 348
#     4  10  20  34  56  86 118 148 186 237 293 346
#     4   9  18  33  56  85 112 143 188 235 281 339
#     4  10  21  39  60  83 114 153 194 240 284 326
#     4  11  21  38  58  86 115 145 192 240 277 345
#
# _framework density 19.253523999999999
#
# number of rings (size 3 to 8) (size 9 to 14) (size 15 to 20)
#    0.000    1.857    4.286    0.857    0.000    5.143 
#    2.571    2.857    0.000    0.000    0.000    3.000 
#    0.000    0.000    0.000    0.000    0.000    0.000 
#
# Total GULP energy -347031.151798 kJ/mol
# GULP energy per Si atom -12393.969707 kJ/mol
# Density = 1.920970 g / cm^3
# Si number density = 19.253524 Si / 1000 Ang^3
#
#
#
# Elastic Constant Matrix: (Units=GPa)
#
#
# Indices 1 2 3 4 5 6 
#
# 1 127.9063 8.0159 42.7549 0.0000 -6.0237 0.0000
# 2 8.0159 52.0570 29.9475 0.0000 -2.1465 0.0000
# 3 42.7549 29.9475 153.3443 0.0000 -5.1106 0.0000
# 4 0.0000 0.0000 0.0000 21.9632 0.0000 -1.8665
# 5 -6.0237 -2.1465 -5.1106 0.0000 32.3154 0.0000
# 6 0.0000 0.0000 0.0000 -1.8665 0.0000 21.9292
#
#
#
# Elastic Compliance Matrix: (Units=1/GPa)
#
#
# Indices 1 2 3 4 5 6 
#
# 1 0.008671 0.000094 -0.002395 0.000000 0.001244 0.000000
# 2 0.000094 0.021661 -0.004230 0.000000 0.000787 0.000000
# 3 -0.002395 -0.004230 0.008033 0.000000 0.000543 0.000000
# 4 0.000000 0.000000 0.000000 0.045862 0.000000 0.003903
# 5 0.001244 0.000787 0.000543 0.000000 0.031315 0.000000
# 6 0.000000 0.000000 0.000000 0.003903 0.000000 0.045934
#
#
# Mechanical properties :
#
#
# Convention : Reuss Voigt Hill
#
# Bulk Modulus (GPa) = 39.52022 54.97157 47.24589
# Shear Modulus (GPa) = 27.32633 32.08085 29.70359
#
# Velocity S-wave (km/s) = 3.77143 4.08638 3.93206
# Velocity P-wave (km/s) = 6.28774 7.13289 6.72361
#
# Compressibility (1/GPa) = 0.02530350
#
# Stress axis : x y z
#
# Youngs Moduli (GPa) = 115.32225 46.16519 124.48407
#
# Poissons Ratio (x) = -0.00432 0.29808
# Poissons Ratio (y) = -0.01079 0.52660
# Poissons Ratio (z) = 0.27614 0.19529
#
# Static dielectric constant tensor:
#      x y z
#    x 3.725020 0.000000 -0.009560 
#    y 0.000000 3.139880 0.000000 
#    z -0.009560 0.000000 3.755690 
# 
# 
# High freq. dielectric constant tensor:
#      x y z
#    x 1.755480 0.000000 -0.006940 
#    y 0.000000 1.706320 0.000000 
#    z -0.006940 0.000000 1.766630 
# 
# From -- ./inp_files/233681.got.cif
#   From: 2010.06.25/outbox.cif.g09.slc.cpg/sg12_117_cif.got.tgz:233681.got - 2010.06.28 00:19:55.
