data_PCOD8098670
_publ_section_title
;
Structure prediction by ZEFSAII (Michael W. Deem and Ramdas Pophale) SiO2 
 PCOD8098670
Probable space group: C 2/M
;
_chemical_formula_sum "Si O2"
_cell_formula_units_Z 44
_cell_length_a 21.173301
_cell_length_b 11.896807
_cell_length_c 7.225737
_cell_angle_alpha 90.000000
_cell_angle_beta 71.016322
_cell_angle_gamma 90.000000
_cell_volume 1721.130431
_symmetry_space_group_name_H-M "C 2/M"
_symmetry_group_IT_number 12
_symmetry_cell_setting 'monoclinic'
loop_
_space_group_symop_operation_xyz
x,y,z
-x,y,-z
-x,-y,-z
x,-y,z
1/2+x,1/2+y,z
1/2-x,1/2+y,-z
1/2-x,1/2-y,-z
1/2+x,1/2-y,z
loop_
_atom_site_type_symbol
_atom_site_label
_atom_site_fract_x
_atom_site_fract_y
_atom_site_fract_z
Si Si1 0.403613 0.740297 0.885408
Si Si2 0.269061 0.500000 0.710994
Si Si3 0.039182 0.773118 0.657086
Si Si4 0.890792 0.000000 0.313730
Si Si5 0.153236 0.367309 0.398356
Si Si6 0.869929 0.000000 0.907149
Si Si7 0.775454 0.737095 0.186008
O O1 0.480926 0.769570 0.856717
O O2 0.371901 0.833918 0.781844
O O3 0.405026 0.613501 0.794429
O O4 0.354746 0.730458 0.112824
O O5 0.330705 0.500000 0.514027
O O6 0.225391 0.611708 0.727747
O O7 0.294766 0.500000 0.898877
O O8 0.101447 0.686897 0.593977
O O9 0.000000 0.775922 0.500000
O O10 0.062231 0.893842 0.701074
O O11 0.862687 0.000000 0.133862
O O12 0.155911 0.500000 0.423316
O O13 0.228138 0.316693 0.357983
O O14 0.750000 0.750000 0.000000
#
# Coordination Sequence:
#
# PCOD8098670 Si02
#       7
#     8   4   8   4   8   4   8
#     4  10  22  34  58  93 126 167 215 268 323 390
#     4  12  20  44  68  99 134 170 219 284 331 391
#     4  10  20  39  59  93 135 167 217 277 324 389
#     4  12  24  41  70 100 132 174 222 275 339 398
#     4  10  20  34  61  93 127 173 219 265 324 395
#     4  12  23  41  67 104 131 174 218 278 343 383
#     4  10  20  34  64  93 124 168 219 266 330 387
#
# _framework density 25.564592000000001
#
# number of rings (size 3 to 8) (size 9 to 14) (size 15 to 20)
#    0.000    1.455    5.455    1.909    6.364    4.727 
#    0.000    0.909    0.000    1.091    0.000    6.364 
#    0.000    0.000    0.000    0.000    0.000    0.000 
#
# Total GULP energy -272562.967010 kJ/mol
# GULP energy per Si atom -12389.225773 kJ/mol
# Density = 2.550641 g / cm^3
# Si number density = 25.564592 Si / 1000 Ang^3
#
#
#
# Elastic Constant Matrix: (Units=GPa)
#
#
# Indices 1 2 3 4 5 6 
#
# 1 56.7685 44.2623 101.8305 0.0000 -58.7899 0.0000
# 2 44.2623 200.8608 52.2504 0.0000 -40.2228 0.0000
# 3 101.8305 52.2504 85.1216 0.0000 -62.0874 0.0000
# 4 0.0000 0.0000 0.0000 15.0414 0.0000 -22.9438
# 5 -58.7899 -40.2228 -62.0874 0.0000 90.1730 0.0000
# 6 0.0000 0.0000 0.0000 -22.9438 0.0000 9.9319
#
#
#
# Elastic Compliance Matrix: (Units=1/GPa)
#
#
# Indices 1 2 3 4 5 6 
#
# 1 -0.013848 -0.001438 0.020884 0.000000 0.004710 0.000000
# 2 -0.001438 0.005779 -0.001267 0.000000 0.000768 0.000000
# 3 0.020884 -0.001267 -0.005904 0.000000 0.008985 0.000000
# 4 0.000000 0.000000 0.000000 -0.026343 0.000000 -0.060854
# 5 0.004710 0.000768 0.008985 0.000000 0.020690 0.000000
# 6 0.000000 0.000000 0.000000 -0.060854 0.000000 -0.039895
#
#
# Mechanical properties :
#
#
# Convention : Reuss Voigt Hill
#
# Bulk Modulus (GPa) = 44.67208 82.15972 63.41590
# Shear Modulus (GPa) = -56.54908 32.65644 -11.94632
#
# Velocity S-wave (km/s) = -4.70830 3.57796 -2.16406
# Velocity P-wave (km/s) = 3.47064 7.01975 4.31460
#
# Compressibility (1/GPa) = 0.02238535
#
# Stress axis : x y z
#
# Youngs Moduli (GPa) = -72.21168 173.04707 -169.36500
#
# Poissons Ratio (x) = 0.24884 3.53709
# Poissons Ratio (y) = -0.10384 -0.21456
# Poissons Ratio (z) = 1.50810 0.21923
#
# Static dielectric constant tensor:
#      x y z
#    x 5.036890 0.000000 -0.871300 
#    y 0.000000 4.625560 0.000000 
#    z -0.871300 0.000000 5.165380 
# 
# 
# High freq. dielectric constant tensor:
#      x y z
#    x 2.020390 0.000000 -0.019050 
#    y 0.000000 2.011330 0.000000 
#    z -0.019050 0.000000 2.028800 
# 
# From -- ./inp_files/94842.got.cif
#   From: 2010.06.25/outbox.cif.g09.slc.cpg/sg12_48_cif.got.tgz:94842.got - 2010.06.28 00:19:55.
