data_PCOD8098677
_publ_section_title
;
Structure prediction by ZEFSAII (Michael W. Deem and Ramdas Pophale) SiO2 
 PCOD8098677
Probable space group: C 2/M
;
_chemical_formula_sum "Si O2"
_cell_formula_units_Z 56
_cell_length_a 8.685514
_cell_length_b 13.338705
_cell_length_c 28.957353
_cell_angle_alpha 90.000000
_cell_angle_beta 52.713772
_cell_angle_gamma 90.000000
_cell_volume 2669.151732
_symmetry_space_group_name_H-M "C 2/M"
_symmetry_group_IT_number 12
_symmetry_cell_setting 'monoclinic'
loop_
_space_group_symop_operation_xyz
x,y,z
-x,y,-z
-x,-y,-z
x,-y,z
1/2+x,1/2+y,z
1/2-x,1/2+y,-z
1/2-x,1/2-y,-z
1/2+x,1/2-y,z
loop_
_atom_site_type_symbol
_atom_site_label
_atom_site_fract_x
_atom_site_fract_y
_atom_site_fract_z
Si Si1 0.166199 0.817445 0.440996
Si Si2 0.494693 0.671585 0.629290
Si Si3 0.192533 0.500000 0.528822
Si Si4 0.270915 0.000000 0.586696
Si Si5 0.185716 0.751247 0.174385
Si Si6 0.290230 0.386954 0.018885
Si Si7 0.101980 0.800628 0.092539
Si Si8 0.700993 0.876858 0.759702
O O1 0.379435 0.772324 0.395497
O O2 0.085000 0.855003 0.406845
O O3 0.196198 0.906788 0.470908
O O4 0.000000 0.752035 0.500000
O O5 0.647240 0.595284 0.623371
O O6 0.312745 0.670922 0.696042
O O7 0.198777 0.500000 0.473096
O O8 0.964113 0.500000 0.582575
O O9 0.188015 0.818349 0.127570
O O10 0.373511 0.680290 0.138511
O O11 0.191283 0.832141 0.214821
O O12 0.011197 0.671235 0.207041
O O13 0.233068 0.500000 0.042166
O O14 0.295573 0.374889 0.962272
O O15 0.500000 0.356692 0.000000
O O16 0.133202 0.314887 0.070572
O O17 0.696289 0.000000 0.760706
#
# Coordination Sequence:
#
# PCOD8098677 Si02
#       8
#     8   8   4   4   8   8   8   8
#     4  12  24  40  64  97 129 168 209 263 332 418
#     4  12  24  42  66  90 128 167 213 272 336 389
#     4  11  24  39  60  99 130 167 212 251 327 417
#     4  11  23  40  63  90 133 166 205 266 324 398
#     4  10  23  42  67  93 129 174 224 276 328 382
#     4  10  20  34  61  97 131 174 214 251 327 399
#     4  10  20  39  61  94 137 167 207 275 318 379
#     4  11  25  47  70  94 126 174 228 281 332 387
#
# _framework density 20.980447999999999
#
# number of rings (size 3 to 8) (size 9 to 14) (size 15 to 20)
#    0.000    1.143    3.571    2.786    2.000    3.429 
#    0.000    2.857    0.000    0.000    0.000    0.000 
#    0.000    0.000    0.000    0.000    0.000    0.000 
#
# Total GULP energy -346988.784799 kJ/mol
# GULP energy per Si atom -12392.456600 kJ/mol
# Density = 2.093270 g / cm^3
# Si number density = 20.980448 Si / 1000 Ang^3
#
#
#
# Elastic Constant Matrix: (Units=GPa)
#
#
# Indices 1 2 3 4 5 6 
#
# 1 103.7336 19.8875 35.1905 0.0000 11.0639 0.0000
# 2 19.8875 88.9511 26.8700 0.0001 -4.3828 0.0000
# 3 35.1905 26.8700 116.6560 0.0001 12.3308 0.0000
# 4 0.0000 0.0001 0.0001 23.0024 -0.0001 -3.7141
# 5 11.0639 -4.3828 12.3308 -0.0001 33.5367 0.0000
# 6 0.0000 0.0000 0.0000 -3.7141 0.0000 37.0213
#
#
#
# Elastic Compliance Matrix: (Units=1/GPa)
#
#
# Indices 1 2 3 4 5 6 
#
# 1 0.011208 -0.001855 -0.002640 0.000000 -0.002969 0.000000
# 2 -0.001855 0.012631 -0.002694 0.000000 0.003253 0.000000
# 3 -0.002640 -0.002694 0.010336 0.000000 -0.003281 0.000000
# 4 0.000000 0.000000 0.000000 0.044190 0.000000 0.004433
# 5 -0.002969 0.003253 -0.003281 0.000000 0.032429 0.000000
# 6 0.000000 0.000000 0.000000 0.004433 0.000000 0.027456
#
#
# Mechanical properties :
#
#
# Convention : Reuss Voigt Hill
#
# Bulk Modulus (GPa) = 50.51018 52.58185 51.54601
# Shear Modulus (GPa) = 31.40200 33.87159 32.63680
#
# Velocity S-wave (km/s) = 3.87295 4.02236 3.94836
# Velocity P-wave (km/s) = 6.64280 6.83295 6.73855
#
# Compressibility (1/GPa) = 0.01979799
#
# Stress axis : x y z
#
# Youngs Moduli (GPa) = 89.22266 79.17175 96.75038
#
# Poissons Ratio (x) = 0.14684 0.25541
# Poissons Ratio (y) = 0.16548 0.26061
# Poissons Ratio (z) = 0.23554 0.21326
#
# Static dielectric constant tensor:
#      x y z
#    x 4.114440 0.000000 -0.083590 
#    y 0.000000 3.374620 0.000000 
#    z -0.083590 0.000000 3.986930 
# 
# 
# High freq. dielectric constant tensor:
#      x y z
#    x 1.839730 0.000000 -0.004850 
#    y 0.000000 1.799070 0.000000 
#    z -0.004850 0.000000 1.830520 
# 
# From -- ./inp_files/372362.got.cif
#   From: 2010.06.25/outbox.cif.g09.slc.cpg/sg12_187_cif.got.tgz:372362.got - 2010.06.28 00:19:55.
