data_PCOD8098033
_publ_section_title
;
Structure prediction by ZEFSAII (Michael W. Deem and Ramdas Pophale) SiO2 
 PCOD8098033
Probable space group: C 2/M
;
_chemical_formula_sum "Si O2"
_cell_formula_units_Z 64
_cell_length_a 30.562472
_cell_length_b 8.911767
_cell_length_c 17.373347
_cell_angle_alpha 90.000000
_cell_angle_beta 42.580903
_cell_angle_gamma 90.000000
_cell_volume 3201.750027
_symmetry_space_group_name_H-M "C 2/M"
_symmetry_group_IT_number 12
_symmetry_cell_setting 'monoclinic'
loop_
_space_group_symop_operation_xyz
x,y,z
-x,y,-z
-x,-y,-z
x,-y,z
1/2+x,1/2+y,z
1/2-x,1/2+y,-z
1/2-x,1/2-y,-z
1/2+x,1/2-y,z
loop_
_atom_site_type_symbol
_atom_site_label
_atom_site_fract_x
_atom_site_fract_y
_atom_site_fract_z
Si Si1 0.866815 0.327361 0.560208
Si Si2 0.402428 0.172058 0.689690
Si Si3 0.073187 0.829821 0.108658
Si Si4 0.483667 0.823773 0.108665
Si Si5 0.651096 0.323309 0.669597
Si Si6 0.008862 0.170158 0.631373
Si Si7 0.181862 0.175648 0.077068
Si Si8 0.228806 0.175762 0.415313
O O1 0.868510 0.500000 0.532929
O O2 0.878859 0.306099 0.634266
O O3 0.920561 0.235637 0.443668
O O4 0.798230 0.254708 0.626574
O O5 0.476076 0.226277 0.607662
O O6 0.359771 0.281505 0.795704
O O7 0.395624 0.000000 0.725117
O O8 0.144591 0.777449 0.046028
O O9 0.046815 0.721490 0.076426
O O10 0.026940 0.821026 0.241701
O O11 0.075494 0.000000 0.073834
O O12 0.420760 0.739479 0.223303
O O13 0.471335 0.000000 0.132112
O O14 0.500000 0.777508 0.000000
O O15 0.649905 0.500000 0.686578
O O16 0.700329 0.244645 0.664514
O O17 0.678197 0.287095 0.549398
O O18 0.012897 0.000000 0.595796
O O19 0.191920 0.000000 0.063450
O O20 0.250000 0.250000 0.000000
O O21 0.236807 0.000000 0.391945
#
# Coordination Sequence:
#
# PCOD8098033 Si02
#       8
#     8   8   8   8   8   8   8   8
#     4  11  22  34  51  81 117 152 189 227 277 338
#     4  10  21  36  53  78 113 149 188 232 278 334
#     4   9  20  38  59  85 112 145 191 234 281 343
#     4  11  24  40  59  87 119 151 193 244 295 345
#     4  10  21  39  62  85 112 149 191 236 291 349
#     4  10  20  34  55  82 113 148 188 234 282 335
#     4  10  21  39  62  86 112 147 191 237 286 341
#     4  10  21  37  59  86 115 149 191 238 287 347
#
# _framework density 19.989068
#
# number of rings (size 3 to 8) (size 9 to 14) (size 15 to 20)
#    0.000    1.875    0.000    4.500    0.000   12.000 
#    2.250    0.000    0.000    0.000    0.000    0.000 
#    0.000    0.000    0.000    0.000    0.000    0.000 
#
# Total GULP energy -396780.041238 kJ/mol
# GULP energy per Si atom -12399.376289 kJ/mol
# Density = 1.994357 g / cm^3
# Si number density = 19.989068 Si / 1000 Ang^3
#
#
#
# Elastic Constant Matrix: (Units=GPa)
#
#
# Indices 1 2 3 4 5 6 
#
# 1 145.0710 67.2977 31.4737 -0.0019 -19.5644 0.0006
# 2 67.2977 102.0144 27.4532 -0.0148 -1.9341 0.0065
# 3 31.4737 27.4532 46.7513 -0.0051 -12.6663 0.0022
# 4 -0.0019 -0.0148 -0.0051 31.0308 0.0026 -4.9902
# 5 -19.5644 -1.9341 -12.6663 0.0026 23.7391 -0.0012
# 6 0.0006 0.0065 0.0022 -4.9902 -0.0012 40.0135
#
#
#
# Elastic Compliance Matrix: (Units=1/GPa)
#
#
# Indices 1 2 3 4 5 6 
#
# 1 0.011617 -0.007130 -0.001399 -0.000003 0.008246 0.000001
# 2 -0.007130 0.016225 -0.006969 0.000007 -0.008273 -0.000002
# 3 -0.001399 -0.006969 0.030344 0.000000 0.014469 0.000000
# 4 -0.000003 0.000007 0.000000 0.032886 -0.000006 0.004101
# 5 0.008246 -0.008273 0.014469 -0.000006 0.055967 0.000001
# 6 0.000001 -0.000002 0.000000 0.004101 0.000001 0.025503
#
#
# Mechanical properties :
#
#
# Convention : Reuss Voigt Hill
#
# Bulk Modulus (GPa) = 36.77949 60.69845 48.73897
# Shear Modulus (GPa) = 23.51828 30.13083 26.82456
#
# Velocity S-wave (km/s) = 3.43382 3.88669 3.66725
# Velocity P-wave (km/s) = 5.84476 7.11151 6.50903
#
# Compressibility (1/GPa) = 0.02718907
#
# Stress axis : x y z
#
# Youngs Moduli (GPa) = 86.08361 61.63373 32.95547
#
# Poissons Ratio (x) = 0.43948 0.04611
# Poissons Ratio (y) = 0.61382 0.22965
# Poissons Ratio (z) = 0.12045 0.42950
#
# Static dielectric constant tensor:
#      x y z
#    x 4.076500 0.000000 -0.258860 
#    y 0.000000 3.723700 0.000010 
#    z -0.258860 0.000010 3.423050 
# 
# 
# High freq. dielectric constant tensor:
#      x y z
#    x 1.796500 0.000000 -0.012050 
#    y 0.000000 1.791820 0.000000 
#    z -0.012050 0.000000 1.755070 
# 
# From -- ./inp_files/295661.got.cif
#   From: 2010.06.25/outbox.cif.g09.slc.cpg/sg12_148_cif.got.tgz:295661.got - 2010.06.28 00:19:55.
