data_PCOD8098115
_publ_section_title
;
Structure prediction by ZEFSAII (Michael W. Deem and Ramdas Pophale) SiO2 
 PCOD8098115
Probable space group: C 2/M
;
_chemical_formula_sum "Si O2"
_cell_formula_units_Z 56
_cell_length_a 14.876187
_cell_length_b 17.534703
_cell_length_c 11.228277
_cell_angle_alpha 90.000000
_cell_angle_beta 95.700579
_cell_angle_gamma 90.000000
_cell_volume 2914.406040
_symmetry_space_group_name_H-M "C 2/M"
_symmetry_group_IT_number 12
_symmetry_cell_setting 'monoclinic'
loop_
_space_group_symop_operation_xyz
x,y,z
-x,y,-z
-x,-y,-z
x,-y,z
1/2+x,1/2+y,z
1/2-x,1/2+y,-z
1/2-x,1/2-y,-z
1/2+x,1/2-y,z
loop_
_atom_site_type_symbol
_atom_site_label
_atom_site_fract_x
_atom_site_fract_y
_atom_site_fract_z
Si Si1 0.637336 0.656567 0.770106
Si Si2 0.149604 0.667678 0.820536
Si Si3 0.478167 0.915528 0.858234
Si Si4 0.025785 0.088543 0.134665
Si Si5 0.799063 0.911961 0.707390
Si Si6 0.605138 0.589596 0.523406
Si Si7 0.296007 0.088765 0.930947
O O1 0.657763 0.742549 0.808389
O O2 0.533389 0.636382 0.780909
O O3 0.653370 0.638747 0.633302
O O4 0.699344 0.602903 0.860186
O O5 0.206742 0.632904 0.719158
O O6 0.044331 0.642033 0.796712
O O7 0.191703 0.640427 0.950765
O O8 0.372485 0.890847 0.840526
O O9 0.492035 0.000000 0.805273
O O10 0.500000 0.916359 0.000000
O O11 0.130757 0.104565 0.175412
O O12 0.003151 0.000000 0.151093
O O13 0.000000 0.116595 0.000000
O O14 0.844165 0.885848 0.590178
O O15 0.773546 0.000000 0.699029
O O16 0.500000 0.610901 0.500000
O O17 0.616468 0.500000 0.552111
O O18 0.304282 0.000000 0.970629
#
# Coordination Sequence:
#
# PCOD8098115 Si02
#       7
#     8   8   8   8   8   8   8
#     4  12  23  34  55  87 120 148 179 235 291 339
#     4  11  22  34  54  85 120 148 179 230 295 342
#     4   8  16  33  56  77 104 150 197 227 258 324
#     4  10  20  34  55  84 114 145 183 233 286 335
#     4  10  20  36  60  82 108 150 195 235 271 331
#     4  10  20  39  62  81 106 150 201 230 266 335
#     4  10  20  37  59  81 112 153 195 230 266 330
#
# _framework density 19.214893
#
# number of rings (size 3 to 8) (size 9 to 14) (size 15 to 20)
#    0.000    1.857    1.429    4.714    0.000    4.571 
#    0.000    0.000    0.000    0.000    0.000    4.000 
#    0.000    0.000    0.000    0.000    0.000    0.000 
#
# Total GULP energy -347182.538164 kJ/mol
# GULP energy per Si atom -12399.376363 kJ/mol
# Density = 1.917116 g / cm^3
# Si number density = 19.214893 Si / 1000 Ang^3
#
#
#
# Elastic Constant Matrix: (Units=GPa)
#
#
# Indices 1 2 3 4 5 6 
#
# 1 79.3151 35.8814 21.2947 0.0000 -23.4895 0.0000
# 2 35.8814 79.4388 43.7727 0.0000 -5.2791 0.0000
# 3 21.2947 43.7727 89.0735 0.0000 -9.6130 0.0000
# 4 0.0000 0.0000 0.0000 20.9536 0.0000 -1.5346
# 5 -23.4895 -5.2791 -9.6130 0.0000 31.1978 0.0000
# 6 0.0000 0.0000 0.0000 -1.5346 0.0000 14.9539
#
#
#
# Elastic Compliance Matrix: (Units=1/GPa)
#
#
# Indices 1 2 3 4 5 6 
#
# 1 0.020610 -0.008906 0.000994 0.000000 0.014317 0.000000
# 2 -0.008906 0.021114 -0.008880 0.000000 -0.005869 0.000000
# 3 0.000994 -0.008880 0.015797 0.000000 0.004114 0.000000
# 4 0.000000 0.000000 0.000000 0.048086 0.000000 0.004935
# 5 0.014317 -0.005869 0.004114 0.000000 0.043108 0.000000
# 6 0.000000 0.000000 0.000000 0.004935 0.000000 0.067379
#
#
# Mechanical properties :
#
#
# Convention : Reuss Voigt Hill
#
# Bulk Modulus (GPa) = 41.77498 49.96944 45.87221
# Shear Modulus (GPa) = 19.40576 23.21296 21.30936
#
# Velocity S-wave (km/s) = 3.18139 3.47950 3.33378
# Velocity P-wave (km/s) = 5.93996 6.49651 6.22446
#
# Compressibility (1/GPa) = 0.02393778
#
# Stress axis : x y z
#
# Youngs Moduli (GPa) = 48.52045 47.36171 63.30371
#
# Poissons Ratio (x) = 0.42179 -0.06295
# Poissons Ratio (y) = 0.43211 0.56215
# Poissons Ratio (z) = -0.04825 0.42058
#
# Static dielectric constant tensor:
#      x y z
#    x 3.822020 0.000000 -0.131930 
#    y 0.000000 3.302800 0.000000 
#    z -0.131930 0.000000 3.369110 
# 
# 
# High freq. dielectric constant tensor:
#      x y z
#    x 1.757610 0.000000 -0.013450 
#    y 0.000000 1.731170 0.000000 
#    z -0.013450 0.000000 1.722140 
# 
# From -- ./inp_files/143728.got.cif
#   From: 2010.06.25/outbox.cif.g09.slc.cpg/sg12_72_cif.got.tgz:143728.got - 2010.06.28 00:19:55.
