data_PCOD8098024
_publ_section_title
;
Structure prediction by ZEFSAII (Michael W. Deem and Ramdas Pophale) SiO2 
 PCOD8098024
Probable space group: C 2/M
;
_chemical_formula_sum "Si O2"
_cell_formula_units_Z 48
_cell_length_a 18.734389
_cell_length_b 8.784090
_cell_length_c 24.066501
_cell_angle_alpha 90.000000
_cell_angle_beta 39.222247
_cell_angle_gamma 90.000000
_cell_volume 2504.339224
_symmetry_space_group_name_H-M "C 2/M"
_symmetry_group_IT_number 12
_symmetry_cell_setting 'monoclinic'
loop_
_space_group_symop_operation_xyz
x,y,z
-x,y,-z
-x,-y,-z
x,-y,z
1/2+x,1/2+y,z
1/2-x,1/2+y,-z
1/2-x,1/2-y,-z
1/2+x,1/2-y,z
loop_
_atom_site_type_symbol
_atom_site_label
_atom_site_fract_x
_atom_site_fract_y
_atom_site_fract_z
Si Si1 0.961367 0.322246 0.085438
Si Si2 0.967696 0.326546 0.577462
Si Si3 0.872593 0.177735 0.926491
Si Si4 0.779556 0.318824 0.771248
Si Si5 0.630486 0.173662 0.579104
Si Si6 0.563462 0.676602 0.236796
O O1 0.942750 0.500000 0.106954
O O2 0.845501 0.234928 0.166221
O O3 0.055220 0.260517 0.070211
O O4 0.000000 0.287399 0.000000
O O5 0.936104 0.500000 0.582790
O O6 0.858504 0.254337 0.673660
O O7 0.000000 0.242329 0.500000
O O8 0.074415 0.314193 0.552901
O O9 0.931618 0.205072 0.831776
O O10 0.863424 0.000000 0.946244
O O11 0.750000 0.250000 0.000000
O O12 0.785527 0.500000 0.771268
O O13 0.827984 0.255351 0.800141
O O14 0.750000 0.250000 0.500000
O O15 0.555106 0.256599 0.670837
O O16 0.644560 0.000000 0.589743
O O17 0.568914 0.500000 0.248561
#
# Coordination Sequence:
#
# PCOD8098024 Si02
#       6
#     8   8   8   8   8   8
#     4  11  24  40  58  82 113 148 184 226 279 336
#     4   8  16  32  53  77 106 140 178 220 267 320
#     4  11  24  40  60  85 112 146 187 232 283 337
#     4  10  20  35  58  85 111 145 187 229 278 332
#     4  10  20  34  55  82 111 147 188 232 282 333
#     4  10  21  38  58  81 112 149 188 232 283 336
#
# _framework density 19.166732
#
# number of rings (size 3 to 8) (size 9 to 14) (size 15 to 20)
#    0.000    2.000    0.000    4.500    0.000    9.333 
#    0.000    3.333    0.000   17.000    0.000    0.000 
#    0.000    0.000    0.000    0.000    0.000    0.000 
#
# Total GULP energy -297623.663853 kJ/mol
# GULP energy per Si atom -12400.985994 kJ/mol
# Density = 1.912311 g / cm^3
# Si number density = 19.166732 Si / 1000 Ang^3
#
#
#
# Elastic Constant Matrix: (Units=GPa)
#
#
# Indices 1 2 3 4 5 6 
#
# 1 107.5827 52.4675 62.3355 0.0000 -1.1240 0.0000
# 2 52.4675 100.2105 58.6362 0.0001 4.5521 -0.0001
# 3 62.3355 58.6362 114.1384 0.0000 -9.6993 0.0000
# 4 0.0000 0.0001 0.0000 34.3207 0.0000 -6.8603
# 5 -1.1240 4.5521 -9.6993 0.0000 40.8007 0.0000
# 6 0.0000 -0.0001 0.0000 -6.8603 0.0000 32.6416
#
#
#
# Elastic Compliance Matrix: (Units=1/GPa)
#
#
# Indices 1 2 3 4 5 6 
#
# 1 0.014809 -0.004247 -0.005951 0.000000 -0.000533 0.000000
# 2 -0.004247 0.015964 -0.006168 0.000000 -0.003364 0.000000
# 3 -0.005951 -0.006168 0.015538 0.000000 0.004218 0.000000
# 4 0.000000 0.000000 0.000000 0.030415 0.000000 0.006392
# 5 -0.000533 -0.003364 0.004218 0.000000 0.025873 0.000000
# 6 0.000000 0.000000 0.000000 0.006392 0.000000 0.031979
#
#
# Mechanical properties :
#
#
# Convention : Reuss Voigt Hill
#
# Bulk Modulus (GPa) = 73.63906 74.31223 73.97565
# Shear Modulus (GPa) = 29.09717 31.45208 30.27463
#
# Velocity S-wave (km/s) = 3.90052 4.05529 3.97865
# Velocity P-wave (km/s) = 7.66740 7.79633 7.73213
#
# Compressibility (1/GPa) = 0.01357975
#
# Stress axis : x y z
#
# Youngs Moduli (GPa) = 67.52540 62.63905 64.35628
#
# Poissons Ratio (x) = 0.26604 0.38300
# Poissons Ratio (y) = 0.28680 0.39693
# Poissons Ratio (z) = 0.40186 0.38634
#
# Static dielectric constant tensor:
#      x y z
#    x 3.657020 0.000000 0.216210 
#    y 0.000000 3.560300 0.000000 
#    z 0.216210 0.000000 3.770200 
# 
# 
# High freq. dielectric constant tensor:
#      x y z
#    x 1.745910 0.000000 0.001520 
#    y 0.000000 1.745340 0.000000 
#    z 0.001520 0.000000 1.761040 
# 
# From -- ./inp_files/365382.got.cif
#   From: 2010.06.25/outbox.cif.g09.slc.cpg/sg12_183_cif.got.tgz:365382.got - 2010.06.28 00:19:55.
