data_PCOD8098807
_publ_section_title
;
Structure prediction by ZEFSAII (Michael W. Deem and Ramdas Pophale) SiO2 
 PCOD8098807
Probable space group: C 2/M
;
_chemical_formula_sum "Si O2"
_cell_formula_units_Z 56
_cell_length_a 9.352893
_cell_length_b 18.196924
_cell_length_c 21.809259
_cell_angle_alpha 90.000000
_cell_angle_beta 128.667567
_cell_angle_gamma 90.000000
_cell_volume 2898.116760
_symmetry_space_group_name_H-M "C 2/M"
_symmetry_group_IT_number 12
_symmetry_cell_setting 'monoclinic'
loop_
_space_group_symop_operation_xyz
x,y,z
-x,y,-z
-x,-y,-z
x,-y,z
1/2+x,1/2+y,z
1/2-x,1/2+y,-z
1/2-x,1/2-y,-z
1/2+x,1/2-y,z
loop_
_atom_site_type_symbol
_atom_site_label
_atom_site_fract_x
_atom_site_fract_y
_atom_site_fract_z
Si Si1 0.894536 0.339822 0.233644
Si Si2 0.794041 0.086411 0.929039
Si Si3 0.817857 0.586949 0.482142
Si Si4 0.810203 0.415113 0.614858
Si Si5 0.425722 0.413674 0.335487
Si Si6 0.413384 0.809387 0.042770
Si Si7 0.811737 0.708414 0.779828
O O1 0.754462 0.379181 0.149817
O O2 0.800341 0.283840 0.255678
O O3 0.992887 0.400472 0.301641
O O4 0.042896 0.293066 0.235668
O O5 0.663126 0.115601 0.947998
O O6 0.767114 0.000000 0.918057
O O7 0.000000 0.109695 0.000000
O O8 0.840276 0.500000 0.494214
O O9 0.794073 0.622918 0.543629
O O10 0.641470 0.604704 0.392648
O O11 0.000000 0.620981 0.500000
O O12 0.789449 0.500000 0.597465
O O13 0.647776 0.390287 0.616795
O O14 0.386053 0.500000 0.310862
O O15 0.320132 0.363794 0.257154
O O16 0.587453 0.784055 0.128309
O O17 0.500000 0.824897 0.000000
O O18 0.250000 0.750000 0.000000
#
# Coordination Sequence:
#
# PCOD8098807 Si02
#       7
#     8   8   8   8   8   8   8
#     4  10  20  35  53  77 107 138 177 223 268 323
#     4  10  21  37  57  81 110 144 183 228 275 323
#     4   9  17  30  50  77 106 136 171 215 268 321
#     4   9  17  31  53  76  99 135 177 216 261 314
#     4   9  18  34  54  76 103 135 176 222 265 316
#     4  11  21  36  58  82 111 149 187 224 269 328
#     4  10  21  34  54  78 104 140 178 217 267 321
#
# _framework density 19.322893000000001
#
# number of rings (size 3 to 8) (size 9 to 14) (size 15 to 20)
#    0.000    2.286    0.000    3.857    0.000    6.571 
#    0.000    0.714    0.000    4.286    0.000    0.000 
#    0.000    0.000    0.000    0.000    0.000    0.000 
#
# Total GULP energy -347080.036194 kJ/mol
# GULP energy per Si atom -12395.715578 kJ/mol
# Density = 1.927891 g / cm^3
# Si number density = 19.322893 Si / 1000 Ang^3
#
#
#
# Elastic Constant Matrix: (Units=GPa)
#
#
# Indices 1 2 3 4 5 6 
#
# 1 68.6487 15.2495 28.8831 0.0000 16.4048 0.0000
# 2 15.2495 34.6006 14.5501 0.0000 7.4776 0.0000
# 3 28.8831 14.5501 91.4846 0.0000 14.4501 0.0000
# 4 0.0000 0.0000 0.0000 17.4950 0.0000 4.2048
# 5 16.4048 7.4776 14.4501 0.0000 32.2946 0.0000
# 6 0.0000 0.0000 0.0000 4.2048 0.0000 27.4471
#
#
#
# Elastic Compliance Matrix: (Units=1/GPa)
#
#
# Indices 1 2 3 4 5 6 
#
# 1 0.019050 -0.005226 -0.004138 0.000000 -0.006615 0.000000
# 2 -0.005226 0.033288 -0.003063 0.000000 -0.003683 0.000000
# 3 -0.004138 -0.003063 0.013214 0.000000 -0.003101 0.000000
# 4 0.000000 0.000000 0.000000 0.059344 0.000000 -0.009091
# 5 -0.006615 -0.003683 -0.003101 0.000000 0.036566 0.000000
# 6 0.000000 0.000000 0.000000 -0.009091 0.000000 0.037827
#
#
# Mechanical properties :
#
#
# Convention : Reuss Voigt Hill
#
# Bulk Modulus (GPa) = 24.57102 34.67770 29.62436
# Shear Modulus (GPa) = 21.03416 24.51741 22.77578
#
# Velocity S-wave (km/s) = 3.30291 3.56592 3.43694
# Velocity P-wave (km/s) = 5.22391 5.91099 5.57804
#
# Compressibility (1/GPa) = 0.04069835
#
# Stress axis : x y z
#
# Youngs Moduli (GPa) = 52.49419 30.04064 75.67555
#
# Poissons Ratio (x) = 0.15699 0.31317
# Poissons Ratio (y) = 0.27433 0.23177
# Poissons Ratio (z) = 0.21724 0.09201
#
# Static dielectric constant tensor:
#      x y z
#    x 3.693020 0.000000 0.072740 
#    y 0.000000 3.290350 0.000000 
#    z 0.072740 0.000000 3.747440 
# 
# 
# High freq. dielectric constant tensor:
#      x y z
#    x 1.753500 0.000000 0.013110 
#    y 0.000000 1.726990 0.000000 
#    z 0.013110 0.000000 1.758600 
# 
# From -- ./inp_files/300876.got.cif
#   From: 2010.06.25/outbox.cif.g09.slc.cpg/sg12_151_cif.got.tgz:300876.got - 2010.06.28 00:19:55.
