data_PCOD8098271
_publ_section_title
;
Structure prediction by ZEFSAII (Michael W. Deem and Ramdas Pophale) SiO2 
 PCOD8098271
Probable space group: C 2/M
;
_chemical_formula_sum "Si O2"
_cell_formula_units_Z 56
_cell_length_a 19.124641
_cell_length_b 9.281911
_cell_length_c 27.598524
_cell_angle_alpha 90.000000
_cell_angle_beta 38.558707
_cell_angle_gamma 90.000000
_cell_volume 3053.690075
_symmetry_space_group_name_H-M "C 2/M"
_symmetry_group_IT_number 12
_symmetry_cell_setting 'monoclinic'
loop_
_space_group_symop_operation_xyz
x,y,z
-x,y,-z
-x,-y,-z
x,-y,z
1/2+x,1/2+y,z
1/2-x,1/2+y,-z
1/2-x,1/2-y,-z
1/2+x,1/2-y,z
loop_
_atom_site_type_symbol
_atom_site_label
_atom_site_fract_x
_atom_site_fract_y
_atom_site_fract_z
Si Si1 0.071170 0.331280 0.009152
Si Si2 0.341625 0.836154 0.291374
Si Si3 0.171112 0.831579 0.137364
Si Si4 0.991613 0.829568 0.860466
Si Si5 0.492341 0.836487 0.711939
Si Si6 0.639491 0.830688 0.543845
Si Si7 0.382159 0.660226 0.538656
O O1 0.062420 0.500000 0.026179
O O2 0.023140 0.241237 0.079505
O O3 0.199901 0.283605 0.932533
O O4 0.000000 0.292551 0.000000
O O5 0.391310 0.728342 0.224455
O O6 0.403717 0.813255 0.308563
O O7 0.212043 0.795835 0.370854
O O8 0.355815 0.000000 0.264858
O O9 0.110596 0.783435 0.119993
O O10 0.113083 0.759616 0.215304
O O11 0.157965 0.000000 0.151784
O O12 0.998485 0.000000 0.862826
O O13 0.535901 0.791133 0.635332
O O14 0.449800 0.000000 0.735691
O O15 0.750000 0.750000 0.500000
O O16 0.607353 0.779397 0.508127
O O17 0.663153 0.000000 0.531590
O O18 0.500000 0.654537 0.500000
O O19 0.351507 0.500000 0.534588
#
# Coordination Sequence:
#
# PCOD8098271 Si02
#       7
#     8   8   8   8   8   8   8
#     4  10  21  38  57  78 108 143 177 213 262 323
#     4   9  17  34  56  78 108 142 180 222 269 323
#     4   9  19  35  56  82 107 135 178 223 262 316
#     4  10  20  34  56  84 107 134 177 223 269 316
#     4   9  18  33  54  81 109 139 177 224 274 321
#     4  11  21  35  57  83 113 147 189 233 279 330
#     4  10  21  38  57  80 111 149 192 233 278 332
#
# _framework density 18.338467999999999
#
# number of rings (size 3 to 8) (size 9 to 14) (size 15 to 20)
#    0.000    2.286    1.429    1.286    0.000    3.429 
#    2.571    0.000    0.000    0.000    0.000    0.000 
#    0.000    0.000    0.000    0.000    0.000    0.000 
#
# Total GULP energy -347226.829566 kJ/mol
# GULP energy per Si atom -12400.958199 kJ/mol
# Density = 1.829673 g / cm^3
# Si number density = 18.338468 Si / 1000 Ang^3
#
#
#
# Elastic Constant Matrix: (Units=GPa)
#
#
# Indices 1 2 3 4 5 6 
#
# 1 79.3419 44.3538 70.1472 0.0000 1.4501 0.0009
# 2 44.3538 75.4918 71.4485 0.0004 13.3174 0.0010
# 3 70.1472 71.4485 164.4039 0.0000 3.3012 -0.0001
# 4 0.0000 0.0004 0.0000 36.6016 -0.0001 6.6748
# 5 1.4501 13.3174 3.3012 -0.0001 25.7818 0.0003
# 6 0.0009 0.0010 -0.0001 6.6748 0.0003 24.5404
#
#
#
# Elastic Compliance Matrix: (Units=1/GPa)
#
#
# Indices 1 2 3 4 5 6 
#
# 1 0.022478 -0.007992 -0.006191 0.000000 0.003657 -0.000001
# 2 -0.007992 0.028516 -0.008718 0.000000 -0.013164 -0.000001
# 3 -0.006191 -0.008718 0.012448 0.000000 0.003258 0.000001
# 4 0.000000 0.000000 0.000000 0.028747 0.000000 -0.007819
# 5 0.003657 -0.013164 0.003258 0.000000 0.044964 0.000000
# 6 -0.000001 -0.000001 0.000001 -0.007819 0.000000 0.042876
#
#
# Mechanical properties :
#
#
# Convention : Reuss Voigt Hill
#
# Bulk Modulus (GPa) = 56.69434 76.79294 66.74364
# Shear Modulus (GPa) = 21.57861 26.27063 23.92462
#
# Velocity S-wave (km/s) = 3.43401 3.78900 3.61586
# Velocity P-wave (km/s) = 6.83417 7.81718 7.34214
#
# Compressibility (1/GPa) = 0.01763844
#
# Stress axis : x y z
#
# Youngs Moduli (GPa) = 44.48746 35.06836 80.33727
#
# Poissons Ratio (x) = 0.28028 0.49736
# Poissons Ratio (y) = 0.35556 0.70040
# Poissons Ratio (z) = 0.27542 0.30573
#
# Static dielectric constant tensor:
#      x y z
#    x 3.195540 0.000000 -0.060870 
#    y 0.000000 3.640860 0.000000 
#    z -0.060870 0.000000 3.509370 
# 
# 
# High freq. dielectric constant tensor:
#      x y z
#    x 1.689440 0.000000 -0.000740 
#    y 0.000000 1.710920 0.000000 
#    z -0.000740 0.000000 1.723330 
# 
# From -- ./inp_files/362957.got.cif
#   From: 2010.06.25/outbox.cif.g09.slc.cpg/sg12_182_cif.got.tgz:362957.got - 2010.06.28 00:19:55.
