data_PCOD8098362
_publ_section_title
;
Structure prediction by ZEFSAII (Michael W. Deem and Ramdas Pophale) SiO2 
 PCOD8098362
Probable space group: C 2/M
;
_chemical_formula_sum "Si O2"
_cell_formula_units_Z 64
_cell_length_a 28.526363
_cell_length_b 9.015758
_cell_length_c 27.979938
_cell_angle_alpha 90.000000
_cell_angle_beta 150.765347
_cell_angle_gamma 90.000000
_cell_volume 3514.470940
_symmetry_space_group_name_H-M "C 2/M"
_symmetry_group_IT_number 12
_symmetry_cell_setting 'monoclinic'
loop_
_space_group_symop_operation_xyz
x,y,z
-x,y,-z
-x,-y,-z
x,-y,z
1/2+x,1/2+y,z
1/2-x,1/2+y,-z
1/2-x,1/2-y,-z
1/2+x,1/2-y,z
loop_
_atom_site_type_symbol
_atom_site_label
_atom_site_fract_x
_atom_site_fract_y
_atom_site_fract_z
Si Si1 0.107583 0.324991 0.606896
Si Si2 0.119885 0.329805 0.909328
Si Si3 0.850743 0.825526 0.599386
Si Si4 0.226299 0.828546 0.632419
Si Si5 0.887760 0.665866 0.282247
Si Si6 0.900092 0.667869 0.555276
Si Si7 0.320284 0.325733 0.129066
Si Si8 0.411192 0.831697 0.745144
O O1 0.109335 0.500000 0.599301
O O2 0.187923 0.251712 0.645163
O O3 0.142592 0.283881 0.691589
O O4 0.000000 0.264286 0.500000
O O5 0.133396 0.500000 0.906688
O O6 0.111968 0.242117 0.852015
O O7 0.024356 0.306513 0.856794
O O8 0.210506 0.275949 0.021124
O O9 0.750000 0.750000 0.500000
O O10 0.923146 0.751498 0.625514
O O11 0.884732 0.789580 0.682450
O O12 0.845967 0.000000 0.587197
O O13 0.181166 0.757559 0.544920
O O14 0.342541 0.808836 0.730469
O O15 0.196988 0.000000 0.609082
O O16 0.851173 0.500000 0.238127
O O17 0.846252 0.773076 0.205208
O O18 0.002784 0.666939 0.388244
O O19 0.863140 0.500000 0.531487
O O20 0.334725 0.500000 0.140556
O O21 0.395700 0.000000 0.711811
#
# Coordination Sequence:
#
# PCOD8098362 Si02
#       8
#     8   8   8   8   8   8   8   8
#     4  10  20  38  57  75 103 143 186 221 267 330
#     4   9  19  37  58  79 110 148 178 212 269 330
#     4  12  23  33  47  72 105 141 179 217 259 310
#     4  11  22  34  52  78 105 136 178 225 266 311
#     4  10  21  36  56  78 105 143 178 217 274 329
#     4  11  21  35  52  72 104 144 180 215 260 319
#     4  10  20  34  56  86 112 136 176 228 270 315
#     4  10  21  37  54  74 105 145 182 216 265 327
#
# _framework density 18.210424
#
# number of rings (size 3 to 8) (size 9 to 14) (size 15 to 20)
#    0.000    1.625    2.500    3.000    0.000    6.250 
#    0.000    0.000    0.000    0.750    0.000    5.250 
#    0.000    0.000    0.000    0.000    0.000    0.000 
#
# Total GULP energy -396736.016751 kJ/mol
# GULP energy per Si atom -12398.000523 kJ/mol
# Density = 1.816898 g / cm^3
# Si number density = 18.210424 Si / 1000 Ang^3
#
#
#
# Elastic Constant Matrix: (Units=GPa)
#
#
# Indices 1 2 3 4 5 6 
#
# 1 127.9063 48.4077 44.3713 0.0000 9.0947 0.0000
# 2 48.4077 89.5520 28.9485 0.0000 -1.9424 0.0000
# 3 44.3713 28.9485 71.8959 0.0000 6.3212 0.0000
# 4 0.0000 0.0000 0.0000 23.7458 0.0000 -2.6397
# 5 9.0947 -1.9424 6.3212 0.0000 25.0945 0.0000
# 6 0.0000 0.0000 0.0000 -2.6397 0.0000 31.7276
#
#
#
# Elastic Compliance Matrix: (Units=1/GPa)
#
#
# Indices 1 2 3 4 5 6 
#
# 1 0.011553 -0.004720 -0.004939 0.000000 -0.003308 0.000000
# 2 -0.004720 0.014903 -0.003415 0.000000 0.003724 0.000000
# 3 -0.004939 -0.003415 0.018610 0.000000 -0.003162 0.000000
# 4 0.000000 0.000000 0.000000 0.042506 0.000000 0.003536
# 5 -0.003308 0.003724 -0.003162 0.000000 0.042133 0.000000
# 6 0.000000 0.000000 0.000000 0.003536 0.000000 0.031813
#
#
# Mechanical properties :
#
#
# Convention : Reuss Voigt Hill
#
# Bulk Modulus (GPa) = 52.85873 59.20100 56.02986
# Shear Modulus (GPa) = 25.77697 27.28869 26.53283
#
# Velocity S-wave (km/s) = 3.76640 3.87527 3.82123
# Velocity P-wave (km/s) = 6.92849 7.25284 7.09252
#
# Compressibility (1/GPa) = 0.01891835
#
# Stress axis : x y z
#
# Youngs Moduli (GPa) = 86.55598 67.10068 53.73485
#
# Poissons Ratio (x) = 0.31674 0.26538
# Poissons Ratio (y) = 0.40858 0.18349
# Poissons Ratio (z) = 0.42747 0.22913
#
# Static dielectric constant tensor:
#      x y z
#    x 3.619750 0.000000 0.132110 
#    y 0.000000 3.421740 0.000000 
#    z 0.132110 0.000000 3.311220 
# 
# 
# High freq. dielectric constant tensor:
#      x y z
#    x 1.703410 0.000000 0.013860 
#    y 0.000000 1.712090 0.000000 
#    z 0.013860 0.000000 1.682080 
# 
# From -- ./inp_files/384625.got.cif
#   From: 2010.06.25/outbox.cif.g09.slc.cpg/sg12_193_cif.got.tgz:384625.got - 2010.06.28 00:19:55.
