data_PCOD8098295
_publ_section_title
;
Structure prediction by ZEFSAII (Michael W. Deem and Ramdas Pophale) SiO2 
 PCOD8098295
Probable space group: C 2/M
;
_chemical_formula_sum "Si O2"
_cell_formula_units_Z 64
_cell_length_a 21.822182
_cell_length_b 12.461978
_cell_length_c 22.091539
_cell_angle_alpha 90.000000
_cell_angle_beta 34.511688
_cell_angle_gamma 90.000000
_cell_volume 3403.831310
_symmetry_space_group_name_H-M "C 2/M"
_symmetry_group_IT_number 12
_symmetry_cell_setting 'monoclinic'
loop_
_space_group_symop_operation_xyz
x,y,z
-x,y,-z
-x,-y,-z
x,-y,z
1/2+x,1/2+y,z
1/2-x,1/2+y,-z
1/2-x,1/2-y,-z
1/2+x,1/2-y,z
loop_
_atom_site_type_symbol
_atom_site_label
_atom_site_fract_x
_atom_site_fract_y
_atom_site_fract_z
Si Si1 0.835017 0.291888 0.478398
Si Si2 0.623357 0.727593 0.152772
Si Si3 0.064359 0.621916 0.716723
Si Si4 0.521308 0.625355 0.914751
Si Si5 0.301991 0.623428 0.024609
Si Si6 0.792687 0.244958 0.310381
Si Si7 0.880872 0.877723 0.619673
Si Si8 0.510081 0.378873 0.350345
O O1 0.750000 0.250000 0.500000
O O2 0.905253 0.374517 0.380592
O O3 0.771684 0.335853 0.590146
O O4 0.908252 0.196894 0.446910
O O5 0.542727 0.808520 0.183777
O O6 0.687272 0.650884 0.054939
O O7 0.554172 0.645876 0.248367
O O8 0.705637 0.799386 0.126755
O O9 0.039567 0.500000 0.754098
O O10 0.155818 0.664717 0.688020
O O11 0.549580 0.500000 0.892889
O O12 0.412796 0.651084 0.967254
O O13 0.620466 0.682951 0.800758
O O14 0.500000 0.668486 0.000000
O O15 0.268756 0.500000 0.061269
O O16 0.710426 0.298983 0.330537
O O17 0.890016 0.863340 0.684681
O O18 0.000000 0.846317 0.500000
O O19 0.852001 0.000000 0.624935
O O20 0.465359 0.500000 0.389448
#
# Coordination Sequence:
#
# PCOD8098295 Si02
#       8
#     8   8   8   8   8   8   8   8
#     4   9  20  33  51  83 112 144 182 222 276 332
#     4  10  20  35  56  85 110 145 183 228 286 334
#     4  10  20  35  54  84 118 147 176 224 287 344
#     4  10  23  41  60  82 107 146 197 238 280 328
#     4  10  20  37  59  80 107 144 191 237 279 333
#     4  11  20  37  60  82 111 148 189 234 278 332
#     4  10  20  34  56  84 111 147 184 220 271 332
#     4  10  20  35  55  83 116 146 184 228 276 338
#
# _framework density 18.802340999999998
#
# number of rings (size 3 to 8) (size 9 to 14) (size 15 to 20)
#    0.000    2.000    2.500    1.125    1.750    2.500 
#    0.000    0.000    0.000    1.875    0.000    0.000 
#    0.000    0.000    0.000    0.000    0.000    0.000 
#
# Total GULP energy -396543.669857 kJ/mol
# GULP energy per Si atom -12391.989683 kJ/mol
# Density = 1.875955 g / cm^3
# Si number density = 18.802341 Si / 1000 Ang^3
#
#
#
# Elastic Constant Matrix: (Units=GPa)
#
#
# Indices 1 2 3 4 5 6 
#
# 1 94.4528 39.7564 26.0612 0.0000 -9.6591 0.0000
# 2 39.7564 57.3953 18.4050 0.0000 0.9664 0.0000
# 3 26.0612 18.4050 78.9466 0.0000 7.2151 0.0000
# 4 0.0000 0.0000 0.0000 16.2863 0.0000 -4.6151
# 5 -9.6591 0.9664 7.2151 0.0000 29.9877 0.0000
# 6 0.0000 0.0000 0.0000 -4.6151 0.0000 27.9360
#
#
#
# Elastic Compliance Matrix: (Units=1/GPa)
#
#
# Indices 1 2 3 4 5 6 
#
# 1 0.016692 -0.010498 -0.003666 0.000000 0.006597 0.000000
# 2 -0.010498 0.025439 -0.002128 0.000000 -0.003689 0.000000
# 3 -0.003666 -0.002128 0.014800 0.000000 -0.004673 0.000000
# 4 0.000000 0.000000 0.000000 0.064417 0.000000 0.010642
# 5 0.006597 -0.003689 -0.004673 0.000000 0.036715 0.000000
# 6 0.000000 0.000000 0.000000 0.010642 0.000000 0.037554
#
#
# Mechanical properties :
#
#
# Convention : Reuss Voigt Hill
#
# Bulk Modulus (GPa) = 41.07106 44.35999 42.71552
# Shear Modulus (GPa) = 21.15807 24.61348 22.88577
#
# Velocity S-wave (km/s) = 3.35817 3.62202 3.49259
# Velocity P-wave (km/s) = 6.07679 6.41374 6.24754
#
# Compressibility (1/GPa) = 0.02434804
#
# Stress axis : x y z
#
# Youngs Moduli (GPa) = 59.90902 39.30958 67.56709
#
# Poissons Ratio (x) = 0.41266 0.24768
# Poissons Ratio (y) = 0.62891 0.14379
# Poissons Ratio (z) = 0.21961 0.08365
#
# Static dielectric constant tensor:
#      x y z
#    x 3.966820 0.000000 0.108180 
#    y 0.000000 3.199720 0.000000 
#    z 0.108180 0.000000 3.648140 
# 
# 
# High freq. dielectric constant tensor:
#      x y z
#    x 1.736290 0.000000 -0.004020 
#    y 0.000000 1.707880 0.000000 
#    z -0.004020 0.000000 1.734280 
# 
# From -- ./inp_files/321265.got.cif
#   From: 2010.06.25/outbox.cif.g09.slc.cpg/sg12_161_cif.got.tgz:321265.got - 2010.06.28 00:19:55.
