data_PCOD8098567
_publ_section_title
;
Structure prediction by ZEFSAII (Michael W. Deem and Ramdas Pophale) SiO2 
 PCOD8098567
Probable space group: C 2/M
;
_chemical_formula_sum "Si O2"
_cell_formula_units_Z 48
_cell_length_a 20.315519
_cell_length_b 18.985984
_cell_length_c 15.846621
_cell_angle_alpha 90.000000
_cell_angle_beta 23.661395
_cell_angle_gamma 90.000000
_cell_volume 2453.014495
_symmetry_space_group_name_H-M "C 2/M"
_symmetry_group_IT_number 12
_symmetry_cell_setting 'monoclinic'
loop_
_space_group_symop_operation_xyz
x,y,z
-x,y,-z
-x,-y,-z
x,-y,z
1/2+x,1/2+y,z
1/2-x,1/2+y,-z
1/2-x,1/2-y,-z
1/2+x,1/2-y,z
loop_
_atom_site_type_symbol
_atom_site_label
_atom_site_fract_x
_atom_site_fract_y
_atom_site_fract_z
Si Si1 0.838772 0.919206 0.434857
Si Si2 0.630637 0.191323 0.604213
Si Si3 0.067407 0.297975 0.327531
Si Si4 0.806203 0.419302 0.218388
Si Si5 0.717635 0.418586 0.994552
Si Si6 0.785547 0.337374 0.077422
O O1 0.731546 0.881331 0.489269
O O2 0.786600 0.892249 0.589129
O O3 0.028563 0.904351 0.194954
O O4 0.791652 0.000000 0.482440
O O5 0.750000 0.250000 0.500000
O O6 0.580552 0.204619 0.566145
O O7 0.473443 0.187046 0.849744
O O8 0.176194 0.229551 0.182928
O O9 0.000000 0.297671 0.500000
O O10 0.173423 0.368949 0.192846
O O11 0.757341 0.500000 0.255054
O O12 0.743657 0.367697 0.218400
O O13 0.000000 0.412489 0.000000
O O14 0.764515 0.500000 0.923785
O O15 0.750845 0.400171 0.052780
#
# Coordination Sequence:
#
# PCOD8098567 Si02
#       6
#     8   8   8   8   8   8
#     4  10  21  38  62  91 123 156 197 249 306 369
#     4  11  22  39  61  85 120 162 206 247 302 362
#     4  11  26  42  61  90 124 162 209 261 303 362
#     4  10  20  34  57  96 129 153 194 245 306 373
#     4  10  22  42  64  88 120 163 208 253 307 365
#     4  11  22  37  61  89 125 162 200 249 308 369
#
# _framework density 19.567761000000001
#
# number of rings (size 3 to 8) (size 9 to 14) (size 15 to 20)
#    0.000    1.500    1.667    4.500    4.667    3.000 
#    0.000    5.000    0.000    2.000    0.000    0.000 
#    0.000    0.000    0.000    0.000    0.000    0.000 
#
# Total GULP energy -297668.599937 kJ/mol
# GULP energy per Si atom -12402.858331 kJ/mol
# Density = 1.952322 g / cm^3
# Si number density = 19.567761 Si / 1000 Ang^3
#
#
#
# Elastic Constant Matrix: (Units=GPa)
#
#
# Indices 1 2 3 4 5 6 
#
# 1 110.1591 54.8425 42.4047 -0.0033 -13.8717 0.0041
# 2 54.8425 97.6170 43.8811 -0.0110 -13.5599 0.0084
# 3 42.4047 43.8811 76.1767 -0.0119 -13.7171 0.0082
# 4 -0.0033 -0.0110 -0.0119 26.8386 0.0061 -3.4909
# 5 -13.8717 -13.5599 -13.7171 0.0061 26.8312 -0.0051
# 6 0.0041 0.0084 0.0082 -3.4909 -0.0051 37.0351
#
#
#
# Elastic Compliance Matrix: (Units=1/GPa)
#
#
# Indices 1 2 3 4 5 6 
#
# 1 0.013672 -0.005576 -0.004002 -0.000003 0.002205 0.000001
# 2 -0.005576 0.016354 -0.005890 0.000003 0.002371 -0.000001
# 3 -0.004002 -0.005890 0.019648 0.000004 0.004999 -0.000001
# 4 -0.000003 0.000003 0.000004 0.037722 -0.000006 0.003556
# 5 0.002205 0.002371 0.004999 -0.000006 0.042164 0.000003
# 6 0.000001 -0.000001 -0.000001 0.003556 0.000003 0.027337
#
#
# Mechanical properties :
#
#
# Convention : Reuss Voigt Hill
#
# Bulk Modulus (GPa) = 53.36456 62.91214 58.13835
# Shear Modulus (GPa) = 25.76308 27.66262 26.71285
#
# Velocity S-wave (km/s) = 3.63245 3.76398 3.69880
# Velocity P-wave (km/s) = 6.70252 7.14918 6.92945
#
# Compressibility (1/GPa) = 0.01873903
#
# Stress axis : x y z
#
# Youngs Moduli (GPa) = 73.14368 61.14865 50.89641
#
# Poissons Ratio (x) = 0.34096 0.20367
# Poissons Ratio (y) = 0.40784 0.29975
# Poissons Ratio (z) = 0.29269 0.36014
#
# Static dielectric constant tensor:
#      x y z
#    x 3.538100 -0.000100 -0.087970 
#    y -0.000100 3.800330 0.000130 
#    z -0.087970 0.000130 3.676720 
# 
# 
# High freq. dielectric constant tensor:
#      x y z
#    x 1.754260 0.000000 -0.014330 
#    y 0.000000 1.774900 0.000010 
#    z -0.014330 0.000010 1.764200 
# 
# From -- ./inp_files/63597.got.cif
#   From: 2010.06.25/outbox.cif.g09.slc.cpg/sg12_32_cif.got.tgz:63597.got - 2010.06.28 00:19:55.
