data_PCOD8098850
_publ_section_title
;
Structure prediction by ZEFSAII (Michael W. Deem and Ramdas Pophale) SiO2 
 PCOD8098850
Probable space group: C 2/M
;
_chemical_formula_sum "Si O2"
_cell_formula_units_Z 40
_cell_length_a 25.274127
_cell_length_b 8.985266
_cell_length_c 9.455601
_cell_angle_alpha 90.000000
_cell_angle_beta 88.982061
_cell_angle_gamma 90.000000
_cell_volume 2146.978498
_symmetry_space_group_name_H-M "C 2/M"
_symmetry_group_IT_number 12
_symmetry_cell_setting 'monoclinic'
loop_
_space_group_symop_operation_xyz
x,y,z
-x,y,-z
-x,-y,-z
x,-y,z
1/2+x,1/2+y,z
1/2-x,1/2+y,-z
1/2-x,1/2-y,-z
1/2+x,1/2-y,z
loop_
_atom_site_type_symbol
_atom_site_label
_atom_site_fract_x
_atom_site_fract_y
_atom_site_fract_z
Si Si1 0.006329 0.836206 0.832792
Si Si2 0.211889 0.827617 0.688193
Si Si3 0.317065 0.327358 0.629123
Si Si4 0.118539 0.824454 0.898037
Si Si5 0.597406 0.824437 0.193751
O O1 0.066829 0.781302 0.805459
O O2 0.963319 0.722943 0.771726
O O3 0.997119 0.000000 0.765509
O O4 0.000000 0.846920 0.000000
O O5 0.264139 0.730032 0.709171
O O6 0.186266 0.796447 0.537241
O O7 0.170212 0.777692 0.808728
O O8 0.227483 0.000000 0.702513
O O9 0.324252 0.500000 0.664971
O O10 0.367461 0.237248 0.680714
O O11 0.117046 0.000000 0.930864
O O12 0.119512 0.738653 0.045625
O O13 0.600604 0.000000 0.189234
#
# Coordination Sequence:
#
# PCOD8098850 Si02
#       5
#     8   8   8   8   8
#     4   8  15  30  51  73  99 131 164 201 248 296
#     4   9  19  36  56  76  98 128 167 208 251 298
#     4  10  20  35  54  74 100 134 167 203 250 299
#     4   9  18  34  55  77 101 129 164 207 251 296
#     4  11  21  32  50  76 104 134 168 205 244 291
#
# _framework density 18.630832999999999
#
# number of rings (size 3 to 8) (size 9 to 14) (size 15 to 20)
#    0.000    2.600    0.000    3.600    0.000    6.000 
#    0.000    1.000    0.000    6.000    0.000    0.000 
#    0.000    0.000    0.000    0.000    0.000    0.000 
#
# Total GULP energy -247973.935213 kJ/mol
# GULP energy per Si atom -12398.696761 kJ/mol
# Density = 1.858843 g / cm^3
# Si number density = 18.630833 Si / 1000 Ang^3
#
#
#
# Elastic Constant Matrix: (Units=GPa)
#
#
# Indices 1 2 3 4 5 6 
#
# 1 49.7804 24.5363 2.4937 0.0000 21.1332 0.0000
# 2 24.5363 85.9484 16.7690 0.0000 15.4112 0.0000
# 3 2.4937 16.7690 22.6811 0.0000 10.4558 0.0000
# 4 0.0000 0.0000 0.0000 22.7215 0.0000 2.8639
# 5 21.1332 15.4112 10.4558 0.0000 25.6282 0.0000
# 6 0.0000 0.0000 0.0000 2.8639 0.0000 33.0962
#
#
#
# Elastic Compliance Matrix: (Units=1/GPa)
#
#
# Indices 1 2 3 4 5 6 
#
# 1 0.037041 -0.008023 0.016893 0.000000 -0.032612 0.000000
# 2 -0.008023 0.015879 -0.011708 0.000000 0.001843 0.000000
# 3 0.016893 -0.011708 0.066588 0.000000 -0.034056 0.000000
# 4 0.000000 0.000000 0.000000 0.044496 0.000000 -0.003850
# 5 -0.032612 0.001843 -0.034056 0.000000 0.078697 0.000000
# 6 0.000000 0.000000 0.000000 -0.003850 0.000000 0.030548
#
#
# Mechanical properties :
#
#
# Convention : Reuss Voigt Hill
#
# Bulk Modulus (GPa) = 8.78486 27.33422 18.05954
# Shear Modulus (GPa) = 15.77943 23.92990 19.85467
#
# Velocity S-wave (km/s) = 2.91340 3.58778 3.26803
# Velocity P-wave (km/s) = 4.00533 5.64501 4.89433
#
# Compressibility (1/GPa) = 0.11383221
#
# Stress axis : x y z
#
# Youngs Moduli (GPa) = 26.99714 62.97694 15.01782
#
# Poissons Ratio (x) = 0.50524 -0.25369
# Poissons Ratio (y) = 0.21659 0.17582
# Poissons Ratio (z) = -0.45605 0.73730
#
# Static dielectric constant tensor:
#      x y z
#    x 3.879970 0.000000 -0.031380 
#    y 0.000000 3.383170 0.000000 
#    z -0.031380 0.000000 3.112840 
# 
# 
# High freq. dielectric constant tensor:
#      x y z
#    x 1.737690 0.000000 0.005270 
#    y 0.000000 1.718440 0.000000 
#    z 0.005270 0.000000 1.691710 
# 
# From -- ./inp_files/92755.got.cif
#   From: 2010.06.25/outbox.cif.g09.slc.cpg/sg12_47_cif.got.tgz:92755.got - 2010.06.28 00:19:55.
