data_PCOD8098029
_publ_section_title
;
Structure prediction by ZEFSAII (Michael W. Deem and Ramdas Pophale) SiO2 
 PCOD8098029
Probable space group: C 2/M
;
_chemical_formula_sum "Si O2"
_cell_formula_units_Z 56
_cell_length_a 29.744344
_cell_length_b 8.796152
_cell_length_c 21.915319
_cell_angle_alpha 90.000000
_cell_angle_beta 146.773867
_cell_angle_gamma 90.000000
_cell_volume 3141.823208
_symmetry_space_group_name_H-M "C 2/M"
_symmetry_group_IT_number 12
_symmetry_cell_setting 'monoclinic'
loop_
_space_group_symop_operation_xyz
x,y,z
-x,y,-z
-x,-y,-z
x,-y,z
1/2+x,1/2+y,z
1/2-x,1/2+y,-z
1/2-x,1/2-y,-z
1/2+x,1/2-y,z
loop_
_atom_site_type_symbol
_atom_site_label
_atom_site_fract_x
_atom_site_fract_y
_atom_site_fract_z
Si Si1 0.532955 0.824074 0.785406
Si Si2 0.784432 0.675150 0.978950
Si Si3 0.621870 0.323565 0.341321
Si Si4 0.747063 0.323296 0.590513
Si Si5 0.993451 0.824858 0.372866
Si Si6 0.659921 0.178183 0.601580
Si Si7 0.827573 0.824035 0.256460
O O1 0.618591 0.797464 0.917416
O O2 0.462651 0.768896 0.751632
O O3 0.533034 0.726035 0.724225
O O4 0.519881 0.000000 0.753542
O O5 0.761157 0.500000 0.958214
O O6 0.750000 0.750000 0.000000
O O7 0.738928 0.739472 0.867427
O O8 0.602506 0.500000 0.310860
O O9 0.670859 0.290713 0.459274
O O10 0.672896 0.265892 0.341341
O O11 0.768887 0.500000 0.617572
O O12 0.723831 0.263662 0.630526
O O13 0.918384 0.802308 0.333290
O O14 0.067305 0.725419 0.482087
O O15 0.021922 0.000000 0.402070
O O16 0.683187 0.221321 0.696534
O O17 0.669377 0.000000 0.602059
O O18 0.811923 0.000000 0.255512
#
# Coordination Sequence:
#
# PCOD8098029 Si02
#       7
#     8   8   8   8   8   8   8
#     4  11  21  33  55  84 115 145 181 228 276 323
#     4  10  21  37  57  81 109 146 188 232 274 319
#     4  10  20  34  55  82 112 145 181 221 274 329
#     4  10  20  35  56  80 111 145 180 222 274 330
#     4  11  21  35  55  79 110 150 187 223 274 329
#     4  12  24  36  54  81 114 147 184 228 276 329
#     4  10  22  39  56  76 109 151 192 227 271 328
#
# _framework density 17.824047
#
# number of rings (size 3 to 8) (size 9 to 14) (size 15 to 20)
#    0.000    1.429    2.857    3.429    0.000    5.143 
#    0.000    0.000    0.000    0.857    0.000    6.000 
#    0.000    0.000    0.000    0.000    0.000    0.000 
#
# Total GULP energy -347353.890755 kJ/mol
# GULP energy per Si atom -12405.496098 kJ/mol
# Density = 1.778348 g / cm^3
# Si number density = 17.824047 Si / 1000 Ang^3
#
#
#
# Elastic Constant Matrix: (Units=GPa)
#
#
# Indices 1 2 3 4 5 6 
#
# 1 101.9632 27.8341 36.9318 0.0000 0.4229 0.0000
# 2 27.8341 47.6129 22.0430 0.0000 4.2089 0.0000
# 3 36.9318 22.0430 78.9253 0.0000 -9.4094 0.0000
# 4 0.0000 0.0000 0.0000 24.8485 0.0000 -1.9461
# 5 0.4229 4.2089 -9.4094 0.0000 25.3072 0.0000
# 6 0.0000 0.0000 0.0000 -1.9461 0.0000 33.2932
#
#
#
# Elastic Compliance Matrix: (Units=1/GPa)
#
#
# Indices 1 2 3 4 5 6 
#
# 1 0.012968 -0.005300 -0.004717 0.000000 -0.001089 0.000000
# 2 -0.005300 0.027468 -0.005991 0.000000 -0.006707 0.000000
# 3 -0.004717 -0.005991 0.017453 0.000000 0.007564 0.000000
# 4 0.000000 0.000000 0.000000 0.040429 0.000000 0.002363
# 5 -0.001089 -0.006707 0.007564 0.000000 0.043461 0.000000
# 6 0.000000 0.000000 0.000000 0.002363 0.000000 0.030174
#
#
# Mechanical properties :
#
#
# Convention : Reuss Voigt Hill
#
# Bulk Modulus (GPa) = 38.65403 44.67992 41.66697
# Shear Modulus (GPa) = 23.51913 26.13593 24.82753
#
# Velocity S-wave (km/s) = 3.63646 3.83342 3.73624
# Velocity P-wave (km/s) = 6.27418 6.68694 6.48384
#
# Compressibility (1/GPa) = 0.02587053
#
# Stress axis : x y z
#
# Youngs Moduli (GPa) = 77.11521 36.40630 57.29796
#
# Poissons Ratio (x) = 0.19297 0.27030
# Poissons Ratio (y) = 0.40875 0.34326
# Poissons Ratio (z) = 0.36379 0.21810
#
# Static dielectric constant tensor:
#      x y z
#    x 3.332820 0.000000 0.102560 
#    y 0.000000 3.402180 0.000000 
#    z 0.102560 0.000000 3.358260 
# 
# 
# High freq. dielectric constant tensor:
#      x y z
#    x 1.692810 0.000000 0.006110 
#    y 0.000000 1.700520 0.000000 
#    z 0.006110 0.000000 1.671190 
# 
# From -- ./inp_files/248884.got.cif
#   From: 2010.06.25/outbox.cif.g09.slc.cpg/sg12_125_cif.got.tgz:248884.got - 2010.06.28 00:19:55.
