data_PCOD8098421
_publ_section_title
;
Structure prediction by ZEFSAII (Michael W. Deem and Ramdas Pophale) SiO2 
 PCOD8098421
Probable space group: C 2/M
;
_chemical_formula_sum "Si O2"
_cell_formula_units_Z 44
_cell_length_a 24.677338
_cell_length_b 14.395660
_cell_length_c 8.811865
_cell_angle_alpha 90.000000
_cell_angle_beta 132.392772
_cell_angle_gamma 90.000000
_cell_volume 2311.915637
_symmetry_space_group_name_H-M "C 2/M"
_symmetry_group_IT_number 12
_symmetry_cell_setting 'monoclinic'
loop_
_space_group_symop_operation_xyz
x,y,z
-x,y,-z
-x,-y,-z
x,-y,z
1/2+x,1/2+y,z
1/2-x,1/2+y,-z
1/2-x,1/2-y,-z
1/2+x,1/2-y,z
loop_
_atom_site_type_symbol
_atom_site_label
_atom_site_fract_x
_atom_site_fract_y
_atom_site_fract_z
Si Si1 0.040501 0.349124 0.424514
Si Si2 0.312353 0.500000 0.870066
Si Si3 0.209324 0.849484 0.424853
Si Si4 0.547855 0.328604 0.238548
Si Si5 0.656573 0.000000 0.619037
Si Si6 0.187106 0.500000 0.319384
Si Si7 0.963540 0.500000 0.093215
Si Si8 0.022657 0.000000 0.718309
O O1 0.058529 0.257794 0.367161
O O2 0.114292 0.408018 0.596933
O O3 0.000000 0.318501 0.500000
O O4 0.984223 0.408503 0.221386
O O5 0.303012 0.403856 0.757771
O O6 0.239931 0.500000 0.842467
O O7 0.388479 0.500000 0.104970
O O8 0.250000 0.750000 0.500000
O O9 0.130272 0.852537 0.350929
O O10 0.264998 0.909924 0.629234
O O11 0.508997 0.411188 0.255424
O O12 0.500000 0.303843 0.000000
O O13 0.656721 0.000000 0.435158
O O14 0.123091 0.500000 0.078384
O O15 0.000000 0.500000 0.000000
O O16 0.000000 0.000000 0.500000
#
# Coordination Sequence:
#
# PCOD8098421 Si02
#       8
#     8   4   8   8   4   4   4   4
#     4  11  23  38  58  91 126 163 196 244 309 370
#     4  10  20  39  61  93 118 157 203 249 313 356
#     4  10  21  36  62  92 120 149 200 262 300 342
#     4  12  23  40  66  86 116 160 211 252 293 353
#     4   9  18  37  63  85 128 152 195 251 312 363
#     4  10  20  34  56  95 118 144 204 254 299 347
#     4  11  20  35  62  90 122 154 202 243 299 365
#     4  12  25  43  63  89 126 162 208 253 302 364
#
# _framework density 19.031836999999999
#
# number of rings (size 3 to 8) (size 9 to 14) (size 15 to 20)
#    0.000    1.455    3.636    5.727    2.545    0.000 
#    0.000    3.636    0.000    4.364    0.000    0.000 
#    0.000    0.000    0.000    0.000    0.000    0.000 
#
# Total GULP energy -272614.095169 kJ/mol
# GULP energy per Si atom -12391.549780 kJ/mol
# Density = 1.898852 g / cm^3
# Si number density = 19.031837 Si / 1000 Ang^3
#
#
#
# Elastic Constant Matrix: (Units=GPa)
#
#
# Indices 1 2 3 4 5 6 
#
# 1 113.4508 31.0102 49.7131 0.0000 26.2512 0.0000
# 2 31.0102 120.3003 26.6213 0.0000 13.6931 0.0000
# 3 49.7131 26.6213 104.9126 0.0000 30.7170 0.0000
# 4 0.0000 0.0000 0.0000 -327.2972 0.0000 143.9289
# 5 26.2512 13.6931 30.7170 0.0000 46.3708 0.0000
# 6 0.0000 0.0000 0.0000 143.9289 0.0000 -25.6808
#
#
#
# Elastic Compliance Matrix: (Units=1/GPa)
#
#
# Indices 1 2 3 4 5 6 
#
# 1 0.011933 -0.001754 -0.004197 0.000000 -0.003457 0.000000
# 2 -0.001754 0.009138 -0.001226 0.000000 -0.000893 0.000000
# 3 -0.004197 -0.001226 0.013684 0.000000 -0.006326 0.000000
# 4 0.000000 0.000000 0.000000 0.002086 0.000000 0.011692
# 5 -0.003457 -0.000893 -0.006326 0.000000 0.027977 0.000000
# 6 0.000000 0.000000 0.000000 0.011692 0.000000 0.026587
#
#
# Mechanical properties :
#
#
# Convention : Reuss Voigt Hill
#
# Bulk Modulus (GPa) = 49.01838 61.48366 55.25102
# Shear Modulus (GPa) = 44.42110 -45.90018 -0.73954
#
# Velocity S-wave (km/s) = 4.83643 -4.91629 -0.62404
# Velocity P-wave (km/s) = 7.54984 0.38632 5.34552
#
# Compressibility (1/GPa) = 0.02040051
#
# Stress axis : x y z
#
# Youngs Moduli (GPa) = 83.80209 109.43810 73.07792
#
# Poissons Ratio (x) = 0.19192 0.30672
# Poissons Ratio (y) = 0.14696 0.08960
# Poissons Ratio (z) = 0.35174 0.13418
#
# Static dielectric constant tensor:
#      x y z
#    x 3.663460 0.000000 0.403140 
#    y 0.000000 4.297290 0.000000 
#    z 0.403140 0.000000 3.314370 
# 
# 
# High freq. dielectric constant tensor:
#      x y z
#    x 1.748360 0.000000 0.027400 
#    y 0.000000 1.753030 0.000000 
#    z 0.027400 0.000000 1.727290 
# 
# From -- ./inp_files/96629.got.cif
#   From: 2010.06.25/outbox.cif.g09.slc.cpg/sg12_49_cif.got.tgz:96629.got - 2010.06.28 00:19:55.
