data_PCOD8098645
_publ_section_title
;
Structure prediction by ZEFSAII (Michael W. Deem and Ramdas Pophale) SiO2 
 PCOD8098645
Probable space group: C 2/M
;
_chemical_formula_sum "Si O2"
_cell_formula_units_Z 56
_cell_length_a 13.847685
_cell_length_b 22.542870
_cell_length_c 9.646785
_cell_angle_alpha 90.000000
_cell_angle_beta 66.668229
_cell_angle_gamma 90.000000
_cell_volume 2765.151918
_symmetry_space_group_name_H-M "C 2/M"
_symmetry_group_IT_number 12
_symmetry_cell_setting 'monoclinic'
loop_
_space_group_symop_operation_xyz
x,y,z
-x,y,-z
-x,-y,-z
x,-y,z
1/2+x,1/2+y,z
1/2-x,1/2+y,-z
1/2-x,1/2-y,-z
1/2+x,1/2-y,z
loop_
_atom_site_type_symbol
_atom_site_label
_atom_site_fract_x
_atom_site_fract_y
_atom_site_fract_z
Si Si1 0.099647 0.932489 0.351860
Si Si2 0.121724 0.282716 0.967656
Si Si3 0.896946 0.069007 0.970801
Si Si4 0.694135 0.877800 0.726539
Si Si5 0.595372 0.000000 0.839975
Si Si6 0.877384 0.627315 0.530514
Si Si7 0.254384 0.829953 0.855208
Si Si8 0.105637 0.500000 0.517240
O O1 0.184152 0.889170 0.373969
O O2 0.000000 0.919215 0.500000
O O3 0.138629 0.000000 0.346821
O O4 0.076538 0.917975 0.204611
O O5 0.191299 0.323666 0.831477
O O6 0.157181 0.215508 0.919724
O O7 0.148445 0.305879 0.106968
O O8 0.000000 0.290286 0.000000
O O9 0.793656 0.106676 0.072352
O O10 0.868744 0.000000 0.011620
O O11 0.000000 0.087333 0.000000
O O12 0.633263 0.855055 0.624410
O O13 0.656280 0.937889 0.827866
O O14 0.563772 0.000000 0.698064
O O15 0.500000 0.000000 0.000000
O O16 0.803633 0.665816 0.672931
O O17 0.831897 0.559424 0.559789
O O18 0.000000 0.632385 0.500000
O O19 0.000000 0.500000 0.500000
#
# Coordination Sequence:
#
# PCOD8098645 Si02
#       8
#     8   8   8   8   4   8   8   4
#     4  10  21  39  60  89 129 166 205 259 315 375
#     4  11  24  44  66  89 125 167 214 267 318 370
#     4  10  22  41  64  98 126 160 214 266 320 382
#     4  11  21  39  61  92 125 161 214 258 315 382
#     4  10  20  34  59  91 120 163 209 260 312 368
#     4  10  22  39  60  92 130 167 206 255 320 378
#     4  11  24  42  67  92 126 168 211 264 316 382
#     4   8  18  36  52  87 128 158 201 247 312 375
#
# _framework density 20.252051999999999
#
# number of rings (size 3 to 8) (size 9 to 14) (size 15 to 20)
#    0.000    1.714    2.143    1.714    3.000    2.857 
#    0.000    0.714    0.000    0.000    0.000    0.000 
#    0.000    0.000    0.000    0.000    0.000    0.000 
#
# Total GULP energy -347014.188225 kJ/mol
# GULP energy per Si atom -12393.363865 kJ/mol
# Density = 2.020596 g / cm^3
# Si number density = 20.252052 Si / 1000 Ang^3
#
#
#
# Elastic Constant Matrix: (Units=GPa)
#
#
# Indices 1 2 3 4 5 6 
#
# 1 101.0913 24.9276 29.7517 0.0000 0.6441 0.0000
# 2 24.9276 78.6251 36.8992 0.0000 -2.1413 0.0000
# 3 29.7517 36.8992 101.4007 0.0000 -4.4744 0.0000
# 4 0.0000 0.0000 0.0000 30.2740 0.0000 0.7779
# 5 0.6441 -2.1413 -4.4744 0.0000 26.0430 0.0000
# 6 0.0000 0.0000 0.0000 0.7779 0.0000 19.8125
#
#
#
# Elastic Compliance Matrix: (Units=1/GPa)
#
#
# Indices 1 2 3 4 5 6 
#
# 1 0.011217 -0.002433 -0.002445 0.000000 -0.000898 0.000000
# 2 -0.002433 0.015868 -0.005038 0.000000 0.000499 0.000000
# 3 -0.002445 -0.005038 0.012492 0.000000 0.001792 0.000000
# 4 0.000000 0.000000 0.000000 0.033065 0.000000 -0.001298
# 5 -0.000898 0.000499 0.001792 0.000000 0.038769 0.000000
# 6 0.000000 0.000000 0.000000 -0.001298 0.000000 0.050524
#
#
# Mechanical properties :
#
#
# Convention : Reuss Voigt Hill
#
# Bulk Modulus (GPa) = 50.64977 51.58600 51.11788
# Shear Modulus (GPa) = 26.54617 27.86183 27.20400
#
# Velocity S-wave (km/s) = 3.62441 3.71314 3.66904
# Velocity P-wave (km/s) = 6.52527 6.62650 6.57608
#
# Compressibility (1/GPa) = 0.01974343
#
# Stress axis : x y z
#
# Youngs Moduli (GPa) = 89.14671 63.01933 80.05182
#
# Poissons Ratio (x) = 0.15334 0.19576
# Poissons Ratio (y) = 0.21691 0.40333
# Poissons Ratio (z) = 0.21800 0.31752
#
# Static dielectric constant tensor:
#      x y z
#    x 3.843720 0.000000 0.275640 
#    y 0.000000 3.751490 0.000000 
#    z 0.275640 0.000000 3.588650 
# 
# 
# High freq. dielectric constant tensor:
#      x y z
#    x 1.794790 0.000000 0.013170 
#    y 0.000000 1.786720 0.000000 
#    z 0.013170 0.000000 1.787020 
# 
# From -- ./inp_files/65810.got.cif
#   From: 2010.06.25/outbox.cif.g09.slc.cpg/sg12_33_cif.got.tgz:65810.got - 2010.06.28 00:19:55.
