data_PCOD8098972
_publ_section_title
;
Structure prediction by ZEFSAII (Michael W. Deem and Ramdas Pophale) SiO2 
 PCOD8098972
Probable space group: C 2/M
;
_chemical_formula_sum "Si O2"
_cell_formula_units_Z 48
_cell_length_a 23.588880
_cell_length_b 8.920684
_cell_length_c 12.588946
_cell_angle_alpha 90.000000
_cell_angle_beta 89.665730
_cell_angle_gamma 90.000000
_cell_volume 2649.033535
_symmetry_space_group_name_H-M "C 2/M"
_symmetry_group_IT_number 12
_symmetry_cell_setting 'monoclinic'
loop_
_space_group_symop_operation_xyz
x,y,z
-x,y,-z
-x,-y,-z
x,-y,z
1/2+x,1/2+y,z
1/2-x,1/2+y,-z
1/2-x,1/2-y,-z
1/2+x,1/2-y,z
loop_
_atom_site_type_symbol
_atom_site_label
_atom_site_fract_x
_atom_site_fract_y
_atom_site_fract_z
Si Si1 0.635331 0.177405 0.696002
Si Si2 0.063129 0.175095 0.873508
Si Si3 0.063266 0.678395 0.496569
Si Si4 0.434686 0.325994 0.881653
Si Si5 0.746663 0.322793 0.615642
Si Si6 0.632743 0.175974 0.296979
O O1 0.605914 0.224867 0.805459
O O2 0.596206 0.234191 0.600036
O O3 0.695480 0.258064 0.685202
O O4 0.644602 0.000000 0.693600
O O5 0.998431 0.224270 0.849377
O O6 0.071827 0.000000 0.847929
O O7 0.077095 0.209721 0.995527
O O8 0.062265 0.500000 0.494064
O O9 0.094520 0.743139 0.392550
O O10 0.000000 0.744975 0.500000
O O11 0.427925 0.500000 0.858906
O O12 0.387567 0.240833 0.814476
O O13 0.740657 0.500000 0.600618
O O14 0.750000 0.250000 0.500000
O O15 0.802426 0.280401 0.681965
O O16 0.624659 0.000000 0.292405
#
# Coordination Sequence:
#
# PCOD8098972 Si02
#       6
#     8   8   8   8   8   8
#     4  11  21  35  56  82 110 144 188 228 272 328
#     4   9  19  37  57  81 114 148 180 222 279 329
#     4   9  17  30  49  76 110 140 168 215 274 324
#     4   9  19  36  58  82 112 147 182 224 274 330
#     4  11  22  38  57  78 110 150 187 228 275 325
#     4  10  20  35  54  79 110 144 183 225 273 326
#
# _framework density 18.119816
#
# number of rings (size 3 to 8) (size 9 to 14) (size 15 to 20)
#    0.000    2.167    1.667    3.000    0.000    4.000 
#    0.000    2.500    0.000    3.500    0.000    0.000 
#    0.000    0.000    0.000    0.000    0.000    0.000 
#
# Total GULP energy -297638.919517 kJ/mol
# GULP energy per Si atom -12401.621647 kJ/mol
# Density = 1.807857 g / cm^3
# Si number density = 18.119816 Si / 1000 Ang^3
#
#
#
# Elastic Constant Matrix: (Units=GPa)
#
#
# Indices 1 2 3 4 5 6 
#
# 1 159.3686 52.9836 75.2989 0.0000 7.6560 0.0000
# 2 52.9836 50.7786 37.2479 0.0000 8.4864 0.0000
# 3 75.2989 37.2479 106.2215 0.0000 10.2769 0.0000
# 4 0.0000 0.0000 0.0000 32.7870 0.0000 -0.5185
# 5 7.6560 8.4864 10.2769 0.0000 30.4300 0.0000
# 6 0.0000 0.0000 0.0000 -0.5185 0.0000 29.0828
#
#
#
# Elastic Compliance Matrix: (Units=1/GPa)
#
#
# Indices 1 2 3 4 5 6 
#
# 1 0.011503 -0.008265 -0.005375 0.000000 0.001226 0.000000
# 2 -0.008265 0.033033 -0.005205 0.000000 -0.005375 0.000000
# 3 -0.005375 -0.005205 0.015277 0.000000 -0.002356 0.000000
# 4 0.000000 0.000000 0.000000 0.030509 0.000000 0.000544
# 5 0.001226 -0.005375 -0.002356 0.000000 0.034848 0.000000
# 6 0.000000 0.000000 0.000000 0.000544 0.000000 0.034394
#
#
# Mechanical properties :
#
#
# Convention : Reuss Voigt Hill
#
# Bulk Modulus (GPa) = 45.19744 71.93660 58.56702
# Shear Modulus (GPa) = 24.43449 28.51585 26.47517
#
# Velocity S-wave (km/s) = 3.67617 3.97134 3.82660
# Velocity P-wave (km/s) = 6.55872 7.79842 7.20528
#
# Compressibility (1/GPa) = 0.02212515
#
# Stress axis : x y z
#
# Youngs Moduli (GPa) = 86.93281 30.27251 65.45621
#
# Poissons Ratio (x) = 0.25020 0.35182
# Poissons Ratio (y) = 0.71849 0.34067
# Poissons Ratio (z) = 0.46725 0.15756
#
# Static dielectric constant tensor:
#      x y z
#    x 3.559940 0.000000 0.032210 
#    y 0.000000 3.146240 0.000000 
#    z 0.032210 0.000000 3.365600 
# 
# 
# High freq. dielectric constant tensor:
#      x y z
#    x 1.708320 0.000000 0.000060 
#    y 0.000000 1.687270 0.000000 
#    z 0.000060 0.000000 1.702730 
# 
# From -- ./inp_files/172026.got.cif
#   From: 2010.06.25/outbox.cif.g09.slc.cpg/sg12_87_cif.got.tgz:172026.got - 2010.06.28 00:19:55.
