data_PCOD8098446
_publ_section_title
;
Structure prediction by ZEFSAII (Michael W. Deem and Ramdas Pophale) SiO2 
 PCOD8098446
Probable space group: C 2/M
;
_chemical_formula_sum "Si O2"
_cell_formula_units_Z 64
_cell_length_a 24.406903
_cell_length_b 9.266757
_cell_length_c 14.976797
_cell_angle_alpha 90.000000
_cell_angle_beta 86.335768
_cell_angle_gamma 90.000000
_cell_volume 3380.419983
_symmetry_space_group_name_H-M "C 2/M"
_symmetry_group_IT_number 12
_symmetry_cell_setting 'monoclinic'
loop_
_space_group_symop_operation_xyz
x,y,z
-x,y,-z
-x,-y,-z
x,-y,z
1/2+x,1/2+y,z
1/2-x,1/2+y,-z
1/2-x,1/2-y,-z
1/2+x,1/2-y,z
loop_
_atom_site_type_symbol
_atom_site_label
_atom_site_fract_x
_atom_site_fract_y
_atom_site_fract_z
Si Si1 0.725492 0.168548 0.632710
Si Si2 0.348925 0.833673 0.874033
Si Si3 0.166624 0.831761 0.485924
Si Si4 0.469330 0.831440 0.093880
Si Si5 0.867878 0.166595 0.051298
Si Si6 0.953456 0.665178 0.751228
Si Si7 0.267271 0.666045 0.188636
Si Si8 0.951956 0.830005 0.571619
O O1 0.787879 0.198667 0.594782
O O2 0.681506 0.241372 0.571851
O O3 0.716221 0.235028 0.730531
O O4 0.712401 0.000000 0.637539
O O5 0.391168 0.810954 0.789005
O O6 0.290567 0.781364 0.844095
O O7 0.348123 0.000000 0.905829
O O8 0.366952 0.737934 0.954819
O O9 0.107449 0.777550 0.457602
O O10 0.165279 0.000000 0.512093
O O11 0.413535 0.741658 0.108006
O O12 0.506466 0.787017 0.173494
O O13 0.455132 0.000000 0.095115
O O14 0.500000 0.787316 0.000000
O O15 0.809904 0.188576 0.104797
O O16 0.882870 0.000000 0.038031
O O17 0.963817 0.500000 0.723540
O O18 0.965856 0.761981 0.665004
O O19 0.264610 0.500000 0.220841
O O20 0.000000 0.780078 0.500000
O O21 0.951619 0.000000 0.584451
#
# Coordination Sequence:
#
# PCOD8098446 Si02
#       8
#     8   8   8   8   8   8   8   8
#     4  10  20  34  57  85 109 142 187 232 278 331
#     4  10  20  38  60  80 109 150 190 229 280 338
#     4   9  19  37  58  80 111 145 181 228 282 336
#     4  10  20  39  61  81 112 150 190 234 279 334
#     4  11  23  36  54  84 115 147 187 233 283 332
#     4  10  21  37  61  87 108 143 192 236 279 328
#     4  10  22  37  54  80 116 151 184 227 283 341
#     4  10  22  39  58  82 114 150 183 225 285 341
#
# _framework density 18.932559000000001
#
# number of rings (size 3 to 8) (size 9 to 14) (size 15 to 20)
#    0.000    2.000    1.250    1.875    0.000    5.000 
#    0.000    3.750    0.000    0.000    0.000    0.000 
#    0.000    0.000    0.000    0.000    0.000    0.000 
#
# Total GULP energy -396960.792053 kJ/mol
# GULP energy per Si atom -12405.024752 kJ/mol
# Density = 1.888947 g / cm^3
# Si number density = 18.932559 Si / 1000 Ang^3
#
#
#
# Elastic Constant Matrix: (Units=GPa)
#
#
# Indices 1 2 3 4 5 6 
#
# 1 104.1110 36.7824 55.0302 0.0000 13.8270 0.0000
# 2 36.7824 61.0887 47.3853 0.0000 7.2340 0.0000
# 3 55.0302 47.3853 110.0932 0.0000 10.5423 0.0000
# 4 0.0000 0.0000 0.0000 34.8167 0.0000 -0.4988
# 5 13.8270 7.2340 10.5423 0.0000 24.4963 0.0000
# 6 0.0000 0.0000 0.0000 -0.4988 0.0000 27.4396
#
#
#
# Elastic Compliance Matrix: (Units=1/GPa)
#
#
# Indices 1 2 3 4 5 6 
#
# 1 0.014316 -0.004295 -0.004855 0.000000 -0.004723 0.000000
# 2 -0.004295 0.026051 -0.008929 0.000000 -0.001426 0.000000
# 3 -0.004855 -0.008929 0.015476 0.000000 -0.001283 0.000000
# 4 0.000000 0.000000 0.000000 0.028729 0.000000 0.000522
# 5 -0.004723 -0.001426 -0.001283 0.000000 0.044462 0.000000
# 6 0.000000 0.000000 0.000000 0.000522 0.000000 0.036453
#
#
# Mechanical properties :
#
#
# Convention : Reuss Voigt Hill
#
# Bulk Modulus (GPa) = 50.80065 61.52097 56.16081
# Shear Modulus (GPa) = 24.01464 26.42351 25.21908
#
# Velocity S-wave (km/s) = 3.56537 3.73991 3.65368
# Velocity P-wave (km/s) = 6.62116 7.15644 6.89400
#
# Compressibility (1/GPa) = 0.01968479
#
# Stress axis : x y z
#
# Youngs Moduli (GPa) = 69.85216 38.38696 64.61545
#
# Poissons Ratio (x) = 0.16485 0.31372
# Poissons Ratio (y) = 0.29998 0.57697
# Poissons Ratio (z) = 0.33914 0.34277
#
# Static dielectric constant tensor:
#      x y z
#    x 3.667350 0.000000 0.055310 
#    y 0.000000 3.423230 0.000000 
#    z 0.055310 0.000000 3.332050 
# 
# 
# High freq. dielectric constant tensor:
#      x y z
#    x 1.745370 0.000000 0.005000 
#    y 0.000000 1.732620 0.000000 
#    z 0.005000 0.000000 1.734860 
# 
# From -- ./inp_files/238671.got.cif
#   From: 2010.06.25/outbox.cif.g09.slc.cpg/sg12_120_cif.got.tgz:238671.got - 2010.06.28 00:19:55.
