data_PCOD8098769
_publ_section_title
;
Structure prediction by ZEFSAII (Michael W. Deem and Ramdas Pophale) SiO2 
 PCOD8098769
Probable space group: C 2/M
;
_chemical_formula_sum "Si O2"
_cell_formula_units_Z 56
_cell_length_a 14.775871
_cell_length_b 9.582902
_cell_length_c 26.029225
_cell_angle_alpha 90.000000
_cell_angle_beta 123.767684
_cell_angle_gamma 90.000000
_cell_volume 3063.854680
_symmetry_space_group_name_H-M "C 2/M"
_symmetry_group_IT_number 12
_symmetry_cell_setting 'monoclinic'
loop_
_space_group_symop_operation_xyz
x,y,z
-x,y,-z
-x,-y,-z
x,-y,z
1/2+x,1/2+y,z
1/2-x,1/2+y,-z
1/2-x,1/2-y,-z
1/2+x,1/2-y,z
loop_
_atom_site_type_symbol
_atom_site_label
_atom_site_fract_x
_atom_site_fract_y
_atom_site_fract_z
Si Si1 0.346768 0.663033 0.088357
Si Si2 0.087872 0.842765 0.447444
Si Si3 0.796450 0.342944 0.441509
Si Si4 0.724149 0.664721 0.306348
Si Si5 0.521662 0.664666 0.772343
Si Si6 0.401896 0.162459 0.007746
Si Si7 0.099646 0.165873 0.687659
O O1 0.370711 0.500000 0.086263
O O2 0.401824 0.720005 0.157799
O O3 0.217402 0.689438 0.054485
O O4 0.404457 0.746743 0.060361
O O5 0.107028 0.750323 0.504224
O O6 0.189222 0.832713 0.441607
O O7 0.983845 0.787853 0.383331
O O8 0.069865 0.000000 0.460788
O O9 0.840784 0.500000 0.453507
O O10 0.764418 0.288812 0.375297
O O11 0.739940 0.500000 0.303090
O O12 0.601310 0.712659 0.257756
O O13 0.788554 0.753609 0.285087
O O14 0.528365 0.500000 0.771752
O O15 0.559142 0.723617 0.729443
O O16 0.416794 0.000000 0.026818
O O17 0.500000 0.208544 0.000000
O O18 0.116737 0.000000 0.692913
#
# Coordination Sequence:
#
# PCOD8098769 Si02
#       7
#     8   8   8   8   8   8   8
#     4   9  18  33  55  79 102 139 179 205 242 298
#     4   9  17  31  51  72  95 127 166 208 256 308
#     4   9  17  31  51  71  94 128 166 207 258 308
#     4  10  20  35  53  73  99 132 170 213 258 304
#     4   9  18  36  56  72 101 141 175 205 247 306
#     4   9  18  33  53  80 113 139 164 207 255 293
#     4  10  20  35  54  75 100 133 171 211 257 309
#
# _framework density 18.277629999999998
#
# number of rings (size 3 to 8) (size 9 to 14) (size 15 to 20)
#    0.000    2.714    1.429    0.000    0.000    3.143 
#    0.000    6.429    0.000    0.000    0.000    0.000 
#    0.000    0.000    0.000    0.000    0.000    0.000 
#
# Total GULP energy -347129.560053 kJ/mol
# GULP energy per Si atom -12397.484288 kJ/mol
# Density = 1.823603 g / cm^3
# Si number density = 18.277630 Si / 1000 Ang^3
#
#
#
# Elastic Constant Matrix: (Units=GPa)
#
#
# Indices 1 2 3 4 5 6 
#
# 1 90.6688 31.4880 62.9514 0.0000 17.8264 0.0000
# 2 31.4880 42.6447 43.5375 0.0000 6.0616 0.0000
# 3 62.9514 43.5375 132.2126 0.0000 17.2484 0.0000
# 4 0.0000 0.0000 0.0000 23.2818 0.0000 -1.6913
# 5 17.8264 6.0616 17.2484 0.0000 6.4040 0.0000
# 6 0.0000 0.0000 0.0000 -1.6913 0.0000 30.3548
#
#
#
# Elastic Compliance Matrix: (Units=1/GPa)
#
#
# Indices 1 2 3 4 5 6 
#
# 1 0.028575 -0.009980 -0.001811 0.000000 -0.065219 0.000000
# 2 -0.009980 0.038856 -0.010591 0.000000 0.019529 0.000000
# 3 -0.001811 -0.010591 0.015337 0.000000 -0.026244 0.000000
# 4 0.000000 0.000000 0.000000 0.043127 0.000000 0.002403
# 5 -0.065219 0.019529 -0.026244 0.000000 0.389897 0.000000
# 6 0.000000 0.000000 0.000000 0.002403 0.000000 0.033078
#
#
# Mechanical properties :
#
#
# Convention : Reuss Voigt Hill
#
# Bulk Modulus (GPa) = 26.31310 60.16445 43.23878
# Shear Modulus (GPa) = 8.24674 20.51140 14.37907
#
# Velocity S-wave (km/s) = 2.12643 3.35358 2.80787
# Velocity P-wave (km/s) = 4.52289 6.92703 5.84980
#
# Compressibility (1/GPa) = 0.03800388
#
# Stress axis : x y z
#
# Youngs Moduli (GPa) = 34.99559 25.73635 65.20180
#
# Poissons Ratio (x) = 0.25686 0.11806
# Poissons Ratio (y) = 0.34927 0.69054
# Poissons Ratio (z) = 0.06337 0.27257
#
# Static dielectric constant tensor:
#      x y z
#    x 3.352430 0.000000 0.052190 
#    y 0.000000 3.216800 0.000000 
#    z 0.052190 0.000000 3.552200 
# 
# 
# High freq. dielectric constant tensor:
#      x y z
#    x 1.711310 0.000000 0.003100 
#    y 0.000000 1.686690 0.000000 
#    z 0.003100 0.000000 1.709540 
# 
# From -- ./inp_files/359645.got.cif
#   From: 2010.06.25/outbox.cif.g09.slc.cpg/sg12_180_cif.got.tgz:359645.got - 2010.06.28 00:19:55.
