data_PCOD8098659
_publ_section_title
;
Structure prediction by ZEFSAII (Michael W. Deem and Ramdas Pophale) SiO2 
 PCOD8098659
Probable space group: C 2/M
;
_chemical_formula_sum "Si O2"
_cell_formula_units_Z 48
_cell_length_a 12.901866
_cell_length_b 18.095565
_cell_length_c 12.164681
_cell_angle_alpha 90.000000
_cell_angle_beta 63.901723
_cell_angle_gamma 90.000000
_cell_volume 2550.477344
_symmetry_space_group_name_H-M "C 2/M"
_symmetry_group_IT_number 12
_symmetry_cell_setting 'monoclinic'
loop_
_space_group_symop_operation_xyz
x,y,z
-x,y,-z
-x,-y,-z
x,-y,z
1/2+x,1/2+y,z
1/2-x,1/2+y,-z
1/2-x,1/2-y,-z
1/2+x,1/2-y,z
loop_
_atom_site_type_symbol
_atom_site_label
_atom_site_fract_x
_atom_site_fract_y
_atom_site_fract_z
Si Si1 0.529242 0.159282 0.191741
Si Si2 0.249347 0.500000 0.125699
Si Si3 0.500000 0.751589 0.000000
Si Si4 0.711487 0.656602 0.879253
Si Si5 0.138509 0.500000 0.410057
Si Si6 0.072200 0.757509 0.570930
Si Si7 0.030431 0.500000 0.114755
Si Si8 0.740990 0.347243 0.613786
O O1 0.667737 0.164960 0.113074
O O2 0.497091 0.199329 0.320163
O O3 0.486441 0.073698 0.200809
O O4 0.467001 0.199725 0.120010
O O5 0.330469 0.571348 0.092766
O O6 0.155813 0.500000 0.270712
O O7 0.170250 0.500000 0.053349
O O8 0.388462 0.703933 0.018065
O O9 0.726736 0.676443 0.745725
O O10 0.205264 0.428823 0.428998
O O11 0.000000 0.500000 0.500000
O O12 0.177658 0.712015 0.477230
O O13 0.116051 0.832013 0.613756
O O14 0.000000 0.785215 0.500000
O O15 0.000000 0.500000 0.000000
#
# Coordination Sequence:
#
# PCOD8098659 Si02
#       8
#     8   4   4   8   4   8   4   8
#     4  11  22  37  58  85 116 152 195 242 295 345
#     4   8  20  35  56  83 112 144 189 244 273 343
#     4  12  22  36  58  80 116 160 190 246 288 352
#     4  10  20  37  55  86 114 148 201 236 291 344
#     4  10  20  34  60  90 120 145 191 244 285 341
#     4  11  21  37  60  85 119 153 191 244 299 354
#     4  10  20  36  55  81 116 151 187 236 295 333
#     4  10  21  35  57  89 116 152 194 238 299 352
#
# _framework density 18.820005999999999
#
# number of rings (size 3 to 8) (size 9 to 14) (size 15 to 20)
#    0.000    1.667    4.167    1.000    4.667    0.333 
#    0.000    0.833    0.000    0.000    0.000    1.167 
#    0.000    0.000    0.000    0.000    0.000    0.000 
#
# Total GULP energy -297340.897733 kJ/mol
# GULP energy per Si atom -12389.204072 kJ/mol
# Density = 1.877717 g / cm^3
# Si number density = 18.820006 Si / 1000 Ang^3
#
#
#
# Elastic Constant Matrix: (Units=GPa)
#
#
# Indices 1 2 3 4 5 6 
#
# 1 85.1949 53.5850 23.2677 0.0000 9.4900 0.0000
# 2 53.5850 126.3200 28.7644 0.0000 0.9209 0.0000
# 3 23.2677 28.7644 48.5602 0.0000 14.2432 0.0000
# 4 0.0000 0.0000 0.0000 23.9409 0.0000 -0.3671
# 5 9.4900 0.9209 14.2432 0.0000 26.7348 0.0000
# 6 0.0000 0.0000 0.0000 -0.3671 0.0000 24.7922
#
#
#
# Elastic Compliance Matrix: (Units=1/GPa)
#
#
# Indices 1 2 3 4 5 6 
#
# 1 0.017175 -0.006545 -0.003118 0.000000 -0.004210 0.000000
# 2 -0.006545 0.011859 -0.005275 0.000000 0.004725 0.000000
# 3 -0.003118 -0.005275 0.029433 0.000000 -0.014392 0.000000
# 4 0.000000 0.000000 0.000000 0.041779 0.000000 0.000619
# 5 -0.004210 0.004725 -0.014392 0.000000 0.046404 0.000000
# 6 0.000000 0.000000 0.000000 0.000619 0.000000 0.040344
#
#
# Mechanical properties :
#
#
# Convention : Reuss Voigt Hill
#
# Bulk Modulus (GPa) = 34.97443 52.36770 43.67106
# Shear Modulus (GPa) = 22.08490 25.39080 23.73785
#
# Velocity S-wave (km/s) = 3.42933 3.67705 3.55534
# Velocity P-wave (km/s) = 5.85699 6.77595 6.33316
#
# Compressibility (1/GPa) = 0.02859232
#
# Stress axis : x y z
#
# Youngs Moduli (GPa) = 58.22490 84.32111 33.97597
#
# Poissons Ratio (x) = 0.55188 0.10592
# Poissons Ratio (y) = 0.38108 0.17921
# Poissons Ratio (z) = 0.18152 0.44477
#
# Static dielectric constant tensor:
#      x y z
#    x 9.415450 0.000000 6.578430 
#    y 0.000000 3.817800 0.000000 
#    z 6.578430 0.000000 10.335870 
# 
# 
# High freq. dielectric constant tensor:
#      x y z
#    x 1.724080 0.000000 0.017330 
#    y 0.000000 1.736540 0.000000 
#    z 0.017330 0.000000 1.716540 
# 
# From -- ./inp_files/131725.got.cif
#   From: 2010.06.25/outbox.cif.g09.slc.cpg/sg12_66_cif.got.tgz:131725.got - 2010.06.28 00:19:55.
