data_PCOD8098687
_publ_section_title
;
Structure prediction by ZEFSAII (Michael W. Deem and Ramdas Pophale) SiO2 
 PCOD8098687
Probable space group: C 2/M
;
_chemical_formula_sum "Si O2"
_cell_formula_units_Z 36
_cell_length_a 22.997348
_cell_length_b 14.405822
_cell_length_c 7.775574
_cell_angle_alpha 90.000000
_cell_angle_beta 36.357018
_cell_angle_gamma 90.000000
_cell_volume 1527.099644
_symmetry_space_group_name_H-M "C 2/M"
_symmetry_group_IT_number 12
_symmetry_cell_setting 'monoclinic'
loop_
_space_group_symop_operation_xyz
x,y,z
-x,y,-z
-x,-y,-z
x,-y,z
1/2+x,1/2+y,z
1/2-x,1/2+y,-z
1/2-x,1/2-y,-z
1/2+x,1/2-y,z
loop_
_atom_site_type_symbol
_atom_site_label
_atom_site_fract_x
_atom_site_fract_y
_atom_site_fract_z
Si Si1 0.447975 0.695384 0.945715
Si Si2 0.112717 0.698147 0.414171
Si Si3 0.995515 0.000000 0.306385
Si Si4 0.229633 0.000000 0.279202
Si Si5 0.594327 0.000000 0.397534
Si Si6 0.277645 0.201040 0.208234
O O1 0.511138 0.745596 0.646678
O O2 0.444521 0.586314 0.913844
O O3 0.500000 0.717203 0.000000
O O4 0.338473 0.740485 0.206476
O O5 0.090282 0.592013 0.524495
O O6 0.178200 0.745164 0.405013
O O7 0.159381 0.698345 0.115458
O O8 0.000000 0.000000 0.500000
O O9 0.882636 0.000000 0.516513
O O10 0.251012 0.904434 0.334400
O O11 0.300764 0.000000 0.946885
O O12 0.500000 0.000000 0.500000
#
# Coordination Sequence:
#
# PCOD8098687 Si02
#       6
#     8   8   4   4   4   8
#     4  12  26  42  63  95 137 176 212 262 336 401
#     4  10  20  38  63  95 122 170 222 271 323 373
#     4  12  25  43  71  98 128 168 226 272 320 385
#     4  10  20  41  67 101 125 163 214 285 326 367
#     4  10  20  34  62  97 132 155 213 284 327 367
#     4  10  21  39  69  92 129 165 223 276 319 378
#
# _framework density 23.574100999999999
#
# number of rings (size 3 to 8) (size 9 to 14) (size 15 to 20)
#    0.000    1.333    2.222    5.000    6.222    0.889 
#    0.000    2.222    0.000    0.000    0.000    0.000 
#    0.000    0.000    0.000    0.000    0.000    0.000 
#
# Total GULP energy -223161.854379 kJ/mol
# GULP energy per Si atom -12397.880799 kJ/mol
# Density = 2.352045 g / cm^3
# Si number density = 23.574101 Si / 1000 Ang^3
#
#
#
# Elastic Constant Matrix: (Units=GPa)
#
#
# Indices 1 2 3 4 5 6 
#
# 1 103.8079 56.6403 8.7804 0.0000 -30.2776 0.0000
# 2 56.6403 248.4050 29.0544 0.0000 -35.3455 0.0000
# 3 8.7804 29.0544 49.9101 0.0000 -34.2195 0.0000
# 4 0.0000 0.0000 0.0000 29.9119 0.0000 -11.3311
# 5 -30.2776 -35.3455 -34.2195 0.0000 37.2844 0.0000
# 6 0.0000 0.0000 0.0000 -11.3311 0.0000 34.7567
#
#
#
# Elastic Compliance Matrix: (Units=1/GPa)
#
#
# Indices 1 2 3 4 5 6 
#
# 1 0.017574 -0.002006 0.017687 0.000000 0.028602 0.000000
# 2 -0.002006 0.004896 -0.001165 0.000000 0.001943 0.000000
# 3 0.017687 -0.001165 0.071999 0.000000 0.079339 0.000000
# 4 0.000000 0.000000 0.000000 0.038142 0.000000 0.012435
# 5 0.028602 0.001943 0.079339 0.000000 0.124707 0.000000
# 6 0.000000 0.000000 0.000000 0.012435 0.000000 0.032825
#
#
# Mechanical properties :
#
#
# Convention : Reuss Voigt Hill
#
# Bulk Modulus (GPa) = 8.09714 65.67479 36.88596
# Shear Modulus (GPa) = 16.54097 40.90046 28.72072
#
# Velocity S-wave (km/s) = 2.65176 4.16982 3.49423
# Velocity P-wave (km/s) = 3.58022 7.14861 5.65334
#
# Compressibility (1/GPa) = 0.12350042
#
# Stress axis : x y z
#
# Youngs Moduli (GPa) = 56.90165 204.25590 13.88899
#
# Poissons Ratio (x) = 0.40975 -0.24565
# Poissons Ratio (y) = 0.11415 0.01618
# Poissons Ratio (z) = -1.00639 0.23796
#
# Static dielectric constant tensor:
#      x y z
#    x 4.017270 0.000000 -0.359290 
#    y 0.000000 4.935930 0.000000 
#    z -0.359290 0.000000 4.402380 
# 
# 
# High freq. dielectric constant tensor:
#      x y z
#    x 1.910860 0.000000 -0.021730 
#    y 0.000000 1.953390 0.000000 
#    z -0.021730 0.000000 1.943720 
# 
# From -- ./inp_files/58563.got.cif
#   From: 2010.06.25/outbox.cif.g09.slc.cpg/sg12_30_cif.got.tgz:58563.got - 2010.06.28 00:19:55.
