data_PCOD8098519
_publ_section_title
;
Structure prediction by ZEFSAII (Michael W. Deem and Ramdas Pophale) SiO2 
 PCOD8098519
Probable space group: C 2/M
;
_chemical_formula_sum "Si O2"
_cell_formula_units_Z 64
_cell_length_a 20.460147
_cell_length_b 9.032911
_cell_length_c 20.025256
_cell_angle_alpha 90.000000
_cell_angle_beta 66.684269
_cell_angle_gamma 90.000000
_cell_volume 3398.732569
_symmetry_space_group_name_H-M "C 2/M"
_symmetry_group_IT_number 12
_symmetry_cell_setting 'monoclinic'
loop_
_space_group_symop_operation_xyz
x,y,z
-x,y,-z
-x,-y,-z
x,-y,z
1/2+x,1/2+y,z
1/2-x,1/2+y,-z
1/2-x,1/2-y,-z
1/2+x,1/2-y,z
loop_
_atom_site_type_symbol
_atom_site_label
_atom_site_fract_x
_atom_site_fract_y
_atom_site_fract_z
Si Si1 0.580104 0.174264 0.462987
Si Si2 0.352827 0.826404 0.920358
Si Si3 0.643912 0.673781 0.309439
Si Si4 0.400265 0.828543 0.289075
Si Si5 0.950871 0.174678 0.777554
Si Si6 0.697498 0.326808 0.931641
Si Si7 0.176990 0.672524 0.545867
Si Si8 0.199418 0.328628 0.795523
O O1 0.500000 0.235774 0.500000
O O2 0.621374 0.246888 0.385678
O O3 0.617761 0.220378 0.516410
O O4 0.580355 0.000000 0.450826
O O5 0.418315 0.755057 0.854887
O O6 0.280278 0.789472 0.910405
O O7 0.365792 0.000000 0.922327
O O8 0.350876 0.755718 0.994508
O O9 0.640422 0.500000 0.323512
O O10 0.592241 0.723588 0.270657
O O11 0.723684 0.725612 0.260540
O O12 0.468478 0.724717 0.263376
O O13 0.349684 0.779900 0.370340
O O14 0.358286 0.800479 0.238033
O O15 0.423263 0.000000 0.287317
O O16 0.946522 0.000000 0.790603
O O17 0.682027 0.500000 0.942953
O O18 0.675149 0.267502 0.868439
O O19 0.192100 0.500000 0.536584
O O20 0.250000 0.750000 0.500000
O O21 0.203163 0.500000 0.815301
#
# Coordination Sequence:
#
# PCOD8098519 Si02
#       8
#     8   8   8   8   8   8   8   8
#     4  10  21  36  55  80 109 143 184 233 283 333
#     4  10  20  35  58  86 117 153 188 226 278 338
#     4  10  21  36  57  83 110 144 186 232 283 335
#     4  10  22  39  59  81 113 155 192 230 284 345
#     4  11  22  37  58  85 117 150 188 237 286 335
#     4  10  20  34  57  88 118 148 186 234 280 325
#     4  10  21  38  59  82 110 148 191 235 284 339
#     4  10  20  37  58  82 113 149 188 232 279 335
#
# _framework density 18.830548
#
# number of rings (size 3 to 8) (size 9 to 14) (size 15 to 20)
#    0.000    1.875    1.250    2.625    0.000    6.250 
#    0.000    0.625    0.000    3.750    0.000    0.000 
#    0.000    0.000    0.000    0.000    0.000    0.000 
#
# Total GULP energy -396980.595427 kJ/mol
# GULP energy per Si atom -12405.643607 kJ/mol
# Density = 1.878769 g / cm^3
# Si number density = 18.830548 Si / 1000 Ang^3
#
#
#
# Elastic Constant Matrix: (Units=GPa)
#
#
# Indices 1 2 3 4 5 6 
#
# 1 77.3409 32.1055 22.8710 -0.0001 3.1801 -0.0001
# 2 32.1055 63.6524 46.1494 -0.0002 4.0423 -0.0003
# 3 22.8710 46.1494 112.1604 0.0000 12.4408 0.0000
# 4 -0.0001 -0.0002 0.0000 40.4641 0.0000 -1.5713
# 5 3.1801 4.0423 12.4408 0.0000 28.3353 0.0000
# 6 -0.0001 -0.0003 0.0000 -1.5713 0.0000 30.4695
#
#
#
# Elastic Compliance Matrix: (Units=1/GPa)
#
#
# Indices 1 2 3 4 5 6 
#
# 1 0.016369 -0.008335 0.000172 0.000000 -0.000723 0.000000
# 2 -0.008335 0.026655 -0.009408 0.000000 0.001263 0.000000
# 3 0.000172 -0.009408 0.013250 0.000000 -0.004495 0.000000
# 4 0.000000 0.000000 0.000000 0.024763 0.000000 0.001277
# 5 -0.000723 0.001263 -0.004495 0.000000 0.037166 0.000000
# 6 0.000000 0.000000 0.000000 0.001277 0.000000 0.032886
#
#
# Mechanical properties :
#
#
# Convention : Reuss Voigt Hill
#
# Bulk Modulus (GPa) = 47.32130 50.60062 48.96096
# Shear Modulus (GPa) = 25.86994 29.98896 27.92945
#
# Velocity S-wave (km/s) = 3.71054 3.99503 3.85541
# Velocity P-wave (km/s) = 6.59864 6.94336 6.77320
#
# Compressibility (1/GPa) = 0.02113213
#
# Stress axis : x y z
#
# Youngs Moduli (GPa) = 61.09256 37.51630 75.46983
#
# Poissons Ratio (x) = 0.31269 -0.01297
# Poissons Ratio (y) = 0.50920 0.71002
# Poissons Ratio (z) = -0.01050 0.35295
#
# Static dielectric constant tensor:
#      x y z
#    x 3.447150 0.000000 0.057780 
#    y 0.000000 3.393490 0.000000 
#    z 0.057780 0.000000 3.513850 
# 
# 
# High freq. dielectric constant tensor:
#      x y z
#    x 1.726740 0.000000 0.003980 
#    y 0.000000 1.729560 0.000000 
#    z 0.003980 0.000000 1.745520 
# 
# From -- ./inp_files/319846.got.cif
#   From: 2010.06.25/outbox.cif.g09.slc.cpg/sg12_160_cif.got.tgz:319846.got - 2010.06.28 00:19:55.
