data_PCOD8098339
_publ_section_title
;
Structure prediction by ZEFSAII (Michael W. Deem and Ramdas Pophale) SiO2 
 PCOD8098339
Probable space group: C 2/M
;
_chemical_formula_sum "Si O2"
_cell_formula_units_Z 64
_cell_length_a 32.306518
_cell_length_b 9.020428
_cell_length_c 24.671998
_cell_angle_alpha 90.000000
_cell_angle_beta 26.775475
_cell_angle_gamma 90.000000
_cell_volume 3239.007939
_symmetry_space_group_name_H-M "C 2/M"
_symmetry_group_IT_number 12
_symmetry_cell_setting 'monoclinic'
loop_
_space_group_symop_operation_xyz
x,y,z
-x,y,-z
-x,-y,-z
x,-y,z
1/2+x,1/2+y,z
1/2-x,1/2+y,-z
1/2-x,1/2-y,-z
1/2+x,1/2-y,z
loop_
_atom_site_type_symbol
_atom_site_label
_atom_site_fract_x
_atom_site_fract_y
_atom_site_fract_z
Si Si1 0.025581 0.824104 0.410967
Si Si2 0.767685 0.171612 0.829312
Si Si3 0.823073 0.671785 0.951890
Si Si4 0.511381 0.672825 0.737712
Si Si5 0.639324 0.673641 0.900312
Si Si6 0.676477 0.823846 0.747672
Si Si7 0.545556 0.672724 0.820414
Si Si8 0.117638 0.174617 0.508707
O O1 0.129613 0.775704 0.275451
O O2 0.000000 0.761152 0.500000
O O3 0.956058 0.756003 0.447491
O O4 0.016960 0.000000 0.420286
O O5 0.731201 0.265891 0.821396
O O6 0.768064 0.000000 0.811044
O O7 0.701747 0.201167 0.956814
O O8 0.822553 0.500000 0.938061
O O9 0.922291 0.737367 0.824018
O O10 0.750000 0.750000 0.000000
O O11 0.485379 0.500000 0.765868
O O12 0.545188 0.717721 0.757781
O O13 0.590377 0.714668 0.602274
O O14 0.649179 0.500000 0.878989
O O15 0.626133 0.752654 0.858141
O O16 0.552262 0.713167 0.039132
O O17 0.624477 0.771328 0.754722
O O18 0.780933 0.763390 0.622110
O O19 0.671860 0.000000 0.757247
O O20 0.568287 0.500000 0.802056
O O21 0.118740 0.000000 0.499595
#
# Coordination Sequence:
#
# PCOD8098339 Si02
#       8
#     8   8   8   8   8   8   8   8
#     4   9  16  29  52  81 112 146 187 234 280 330
#     4  10  20  34  56  85 113 147 192 240 285 335
#     4  11  22  35  55  84 118 154 195 240 289 342
#     4  10  20  39  62  82 113 155 198 242 292 351
#     4  11  22  38  59  85 118 154 190 236 297 358
#     4  11  23  38  60  88 114 149 196 246 292 347
#     4  10  22  39  59  84 115 153 192 239 302 359
#     4   9  19  36  58  84 115 153 198 243 292 347
#
# _framework density 19.759136999999999
#
# number of rings (size 3 to 8) (size 9 to 14) (size 15 to 20)
#    0.000    1.875    1.250    3.000    0.000    8.000 
#    0.000    1.250    0.000    4.125    0.000    0.000 
#    0.000    0.000    0.000    0.000    0.000    0.000 
#
# Total GULP energy -396911.966440 kJ/mol
# GULP energy per Si atom -12403.498951 kJ/mol
# Density = 1.971416 g / cm^3
# Si number density = 19.759137 Si / 1000 Ang^3
#
#
#
# Elastic Constant Matrix: (Units=GPa)
#
#
# Indices 1 2 3 4 5 6 
#
# 1 144.1882 43.5184 48.4218 -0.0111 -2.3630 0.0024
# 2 43.5184 56.2755 28.3956 -0.0153 -1.7365 0.0071
# 3 48.4218 28.3956 98.0702 -0.0307 0.6637 0.0150
# 4 -0.0111 -0.0153 -0.0307 20.4399 0.0150 -5.2633
# 5 -2.3630 -1.7365 0.6637 0.0150 37.2693 -0.0032
# 6 0.0024 0.0071 0.0150 -5.2633 -0.0032 35.2539
#
#
#
# Elastic Compliance Matrix: (Units=1/GPa)
#
#
# Indices 1 2 3 4 5 6 
#
# 1 0.009793 -0.005996 -0.003102 -0.000004 0.000397 0.000001
# 2 -0.005996 0.024524 -0.004146 0.000008 0.000836 -0.000002
# 3 -0.003102 -0.004146 0.012933 0.000014 -0.000620 -0.000002
# 4 -0.000004 0.000008 0.000014 0.050880 -0.000020 0.007596
# 5 0.000397 0.000836 -0.000620 -0.000020 0.026907 0.000000
# 6 0.000001 -0.000002 -0.000002 0.007596 0.000000 0.029500
#
#
# Mechanical properties :
#
#
# Convention : Reuss Voigt Hill
#
# Bulk Modulus (GPa) = 48.16325 59.91171 54.03748
# Shear Modulus (GPa) = 26.60343 30.47250 28.53796
#
# Velocity S-wave (km/s) = 3.67329 3.93134 3.80451
# Velocity P-wave (km/s) = 6.51298 7.14102 6.83422
#
# Compressibility (1/GPa) = 0.02076272
#
# Stress axis : x y z
#
# Youngs Moduli (GPa) = 102.11142 40.77621 77.32118
#
# Poissons Ratio (x) = 0.24448 0.23985
# Poissons Ratio (y) = 0.61223 0.32058
# Poissons Ratio (z) = 0.31675 0.16906
#
# Static dielectric constant tensor:
#      x y z
#    x 3.582660 -0.000350 -0.091810 
#    y -0.000350 3.345610 -0.000390 
#    z -0.091810 -0.000390 3.350800 
# 
# 
# High freq. dielectric constant tensor:
#      x y z
#    x 1.783970 0.000000 0.001600 
#    y 0.000000 1.740280 0.000010 
#    z 0.001600 0.000010 1.776400 
# 
# From -- ./inp_files/353293.got.cif
#   From: 2010.06.25/outbox.cif.g09.slc.cpg/sg12_177_cif.got.tgz:353293.got - 2010.06.28 00:19:55.
