data_PCOD8098291
_publ_section_title
;
Structure prediction by ZEFSAII (Michael W. Deem and Ramdas Pophale) SiO2 
 PCOD8098291
Probable space group: C 2/M
;
_chemical_formula_sum "Si O2"
_cell_formula_units_Z 60
_cell_length_a 14.896854
_cell_length_b 9.375600
_cell_length_c 25.992171
_cell_angle_alpha 90.000000
_cell_angle_beta 122.958398
_cell_angle_gamma 90.000000
_cell_volume 3046.016205
_symmetry_space_group_name_H-M "C 2/M"
_symmetry_group_IT_number 12
_symmetry_cell_setting 'monoclinic'
loop_
_space_group_symop_operation_xyz
x,y,z
-x,y,-z
-x,-y,-z
x,-y,z
1/2+x,1/2+y,z
1/2-x,1/2+y,-z
1/2-x,1/2-y,-z
1/2+x,1/2-y,z
loop_
_atom_site_type_symbol
_atom_site_label
_atom_site_fract_x
_atom_site_fract_y
_atom_site_fract_z
Si Si1 0.473953 0.336086 0.853760
Si Si2 0.500000 0.735333 0.500000
Si Si3 0.501077 0.828959 0.336420
Si Si4 0.784420 0.164572 0.060260
Si Si5 0.900222 0.166830 0.717685
Si Si6 0.588362 0.834021 0.067827
Si Si7 0.353741 0.660556 0.543946
Si Si8 0.335655 0.162380 0.366828
O O1 0.465334 0.500000 0.867622
O O2 0.597381 0.290908 0.885157
O O3 0.411566 0.306940 0.781715
O O4 0.418443 0.244555 0.880317
O O5 0.432995 0.642833 0.519758
O O6 0.587887 0.826230 0.559275
O O7 0.507637 0.762085 0.281378
O O8 0.597916 0.751617 0.395198
O O9 0.393866 0.780105 0.333202
O O10 0.515450 0.000000 0.340854
O O11 0.705860 0.198967 0.082866
O O12 0.776847 0.000000 0.042511
O O13 0.750000 0.250000 0.000000
O O14 0.782815 0.229755 0.664121
O O15 0.917423 0.000000 0.709117
O O16 0.568127 0.000000 0.071624
O O17 0.500000 0.775608 0.000000
O O18 0.324929 0.500000 0.553469
O O19 0.250000 0.750000 0.500000
O O20 0.310850 0.000000 0.348353
#
# Coordination Sequence:
#
# PCOD8098291 Si02
#       8
#     8   4   8   8   8   8   8   8
#     4  10  22  37  56  83 113 148 189 230 277 337
#     4  10  20  34  56  84 111 144 189 236 283 332
#     4  10  21  37  56  80 107 143 188 232 276 332
#     4  10  20  35  55  81 112 145 182 226 275 328
#     4  10  21  39  58  79 112 151 187 229 283 338
#     4  10  20  35  56  82 113 147 183 229 282 331
#     4  11  22  36  55  82 114 147 183 230 284 339
#     4   9  19  35  56  80 111 146 184 230 283 339
#
# _framework density 19.697861
#
# number of rings (size 3 to 8) (size 9 to 14) (size 15 to 20)
#    0.000    2.000    1.333    2.000    0.000    5.067 
#    0.000    3.333    0.000    0.000    0.000    0.000 
#    0.000    0.000    0.000    0.000    0.000    0.000 
#
# Total GULP energy -371845.776219 kJ/mol
# GULP energy per Si atom -12394.859207 kJ/mol
# Density = 1.965303 g / cm^3
# Si number density = 19.697861 Si / 1000 Ang^3
#
#
#
# Elastic Constant Matrix: (Units=GPa)
#
#
# Indices 1 2 3 4 5 6 
#
# 1 107.3453 38.1903 45.0752 0.0000 -8.9785 0.0000
# 2 38.1903 75.6013 30.8107 0.0000 -12.4212 0.0000
# 3 45.0752 30.8107 88.9767 0.0000 -9.1471 0.0000
# 4 0.0000 0.0000 0.0000 30.6155 0.0000 -7.4369
# 5 -8.9785 -12.4212 -9.1471 0.0000 36.2255 0.0000
# 6 0.0000 0.0000 0.0000 -7.4369 0.0000 26.7430
#
#
#
# Elastic Compliance Matrix: (Units=1/GPa)
#
#
# Indices 1 2 3 4 5 6 
#
# 1 0.013051 -0.004477 -0.005017 0.000000 0.000433 0.000000
# 2 -0.004477 0.017535 -0.003388 0.000000 0.004047 0.000000
# 3 -0.005017 -0.003388 0.015098 0.000000 0.001407 0.000000
# 4 0.000000 0.000000 0.000000 0.035030 0.000000 0.009741
# 5 0.000433 0.004047 0.001407 0.000000 0.029455 0.000000
# 6 0.000000 0.000000 0.000000 0.009741 0.000000 0.040102
#
#
# Mechanical properties :
#
#
# Convention : Reuss Voigt Hill
#
# Bulk Modulus (GPa) = 50.19933 55.56397 52.88165
# Shear Modulus (GPa) = 27.37106 29.23992 28.30549
#
# Velocity S-wave (km/s) = 3.73170 3.85700 3.79487
# Velocity P-wave (km/s) = 6.64135 6.93575 6.79014
#
# Compressibility (1/GPa) = 0.01992058
#
# Stress axis : x y z
#
# Youngs Moduli (GPa) = 76.61970 57.03032 66.23313
#
# Poissons Ratio (x) = 0.25534 0.33229
# Poissons Ratio (y) = 0.34305 0.22437
# Poissons Ratio (z) = 0.38440 0.19320
#
# Static dielectric constant tensor:
#      x y z
#    x 3.894310 0.000000 -0.146980 
#    y 0.000000 3.441950 0.000000 
#    z -0.146980 0.000000 3.211780 
# 
# 
# High freq. dielectric constant tensor:
#      x y z
#    x 1.784310 0.000000 -0.006670 
#    y 0.000000 1.751880 0.000000 
#    z -0.006670 0.000000 1.759930 
# 
# From -- ./inp_files/338939.got.cif
#   From: 2010.06.25/outbox.cif.g09.slc.cpg/sg12_170_cif.got.tgz:338939.got - 2010.06.28 00:19:55.
