data_PCOD8098474
_publ_section_title
;
Structure prediction by ZEFSAII (Michael W. Deem and Ramdas Pophale) SiO2 
 PCOD8098474
Probable space group: C 2/M
;
_chemical_formula_sum "Si O2"
_cell_formula_units_Z 64
_cell_length_a 23.840706
_cell_length_b 19.010377
_cell_length_c 9.247584
_cell_angle_alpha 90.000000
_cell_angle_beta 56.605895
_cell_angle_gamma 90.000000
_cell_volume 3499.249639
_symmetry_space_group_name_H-M "C 2/M"
_symmetry_group_IT_number 12
_symmetry_cell_setting 'monoclinic'
loop_
_space_group_symop_operation_xyz
x,y,z
-x,y,-z
-x,-y,-z
x,-y,z
1/2+x,1/2+y,z
1/2-x,1/2+y,-z
1/2-x,1/2-y,-z
1/2+x,1/2-y,z
loop_
_atom_site_type_symbol
_atom_site_label
_atom_site_fract_x
_atom_site_fract_y
_atom_site_fract_z
Si Si1 0.263530 0.419451 0.359567
Si Si2 0.336326 0.725995 0.745204
Si Si3 0.129359 0.420320 0.717419
Si Si4 0.450042 0.786955 0.197228
Si Si5 0.682315 0.292694 0.559823
Si Si6 0.041927 0.309833 0.312546
Si Si7 0.751224 0.140067 0.068359
Si Si8 0.138415 0.420441 0.034355
O O1 0.282258 0.500000 0.367214
O O2 0.187528 0.402860 0.519166
O O3 0.314191 0.370177 0.376349
O O4 0.271924 0.405815 0.177102
O O5 0.332620 0.697668 0.587896
O O6 0.409746 0.751568 0.686455
O O7 0.285207 0.790552 0.823582
O O8 0.315941 0.663591 0.883921
O O9 0.103758 0.500000 0.734643
O O10 0.065909 0.370488 0.778184
O O11 0.157097 0.407231 0.840389
O O12 0.380205 0.746199 0.276466
O O13 0.488511 0.768136 0.289874
O O14 0.500000 0.765346 0.000000
O O15 0.750000 0.250000 0.500000
O O16 0.079476 0.368072 0.164660
O O17 0.000000 0.347637 0.500000
O O18 0.704573 0.092838 0.033250
O O19 0.113642 0.500000 0.095146
#
# Coordination Sequence:
#
# PCOD8098474 Si02
#       8
#     8   8   8   8   8   8   8   8
#     4  11  23  38  60  90 123 156 200 254 313 365
#     4  10  21  36  59  86 115 156 196 253 298 354
#     4  10  21  37  56  83 122 167 204 244 293 358
#     4  12  24  37  60  91 121 160 206 256 300 362
#     4  12  22  39  65  91 118 158 207 257 307 356
#     4  11  23  39  54  82 121 154 201 245 299 357
#     4  10  20  34  57  86 118 150 200 253 301 347
#     4  10  21  36  54  80 121 166 202 236 289 363
#
# _framework density 18.289635000000001
#
# number of rings (size 3 to 8) (size 9 to 14) (size 15 to 20)
#    0.000    1.250    5.000    1.125    3.500    1.000 
#    0.000    0.625    0.000    0.375    0.000    0.875 
#    0.000    0.000    0.000    0.000    0.000    0.000 
#
# Total GULP energy -396849.073864 kJ/mol
# GULP energy per Si atom -12401.533558 kJ/mol
# Density = 1.824801 g / cm^3
# Si number density = 18.289635 Si / 1000 Ang^3
#
#
#
# Elastic Constant Matrix: (Units=GPa)
#
#
# Indices 1 2 3 4 5 6 
#
# 1 111.3230 48.6630 43.4265 0.0000 6.5857 0.0000
# 2 48.6630 80.2448 41.5269 0.0000 -2.9438 0.0000
# 3 43.4265 41.5269 122.7178 0.0000 3.7495 0.0000
# 4 0.0000 0.0000 0.0000 24.9058 0.0000 7.8859
# 5 6.5857 -2.9438 3.7495 0.0000 33.2694 0.0000
# 6 0.0000 0.0000 0.0000 7.8859 0.0000 20.6016
#
#
#
# Elastic Compliance Matrix: (Units=1/GPa)
#
#
# Indices 1 2 3 4 5 6 
#
# 1 0.013012 -0.006864 -0.002192 0.000000 -0.002936 0.000000
# 2 -0.006864 0.018852 -0.004057 0.000000 0.003484 0.000000
# 3 -0.002192 -0.004057 0.010331 0.000000 -0.001089 0.000000
# 4 0.000000 0.000000 0.000000 0.045689 0.000000 -0.017489
# 5 -0.002936 0.003484 -0.001089 0.000000 0.031070 0.000000
# 6 0.000000 0.000000 0.000000 -0.017489 0.000000 0.055234
#
#
# Mechanical properties :
#
#
# Convention : Reuss Voigt Hill
#
# Bulk Modulus (GPa) = 62.62397 64.61315 63.61856
# Shear Modulus (GPa) = 24.30287 27.79996 26.05141
#
# Velocity S-wave (km/s) = 3.64920 3.90293 3.77819
# Velocity P-wave (km/s) = 7.21595 7.46424 7.34115
#
# Compressibility (1/GPa) = 0.01596833
#
# Stress axis : x y z
#
# Youngs Moduli (GPa) = 76.84996 53.04532 96.80027
#
# Poissons Ratio (x) = 0.36412 0.21220
# Poissons Ratio (y) = 0.52753 0.39269
# Poissons Ratio (z) = 0.16847 0.21519
#
# Static dielectric constant tensor:
#      x y z
#    x 3.329860 0.000000 0.136700 
#    y 0.000000 3.298280 0.000000 
#    z 0.136700 0.000000 3.548270 
# 
# 
# High freq. dielectric constant tensor:
#      x y z
#    x 1.701830 0.000000 0.017740 
#    y 0.000000 1.688420 0.000000 
#    z 0.017740 0.000000 1.721620 
# 
# From -- ./inp_files/89560.got.cif
#   From: 2010.06.25/outbox.cif.g09.slc.cpg/sg12_45_cif.got.tgz:89560.got - 2010.06.28 00:19:55.
