data_PCOD8098060
_publ_section_title
;
Structure prediction by ZEFSAII (Michael W. Deem and Ramdas Pophale) SiO2 
 PCOD8098060
Probable space group: C 2/M
;
_chemical_formula_sum "Si O2"
_cell_formula_units_Z 56
_cell_length_a 14.557795
_cell_length_b 9.194823
_cell_length_c 22.798720
_cell_angle_alpha 90.000000
_cell_angle_beta 108.353328
_cell_angle_gamma 90.000000
_cell_volume 2896.519310
_symmetry_space_group_name_H-M "C 2/M"
_symmetry_group_IT_number 12
_symmetry_cell_setting 'monoclinic'
loop_
_space_group_symop_operation_xyz
x,y,z
-x,y,-z
-x,-y,-z
x,-y,z
1/2+x,1/2+y,z
1/2-x,1/2+y,-z
1/2-x,1/2-y,-z
1/2+x,1/2-y,z
loop_
_atom_site_type_symbol
_atom_site_label
_atom_site_fract_x
_atom_site_fract_y
_atom_site_fract_z
Si Si1 0.563704 0.832471 0.887369
Si Si2 0.883028 0.169594 0.568904
Si Si3 0.612021 0.335922 0.006563
Si Si4 0.169932 0.669351 0.789702
Si Si5 0.335035 0.832268 0.446662
Si Si6 0.154651 0.670647 0.127303
Si Si7 0.559262 0.169608 0.650816
O O1 0.599869 0.794882 0.829899
O O2 0.450399 0.793024 0.867346
O O3 0.579813 0.000000 0.907281
O O4 0.626123 0.739004 0.946230
O O5 0.778469 0.203885 0.575156
O O6 0.892555 0.238684 0.506212
O O7 0.960039 0.241163 0.628031
O O8 0.903912 0.000000 0.567763
O O9 0.652615 0.500000 0.012560
O O10 0.670536 0.247140 0.067475
O O11 0.500000 0.332939 0.000000
O O12 0.198396 0.500000 0.793492
O O13 0.267425 0.763464 0.812327
O O14 0.114758 0.718314 0.720249
O O15 0.373122 0.790145 0.390455
O O16 0.354683 0.000000 0.465905
O O17 0.171095 0.500000 0.122774
O O18 0.533407 0.000000 0.647237
#
# Coordination Sequence:
#
# PCOD8098060 Si02
#       7
#     8   8   8   8   8   8   8
#     4   9  19  36  55  76 105 137 170 214 265 312
#     4  10  20  34  55  83 109 134 171 218 261 302
#     4   9  17  31  54  81 104 131 171 216 262 312
#     4  10  22  38  54  75 104 141 181 213 251 310
#     4   9  19  36  56  79 108 140 172 209 259 313
#     4  10  20  35  55  78 105 136 171 216 266 310
#     4  10  21  37  55  75 105 144 178 210 255 310
#
# _framework density 19.333549999999999
#
# number of rings (size 3 to 8) (size 9 to 14) (size 15 to 20)
#    0.000    2.429    0.000    1.714    0.000    8.000 
#    0.000    0.000    0.000    0.000    0.000    0.000 
#    0.000    0.000    0.000    0.000    0.000    0.000 
#
# Total GULP energy -347329.735676 kJ/mol
# GULP energy per Si atom -12404.633417 kJ/mol
# Density = 1.928955 g / cm^3
# Si number density = 19.333550 Si / 1000 Ang^3
#
#
#
# Elastic Constant Matrix: (Units=GPa)
#
#
# Indices 1 2 3 4 5 6 
#
# 1 51.4097 24.7777 30.2800 0.0000 3.7812 0.0000
# 2 24.7777 77.2405 46.5840 0.0000 10.8707 0.0000
# 3 30.2800 46.5840 127.9058 0.0000 11.6614 0.0000
# 4 0.0000 0.0000 0.0000 35.6759 0.0000 7.8963
# 5 3.7812 10.8707 11.6614 0.0000 29.2315 0.0000
# 6 0.0000 0.0000 0.0000 7.8963 0.0000 26.1240
#
#
#
# Elastic Compliance Matrix: (Units=1/GPa)
#
#
# Indices 1 2 3 4 5 6 
#
# 1 0.024333 -0.005599 -0.003761 0.000000 0.000435 0.000000
# 2 -0.005599 0.018319 -0.004972 0.000000 -0.004105 0.000000
# 3 -0.003761 -0.004972 0.010696 0.000000 -0.001931 0.000000
# 4 0.000000 0.000000 0.000000 0.030040 0.000000 -0.009080
# 5 0.000435 -0.004105 -0.001931 0.000000 0.036450 0.000000
# 6 0.000000 0.000000 0.000000 -0.009080 0.000000 0.041023
#
#
# Mechanical properties :
#
#
# Convention : Reuss Voigt Hill
#
# Bulk Modulus (GPa) = 40.51234 51.09327 45.80281
# Shear Modulus (GPa) = 25.28400 28.53391 26.90895
#
# Velocity S-wave (km/s) = 3.62025 3.84588 3.73477
# Velocity P-wave (km/s) = 6.20281 6.79748 6.50694
#
# Compressibility (1/GPa) = 0.02468384
#
# Stress axis : x y z
#
# Youngs Moduli (GPa) = 41.09605 54.58811 93.49590
#
# Poissons Ratio (x) = 0.30562 0.35165
# Poissons Ratio (y) = 0.23008 0.46489
# Poissons Ratio (z) = 0.15457 0.27143
#
# Static dielectric constant tensor:
#      x y z
#    x 3.493740 0.000000 0.026320 
#    y 0.000000 3.538380 0.000000 
#    z 0.026320 0.000000 3.536200 
# 
# 
# High freq. dielectric constant tensor:
#      x y z
#    x 1.753700 0.000000 0.004660 
#    y 0.000000 1.752000 0.000000 
#    z 0.004660 0.000000 1.748970 
# 
# From -- ./inp_files/339092.got.cif
#   From: 2010.06.25/outbox.cif.g09.slc.cpg/sg12_170_cif.got.tgz:339092.got - 2010.06.28 00:19:55.
