data_PCOD8098400
_publ_section_title
;
Structure prediction by ZEFSAII (Michael W. Deem and Ramdas Pophale) SiO2 
 PCOD8098400
Probable space group: C 2/M
;
_chemical_formula_sum "Si O2"
_cell_formula_units_Z 64
_cell_length_a 28.010180
_cell_length_b 16.826012
_cell_length_c 21.329985
_cell_angle_alpha 90.000000
_cell_angle_beta 19.189938
_cell_angle_gamma 90.000000
_cell_volume 3304.367930
_symmetry_space_group_name_H-M "C 2/M"
_symmetry_group_IT_number 12
_symmetry_cell_setting 'monoclinic'
loop_
_space_group_symop_operation_xyz
x,y,z
-x,y,-z
-x,-y,-z
x,-y,z
1/2+x,1/2+y,z
1/2-x,1/2+y,-z
1/2-x,1/2-y,-z
1/2+x,1/2-y,z
loop_
_atom_site_type_symbol
_atom_site_label
_atom_site_fract_x
_atom_site_fract_y
_atom_site_fract_z
Si Si1 0.157955 0.849869 0.816858
Si Si2 0.672316 0.163314 0.159904
Si Si3 0.086416 0.908382 0.452419
Si Si4 0.336580 0.652096 0.833914
Si Si5 0.603637 0.906134 0.562863
Si Si6 0.160691 0.590369 0.296856
Si Si7 0.604998 0.170585 0.924094
Si Si8 0.942942 0.406721 0.888525
O O1 0.253200 0.854837 0.634312
O O2 0.245863 0.903098 0.756603
O O3 0.132269 0.763628 0.878970
O O4 0.000000 0.888075 0.000000
O O5 0.641782 0.255678 0.206703
O O6 0.524468 0.117685 0.325757
O O7 0.740439 0.133616 0.140479
O O8 0.795028 0.142279 0.957517
O O9 0.239991 0.869252 0.272579
O O10 0.000000 0.871304 0.500000
O O11 0.988731 0.892701 0.634927
O O12 0.116256 0.000000 0.403795
O O13 0.218474 0.611751 0.935256
O O14 0.558899 0.884608 0.690079
O O15 0.634004 0.000000 0.518672
O O16 0.142949 0.500000 0.299870
O O17 0.000000 0.629662 0.500000
O O18 0.500000 0.137051 0.000000
O O19 0.529340 0.148517 0.084690
O O20 0.953285 0.500000 0.893282
#
# Coordination Sequence:
#
# PCOD8098400 Si02
#       8
#     8   8   8   8   8   8   8   8
#     4  11  24  41  60  87 120 159 201 245 297 352
#     4  10  20  34  56  87 119 153 192 241 297 351
#     4  11  22  35  57  88 116 148 192 243 294 345
#     4  10  20  34  56  87 119 153 192 241 297 351
#     4  10  20  37  62  88 116 155 201 243 291 357
#     4  11  22  35  57  88 116 148 192 243 294 345
#     4  11  24  41  60  87 120 159 201 245 297 352
#     4  10  20  37  62  88 116 155 201 243 291 357
#
# _framework density 19.368303000000001
#
# number of rings (size 3 to 8) (size 9 to 14) (size 15 to 20)
#    0.000    1.500    2.500    3.000    0.000    3.500 
#    0.000    3.750    0.000    0.000    0.000    0.000 
#    0.000    0.000    0.000    0.000    0.000    0.000 
#
# Total GULP energy -396731.317127 kJ/mol
# GULP energy per Si atom -12397.853660 kJ/mol
# Density = 1.932422 g / cm^3
# Si number density = 19.368303 Si / 1000 Ang^3
#
#
#
# Elastic Constant Matrix: (Units=GPa)
#
#
# Indices 1 2 3 4 5 6 
#
# 1 100.8208 36.6811 58.8362 0.0057 9.4283 -0.0069
# 2 36.6811 51.5954 38.3850 0.0007 7.0810 -0.0041
# 3 58.8362 38.3850 125.4828 0.0034 5.6651 -0.0121
# 4 0.0057 0.0007 0.0034 28.7374 0.0020 9.6220
# 5 9.4283 7.0810 5.6651 0.0020 33.1847 0.0036
# 6 -0.0069 -0.0041 -0.0121 9.6220 0.0036 29.8775
#
#
#
# Elastic Compliance Matrix: (Units=1/GPa)
#
#
# Indices 1 2 3 4 5 6 
#
# 1 0.015647 -0.007057 -0.005084 -0.000003 -0.002072 0.000002
# 2 -0.007057 0.028834 -0.005365 0.000002 -0.003232 0.000000
# 3 -0.005084 -0.005365 0.011970 -0.000001 0.000546 0.000003
# 4 -0.000003 0.000002 -0.000001 0.039004 0.000000 -0.012561
# 5 -0.002072 -0.003232 0.000546 0.000000 0.031319 -0.000004
# 6 0.000002 0.000000 0.000003 -0.012561 -0.000004 0.037515
#
#
# Mechanical properties :
#
#
# Convention : Reuss Voigt Hill
#
# Bulk Modulus (GPa) = 46.64835 60.63374 53.64105
# Shear Modulus (GPa) = 24.21918 27.95970 26.08944
#
# Velocity S-wave (km/s) = 3.54001 3.80357 3.67416
# Velocity P-wave (km/s) = 6.39110 7.11780 6.76422
#
# Compressibility (1/GPa) = 0.02143698
#
# Stress axis : x y z
#
# Youngs Moduli (GPa) = 63.91045 34.68138 83.54427
#
# Poissons Ratio (x) = 0.24475 0.42475
# Poissons Ratio (y) = 0.45103 0.44825
# Poissons Ratio (z) = 0.32493 0.18608
#
# Static dielectric constant tensor:
#      x y z
#    x 3.697220 -0.000030 0.216860 
#    y -0.000030 3.517200 0.000020 
#    z 0.216860 0.000020 3.707430 
# 
# 
# High freq. dielectric constant tensor:
#      x y z
#    x 1.745850 0.000000 0.021890 
#    y 0.000000 1.756800 0.000000 
#    z 0.021890 0.000000 1.753730 
# 
# From -- ./inp_files/328610.got.cif
#   From: 2010.06.25/outbox.cif.g09.slc.cpg/sg12_165_cif.got.tgz:328610.got - 2010.06.28 00:19:55.
