data_PCOD8098901
_publ_section_title
;
Structure prediction by ZEFSAII (Michael W. Deem and Ramdas Pophale) SiO2 
 PCOD8098901
Probable space group: C 2/M
;
_chemical_formula_sum "Si O2"
_cell_formula_units_Z 56
_cell_length_a 12.739148
_cell_length_b 20.603164
_cell_length_c 12.567700
_cell_angle_alpha 90.000000
_cell_angle_beta 62.885796
_cell_angle_gamma 90.000000
_cell_volume 2936.086412
_symmetry_space_group_name_H-M "C 2/M"
_symmetry_group_IT_number 12
_symmetry_cell_setting 'monoclinic'
loop_
_space_group_symop_operation_xyz
x,y,z
-x,y,-z
-x,-y,-z
x,-y,z
1/2+x,1/2+y,z
1/2-x,1/2+y,-z
1/2-x,1/2-y,-z
1/2+x,1/2-y,z
loop_
_atom_site_type_symbol
_atom_site_label
_atom_site_fract_x
_atom_site_fract_y
_atom_site_fract_z
Si Si1 0.905207 0.799039 0.269917
Si Si2 0.346831 0.327409 0.921123
Si Si3 0.410293 0.428124 0.381017
Si Si4 0.270941 0.209348 0.825141
Si Si5 0.019273 0.313797 0.617782
Si Si6 0.827347 0.074287 0.753374
Si Si7 0.314159 0.073929 0.374148
O O1 0.872062 0.872260 0.317219
O O2 0.796379 0.773547 0.252012
O O3 0.019460 0.801282 0.141536
O O4 0.919749 0.752047 0.366115
O O5 0.271920 0.276160 0.888418
O O6 0.328806 0.394662 0.869012
O O7 0.300138 0.338974 0.062935
O O8 0.408300 0.500000 0.327163
O O9 0.543708 0.413195 0.360605
O O10 0.316744 0.427114 0.517917
O O11 0.396182 0.178031 0.736703
O O12 0.000000 0.307480 0.500000
O O13 0.097241 0.377363 0.607469
O O14 0.717624 0.098812 0.730549
O O15 0.803940 0.000000 0.784959
O O16 0.366434 0.000000 0.353470
#
# Coordination Sequence:
#
# PCOD8098901 Si02
#       7
#     8   8   8   8   8   8   8
#     4  10  20  35  57  79 105 137 175 221 268 312
#     4   9  19  34  55  79 104 135 174 220 265 309
#     4   9  18  32  53  81 108 137 174 216 264 315
#     4  10  20  36  54  76 106 141 177 213 260 318
#     4  11  24  37  53  80 109 139 177 220 262 309
#     4   9  17  32  55  82 107 133 174 223 265 306
#     4  10  20  35  54  76 109 149 179 209 258 318
#
# _framework density 19.073008000000002
#
# number of rings (size 3 to 8) (size 9 to 14) (size 15 to 20)
#    0.000    2.286    0.000    2.571    0.000    7.714 
#    0.000    4.286    0.000    5.143    0.000    0.000 
#    0.000    0.000    0.000    0.000    0.000    0.000 
#
# Total GULP energy -346928.613639 kJ/mol
# GULP energy per Si atom -12390.307630 kJ/mol
# Density = 1.902960 g / cm^3
# Si number density = 19.073008 Si / 1000 Ang^3
#
#
#
# Elastic Constant Matrix: (Units=GPa)
#
#
# Indices 1 2 3 4 5 6 
#
# 1 98.6164 42.9329 35.0792 0.0000 17.4772 0.0000
# 2 42.9329 83.4562 31.5721 0.0000 7.1090 0.0000
# 3 35.0792 31.5721 79.8447 0.0000 0.8879 0.0000
# 4 0.0000 0.0000 0.0000 22.0076 0.0000 0.4879
# 5 17.4772 7.1090 0.8879 0.0000 23.9591 0.0000
# 6 0.0000 0.0000 0.0000 0.4879 0.0000 27.3568
#
#
#
# Elastic Compliance Matrix: (Units=1/GPa)
#
#
# Indices 1 2 3 4 5 6 
#
# 1 0.015999 -0.005615 -0.004699 0.000000 -0.009830 0.000000
# 2 -0.005615 0.016450 -0.004031 0.000000 -0.000636 0.000000
# 3 -0.004699 -0.004031 0.016138 0.000000 0.004026 0.000000
# 4 0.000000 0.000000 0.000000 0.045457 0.000000 -0.000811
# 5 -0.009830 -0.000636 0.004026 0.000000 0.048948 0.000000
# 6 0.000000 0.000000 0.000000 -0.000811 0.000000 0.036568
#
#
# Mechanical properties :
#
#
# Convention : Reuss Voigt Hill
#
# Bulk Modulus (GPa) = 50.26009 53.45398 51.85703
# Shear Modulus (GPa) = 23.26866 24.82025 24.04445
#
# Velocity S-wave (km/s) = 3.49661 3.61131 3.55442
# Velocity P-wave (km/s) = 6.53531 6.74356 6.64025
#
# Compressibility (1/GPa) = 0.01989650
#
# Stress axis : x y z
#
# Youngs Moduli (GPa) = 62.50560 60.79068 61.96610
#
# Poissons Ratio (x) = 0.34135 0.29119
# Poissons Ratio (y) = 0.35098 0.24976
# Poissons Ratio (z) = 0.29373 0.24502
#
# Static dielectric constant tensor:
#      x y z
#    x 3.500230 0.000000 -0.017910 
#    y 0.000000 3.592370 0.000000 
#    z -0.017910 0.000000 3.628050 
# 
# 
# High freq. dielectric constant tensor:
#      x y z
#    x 1.741440 0.000000 -0.000160 
#    y 0.000000 1.736840 0.000000 
#    z -0.000160 0.000000 1.729040 
# 
# From -- ./inp_files/133881.got.cif
#   From: 2010.06.25/outbox.cif.g09.slc.cpg/sg12_67_cif.got.tgz:133881.got - 2010.06.28 00:19:55.
