data_PCOD8098575
_publ_section_title
;
Structure prediction by ZEFSAII (Michael W. Deem and Ramdas Pophale) SiO2 
 PCOD8098575
Probable space group: C 2/M
;
_chemical_formula_sum "Si O2"
_cell_formula_units_Z 48
_cell_length_a 15.331011
_cell_length_b 22.498133
_cell_length_c 12.888919
_cell_angle_alpha 90.000000
_cell_angle_beta 144.002775
_cell_angle_gamma 90.000000
_cell_volume 2612.904292
_symmetry_space_group_name_H-M "C 2/M"
_symmetry_group_IT_number 12
_symmetry_cell_setting 'monoclinic'
loop_
_space_group_symop_operation_xyz
x,y,z
-x,y,-z
-x,-y,-z
x,-y,z
1/2+x,1/2+y,z
1/2-x,1/2+y,-z
1/2-x,1/2-y,-z
1/2+x,1/2-y,z
loop_
_atom_site_type_symbol
_atom_site_label
_atom_site_fract_x
_atom_site_fract_y
_atom_site_fract_z
Si Si1 0.886763 0.258439 0.296341
Si Si2 0.981953 0.885243 0.861240
Si Si3 0.186501 0.618093 0.883007
Si Si4 0.894220 0.500000 0.300309
Si Si5 0.410349 0.269369 0.690235
Si Si6 0.096981 0.318610 0.000592
Si Si7 0.864185 0.000000 0.795537
O O1 0.847688 0.325225 0.222662
O O2 0.738002 0.220419 0.177047
O O3 0.000000 0.262478 0.500000
O O4 0.971975 0.223448 0.288590
O O5 0.888982 0.832478 0.722665
O O6 0.870995 0.940946 0.731988
O O7 0.000000 0.872403 0.000000
O O8 0.139307 0.895955 0.957165
O O9 0.091585 0.560023 0.755967
O O10 0.146998 0.631894 0.965111
O O11 0.743073 0.500000 0.212650
O O12 0.000000 0.500000 0.500000
O O13 0.250000 0.250000 0.500000
O O14 0.475682 0.224460 0.835502
O O15 0.000000 0.348894 0.000000
O O16 0.000000 0.000000 0.000000
#
# Coordination Sequence:
#
# PCOD8098575 Si02
#       7
#     8   8   8   4   8   8   4
#     4  11  22  36  56  86 118 155 197 243 298 358
#     4  11  19  35  60  84 118 149 192 236 292 364
#     4  11  21  39  58  86 119 157 193 241 300 352
#     4  12  24  38  59  92 123 148 192 251 293 348
#     4  11  22  34  56  87 118 155 196 242 302 352
#     4  11  22  39  57  81 118 160 200 245 291 355
#     4  10  20  34  58  84 106 150 188 215 293 355
#
# _framework density 18.370363000000001
#
# number of rings (size 3 to 8) (size 9 to 14) (size 15 to 20)
#    0.000    1.000    6.667    3.000    2.333    2.667 
#    0.000    0.417    0.000    0.000    0.000    4.667 
#    0.000    0.000    0.000    0.000    0.000    0.000 
#
# Total GULP energy -297349.990955 kJ/mol
# GULP energy per Si atom -12389.582956 kJ/mol
# Density = 1.832855 g / cm^3
# Si number density = 18.370363 Si / 1000 Ang^3
#
#
#
# Elastic Constant Matrix: (Units=GPa)
#
#
# Indices 1 2 3 4 5 6 
#
# 1 129.4710 43.7414 25.8211 0.0000 -6.8110 0.0000
# 2 43.7414 124.9298 28.8477 0.0000 -13.5280 0.0000
# 3 25.8211 28.8477 87.1947 0.0000 1.9221 0.0000
# 4 0.0000 0.0000 0.0000 -16.5502 0.0000 -16.5735
# 5 -6.8110 -13.5280 1.9221 0.0000 26.8272 0.0000
# 6 0.0000 0.0000 0.0000 -16.5735 0.0000 21.6362
#
#
#
# Elastic Compliance Matrix: (Units=1/GPa)
#
#
# Indices 1 2 3 4 5 6 
#
# 1 0.009032 -0.002620 -0.001832 0.000000 0.001103 0.000000
# 2 -0.002620 0.010028 -0.002643 0.000000 0.004581 0.000000
# 3 -0.001832 -0.002643 0.012946 0.000000 -0.002725 0.000000
# 4 0.000000 0.000000 0.000000 -0.034193 0.000000 -0.026192
# 5 0.001103 0.004581 -0.002725 0.000000 0.040061 0.000000
# 6 0.000000 0.000000 0.000000 -0.026192 0.000000 0.026155
#
#
# Mechanical properties :
#
#
# Convention : Reuss Voigt Hill
#
# Bulk Modulus (GPa) = 56.12951 59.82397 57.97674
# Shear Modulus (GPa) = 59.41183 22.59497 41.00340
#
# Velocity S-wave (km/s) = 5.69310 3.51090 4.72957
# Velocity P-wave (km/s) = 8.59278 7.00510 7.83923
#
# Compressibility (1/GPa) = 0.01781594
#
# Stress axis : x y z
#
# Youngs Moduli (GPa) = 110.71338 99.71958 77.24608
#
# Poissons Ratio (x) = 0.26126 0.14154
# Poissons Ratio (y) = 0.29006 0.20415
# Poissons Ratio (z) = 0.20286 0.26355
#
# Static dielectric constant tensor:
#      x y z
#    x 3.566140 0.000000 -0.011280 
#    y 0.000000 4.324140 0.000000 
#    z -0.011280 0.000000 3.482050 
# 
# 
# High freq. dielectric constant tensor:
#      x y z
#    x 1.723580 0.000000 0.013290 
#    y 0.000000 1.702750 0.000000 
#    z 0.013290 0.000000 1.704450 
# 
# From -- ./inp_files/148068.got.cif
#   From: 2010.06.25/outbox.cif.g09.slc.cpg/sg12_75_cif.got.tgz:148068.got - 2010.06.28 00:19:55.
