data_PCOD8098461
_publ_section_title
;
Structure prediction by ZEFSAII (Michael W. Deem and Ramdas Pophale) SiO2 
 PCOD8098461
Probable space group: C 2/M
;
_chemical_formula_sum "Si O2"
_cell_formula_units_Z 64
_cell_length_a 22.092398
_cell_length_b 9.198309
_cell_length_c 17.061365
_cell_angle_alpha 90.000000
_cell_angle_beta 102.412017
_cell_angle_gamma 90.000000
_cell_volume 3386.050661
_symmetry_space_group_name_H-M "C 2/M"
_symmetry_group_IT_number 12
_symmetry_cell_setting 'monoclinic'
loop_
_space_group_symop_operation_xyz
x,y,z
-x,y,-z
-x,-y,-z
x,-y,z
1/2+x,1/2+y,z
1/2-x,1/2+y,-z
1/2-x,1/2-y,-z
1/2+x,1/2-y,z
loop_
_atom_site_type_symbol
_atom_site_label
_atom_site_fract_x
_atom_site_fract_y
_atom_site_fract_z
Si Si1 0.442952 0.331280 0.256159
Si Si2 0.600212 0.833013 0.042609
Si Si3 0.970935 0.831628 0.573907
Si Si4 0.775361 0.830209 0.931468
Si Si5 0.512438 0.166643 0.876486
Si Si6 0.343599 0.169947 0.555218
Si Si7 0.759216 0.669191 0.385502
Si Si8 0.814830 0.330871 0.236400
O O1 0.432347 0.500000 0.238150
O O2 0.477437 0.301069 0.346842
O O3 0.484678 0.269401 0.197684
O O4 0.377075 0.255445 0.239051
O O5 0.656949 0.726045 0.072028
O O6 0.551279 0.799475 0.097019
O O7 0.622482 0.000000 0.052660
O O8 0.570193 0.801705 0.949678
O O9 0.911474 0.736469 0.576811
O O10 0.000000 0.780892 0.500000
O O11 0.950970 0.000000 0.565652
O O12 0.731258 0.795373 0.846690
O O13 0.778557 0.000000 0.950671
O O14 0.750000 0.750000 0.000000
O O15 0.514466 0.000000 0.849287
O O16 0.302411 0.240872 0.612134
O O17 0.313258 0.203803 0.462657
O O18 0.348279 0.000000 0.573466
O O19 0.741353 0.500000 0.381029
O O20 0.783134 0.721576 0.307918
O O21 0.831762 0.500000 0.245794
#
# Coordination Sequence:
#
# PCOD8098461 Si02
#       8
#     8   8   8   8   8   8   8   8
#     4  11  23  36  55  83 109 138 180 226 270 317
#     4   9  19  37  59  81 107 143 182 217 261 318
#     4  10  22  39  56  76 108 147 181 219 269 320
#     4  11  23  37  55  80 109 142 180 222 269 319
#     4   9  19  37  59  81 109 144 178 216 266 321
#     4  10  20  34  57  86 110 139 180 222 266 317
#     4   9  19  37  58  80 110 145 179 219 267 318
#     4  10  22  39  57  77 106 145 182 219 268 321
#
# _framework density 18.901076
#
# number of rings (size 3 to 8) (size 9 to 14) (size 15 to 20)
#    0.000    2.125    0.000    3.375    0.000    8.250 
#    0.000    5.000    0.000    0.000    0.000    0.000 
#    0.000    0.000    0.000    0.000    0.000    0.000 
#
# Total GULP energy -396959.511153 kJ/mol
# GULP energy per Si atom -12404.984724 kJ/mol
# Density = 1.885806 g / cm^3
# Si number density = 18.901076 Si / 1000 Ang^3
#
#
#
# Elastic Constant Matrix: (Units=GPa)
#
#
# Indices 1 2 3 4 5 6 
#
# 1 122.4552 64.3901 45.3746 0.0000 -0.4646 0.0000
# 2 64.3901 78.0243 52.1441 0.0000 1.5156 0.0000
# 3 45.3746 52.1441 120.2500 0.0000 -14.3819 0.0000
# 4 0.0000 0.0000 0.0000 26.4215 0.0000 6.1164
# 5 -0.4646 1.5156 -14.3819 0.0000 25.4572 0.0000
# 6 0.0000 0.0000 0.0000 6.1164 0.0000 28.8805
#
#
#
# Elastic Compliance Matrix: (Units=1/GPa)
#
#
# Indices 1 2 3 4 5 6 
#
# 1 0.014455 -0.011780 -0.000248 0.000000 0.000825 0.000000
# 2 -0.011780 0.028510 -0.008737 0.000000 -0.006848 0.000000
# 3 -0.000248 -0.008737 0.013148 0.000000 0.007944 0.000000
# 4 0.000000 0.000000 0.000000 0.039799 0.000000 -0.008429
# 5 0.000825 -0.006848 0.007944 0.000000 0.044192 0.000000
# 6 0.000000 0.000000 0.000000 -0.008429 0.000000 0.036411
#
#
# Mechanical properties :
#
#
# Convention : Reuss Voigt Hill
#
# Bulk Modulus (GPa) = 68.56607 71.61635 70.09121
# Shear Modulus (GPa) = 22.43105 26.73986 24.58546
#
# Velocity S-wave (km/s) = 3.44868 3.76537 3.61050
# Velocity P-wave (km/s) = 7.22585 7.54164 7.38543
#
# Compressibility (1/GPa) = 0.01458447
#
# Stress axis : x y z
#
# Youngs Moduli (GPa) = 69.17886 35.07569 76.05657
#
# Poissons Ratio (x) = 0.41318 0.01884
# Poissons Ratio (y) = 0.81491 0.66449
# Poissons Ratio (z) = 0.01714 0.30645
#
# Static dielectric constant tensor:
#      x y z
#    x 3.483780 0.000000 -0.054010 
#    y 0.000000 3.482160 0.000000 
#    z -0.054010 0.000000 3.594320 
# 
# 
# High freq. dielectric constant tensor:
#      x y z
#    x 1.742290 0.000000 -0.006210 
#    y 0.000000 1.735490 0.000000 
#    z -0.006210 0.000000 1.741710 
# 
# From -- ./inp_files/281423.got.cif
#   From: 2010.06.25/outbox.cif.g09.slc.cpg/sg12_141_cif.got.tgz:281423.got - 2010.06.28 00:19:55.
