data_PCOD8098242
_publ_section_title
;
Structure prediction by ZEFSAII (Michael W. Deem and Ramdas Pophale) SiO2 
 PCOD8098242
Probable space group: C 2/M
;
_chemical_formula_sum "Si O2"
_cell_formula_units_Z 56
_cell_length_a 14.754616
_cell_length_b 8.666024
_cell_length_c 22.438036
_cell_angle_alpha 90.000000
_cell_angle_beta 105.907989
_cell_angle_gamma 90.000000
_cell_volume 2759.139480
_symmetry_space_group_name_H-M "C 2/M"
_symmetry_group_IT_number 12
_symmetry_cell_setting 'monoclinic'
loop_
_space_group_symop_operation_xyz
x,y,z
-x,y,-z
-x,-y,-z
x,-y,z
1/2+x,1/2+y,z
1/2-x,1/2+y,-z
1/2-x,1/2-y,-z
1/2+x,1/2-y,z
loop_
_atom_site_type_symbol
_atom_site_label
_atom_site_fract_x
_atom_site_fract_y
_atom_site_fract_z
Si Si1 0.889607 0.177379 0.059746
Si Si2 0.988382 0.673442 0.179636
Si Si3 0.463384 0.183583 0.411534
Si Si4 0.376257 0.182683 0.271006
Si Si5 0.306144 0.175083 0.803618
Si Si6 0.352704 0.684872 0.500355
Si Si7 0.297315 0.680079 0.926373
O O1 0.791982 0.217178 0.073879
O O2 0.973157 0.259181 0.110679
O O3 0.912082 0.000000 0.070797
O O4 0.882398 0.221478 0.988026
O O5 0.952250 0.500000 0.169469
O O6 0.097860 0.683332 0.216931
O O7 0.929188 0.752454 0.222274
O O8 0.433424 0.230478 0.339763
O O9 0.567012 0.255953 0.439542
O O10 0.384294 0.254148 0.441136
O O11 0.468219 0.000000 0.422278
O O12 0.273570 0.258859 0.254087
O O13 0.365295 0.000000 0.265867
O O14 0.324852 0.280769 0.864460
O O15 0.283133 0.000000 0.818763
O O16 0.348948 0.500000 0.499875
O O17 0.250000 0.750000 0.500000
O O18 0.271362 0.500000 0.927831
#
# Coordination Sequence:
#
# PCOD8098242 Si02
#       7
#     8   8   8   8   8   8   8
#     4  10  20  34  56  83 106 141 191 241 297 362
#     4  10  22  39  57  81 115 152 189 239 297 350
#     4  10  21  39  63  93 126 162 202 245 296 354
#     4  10  22  41  62  84 118 160 196 239 293 343
#     4  11  23  37  57  85 114 151 199 242 289 352
#     4  11  22  39  64  95 129 164 202 246 293 343
#     4  10  20  35  55  79 111 145 184 241 305 357
#
# _framework density 20.296182000000002
#
# number of rings (size 3 to 8) (size 9 to 14) (size 15 to 20)
#    0.000    1.714    1.429    3.857    0.000    5.714 
#    0.000    4.286    0.000    0.000    0.000    0.000 
#    0.000    0.000    0.000    0.000    0.000    0.000 
#
# Total GULP energy -347095.363000 kJ/mol
# GULP energy per Si atom -12396.262964 kJ/mol
# Density = 2.024999 g / cm^3
# Si number density = 20.296182 Si / 1000 Ang^3
#
#
#
# Elastic Constant Matrix: (Units=GPa)
#
#
# Indices 1 2 3 4 5 6 
#
# 1 91.6127 34.3837 48.6455 0.0000 23.3493 0.0000
# 2 34.3837 79.7700 48.9667 0.0000 8.2550 0.0000
# 3 48.6455 48.9667 148.0813 0.0000 16.6793 0.0000
# 4 0.0000 0.0000 0.0000 32.4694 0.0000 4.8022
# 5 23.3493 8.2550 16.6793 0.0000 23.4635 0.0000
# 6 0.0000 0.0000 0.0000 4.8022 0.0000 28.8138
#
#
#
# Elastic Compliance Matrix: (Units=1/GPa)
#
#
# Indices 1 2 3 4 5 6 
#
# 1 0.017614 -0.004465 -0.002731 0.000000 -0.014016 0.000000
# 2 -0.004465 0.016947 -0.004311 0.000000 0.001546 0.000000
# 3 -0.002731 -0.004311 0.009347 0.000000 -0.002410 0.000000
# 4 0.000000 0.000000 0.000000 0.031577 0.000000 -0.005263
# 5 -0.014016 0.001546 -0.002410 0.000000 0.057736 0.000000
# 6 0.000000 0.000000 0.000000 -0.005263 0.000000 0.035583
#
#
# Mechanical properties :
#
#
# Convention : Reuss Voigt Hill
#
# Bulk Modulus (GPa) = 47.86265 64.82841 56.34553
# Shear Modulus (GPa) = 25.15306 29.44722 27.30014
#
# Velocity S-wave (km/s) = 3.52419 3.81317 3.67152
# Velocity P-wave (km/s) = 6.33981 7.16921 6.76723
#
# Compressibility (1/GPa) = 0.02089312
#
# Stress axis : x y z
#
# Youngs Moduli (GPa) = 56.77405 59.00661 106.98301
#
# Poissons Ratio (x) = 0.26348 0.29217
# Poissons Ratio (y) = 0.25351 0.46123
# Poissons Ratio (z) = 0.15505 0.25439
#
# Static dielectric constant tensor:
#      x y z
#    x 3.603410 0.000000 0.046830 
#    y 0.000000 3.695620 0.000000 
#    z 0.046830 0.000000 3.840280 
# 
# 
# High freq. dielectric constant tensor:
#      x y z
#    x 1.788440 0.000000 0.009470 
#    y 0.000000 1.795550 0.000000 
#    z 0.009470 0.000000 1.795030 
# 
# From -- ./inp_files/339022.got.cif
#   From: 2010.06.25/outbox.cif.g09.slc.cpg/sg12_170_cif.got.tgz:339022.got - 2010.06.28 00:19:55.
