data_PCOD8098870
_publ_section_title
;
Structure prediction by ZEFSAII (Michael W. Deem and Ramdas Pophale) SiO2 
 PCOD8098870
Probable space group: C 2/M
;
_chemical_formula_sum "Si O2"
_cell_formula_units_Z 64
_cell_length_a 21.908535
_cell_length_b 9.191532
_cell_length_c 24.100251
_cell_angle_alpha 90.000000
_cell_angle_beta 46.773429
_cell_angle_gamma 90.000000
_cell_volume 3536.245644
_symmetry_space_group_name_H-M "C 2/M"
_symmetry_group_IT_number 12
_symmetry_cell_setting 'monoclinic'
loop_
_space_group_symop_operation_xyz
x,y,z
-x,y,-z
-x,-y,-z
x,-y,z
1/2+x,1/2+y,z
1/2-x,1/2+y,-z
1/2-x,1/2-y,-z
1/2+x,1/2-y,z
loop_
_atom_site_type_symbol
_atom_site_label
_atom_site_fract_x
_atom_site_fract_y
_atom_site_fract_z
Si Si1 0.099664 0.664997 0.792105
Si Si2 0.983837 0.828513 0.946506
Si Si3 0.069938 0.662139 0.415128
Si Si4 0.545424 0.835638 0.201154
Si Si5 0.022315 0.662285 0.640267
Si Si6 0.160523 0.172328 0.048169
Si Si7 0.317551 0.328445 0.494092
Si Si8 0.278854 0.671734 0.642255
O O1 0.107402 0.500000 0.809314
O O2 0.189413 0.730590 0.718856
O O3 0.060232 0.760034 0.865305
O O4 0.044846 0.671416 0.771026
O O5 0.893269 0.783294 0.974576
O O6 0.992496 0.000000 0.936773
O O7 0.000000 0.776632 0.000000
O O8 0.092321 0.500000 0.423059
O O9 0.151168 0.762240 0.361699
O O10 0.000000 0.730175 0.500000
O O11 0.040903 0.656218 0.370672
O O12 0.531605 0.788080 0.273119
O O13 0.607788 0.721046 0.134458
O O14 0.582504 0.000000 0.173454
O O15 0.060900 0.500000 0.626735
O O16 0.092294 0.780085 0.583483
O O17 0.174919 0.000000 0.040466
O O18 0.250000 0.250000 0.000000
O O19 0.309328 0.500000 0.493114
O O20 0.250000 0.250000 0.500000
O O21 0.300698 0.275162 0.566933
O O22 0.280898 0.500000 0.644822
#
# Coordination Sequence:
#
# PCOD8098870 Si02
#       8
#     8   8   8   8   8   8   8   8
#     4   9  18  34  55  79 106 138 175 216 263 316
#     4   9  19  37  59  83 110 141 177 220 267 322
#     4  10  20  35  54  75 103 141 184 225 266 315
#     4   9  18  35  58  79 107 143 177 218 269 319
#     4  10  20  36  55  76 105 140 179 222 269 319
#     4  10  20  36  59  85 114 145 181 222 271 327
#     4  11  22  34  52  77 104 137 176 221 269 318
#     4  10  21  36  53  75 106 141 178 218 267 319
#
# _framework density 18.098291
#
# number of rings (size 3 to 8) (size 9 to 14) (size 15 to 20)
#    0.000    2.250    1.250    1.500    0.000    5.000 
#    2.250    2.500    0.000    0.000    0.000    0.000 
#    0.000    0.000    0.000    0.000    0.000    0.000 
#
# Total GULP energy -396697.507982 kJ/mol
# GULP energy per Si atom -12396.797124 kJ/mol
# Density = 1.805710 g / cm^3
# Si number density = 18.098291 Si / 1000 Ang^3
#
#
#
# Elastic Constant Matrix: (Units=GPa)
#
#
# Indices 1 2 3 4 5 6 
#
# 1 105.1938 39.9074 69.1672 -0.0002 -1.9621 0.0004
# 2 39.9074 45.4175 40.5961 -0.0008 -2.2035 0.0008
# 3 69.1672 40.5961 123.4829 -0.0001 1.8941 0.0003
# 4 -0.0002 -0.0008 -0.0001 32.6992 0.0001 -4.7959
# 5 -1.9621 -2.2035 1.8941 0.0001 37.4461 -0.0002
# 6 0.0004 0.0008 0.0003 -4.7959 -0.0002 28.4194
#
#
#
# Elastic Compliance Matrix: (Units=1/GPa)
#
#
# Indices 1 2 3 4 5 6 
#
# 1 0.017483 -0.009296 -0.006747 0.000000 0.000710 0.000000
# 2 -0.009296 0.036333 -0.006768 0.000001 0.001993 -0.000001
# 3 -0.006747 -0.006768 0.014125 0.000000 -0.001466 0.000000
# 4 0.000000 0.000001 0.000000 0.031358 0.000000 0.005292
# 5 0.000710 0.001993 -0.001466 0.000000 0.026934 0.000000
# 6 0.000000 -0.000001 0.000000 0.005292 0.000000 0.036080
#
#
# Mechanical properties :
#
#
# Convention : Reuss Voigt Hill
#
# Bulk Modulus (GPa) = 44.80825 63.71508 54.26166
# Shear Modulus (GPa) = 23.21527 28.00782 25.61154
#
# Velocity S-wave (km/s) = 3.58541 3.93815 3.76591
# Velocity P-wave (km/s) = 6.47706 7.48065 6.99687
#
# Compressibility (1/GPa) = 0.02231732
#
# Stress axis : x y z
#
# Youngs Moduli (GPa) = 57.19915 27.52339 70.79463
#
# Poissons Ratio (x) = 0.25586 0.47768
# Poissons Ratio (y) = 0.53173 0.47915
# Poissons Ratio (z) = 0.38595 0.18628
#
# Static dielectric constant tensor:
#      x y z
#    x 3.474370 0.000000 0.111250 
#    y 0.000000 3.438880 0.000000 
#    z 0.111250 0.000000 3.304090 
# 
# 
# High freq. dielectric constant tensor:
#      x y z
#    x 1.702770 0.000000 0.002230 
#    y 0.000000 1.697570 0.000000 
#    z 0.002230 0.000000 1.698760 
# 
# From -- ./inp_files/345971.got.cif
#   From: 2010.06.25/outbox.cif.g09.slc.cpg/sg12_173_cif.got.tgz:345971.got - 2010.06.28 00:19:55.
