data_PCOD8098259
_publ_section_title
;
Structure prediction by ZEFSAII (Michael W. Deem and Ramdas Pophale) SiO2 
 PCOD8098259
Probable space group: C 2/M
;
_chemical_formula_sum "Si O2"
_cell_formula_units_Z 56
_cell_length_a 33.201999
_cell_length_b 8.593993
_cell_length_c 14.865521
_cell_angle_alpha 90.000000
_cell_angle_beta 46.065791
_cell_angle_gamma 90.000000
_cell_volume 3054.600906
_symmetry_space_group_name_H-M "C 2/M"
_symmetry_group_IT_number 12
_symmetry_cell_setting 'monoclinic'
loop_
_space_group_symop_operation_xyz
x,y,z
-x,y,-z
-x,-y,-z
x,-y,z
1/2+x,1/2+y,z
1/2-x,1/2+y,-z
1/2-x,1/2-y,-z
1/2+x,1/2-y,z
loop_
_atom_site_type_symbol
_atom_site_label
_atom_site_fract_x
_atom_site_fract_y
_atom_site_fract_z
Si Si1 0.186619 0.319314 0.741936
Si Si2 0.321329 0.319525 0.959732
Si Si3 0.098985 0.319222 0.029911
Si Si4 0.507476 0.317902 0.886410
Si Si5 0.792338 0.820360 0.807104
Si Si6 0.866193 0.819345 0.347750
Si Si7 0.304092 0.179882 0.605448
O O1 0.202694 0.500000 0.724617
O O2 0.169333 0.281833 0.667119
O O3 0.239552 0.217521 0.687131
O O4 0.135547 0.273534 0.886124
O O5 0.306535 0.500000 0.996647
O O6 0.379600 0.275522 0.916307
O O7 0.325592 0.280488 0.847096
O O8 0.273147 0.217477 0.080372
O O9 0.103036 0.500000 0.045845
O O10 0.035205 0.272907 0.111376
O O11 0.494610 0.500000 0.899114
O O12 0.568937 0.273648 0.757415
O O13 0.500000 0.259472 0.000000
O O14 0.818958 0.719651 0.685716
O O15 0.797394 0.000000 0.772868
O O16 0.844336 0.782374 0.480814
O O17 0.857619 0.000000 0.337828
O O18 0.315668 0.000000 0.568641
#
# Coordination Sequence:
#
# PCOD8098259 Si02
#       7
#     8   8   8   8   8   8   8
#     4  11  22  36  54  81 115 150 186 227 274 330
#     4  10  20  34  56  83 113 146 182 226 276 331
#     4  11  22  34  56  84 116 149 181 228 277 325
#     4  10  21  38  59  81 107 144 189 232 276 325
#     4  10  20  35  55  82 113 145 183 227 276 330
#     4  11  23  39  58  79 110 150 189 233 277 330
#     4  12  24  37  56  81 113 152 187 228 277 334
#
# _framework density 18.332999999999998
#
# number of rings (size 3 to 8) (size 9 to 14) (size 15 to 20)
#    0.000    1.286    2.857    3.857    0.000    4.286 
#    0.000    0.000    0.000    0.857    0.000    6.000 
#    0.000    0.000    0.000    0.000    0.000    0.000 
#
# Total GULP energy -347392.133165 kJ/mol
# GULP energy per Si atom -12406.861899 kJ/mol
# Density = 1.829127 g / cm^3
# Si number density = 18.333000 Si / 1000 Ang^3
#
#
#
# Elastic Constant Matrix: (Units=GPa)
#
#
# Indices 1 2 3 4 5 6 
#
# 1 108.7621 24.2229 38.3332 0.0000 12.8436 0.0000
# 2 24.2229 52.7527 19.4859 0.0001 1.0607 -0.0003
# 3 38.3332 19.4859 83.7361 0.0000 7.8789 0.0000
# 4 0.0000 0.0001 0.0000 27.0154 0.0000 0.7920
# 5 12.8436 1.0607 7.8789 0.0000 25.7804 0.0000
# 6 0.0000 -0.0003 0.0000 0.7920 0.0000 31.6201
#
#
#
# Elastic Compliance Matrix: (Units=1/GPa)
#
#
# Indices 1 2 3 4 5 6 
#
# 1 0.012082 -0.003908 -0.004191 0.000000 -0.004578 0.000000
# 2 -0.003908 0.022013 -0.003533 0.000000 0.002121 0.000000
# 3 -0.004191 -0.003533 0.014901 0.000000 -0.002321 0.000000
# 4 0.000000 0.000000 0.000000 0.037043 0.000000 -0.000928
# 5 -0.004578 0.002121 -0.002321 0.000000 0.041692 0.000000
# 6 0.000000 0.000000 0.000000 -0.000928 0.000000 0.031649
#
#
# Mechanical properties :
#
#
# Convention : Reuss Voigt Hill
#
# Bulk Modulus (GPa) = 38.86082 45.48167 42.17124
# Shear Modulus (GPa) = 26.14754 27.76378 26.95566
#
# Velocity S-wave (km/s) = 3.78068 3.89577 3.83866
# Velocity P-wave (km/s) = 6.34833 6.71554 6.53451
#
# Compressibility (1/GPa) = 0.02573286
#
# Stress axis : x y z
#
# Youngs Moduli (GPa) = 82.76478 45.42720 67.10745
#
# Poissons Ratio (x) = 0.17752 0.28125
# Poissons Ratio (y) = 0.32343 0.23711
# Poissons Ratio (z) = 0.34687 0.16051
#
# Static dielectric constant tensor:
#      x y z
#    x 3.386310 0.000000 0.152750 
#    y 0.000000 3.362070 0.000000 
#    z 0.152750 0.000000 3.293940 
# 
# 
# High freq. dielectric constant tensor:
#      x y z
#    x 1.709180 0.000000 0.012720 
#    y 0.000000 1.721560 0.000000 
#    z 0.012720 0.000000 1.691600 
# 
# From -- ./inp_files/237470.got.cif
#   From: 2010.06.25/outbox.cif.g09.slc.cpg/sg12_119_cif.got.tgz:237470.got - 2010.06.28 00:19:55.
