data_PCOD8098021
_publ_section_title
;
Structure prediction by ZEFSAII (Michael W. Deem and Ramdas Pophale) SiO2 
 PCOD8098021
Probable space group: C 2/M
;
_chemical_formula_sum "Si O2"
_cell_formula_units_Z 56
_cell_length_a 17.946007
_cell_length_b 8.955268
_cell_length_c 20.280869
_cell_angle_alpha 90.000000
_cell_angle_beta 118.031147
_cell_angle_gamma 90.000000
_cell_volume 2877.016106
_symmetry_space_group_name_H-M "C 2/M"
_symmetry_group_IT_number 12
_symmetry_cell_setting 'monoclinic'
loop_
_space_group_symop_operation_xyz
x,y,z
-x,y,-z
-x,-y,-z
x,-y,z
1/2+x,1/2+y,z
1/2-x,1/2+y,-z
1/2-x,1/2-y,-z
1/2+x,1/2-y,z
loop_
_atom_site_type_symbol
_atom_site_label
_atom_site_fract_x
_atom_site_fract_y
_atom_site_fract_z
Si Si1 0.905514 0.328213 0.983951
Si Si2 0.096263 0.327927 0.865287
Si Si3 0.194578 0.665347 0.567810
Si Si4 0.772305 0.323163 0.718884
Si Si5 0.740656 0.672794 0.151924
Si Si6 0.561091 0.676818 0.263236
Si Si7 0.125404 0.164844 0.426015
O O1 0.878305 0.500000 0.962346
O O2 0.896720 0.280157 0.056035
O O3 0.847291 0.223460 0.915772
O O4 0.000000 0.300533 0.000000
O O5 0.067609 0.500000 0.846618
O O6 0.186519 0.298175 0.870728
O O7 0.028820 0.223404 0.801736
O O8 0.166838 0.500000 0.578938
O O9 0.205656 0.769267 0.636195
O O10 0.122157 0.730002 0.489039
O O11 0.280966 0.657860 0.563966
O O12 0.778139 0.500000 0.719136
O O13 0.737729 0.268891 0.774653
O O14 0.865495 0.256805 0.747342
O O15 0.733911 0.500000 0.169069
O O16 0.575256 0.500000 0.262668
O O17 0.565093 0.725057 0.342212
O O18 0.096735 0.000000 0.436506
#
# Coordination Sequence:
#
# PCOD8098021 Si02
#       7
#     8   8   8   8   8   8   8
#     4  10  21  38  60  85 111 141 179 222 269 322
#     4  10  22  38  56  81 114 148 180 219 269 323
#     4   9  16  27  46  74 106 139 178 224 272 323
#     4  11  21  34  54  78 108 145 184 229 279 325
#     4  11  23  38  56  80 111 146 185 225 266 319
#     4  10  20  34  55  82 111 143 183 228 271 323
#     4   8  15  27  44  72 107 140 175 218 269 322
#
# _framework density 19.464611000000001
#
# number of rings (size 3 to 8) (size 9 to 14) (size 15 to 20)
#    0.000    2.143    0.000    4.714    0.000    7.143 
#    0.000    0.000    0.000    0.857    0.000    6.000 
#    0.000    0.000    0.000    0.000    0.000    0.000 
#
# Total GULP energy -347244.782621 kJ/mol
# GULP energy per Si atom -12401.599379 kJ/mol
# Density = 1.942031 g / cm^3
# Si number density = 19.464611 Si / 1000 Ang^3
#
#
#
# Elastic Constant Matrix: (Units=GPa)
#
#
# Indices 1 2 3 4 5 6 
#
# 1 49.4304 29.7100 35.4581 0.0000 -13.6156 0.0000
# 2 29.7100 115.1349 57.9212 0.0000 -7.8555 0.0000
# 3 35.4581 57.9212 130.7342 0.0000 -17.2798 0.0000
# 4 0.0000 0.0000 0.0000 38.6728 0.0000 2.0566
# 5 -13.6156 -7.8555 -17.2798 0.0000 6.3263 0.0000
# 6 0.0000 0.0000 0.0000 2.0566 0.0000 22.2638
#
#
#
# Elastic Compliance Matrix: (Units=1/GPa)
#
#
# Indices 1 2 3 4 5 6 
#
# 1 0.055446 -0.008404 0.004818 0.000000 0.122057 0.000000
# 2 -0.008404 0.012451 -0.005609 0.000000 -0.017947 0.000000
# 3 0.004818 -0.005609 0.014519 0.000000 0.043062 0.000000
# 4 0.000000 0.000000 0.000000 0.025986 0.000000 -0.002400
# 5 0.122057 -0.017947 0.043062 0.000000 0.516099 0.000000
# 6 0.000000 0.000000 0.000000 -0.002400 0.000000 0.045138
#
#
# Mechanical properties :
#
#
# Convention : Reuss Voigt Hill
#
# Bulk Modulus (GPa) = 15.61855 60.16427 37.89141
# Shear Modulus (GPa) = 7.04849 24.93326 15.99088
#
# Velocity S-wave (km/s) = 1.90500 3.58292 2.86935
# Velocity P-wave (km/s) = 3.58890 6.93492 5.52147
#
# Compressibility (1/GPa) = 0.06402643
#
# Stress axis : x y z
#
# Youngs Moduli (GPa) = 18.03555 80.31205 68.87336
#
# Poissons Ratio (x) = 0.67491 -0.33182
# Poissons Ratio (y) = 0.15156 0.38634
# Poissons Ratio (z) = -0.08689 0.45051
#
# Static dielectric constant tensor:
#      x y z
#    x 3.167320 0.000000 -0.061930 
#    y 0.000000 3.658970 0.000000 
#    z -0.061930 0.000000 3.809130 
# 
# 
# High freq. dielectric constant tensor:
#      x y z
#    x 1.719550 0.000000 -0.002400 
#    y 0.000000 1.763460 0.000000 
#    z -0.002400 0.000000 1.776310 
# 
# From -- ./inp_files/275673.got.cif
#   From: 2010.06.25/outbox.cif.g09.slc.cpg/sg12_138_cif.got.tgz:275673.got - 2010.06.28 00:19:55.
