data_PCOD8098408
_publ_section_title
;
Structure prediction by ZEFSAII (Michael W. Deem and Ramdas Pophale) SiO2 
 PCOD8098408
Probable space group: C 2/M
;
_chemical_formula_sum "Si O2"
_cell_formula_units_Z 64
_cell_length_a 19.539966
_cell_length_b 8.494012
_cell_length_c 24.252668
_cell_angle_alpha 90.000000
_cell_angle_beta 50.678481
_cell_angle_gamma 90.000000
_cell_volume 3113.966470
_symmetry_space_group_name_H-M "C 2/M"
_symmetry_group_IT_number 12
_symmetry_cell_setting 'monoclinic'
loop_
_space_group_symop_operation_xyz
x,y,z
-x,y,-z
-x,-y,-z
x,-y,z
1/2+x,1/2+y,z
1/2-x,1/2+y,-z
1/2-x,1/2-y,-z
1/2+x,1/2-y,z
loop_
_atom_site_type_symbol
_atom_site_label
_atom_site_fract_x
_atom_site_fract_y
_atom_site_fract_z
Si Si1 0.260883 0.313995 0.394399
Si Si2 0.580306 0.183358 0.623537
Si Si3 0.073756 0.182394 0.227849
Si Si4 0.460887 0.314698 0.874950
Si Si5 0.747383 0.684723 0.826189
Si Si6 0.089538 0.187264 0.982359
Si Si7 0.155178 0.184561 0.760839
Si Si8 0.432345 0.314742 0.487302
O O1 0.244492 0.500000 0.402157
O O2 0.327403 0.271376 0.410271
O O3 0.302971 0.247021 0.316339
O O4 0.167671 0.228836 0.447366
O O5 0.507559 0.218612 0.707095
O O6 0.541837 0.237483 0.584285
O O7 0.601022 0.000000 0.611208
O O8 0.162972 0.219572 0.213879
O O9 0.089984 0.227709 0.155366
O O10 0.048134 0.000000 0.247064
O O11 0.470380 0.500000 0.878873
O O12 0.408347 0.249919 0.955390
O O13 0.559075 0.239869 0.821441
O O14 0.764606 0.500000 0.826392
O O15 0.717920 0.723677 0.779625
O O16 0.675143 0.751573 0.906322
O O17 0.090933 0.000000 0.977191
O O18 0.000000 0.251730 0.000000
O O19 0.142792 0.000000 0.758765
O O20 0.500000 0.252141 0.500000
O O21 0.442430 0.500000 0.475914
#
# Coordination Sequence:
#
# PCOD8098408 Si02
#       8
#     8   8   8   8   8   8   8   8
#     4  11  22  40  66  94 125 164 206 248 299 359
#     4  12  25  43  67  92 121 159 205 253 302 359
#     4  11  23  39  58  83 121 163 199 244 308 369
#     4   9  16  31  55  83 113 153 200 245 296 357
#     4  10  20  34  56  89 120 152 201 257 304 354
#     4   9  15  27  53  85 115 148 198 256 303 351
#     4   9  17  32  57  87 117 152 198 248 295 348
#     4  11  26  46  66  94 130 163 198 244 298 356
#
# _framework density 20.552565000000001
#
# number of rings (size 3 to 8) (size 9 to 14) (size 15 to 20)
#    0.000    1.750    2.500    2.625    1.750    1.500 
#    0.000    0.625    0.000    1.125    0.000    0.000 
#    0.000    0.000    0.000    0.000    0.000    0.000 
#
# Total GULP energy -396803.760116 kJ/mol
# GULP energy per Si atom -12400.117504 kJ/mol
# Density = 2.050579 g / cm^3
# Si number density = 20.552565 Si / 1000 Ang^3
#
#
#
# Elastic Constant Matrix: (Units=GPa)
#
#
# Indices 1 2 3 4 5 6 
#
# 1 109.4092 11.3929 32.4253 -0.0002 2.4175 -0.0005
# 2 11.3929 31.5370 16.8836 0.0000 5.9276 -0.0007
# 3 32.4253 16.8836 96.3598 0.0000 13.4662 0.0002
# 4 -0.0002 0.0000 0.0000 20.1371 0.0000 -1.3936
# 5 2.4175 5.9276 13.4662 0.0000 40.4495 0.0000
# 6 -0.0005 -0.0007 0.0002 -1.3936 0.0000 21.8831
#
#
#
# Elastic Compliance Matrix: (Units=1/GPa)
#
#
# Indices 1 2 3 4 5 6 
#
# 1 0.010294 -0.002153 -0.003193 0.000000 0.000763 0.000000
# 2 -0.002153 0.035850 -0.005077 0.000000 -0.003435 0.000001
# 3 -0.003193 -0.005077 0.012807 0.000000 -0.003329 0.000000
# 4 0.000000 0.000000 0.000000 0.049879 0.000000 0.003177
# 5 0.000763 -0.003435 -0.003329 0.000000 0.026288 0.000000
# 6 0.000000 0.000001 0.000000 0.003177 0.000000 0.045900
#
#
# Mechanical properties :
#
#
# Convention : Reuss Voigt Hill
#
# Bulk Modulus (GPa) = 26.24339 39.85665 33.05002
# Shear Modulus (GPa) = 23.30287 28.26754 25.78520
#
# Velocity S-wave (km/s) = 3.37087 3.71263 3.54587
# Velocity P-wave (km/s) = 5.28649 6.14921 5.73410
#
# Compressibility (1/GPa) = 0.03810483
#
# Stress axis : x y z
#
# Youngs Moduli (GPa) = 97.14690 27.89394 78.08145
#
# Poissons Ratio (x) = 0.06004 0.24934
# Poissons Ratio (y) = 0.20911 0.39643
# Poissons Ratio (z) = 0.31023 0.14162
#
# Static dielectric constant tensor:
#      x y z
#    x 3.788860 0.000000 0.157910 
#    y 0.000000 3.284530 0.000000 
#    z 0.157910 0.000000 4.019770 
# 
# 
# High freq. dielectric constant tensor:
#      x y z
#    x 1.810110 0.000000 0.008600 
#    y 0.000000 1.763670 0.000000 
#    z 0.008600 0.000000 1.819210 
# 
# From -- ./inp_files/346052.got.cif
#   From: 2010.06.25/outbox.cif.g09.slc.cpg/sg12_174_cif.got.tgz:346052.got - 2010.06.28 00:19:55.
