data_PCOD8098589
_publ_section_title
;
Structure prediction by ZEFSAII (Michael W. Deem and Ramdas Pophale) SiO2 
 PCOD8098589
Probable space group: C 2/M
;
_chemical_formula_sum "Si O2"
_cell_formula_units_Z 48
_cell_length_a 19.637510
_cell_length_b 32.488800
_cell_length_c 8.287314
_cell_angle_alpha 90.000000
_cell_angle_beta 150.866520
_cell_angle_gamma 90.000000
_cell_volume 2574.099783
_symmetry_space_group_name_H-M "C 2/M"
_symmetry_group_IT_number 12
_symmetry_cell_setting 'monoclinic'
loop_
_space_group_symop_operation_xyz
x,y,z
-x,y,-z
-x,-y,-z
x,-y,z
1/2+x,1/2+y,z
1/2-x,1/2+y,-z
1/2-x,1/2-y,-z
1/2+x,1/2-y,z
loop_
_atom_site_type_symbol
_atom_site_label
_atom_site_fract_x
_atom_site_fract_y
_atom_site_fract_z
Si Si1 0.534127 0.166232 0.253631
Si Si2 0.872224 0.755364 0.627482
Si Si3 0.721498 0.378385 0.069240
Si Si4 0.545781 0.602956 0.269523
Si Si5 0.766797 0.830786 0.229118
Si Si6 0.651778 0.454775 0.739855
O O1 0.595346 0.212075 0.389442
O O2 0.644768 0.133119 0.547752
O O3 0.500000 0.153790 0.000000
O O4 0.398538 0.165517 0.085965
O O5 0.750000 0.750000 0.500000
O O6 0.825659 0.785217 0.385845
O O7 0.000000 0.772604 0.000000
O O8 0.582836 0.380446 0.889754
O O9 0.697254 0.344351 0.879057
O O10 0.747076 0.423459 0.042256
O O11 0.655851 0.640031 0.481793
O O12 0.627631 0.564007 0.512818
O O13 0.500000 0.588312 0.000000
O O14 0.500000 0.459371 0.500000
O O15 0.723917 0.500000 0.879305
#
# Coordination Sequence:
#
# PCOD8098589 Si02
#       6
#     8   8   8   8   8   8
#     4  11  22  37  57  80 112 152 192 236 285 333
#     4  11  22  38  56  84 114 157 193 234 287 328
#     4  10  22  37  57  86 111 151 192 231 288 338
#     4  10  20  34  58  86 112 149 192 235 282 336
#     4  11  21  37  55  79 116 150 191 235 283 336
#     4   8  16  34  57  85 119 146 179 229 285 340
#
# _framework density 18.647296000000001
#
# number of rings (size 3 to 8) (size 9 to 14) (size 15 to 20)
#    0.000    1.833    3.333    3.500    2.333    1.000 
#    0.000    1.667    0.000    8.500    0.000    0.000 
#    0.000    0.000    0.000    0.000    0.000    0.000 
#
# Total GULP energy -297530.485750 kJ/mol
# GULP energy per Si atom -12397.103573 kJ/mol
# Density = 1.860485 g / cm^3
# Si number density = 18.647296 Si / 1000 Ang^3
#
#
#
# Elastic Constant Matrix: (Units=GPa)
#
#
# Indices 1 2 3 4 5 6 
#
# 1 92.0361 48.7806 32.9212 0.0000 -4.7496 0.0000
# 2 48.7806 145.5661 74.5643 0.0000 -12.7483 0.0000
# 3 32.9212 74.5643 111.9753 0.0000 -7.4058 0.0000
# 4 0.0000 0.0000 0.0000 28.7943 0.0000 -1.0061
# 5 -4.7496 -12.7483 -7.4058 0.0000 38.6930 0.0000
# 6 0.0000 0.0000 0.0000 -1.0061 0.0000 16.5768
#
#
#
# Elastic Compliance Matrix: (Units=1/GPa)
#
#
# Indices 1 2 3 4 5 6 
#
# 1 0.013363 -0.003731 -0.001435 0.000000 0.000136 0.000000
# 2 -0.003731 0.011644 -0.006516 0.000000 0.002131 0.000000
# 3 -0.001435 -0.006516 0.013712 0.000000 0.000301 0.000000
# 4 0.000000 0.000000 0.000000 0.034803 0.000000 0.002112
# 5 0.000136 0.002131 0.000301 0.000000 0.026621 0.000000
# 6 0.000000 0.000000 0.000000 0.002112 0.000000 0.060453
#
#
# Mechanical properties :
#
#
# Convention : Reuss Voigt Hill
#
# Bulk Modulus (GPa) = 65.12839 73.56774 69.34806
# Shear Modulus (GPa) = 26.44385 29.70026 28.07206
#
# Velocity S-wave (km/s) = 3.76986 3.99524 3.88419
# Velocity P-wave (km/s) = 7.34516 7.79875 7.57535
#
# Compressibility (1/GPa) = 0.01535429
#
# Stress axis : x y z
#
# Youngs Moduli (GPa) = 74.83220 85.87751 72.93090
#
# Poissons Ratio (x) = 0.32040 0.10469
# Poissons Ratio (y) = 0.27919 0.47523
# Poissons Ratio (z) = 0.10741 0.55959
#
# Static dielectric constant tensor:
#      x y z
#    x 3.289870 0.000000 -0.104090 
#    y 0.000000 -2.450050 0.000000 
#    z -0.104090 0.000000 3.176090 
# 
# 
# High freq. dielectric constant tensor:
#      x y z
#    x 1.717770 0.000000 -0.004580 
#    y 0.000000 1.716050 0.000000 
#    z -0.004580 0.000000 1.724580 
# 
# From -- ./inp_files/91460.got.cif
#   From: 2010.06.25/outbox.cif.g09.slc.cpg/sg12_46_cif.got.tgz:91460.got - 2010.06.28 00:19:55.
