data_PCOD8098623
_publ_section_title
;
Structure prediction by ZEFSAII (Michael W. Deem and Ramdas Pophale) SiO2 
 PCOD8098623
Probable space group: C 2/M
;
_chemical_formula_sum "Si O2"
_cell_formula_units_Z 48
_cell_length_a 14.441675
_cell_length_b 20.950545
_cell_length_c 11.922373
_cell_angle_alpha 90.000000
_cell_angle_beta 137.187355
_cell_angle_gamma 90.000000
_cell_volume 2451.495074
_symmetry_space_group_name_H-M "C 2/M"
_symmetry_group_IT_number 12
_symmetry_cell_setting 'monoclinic'
loop_
_space_group_symop_operation_xyz
x,y,z
-x,y,-z
-x,-y,-z
x,-y,z
1/2+x,1/2+y,z
1/2-x,1/2+y,-z
1/2-x,1/2-y,-z
1/2+x,1/2-y,z
loop_
_atom_site_type_symbol
_atom_site_label
_atom_site_fract_x
_atom_site_fract_y
_atom_site_fract_z
Si Si1 0.666117 0.227656 0.768467
Si Si2 0.847429 0.291340 0.502103
Si Si3 0.289879 0.929733 0.526132
Si Si4 0.224423 0.149179 0.949053
Si Si5 0.470434 0.928879 0.092284
Si Si6 0.002560 0.927769 0.628347
O O1 0.685535 0.228775 0.653192
O O2 0.507793 0.220925 0.668689
O O3 0.726964 0.293952 0.863083
O O4 0.765355 0.174322 0.913329
O O5 0.750000 0.250000 0.500000
O O6 0.818908 0.367714 0.476292
O O7 0.390178 0.929136 0.718415
O O8 0.144622 0.922779 0.451730
O O9 0.302104 0.000000 0.474314
O O10 0.093864 0.107279 0.802465
O O11 0.360017 0.108815 0.062297
O O12 0.413716 0.000000 0.021220
O O13 0.500000 0.895086 0.000000
O O14 0.000000 0.896777 0.500000
O O15 0.056280 0.000000 0.664760
#
# Coordination Sequence:
#
# PCOD8098623 Si02
#       6
#     8   8   8   8   8   8
#     4  10  25  40  60  90 123 158 217 248 308 380
#     4  11  23  43  64  89 122 169 205 259 312 370
#     4  10  21  39  60  89 120 159 208 249 297 369
#     4  11  21  39  60  88 123 159 198 263 305 367
#     4  10  20  34  58  90 125 159 202 256 312 365
#     4  10  21  36  60  91 123 159 199 247 311 371
#
# _framework density 19.579889000000001
#
# number of rings (size 3 to 8) (size 9 to 14) (size 15 to 20)
#    0.000    1.667    1.667    2.500    7.000    2.667 
#    0.000   10.000    0.000    2.000    0.000    0.000 
#    0.000    0.000    0.000    0.000    0.000    0.000 
#
# Total GULP energy -297358.852584 kJ/mol
# GULP energy per Si atom -12389.952191 kJ/mol
# Density = 1.953532 g / cm^3
# Si number density = 19.579889 Si / 1000 Ang^3
#
#
#
# Elastic Constant Matrix: (Units=GPa)
#
#
# Indices 1 2 3 4 5 6 
#
# 1 80.6895 38.2604 39.3443 0.0000 7.7205 0.0000
# 2 38.2604 101.5560 33.2485 0.0000 13.6095 0.0000
# 3 39.3443 33.2485 131.8459 0.0000 -5.3435 0.0000
# 4 0.0000 0.0000 0.0000 -155.6670 0.0000 -117.9116
# 5 7.7205 13.6095 -5.3435 0.0000 50.6983 0.0000
# 6 0.0000 0.0000 0.0000 -117.9116 0.0000 -54.3448
#
#
#
# Elastic Compliance Matrix: (Units=1/GPa)
#
#
# Indices 1 2 3 4 5 6 
#
# 1 0.016706 -0.004816 -0.003838 0.000000 -0.001656 0.000000
# 2 -0.004816 0.012657 -0.001871 0.000000 -0.002861 0.000000
# 3 -0.003838 -0.001871 0.009285 0.000000 0.002065 0.000000
# 4 0.000000 0.000000 0.000000 0.009984 0.000000 -0.021661
# 5 -0.001656 -0.002861 0.002065 0.000000 0.020963 0.000000
# 6 0.000000 0.000000 0.000000 -0.021661 0.000000 0.028597
#
#
# Mechanical properties :
#
#
# Convention : Reuss Voigt Hill
#
# Bulk Modulus (GPa) = 56.81830 59.53310 58.17570
# Shear Modulus (GPa) = 39.96561 -18.31349 10.82606
#
# Velocity S-wave (km/s) = 4.52282 -3.06162 2.35397
# Velocity P-wave (km/s) = 7.50708 4.23948 6.09629
#
# Compressibility (1/GPa) = 0.01759996
#
# Stress axis : x y z
#
# Youngs Moduli (GPa) = 59.85700 79.00811 107.69561
#
# Poissons Ratio (x) = 0.38047 0.41335
# Poissons Ratio (y) = 0.28824 0.20147
# Poissons Ratio (z) = 0.22974 0.14780
#
# Static dielectric constant tensor:
#      x y z
#    x 3.355640 0.000000 0.099980 
#    y 0.000000 4.103040 0.000000 
#    z 0.099980 0.000000 3.659640 
# 
# 
# High freq. dielectric constant tensor:
#      x y z
#    x 1.738460 0.000000 0.013000 
#    y 0.000000 1.778380 0.000000 
#    z 0.013000 0.000000 1.776570 
# 
# From -- ./inp_files/147931.got.cif
#   From: 2010.06.25/outbox.cif.g09.slc.cpg/sg12_74_cif.got.tgz:147931.got - 2010.06.28 00:19:55.
