data_PCOD8098367
_publ_section_title
;
Structure prediction by ZEFSAII (Michael W. Deem and Ramdas Pophale) SiO2 
 PCOD8098367
Probable space group: C 2/M
;
_chemical_formula_sum "Si O2"
_cell_formula_units_Z 64
_cell_length_a 18.575597
_cell_length_b 8.915205
_cell_length_c 20.666319
_cell_angle_alpha 90.000000
_cell_angle_beta 100.805386
_cell_angle_gamma 90.000000
_cell_volume 3361.769717
_symmetry_space_group_name_H-M "C 2/M"
_symmetry_group_IT_number 12
_symmetry_cell_setting 'monoclinic'
loop_
_space_group_symop_operation_xyz
x,y,z
-x,y,-z
-x,-y,-z
x,-y,z
1/2+x,1/2+y,z
1/2-x,1/2+y,-z
1/2-x,1/2-y,-z
1/2+x,1/2-y,z
loop_
_atom_site_type_symbol
_atom_site_label
_atom_site_fract_x
_atom_site_fract_y
_atom_site_fract_z
Si Si1 0.602194 0.826356 0.604692
Si Si2 0.762135 0.324268 0.070638
Si Si3 0.330195 0.330222 0.270639
Si Si4 0.049332 0.176446 0.219927
Si Si5 0.817058 0.328775 0.825563
Si Si6 0.828975 0.674899 0.518526
Si Si7 0.093327 0.327213 0.830404
Si Si8 0.052446 0.675982 0.360396
O O1 0.658672 0.723792 0.654435
O O2 0.618607 0.787538 0.533211
O O3 0.518462 0.784979 0.607912
O O4 0.618317 0.000000 0.622391
O O5 0.743616 0.500000 0.065614
O O6 0.708819 0.244158 0.112039
O O7 0.846534 0.296030 0.104388
O O8 0.750000 0.250000 0.000000
O O9 0.359353 0.500000 0.265738
O O10 0.244894 0.321331 0.239695
O O11 0.375825 0.216732 0.234293
O O12 0.116575 0.234245 0.189985
O O13 0.048245 0.239961 0.291974
O O14 0.977801 0.227393 0.167614
O O15 0.052881 0.000000 0.224816
O O16 0.840357 0.500000 0.843188
O O17 0.813754 0.500000 0.520498
O O18 0.750000 0.750000 0.500000
O O19 0.874489 0.729435 0.589183
O O20 0.070049 0.500000 0.823988
O O21 0.056041 0.500000 0.346490
#
# Coordination Sequence:
#
# PCOD8098367 Si02
#       8
#     8   8   8   8   8   8   8   8
#     4  10  20  36  59  81 108 149 195 239 291 354
#     4  10  21  39  65  94 124 160 200 238 283 342
#     4  10  20  34  56  86 114 147 192 240 289 343
#     4  12  24  37  58  89 122 153 196 249 298 347
#     4  10  22  39  59  85 122 160 196 240 293 346
#     4  10  23  40  57  81 111 149 196 245 301 359
#     4  10  20  37  60  87 120 157 194 233 284 344
#     4  10  21  39  60  80 110 154 198 240 295 359
#
# _framework density 19.037593000000001
#
# number of rings (size 3 to 8) (size 9 to 14) (size 15 to 20)
#    0.000    1.750    1.250    3.000    1.750    5.500 
#    0.000    0.625    0.000    6.000    0.000    0.000 
#    0.000    0.000    0.000    0.000    0.000    0.000 
#
# Total GULP energy -396865.611765 kJ/mol
# GULP energy per Si atom -12402.050368 kJ/mol
# Density = 1.899426 g / cm^3
# Si number density = 19.037593 Si / 1000 Ang^3
#
#
#
# Elastic Constant Matrix: (Units=GPa)
#
#
# Indices 1 2 3 4 5 6 
#
# 1 119.6225 57.0792 60.6364 0.0000 -2.3374 0.0000
# 2 57.0792 103.6721 66.1838 0.0000 3.7422 0.0000
# 3 60.6364 66.1838 109.3142 0.0000 8.9217 0.0000
# 4 0.0000 0.0000 0.0000 28.9962 0.0000 -0.0116
# 5 -2.3374 3.7422 8.9217 0.0000 23.2516 0.0000
# 6 0.0000 0.0000 0.0000 -0.0116 0.0000 33.9983
#
#
#
# Elastic Compliance Matrix: (Units=1/GPa)
#
#
# Indices 1 2 3 4 5 6 
#
# 1 0.012914 -0.004034 -0.005038 0.000000 0.003880 0.000000
# 2 -0.004034 0.017013 -0.008059 0.000000 -0.000052 0.000000
# 3 -0.005038 -0.008059 0.017299 0.000000 -0.005847 0.000000
# 4 0.000000 0.000000 0.000000 0.034487 0.000000 0.000012
# 5 0.003880 -0.000052 -0.005847 0.000000 0.045650 0.000000
# 6 0.000000 0.000000 0.000000 0.000012 0.000000 0.029413
#
#
# Mechanical properties :
#
#
# Convention : Reuss Voigt Hill
#
# Bulk Modulus (GPa) = 77.13076 77.82304 77.47690
# Shear Modulus (GPa) = 25.59392 27.16317 26.37855
#
# Velocity S-wave (km/s) = 3.67057 3.78142 3.72641
# Velocity P-wave (km/s) = 7.65291 7.74809 7.70065
#
# Compressibility (1/GPa) = 0.01296500
#
# Stress axis : x y z
#
# Youngs Moduli (GPa) = 77.43576 58.77699 57.80817
#
# Poissons Ratio (x) = 0.23712 0.29121
# Poissons Ratio (y) = 0.31239 0.46586
# Poissons Ratio (z) = 0.39009 0.47367
#
# Static dielectric constant tensor:
#      x y z
#    x 3.632190 0.000000 0.158140 
#    y 0.000000 3.554620 0.000000 
#    z 0.158140 0.000000 3.465760 
# 
# 
# High freq. dielectric constant tensor:
#      x y z
#    x 1.745240 0.000000 0.006660 
#    y 0.000000 1.746160 0.000000 
#    z 0.006660 0.000000 1.733390 
# 
# From -- ./inp_files/314207.got.cif
#   From: 2010.06.25/outbox.cif.g09.slc.cpg/sg12_158_cif.got.tgz:314207.got - 2010.06.28 00:19:55.
