data_PCOD8098907
_publ_section_title
;
Structure prediction by ZEFSAII (Michael W. Deem and Ramdas Pophale) SiO2 
 PCOD8098907
Probable space group: C 2/M
;
_chemical_formula_sum "Si O2"
_cell_formula_units_Z 64
_cell_length_a 14.473614
_cell_length_b 9.033544
_cell_length_c 27.155791
_cell_angle_alpha 90.000000
_cell_angle_beta 106.363366
_cell_angle_gamma 90.000000
_cell_volume 3406.747990
_symmetry_space_group_name_H-M "C 2/M"
_symmetry_group_IT_number 12
_symmetry_cell_setting 'monoclinic'
loop_
_space_group_symop_operation_xyz
x,y,z
-x,y,-z
-x,-y,-z
x,-y,z
1/2+x,1/2+y,z
1/2-x,1/2+y,-z
1/2-x,1/2-y,-z
1/2+x,1/2-y,z
loop_
_atom_site_type_symbol
_atom_site_label
_atom_site_fract_x
_atom_site_fract_y
_atom_site_fract_z
Si Si1 0.293135 0.674451 0.864247
Si Si2 0.522664 0.671819 0.765783
Si Si3 0.703396 0.828989 0.420957
Si Si4 0.602657 0.329387 0.492934
Si Si5 0.465673 0.171672 0.941350
Si Si6 0.084706 0.330223 0.866081
Si Si7 0.172084 0.824998 0.313904
Si Si8 0.268768 0.325229 0.239862
O O1 0.301728 0.500000 0.857083
O O2 0.375996 0.729088 0.912694
O O3 0.194397 0.722277 0.876216
O O4 0.299802 0.754270 0.812218
O O5 0.519111 0.500000 0.775874
O O6 0.513919 0.746455 0.817937
O O7 0.435502 0.721819 0.717947
O O8 0.621073 0.718666 0.753978
O O9 0.627345 0.772847 0.450129
O O10 0.813789 0.807987 0.454205
O O11 0.689851 0.730202 0.371195
O O12 0.680772 0.000000 0.406321
O O13 0.500000 0.279138 0.500000
O O14 0.597557 0.500000 0.474727
O O15 0.553566 0.201494 0.917237
O O16 0.434520 0.000000 0.936640
O O17 0.500000 0.223669 0.000000
O O18 0.074536 0.500000 0.850394
O O19 0.246796 0.744446 0.289305
O O20 0.188334 0.000000 0.313724
O O21 0.251493 0.500000 0.238283
#
# Coordination Sequence:
#
# PCOD8098907 Si02
#       8
#     8   8   8   8   8   8   8   8
#     4  10  20  35  54  77 104 134 171 214 262 313
#     4   9  20  36  54  76 103 138 176 211 253 311
#     4  10  21  36  55  82 111 140 179 222 265 314
#     4   9  19  38  61  80 104 142 183 223 268 316
#     4  10  21  36  53  75 103 136 174 215 262 314
#     4   9  19  35  54  75 102 135 170 213 261 310
#     4  11  22  36  54  79 113 146 175 215 264 310
#     4  10  20  36  56  78 104 137 177 215 256 309
#
# _framework density 18.786245000000001
#
# number of rings (size 3 to 8) (size 9 to 14) (size 15 to 20)
#    0.000    2.250    0.000    2.250    0.000    7.000 
#    0.000    5.000    0.000    0.000    0.000    0.000 
#    0.000    0.000    0.000    0.000    0.000    0.000 
#
# Total GULP energy -396906.601665 kJ/mol
# GULP energy per Si atom -12403.331302 kJ/mol
# Density = 1.874349 g / cm^3
# Si number density = 18.786245 Si / 1000 Ang^3
#
#
#
# Elastic Constant Matrix: (Units=GPa)
#
#
# Indices 1 2 3 4 5 6 
#
# 1 87.4285 28.8129 35.5486 0.0000 -10.6671 0.0000
# 2 28.8129 59.6355 31.7991 0.0000 -7.7177 0.0000
# 3 35.5486 31.7991 104.2051 0.0000 -14.7940 0.0000
# 4 0.0000 0.0000 0.0000 35.7083 0.0000 1.5570
# 5 -10.6671 -7.7177 -14.7940 0.0000 20.5415 0.0000
# 6 0.0000 0.0000 0.0000 1.5570 0.0000 22.9248
#
#
#
# Elastic Compliance Matrix: (Units=1/GPa)
#
#
# Indices 1 2 3 4 5 6 
#
# 1 0.014762 -0.005079 -0.002972 0.000000 0.003617 0.000000
# 2 -0.005079 0.022001 -0.004658 0.000000 0.002274 0.000000
# 3 -0.002972 -0.004658 0.012881 0.000000 0.005983 0.000000
# 4 0.000000 0.000000 0.000000 0.028088 0.000000 -0.001908
# 5 0.003617 0.002274 0.005983 0.000000 0.055723 0.000000
# 6 0.000000 0.000000 0.000000 -0.001908 0.000000 0.043750
#
#
# Mechanical properties :
#
#
# Convention : Reuss Voigt Hill
#
# Bulk Modulus (GPa) = 41.28100 49.28782 45.28441
# Shear Modulus (GPa) = 23.73047 26.17550 24.95299
#
# Velocity S-wave (km/s) = 3.55799 3.73679 3.64848
# Velocity P-wave (km/s) = 6.23705 6.70158 6.47348
#
# Compressibility (1/GPa) = 0.02422422
#
# Stress axis : x y z
#
# Youngs Moduli (GPa) = 67.74326 45.45335 77.63108
#
# Poissons Ratio (x) = 0.23086 0.23075
# Poissons Ratio (y) = 0.34407 0.36162
# Poissons Ratio (z) = 0.20136 0.21173
#
# Static dielectric constant tensor:
#      x y z
#    x 3.655500 0.000000 -0.019470 
#    y 0.000000 3.458490 0.000000 
#    z -0.019470 0.000000 3.420270 
# 
# 
# High freq. dielectric constant tensor:
#      x y z
#    x 1.737030 0.000000 -0.002990 
#    y 0.000000 1.734000 0.000000 
#    z -0.002990 0.000000 1.725690 
# 
# From -- ./inp_files/359944.got.cif
#   From: 2010.06.25/outbox.cif.g09.slc.cpg/sg12_180_cif.got.tgz:359944.got - 2010.06.28 00:19:55.
