data_PCOD8098787
_publ_section_title
;
Structure prediction by ZEFSAII (Michael W. Deem and Ramdas Pophale) SiO2 
 PCOD8098787
Probable space group: C 2/M
;
_chemical_formula_sum "Si O2"
_cell_formula_units_Z 56
_cell_length_a 23.622925
_cell_length_b 9.103217
_cell_length_c 15.393030
_cell_angle_alpha 90.000000
_cell_angle_beta 117.130343
_cell_angle_gamma 90.000000
_cell_volume 2945.972900
_symmetry_space_group_name_H-M "C 2/M"
_symmetry_group_IT_number 12
_symmetry_cell_setting 'monoclinic'
loop_
_space_group_symop_operation_xyz
x,y,z
-x,y,-z
-x,-y,-z
x,-y,z
1/2+x,1/2+y,z
1/2-x,1/2+y,-z
1/2-x,1/2-y,-z
1/2+x,1/2-y,z
loop_
_atom_site_type_symbol
_atom_site_label
_atom_site_fract_x
_atom_site_fract_y
_atom_site_fract_z
Si Si1 0.252692 0.829970 0.871234
Si Si2 0.031548 0.828293 0.773001
Si Si3 0.561391 0.329244 0.595666
Si Si4 0.098233 0.329488 0.324873
Si Si5 0.158538 0.673476 0.548779
Si Si6 0.651742 0.828937 0.909815
Si Si7 0.222518 0.670017 0.307839
O O1 0.191859 0.736416 0.857721
O O2 0.272822 0.781948 0.789136
O O3 0.232345 0.000000 0.861354
O O4 0.312480 0.797864 0.974956
O O5 0.049915 0.792689 0.687274
O O6 0.083680 0.750209 0.870138
O O7 0.962486 0.764289 0.745726
O O8 0.030910 0.000000 0.792692
O O9 0.500000 0.275734 0.500000
O O10 0.575379 0.500000 0.588953
O O11 0.621963 0.238249 0.606245
O O12 0.079128 0.500000 0.315255
O O13 0.123886 0.276094 0.436324
O O14 0.151228 0.298813 0.289368
O O15 0.161785 0.500000 0.558021
O O16 0.229829 0.736075 0.599430
O O17 0.641347 0.000000 0.885187
O O18 0.240266 0.500000 0.332959
#
# Coordination Sequence:
#
# PCOD8098787 Si02
#       7
#     8   8   8   8   8   8   8
#     4   9  19  37  59  83 108 139 179 219 263 319
#     4  11  22  36  56  80 108 144 182 218 265 322
#     4  10  20  35  53  75 105 142 179 214 258 315
#     4  10  22  38  54  76 108 145 183 223 263 311
#     4  11  22  34  53  82 111 140 177 224 274 314
#     4  10  20  35  58  85 112 138 170 220 275 320
#     4  10  21  38  58  77 104 144 186 221 259 316
#
# _framework density 19.009001000000001
#
# number of rings (size 3 to 8) (size 9 to 14) (size 15 to 20)
#    0.000    1.857    1.429    2.571    0.000    7.143 
#    0.000    0.714    0.000    4.286    0.000    0.000 
#    0.000    0.000    0.000    0.000    0.000    0.000 
#
# Total GULP energy -347364.650480 kJ/mol
# GULP energy per Si atom -12405.880374 kJ/mol
# Density = 1.896574 g / cm^3
# Si number density = 19.009001 Si / 1000 Ang^3
#
#
#
# Elastic Constant Matrix: (Units=GPa)
#
#
# Indices 1 2 3 4 5 6 
#
# 1 115.4121 53.5987 47.6997 0.0000 15.6331 0.0000
# 2 53.5987 75.3918 37.9067 0.0000 15.6878 0.0000
# 3 47.6997 37.9067 68.8120 0.0000 18.4178 0.0000
# 4 0.0000 0.0000 0.0000 28.4970 0.0000 8.9724
# 5 15.6331 15.6878 18.4178 0.0000 32.5191 0.0000
# 6 0.0000 0.0000 0.0000 8.9724 0.0000 33.7911
#
#
#
# Elastic Compliance Matrix: (Units=1/GPa)
#
#
# Indices 1 2 3 4 5 6 
#
# 1 0.014566 -0.007296 -0.006065 0.000000 -0.000048 0.000000
# 2 -0.007296 0.022382 -0.006272 0.000000 -0.003738 0.000000
# 3 -0.006065 -0.006272 0.024282 0.000000 -0.007811 0.000000
# 4 0.000000 0.000000 0.000000 0.038293 0.000000 -0.010168
# 5 -0.000048 -0.003738 -0.007811 0.000000 0.037001 0.000000
# 6 0.000000 0.000000 0.000000 -0.010168 0.000000 0.032293
#
#
# Mechanical properties :
#
#
# Convention : Reuss Voigt Hill
#
# Bulk Modulus (GPa) = 45.52739 59.78069 52.65404
# Shear Modulus (GPa) = 23.21198 26.98884 25.10041
#
# Velocity S-wave (km/s) = 3.49822 3.77210 3.63774
# Velocity P-wave (km/s) = 6.34974 7.10553 6.73824
#
# Compressibility (1/GPa) = 0.02196480
#
# Stress axis : x y z
#
# Youngs Moduli (GPa) = 68.65216 44.67796 41.18230
#
# Poissons Ratio (x) = 0.32598 0.24977
# Poissons Ratio (y) = 0.50090 0.25828
# Poissons Ratio (z) = 0.41638 0.28021
#
# Static dielectric constant tensor:
#      x y z
#    x 3.455370 0.000000 0.076220 
#    y 0.000000 3.439070 0.000000 
#    z 0.076220 0.000000 3.510500 
# 
# 
# High freq. dielectric constant tensor:
#      x y z
#    x 1.738390 0.000000 0.010840 
#    y 0.000000 1.738700 0.000000 
#    z 0.010840 0.000000 1.737060 
# 
# From -- ./inp_files/238935.got.cif
#   From: 2010.06.25/outbox.cif.g09.slc.cpg/sg12_120_cif.got.tgz:238935.got - 2010.06.28 00:19:55.
