data_PCOD8098602
_publ_section_title
;
Structure prediction by ZEFSAII (Michael W. Deem and Ramdas Pophale) SiO2 
 PCOD8098602
Probable space group: C 2/M
;
_chemical_formula_sum "Si O2"
_cell_formula_units_Z 44
_cell_length_a 22.533043
_cell_length_b 9.031252
_cell_length_c 28.065661
_cell_angle_alpha 90.000000
_cell_angle_beta 158.319487
_cell_angle_gamma 90.000000
_cell_volume 2109.969100
_symmetry_space_group_name_H-M "C 2/M"
_symmetry_group_IT_number 12
_symmetry_cell_setting 'monoclinic'
loop_
_space_group_symop_operation_xyz
x,y,z
-x,y,-z
-x,-y,-z
x,-y,z
1/2+x,1/2+y,z
1/2-x,1/2+y,-z
1/2-x,1/2-y,-z
1/2+x,1/2-y,z
loop_
_atom_site_type_symbol
_atom_site_label
_atom_site_fract_x
_atom_site_fract_y
_atom_site_fract_z
Si Si1 0.991948 0.826548 0.394478
Si Si2 0.653419 0.173516 0.304237
Si Si3 0.698653 0.834768 0.234164
Si Si4 0.852851 0.823793 0.117799
Si Si5 0.187659 0.664650 0.817414
Si Si6 0.500000 0.742707 0.000000
O O1 0.169551 0.794754 0.544448
O O2 0.865431 0.764960 0.339503
O O3 0.958103 0.737761 0.320759
O O4 0.960157 0.000000 0.360874
O O5 0.639981 0.238888 0.239977
O O6 0.535985 0.269410 0.249549
O O7 0.607268 0.000000 0.273327
O O8 0.563579 0.838275 0.092164
O O9 0.740557 0.000000 0.281371
O O10 0.779826 0.768079 0.113025
O O11 0.840269 0.000000 0.105646
O O12 0.750000 0.750000 0.000000
O O13 0.135092 0.500000 0.793976
O O14 0.350871 0.647517 0.908185
#
# Coordination Sequence:
#
# PCOD8098602 Si02
#       6
#     8   8   8   8   8   4
#     4   9  19  36  59  88 119 154 197 242 289 344
#     4  10  20  37  61  87 119 158 197 240 291 344
#     4   9  17  31  56  89 121 154 194 239 287 345
#     4  12  26  43  62  86 117 153 195 239 287 346
#     4  11  23  40  61  86 118 153 193 241 293 348
#     4  10  20  34  58  88 119 152 189 240 299 348
#
# _framework density 20.853386
#
# number of rings (size 3 to 8) (size 9 to 14) (size 15 to 20)
#    0.000    1.818    0.000    4.364    0.000    7.273 
#    0.000    3.636    0.000    5.455    0.000    0.000 
#    0.000    0.000    0.000    0.000    0.000    0.000 
#
# Total GULP energy -272719.458853 kJ/mol
# GULP energy per Si atom -12396.339039 kJ/mol
# Density = 2.080592 g / cm^3
# Si number density = 20.853386 Si / 1000 Ang^3
#
#
#
# Elastic Constant Matrix: (Units=GPa)
#
#
# Indices 1 2 3 4 5 6 
#
# 1 113.6735 46.2579 48.1024 0.0061 -13.1344 -0.0011
# 2 46.2579 117.8937 38.8840 0.0054 -6.4380 -0.0020
# 3 48.1024 38.8840 120.6116 -0.0349 -6.0767 -0.0056
# 4 0.0061 0.0054 -0.0349 26.9434 0.0162 -2.7091
# 5 -13.1344 -6.4380 -6.0767 0.0162 33.9205 0.0009
# 6 -0.0011 -0.0020 -0.0056 -2.7091 0.0009 25.9130
#
#
#
# Elastic Compliance Matrix: (Units=1/GPa)
#
#
# Indices 1 2 3 4 5 6 
#
# 1 0.012067 -0.003378 -0.003553 -0.000009 0.003395 -0.000002
# 2 -0.003378 0.010491 -0.002019 -0.000004 0.000322 0.000000
# 3 -0.003553 -0.002019 0.010364 0.000015 0.000098 0.000003
# 4 -0.000009 -0.000004 0.000015 0.037509 -0.000020 0.003921
# 5 0.003395 0.000322 0.000098 -0.000020 0.030874 -0.000003
# 6 -0.000002 0.000000 0.000003 0.003921 -0.000003 0.039001
#
#
# Mechanical properties :
#
#
# Convention : Reuss Voigt Hill
#
# Bulk Modulus (GPa) = 66.56253 68.74081 67.65167
# Shear Modulus (GPa) = 30.63498 31.95100 31.29299
#
# Velocity S-wave (km/s) = 3.83700 3.91855 3.87799
# Velocity P-wave (km/s) = 7.18461 7.31497 7.25008
#
# Compressibility (1/GPa) = 0.01502347
#
# Stress axis : x y z
#
# Youngs Moduli (GPa) = 82.86874 95.32025 96.48997
#
# Poissons Ratio (x) = 0.32196 0.34280
# Poissons Ratio (y) = 0.27990 0.19480
# Poissons Ratio (z) = 0.29441 0.19244
#
# Static dielectric constant tensor:
#      x y z
#    x 4.061790 0.000000 0.014330 
#    y 0.000000 3.491840 -0.000010 
#    z 0.014330 -0.000010 3.756500 
# 
# 
# High freq. dielectric constant tensor:
#      x y z
#    x 1.827440 0.000000 -0.001590 
#    y 0.000000 1.788180 0.000000 
#    z -0.001590 0.000000 1.822320 
# 
# From -- ./inp_files/382589.got.cif
#   From: 2010.06.25/outbox.cif.g09.slc.cpg/sg12_192_cif.got.tgz:382589.got - 2010.06.28 00:19:55.
