data_PCOD8098261
_publ_section_title
;
Structure prediction by ZEFSAII (Michael W. Deem and Ramdas Pophale) SiO2 
 PCOD8098261
Probable space group: C 2/M
;
_chemical_formula_sum "Si O2"
_cell_formula_units_Z 64
_cell_length_a 14.748046
_cell_length_b 8.648198
_cell_length_c 26.224162
_cell_angle_alpha 90.000000
_cell_angle_beta 89.696648
_cell_angle_gamma 90.000000
_cell_volume 3344.688214
_symmetry_space_group_name_H-M "C 2/M"
_symmetry_group_IT_number 12
_symmetry_cell_setting 'monoclinic'
loop_
_space_group_symop_operation_xyz
x,y,z
-x,y,-z
-x,-y,-z
x,-y,z
1/2+x,1/2+y,z
1/2-x,1/2+y,-z
1/2-x,1/2-y,-z
1/2+x,1/2-y,z
loop_
_atom_site_type_symbol
_atom_site_label
_atom_site_fract_x
_atom_site_fract_y
_atom_site_fract_z
Si Si1 0.503594 0.817265 0.309967
Si Si2 0.499253 0.815381 0.573390
Si Si3 0.100109 0.175902 0.124146
Si Si4 0.395547 0.676281 0.131593
Si Si5 0.351129 0.316786 0.763275
Si Si6 0.254398 0.819584 0.944477
Si Si7 0.647298 0.685253 0.500016
Si Si8 0.850901 0.317932 0.236942
O O1 0.501006 0.762278 0.368133
O O2 0.592740 0.753883 0.282886
O O3 0.415039 0.750178 0.281273
O O4 0.505719 0.000000 0.306425
O O5 0.591278 0.745998 0.549061
O O6 0.407718 0.745694 0.549121
O O7 0.499407 0.000000 0.566242
O O8 0.113539 0.239536 0.181578
O O9 0.151802 0.280154 0.083305
O O10 0.995778 0.186634 0.108340
O O11 0.136293 0.000000 0.120739
O O12 0.369541 0.500000 0.145276
O O13 0.327496 0.746607 0.089862
O O14 0.391744 0.775420 0.182471
O O15 0.357514 0.500000 0.759674
O O16 0.249827 0.251023 0.756230
O O17 0.243539 0.000000 0.950891
O O18 0.250000 0.750000 0.000000
O O19 0.650494 0.500000 0.499966
O O20 0.750000 0.750000 0.500000
O O21 0.846714 0.500000 0.240989
#
# Coordination Sequence:
#
# PCOD8098261 Si02
#       8
#     8   8   8   8   8   8   8   8
#     4  10  22  37  56  85 122 155 190 237 287 337
#     4  10  21  39  59  87 125 162 202 250 297 349
#     4  10  20  37  59  83 111 144 185 230 278 336
#     4  10  21  37  58  82 109 144 184 227 280 338
#     4  10  20  34  56  83 113 152 193 232 279 337
#     4  11  24  40  59  83 111 144 184 234 289 343
#     4  11  22  39  64  91 118 157 205 251 305 361
#     4  10  20  35  55  82 113 149 188 230 278 332
#
# _framework density 19.134819
#
# number of rings (size 3 to 8) (size 9 to 14) (size 15 to 20)
#    0.000    1.750    2.500    2.625    0.000    4.500 
#    0.000    3.750    0.000    0.000    0.000    0.000 
#    0.000    0.000    0.000    0.000    0.000    0.000 
#
# Total GULP energy -396825.726303 kJ/mol
# GULP energy per Si atom -12400.803947 kJ/mol
# Density = 1.909127 g / cm^3
# Si number density = 19.134819 Si / 1000 Ang^3
#
#
#
# Elastic Constant Matrix: (Units=GPa)
#
#
# Indices 1 2 3 4 5 6 
#
# 1 142.2961 31.5669 61.8654 0.0000 1.2747 0.0000
# 2 31.5669 52.7344 33.4622 0.0000 0.3337 0.0000
# 3 61.8654 33.4622 157.8343 0.0000 -2.1678 0.0000
# 4 0.0000 0.0000 0.0000 31.1839 0.0000 -5.0722
# 5 1.2747 0.3337 -2.1678 0.0000 26.9578 0.0000
# 6 0.0000 0.0000 0.0000 -5.0722 0.0000 31.0461
#
#
#
# Elastic Compliance Matrix: (Units=1/GPa)
#
#
# Indices 1 2 3 4 5 6 
#
# 1 0.009052 -0.003649 -0.002783 0.000000 -0.000607 0.000000
# 2 -0.003649 0.023393 -0.003535 0.000000 -0.000401 0.000000
# 3 -0.002783 -0.003535 0.008187 0.000000 0.000834 0.000000
# 4 0.000000 0.000000 0.000000 0.032943 0.000000 0.005382
# 5 -0.000607 -0.000401 0.000834 0.000000 0.037196 0.000000
# 6 0.000000 0.000000 0.000000 0.005382 0.000000 0.033090
#
#
# Mechanical properties :
#
#
# Convention : Reuss Voigt Hill
#
# Bulk Modulus (GPa) = 48.31095 67.40599 57.85847
# Shear Modulus (GPa) = 29.29214 32.90224 31.09719
#
# Velocity S-wave (km/s) = 3.91683 4.15118 4.03570
# Velocity P-wave (km/s) = 6.76445 7.63412 7.21241
#
# Compressibility (1/GPa) = 0.02069924
#
# Stress axis : x y z
#
# Youngs Moduli (GPa) = 110.46706 42.74826 122.13897
#
# Poissons Ratio (x) = 0.15599 0.33991
# Poissons Ratio (y) = 0.40311 0.43172
# Poissons Ratio (z) = 0.30742 0.15110
#
# Static dielectric constant tensor:
#      x y z
#    x 3.496290 0.000000 0.200490 
#    y 0.000000 3.444000 0.000000 
#    z 0.200490 0.000000 3.611420 
# 
# 
# High freq. dielectric constant tensor:
#      x y z
#    x 1.757840 0.000000 0.003890 
#    y 0.000000 1.738420 0.000000 
#    z 0.003890 0.000000 1.743580 
# 
# From -- ./inp_files/338922.got.cif
#   From: 2010.06.25/outbox.cif.g09.slc.cpg/sg12_170_cif.got.tgz:338922.got - 2010.06.28 00:19:55.
