data_PCOD8098726
_publ_section_title
;
Structure prediction by ZEFSAII (Michael W. Deem and Ramdas Pophale) SiO2 
 PCOD8098726
Probable space group: C 2/M
;
_chemical_formula_sum "Si O2"
_cell_formula_units_Z 56
_cell_length_a 34.987112
_cell_length_b 8.703003
_cell_length_c 14.617453
_cell_angle_alpha 90.000000
_cell_angle_beta 50.571532
_cell_angle_gamma 90.000000
_cell_volume 3437.964436
_symmetry_space_group_name_H-M "C 2/M"
_symmetry_group_IT_number 12
_symmetry_cell_setting 'monoclinic'
loop_
_space_group_symop_operation_xyz
x,y,z
-x,y,-z
-x,-y,-z
x,-y,z
1/2+x,1/2+y,z
1/2-x,1/2+y,-z
1/2-x,1/2-y,-z
1/2+x,1/2-y,z
loop_
_atom_site_type_symbol
_atom_site_label
_atom_site_fract_x
_atom_site_fract_y
_atom_site_fract_z
Si Si1 0.118393 0.325055 0.835071
Si Si2 0.436150 0.817192 0.913542
Si Si3 0.695958 0.182882 0.573556
Si Si4 0.958543 0.317748 0.682968
Si Si5 0.931202 0.681838 0.528131
Si Si6 0.124316 0.178728 0.544088
Si Si7 0.545380 0.824607 0.788832
O O1 0.134105 0.500000 0.826371
O O2 0.163071 0.249075 0.708634
O O3 0.066886 0.314049 0.858135
O O4 0.106745 0.249684 0.953089
O O5 0.431679 0.754160 0.816012
O O6 0.489079 0.768447 0.874232
O O7 0.431813 0.000000 0.921145
O O8 0.750000 0.250000 0.500000
O O9 0.671796 0.235084 0.514589
O O10 0.697045 0.000000 0.573680
O O11 0.958381 0.500000 0.683596
O O12 0.929596 0.260997 0.636507
O O13 0.015934 0.265831 0.594457
O O14 0.924333 0.500000 0.531934
O O15 0.886222 0.763101 0.543081
O O16 0.075777 0.213623 0.676623
O O17 0.136366 0.000000 0.524416
O O18 0.550259 0.000000 0.744006
#
# Coordination Sequence:
#
# PCOD8098726 Si02
#       7
#     8   8   8   8   8   8   8
#     4   8  15  24  40  67  91 111 143 183 221 261
#     4   9  13  21  40  66  90 117 152 185 214 252
#     4  10  20  35  52  70  90 113 142 184 229 273
#     4   8  14  22  40  64  89 120 156 191 218 249
#     4   9  15  27  42  62  88 120 158 191 220 253
#     4  11  20  29  44  66  91 121 153 186 224 265
#     4   9  15  25  41  61  88 121 153 184 213 251
#
# _framework density 16.288709000000001
#
# number of rings (size 3 to 8) (size 9 to 14) (size 15 to 20)
#    0.000    2.857    1.429    3.857    0.000    1.714 
#    0.000    1.429    0.000    7.714    0.000    1.000 
#    0.000    0.000    0.000    0.000    0.000    0.000 
#
# Total GULP energy -346879.068628 kJ/mol
# GULP energy per Si atom -12388.538165 kJ/mol
# Density = 1.625164 g / cm^3
# Si number density = 16.288709 Si / 1000 Ang^3
#
#
#
# Elastic Constant Matrix: (Units=GPa)
#
#
# Indices 1 2 3 4 5 6 
#
# 1 110.8548 26.0378 70.7826 0.0000 8.8680 0.0000
# 2 26.0378 42.3134 18.6589 0.0000 1.5904 0.0001
# 3 70.7826 18.6589 105.6292 0.0000 13.5496 0.0000
# 4 0.0000 0.0000 0.0000 8.3316 0.0000 -2.6644
# 5 8.8680 1.5904 13.5496 0.0000 22.5509 0.0000
# 6 0.0000 0.0001 0.0000 -2.6644 0.0000 18.5790
#
#
#
# Elastic Compliance Matrix: (Units=1/GPa)
#
#
# Indices 1 2 3 4 5 6 
#
# 1 0.017028 -0.005908 -0.010360 0.000000 -0.000055 0.000000
# 2 -0.005908 0.027700 -0.001064 0.000000 0.001009 0.000000
# 3 -0.010360 -0.001064 0.017406 0.000000 -0.006310 0.000000
# 4 0.000000 0.000000 0.000000 0.125794 0.000000 0.018040
# 5 -0.000055 0.001009 -0.006310 0.000000 0.048086 0.000000
# 6 0.000000 0.000000 0.000000 0.018040 0.000000 0.056411
#
#
# Mechanical properties :
#
#
# Convention : Reuss Voigt Hill
#
# Bulk Modulus (GPa) = 36.40116 54.41733 45.40924
# Shear Modulus (GPa) = 14.87013 19.44683 17.15848
#
# Velocity S-wave (km/s) = 3.02472 3.45901 3.24913
# Velocity P-wave (km/s) = 5.88171 7.03090 6.48182
#
# Compressibility (1/GPa) = 0.02747165
#
# Stress axis : x y z
#
# Youngs Moduli (GPa) = 58.72794 36.10153 57.45000
#
# Poissons Ratio (x) = 0.21328 0.59517
# Poissons Ratio (y) = 0.34695 0.06110
# Poissons Ratio (z) = 0.60841 0.03840
#
# Static dielectric constant tensor:
#      x y z
#    x 3.118790 0.000000 0.317350 
#    y 0.000000 2.677910 0.000000 
#    z 0.317350 0.000000 3.386270 
# 
# 
# High freq. dielectric constant tensor:
#      x y z
#    x 1.607610 0.000000 0.026230 
#    y 0.000000 1.585530 0.000000 
#    z 0.026230 0.000000 1.612240 
# 
# From -- ./inp_files/247931.got.cif
#   From: 2010.06.25/outbox.cif.g09.slc.cpg/sg12_124_cif.got.tgz:247931.got - 2010.06.28 00:19:55.
