data_PCOD8098767
_publ_section_title
;
Structure prediction by ZEFSAII (Michael W. Deem and Ramdas Pophale) SiO2 
 PCOD8098767
Probable space group: C 2/M
;
_chemical_formula_sum "Si O2"
_cell_formula_units_Z 56
_cell_length_a 23.634863
_cell_length_b 8.838961
_cell_length_c 18.506204
_cell_angle_alpha 90.000000
_cell_angle_beta 50.887529
_cell_angle_gamma 90.000000
_cell_volume 2999.732348
_symmetry_space_group_name_H-M "C 2/M"
_symmetry_group_IT_number 12
_symmetry_cell_setting 'monoclinic'
loop_
_space_group_symop_operation_xyz
x,y,z
-x,y,-z
-x,-y,-z
x,-y,z
1/2+x,1/2+y,z
1/2-x,1/2+y,-z
1/2-x,1/2-y,-z
1/2+x,1/2-y,z
loop_
_atom_site_type_symbol
_atom_site_label
_atom_site_fract_x
_atom_site_fract_y
_atom_site_fract_z
Si Si1 0.383085 0.820429 0.294317
Si Si2 0.249568 0.179035 0.663808
Si Si3 0.958334 0.333490 0.818245
Si Si4 0.837256 0.322314 0.733901
Si Si5 0.815787 0.822747 0.904387
Si Si6 0.004273 0.666543 0.379387
Si Si7 0.637395 0.678126 0.533601
O O1 0.330652 0.753487 0.274700
O O2 0.466552 0.780459 0.203378
O O3 0.362436 0.741470 0.385959
O O4 0.373572 0.000000 0.310730
O O5 0.284108 0.226466 0.712381
O O6 0.296015 0.245233 0.560916
O O7 0.244471 0.000000 0.659718
O O8 0.934697 0.500000 0.865140
O O9 0.891471 0.219363 0.884202
O O10 0.977436 0.343032 0.719147
O O11 0.832430 0.500000 0.755616
O O12 0.813735 0.232345 0.823739
O O13 0.920539 0.281277 0.642329
O O14 0.806593 0.000000 0.913391
O O15 0.750000 0.750000 0.000000
O O16 0.979774 0.500000 0.427037
O O17 0.938501 0.782651 0.446468
O O18 0.648716 0.500000 0.525720
#
# Coordination Sequence:
#
# PCOD8098767 Si02
#       7
#     8   8   8   8   8   8   8
#     4  10  20  35  53  73 101 137 176 217 256 298
#     4  11  22  35  51  71 100 139 177 215 257 302
#     4   8  16  32  53  76 103 133 166 205 252 301
#     4   9  20  37  54  74 103 136 169 206 256 312
#     4  11  21  34  58  86 110 132 160 201 248 301
#     4   8  15  31  51  70  97 133 170 210 256 305
#     4  11  21  32  48  72 101 134 178 225 260 296
#
# _framework density 18.668330999999998
#
# number of rings (size 3 to 8) (size 9 to 14) (size 15 to 20)
#    0.000    2.286    0.000    5.571    0.000    7.429 
#    0.000    2.857    0.000    0.857    0.000    6.000 
#    0.000    0.000    0.000    0.000    0.000    0.000 
#
# Total GULP energy -347106.547967 kJ/mol
# GULP energy per Si atom -12396.662427 kJ/mol
# Density = 1.862584 g / cm^3
# Si number density = 18.668331 Si / 1000 Ang^3
#
#
#
# Elastic Constant Matrix: (Units=GPa)
#
#
# Indices 1 2 3 4 5 6 
#
# 1 163.8678 70.9508 37.6482 0.0019 -23.1887 -0.0012
# 2 70.9508 151.7017 35.9554 0.0093 -12.2505 -0.0071
# 3 37.6482 35.9554 34.9372 0.0015 -17.4983 -0.0020
# 4 0.0019 0.0093 0.0015 25.1656 -0.0032 -6.0179
# 5 -23.1887 -12.2505 -17.4983 -0.0032 22.1961 0.0015
# 6 -0.0012 -0.0071 -0.0020 -6.0179 0.0015 31.4619
#
#
#
# Elastic Compliance Matrix: (Units=1/GPa)
#
#
# Indices 1 2 3 4 5 6 
#
# 1 0.008964 -0.002720 -0.004827 0.000001 0.004057 -0.000001
# 2 -0.002720 0.009736 -0.009618 -0.000003 -0.005051 0.000001
# 3 -0.004827 -0.009618 0.063683 0.000005 0.039853 0.000001
# 4 0.000001 -0.000003 0.000005 0.041641 0.000009 0.007965
# 5 0.004057 -0.005051 0.039853 0.000009 0.077922 -0.000001
# 6 -0.000001 0.000001 0.000001 0.007965 -0.000001 0.033308
#
#
# Mechanical properties :
#
#
# Convention : Reuss Voigt Hill
#
# Bulk Modulus (GPa) = 20.81095 71.06840 45.93968
# Shear Modulus (GPa) = 17.50684 29.49486 23.50085
#
# Velocity S-wave (km/s) = 3.06565 3.97916 3.55189
# Velocity P-wave (km/s) = 4.86856 7.69826 6.44073
#
# Compressibility (1/GPa) = 0.04805163
#
# Stress axis : x y z
#
# Youngs Moduli (GPa) = 111.56248 102.71222 15.70274
#
# Poissons Ratio (x) = 0.27943 0.07580
# Poissons Ratio (y) = 0.30351 0.15103
# Poissons Ratio (z) = 0.53854 0.98787
#
# Static dielectric constant tensor:
#      x y z
#    x 4.275460 0.000000 -0.350750 
#    y 0.000000 3.473450 0.000000 
#    z -0.350750 0.000000 3.109980 
# 
# 
# High freq. dielectric constant tensor:
#      x y z
#    x 1.736840 0.000000 -0.024470 
#    y 0.000000 1.725720 0.000000 
#    z -0.024470 0.000000 1.683630 
# 
# From -- ./inp_files/288266.got.cif
#   From: 2010.06.25/outbox.cif.g09.slc.cpg/sg12_145_cif.got.tgz:288266.got - 2010.06.28 00:19:55.
