data_PCOD8098549
_publ_section_title
;
Structure prediction by ZEFSAII (Michael W. Deem and Ramdas Pophale) SiO2 
 PCOD8098549
Probable space group: C 2/M
;
_chemical_formula_sum "Si O2"
_cell_formula_units_Z 56
_cell_length_a 17.399470
_cell_length_b 18.166007
_cell_length_c 16.452869
_cell_angle_alpha 90.000000
_cell_angle_beta 31.171508
_cell_angle_gamma 90.000000
_cell_volume 2691.737709
_symmetry_space_group_name_H-M "C 2/M"
_symmetry_group_IT_number 12
_symmetry_cell_setting 'monoclinic'
loop_
_space_group_symop_operation_xyz
x,y,z
-x,y,-z
-x,-y,-z
x,-y,z
1/2+x,1/2+y,z
1/2-x,1/2+y,-z
1/2-x,1/2-y,-z
1/2+x,1/2-y,z
loop_
_atom_site_type_symbol
_atom_site_label
_atom_site_fract_x
_atom_site_fract_y
_atom_site_fract_z
Si Si1 0.094521 0.306024 0.107606
Si Si2 0.641177 0.416101 0.127644
Si Si3 0.226361 0.326329 0.565087
Si Si4 0.305422 0.225162 0.813884
Si Si5 0.832036 0.414543 0.682100
Si Si6 0.513706 0.645455 0.399762
Si Si7 0.842473 0.913706 0.319400
O O1 0.098484 0.262528 0.189996
O O2 0.927477 0.333165 0.245879
O O3 0.206620 0.373294 0.022454
O O4 0.141271 0.255031 0.988162
O O5 0.674009 0.500000 0.076290
O O6 0.589676 0.410097 0.267826
O O7 0.510056 0.384222 0.186558
O O8 0.250000 0.250000 0.500000
O O9 0.348080 0.336285 0.523273
O O10 0.229566 0.386889 0.490968
O O11 0.300433 0.141310 0.785299
O O12 0.387207 0.280024 0.677542
O O13 0.804044 0.500000 0.734297
O O14 0.717484 0.390140 0.714884
O O15 0.000000 0.405482 0.500000
O O16 0.500000 0.606940 0.500000
O O17 0.843098 0.000000 0.325930
#
# Coordination Sequence:
#
# PCOD8098549 Si02
#       7
#     8   8   8   8   8   8   8
#     4  10  21  37  56  85 111 151 200 239 291 349
#     4   9  20  40  62  84 117 156 193 240 294 354
#     4  11  21  36  63  87 111 152 201 245 288 344
#     4  10  20  35  54  79 121 153 191 242 290 344
#     4  10  20  34  57  89 122 158 201 246 292 344
#     4  10  21  37  59  86 116 152 195 238 293 345
#     4   9  20  38  59  86 120 155 196 241 293 355
#
# _framework density 20.804404000000002
#
# number of rings (size 3 to 8) (size 9 to 14) (size 15 to 20)
#    0.000    2.143    1.429    1.286    4.000    1.429 
#    0.000    5.000    0.000    3.429    0.000    0.000 
#    0.000    0.000    0.000    0.000    0.000    0.000 
#
# Total GULP energy -347055.375297 kJ/mol
# GULP energy per Si atom -12394.834832 kJ/mol
# Density = 2.075705 g / cm^3
# Si number density = 20.804404 Si / 1000 Ang^3
#
#
#
# Elastic Constant Matrix: (Units=GPa)
#
#
# Indices 1 2 3 4 5 6 
#
# 1 91.1747 29.1285 44.3140 -0.0017 -0.5047 0.0025
# 2 29.1285 60.5305 35.0457 0.0020 -7.3973 -0.0022
# 3 44.3140 35.0457 120.2665 -0.0015 -21.2422 -0.0007
# 4 -0.0017 0.0020 -0.0015 29.4484 -0.0014 7.7497
# 5 -0.5047 -7.3973 -21.2422 -0.0014 34.2419 0.0025
# 6 0.0025 -0.0022 -0.0007 7.7497 0.0025 28.0510
#
#
#
# Elastic Compliance Matrix: (Units=1/GPa)
#
#
# Indices 1 2 3 4 5 6 
#
# 1 0.014778 -0.004852 -0.004692 0.000001 -0.003741 -0.000002
# 2 -0.004852 0.021486 -0.004117 -0.000003 0.002016 0.000003
# 3 -0.004692 -0.004117 0.012437 0.000001 0.006757 -0.000001
# 4 0.000001 -0.000003 0.000001 0.036620 0.000002 -0.010117
# 5 -0.003741 0.002016 0.006757 0.000002 0.033776 -0.000003
# 6 -0.000002 0.000003 -0.000001 -0.010117 -0.000003 0.038444
#
#
# Mechanical properties :
#
#
# Convention : Reuss Voigt Hill
#
# Bulk Modulus (GPa) = 46.77689 54.32758 50.55224
# Shear Modulus (GPa) = 26.04318 29.24715 27.64516
#
# Velocity S-wave (km/s) = 3.54193 3.75349 3.64924
# Velocity P-wave (km/s) = 6.26578 6.70486 6.48903
#
# Compressibility (1/GPa) = 0.02137808
#
# Stress axis : x y z
#
# Youngs Moduli (GPa) = 67.66879 46.54297 80.40644
#
# Poissons Ratio (x) = 0.22583 0.37727
# Poissons Ratio (y) = 0.32833 0.33103
# Poissons Ratio (z) = 0.31750 0.19162
#
# Static dielectric constant tensor:
#      x y z
#    x 3.905060 -0.000010 -0.243670 
#    y -0.000010 3.648930 0.000020 
#    z -0.243670 0.000020 3.911590 
# 
# 
# High freq. dielectric constant tensor:
#      x y z
#    x 1.801340 0.000000 -0.005680 
#    y 0.000000 1.809620 0.000000 
#    z -0.005680 0.000000 1.815840 
# 
# From -- ./inp_files/227569.got.cif
#   From: 2010.06.25/outbox.cif.g09.slc.cpg/sg12_114_cif.got.tgz:227569.got - 2010.06.28 00:19:55.
