data_PCOD8098039
_publ_section_title
;
Structure prediction by ZEFSAII (Michael W. Deem and Ramdas Pophale) SiO2 
 PCOD8098039
Probable space group: C 2/M
;
_chemical_formula_sum "Si O2"
_cell_formula_units_Z 56
_cell_length_a 20.731760
_cell_length_b 8.992251
_cell_length_c 15.090689
_cell_angle_alpha 90.000000
_cell_angle_beta 100.528033
_cell_angle_gamma 90.000000
_cell_volume 2765.924679
_symmetry_space_group_name_H-M "C 2/M"
_symmetry_group_IT_number 12
_symmetry_cell_setting 'monoclinic'
loop_
_space_group_symop_operation_xyz
x,y,z
-x,y,-z
-x,-y,-z
x,-y,z
1/2+x,1/2+y,z
1/2-x,1/2+y,-z
1/2-x,1/2-y,-z
1/2+x,1/2-y,z
loop_
_atom_site_type_symbol
_atom_site_label
_atom_site_fract_x
_atom_site_fract_y
_atom_site_fract_z
Si Si1 0.223376 0.338444 0.871744
Si Si2 0.918592 0.327915 0.718511
Si Si3 0.562487 0.674430 0.454360
Si Si4 0.267095 0.173260 0.716488
Si Si5 0.155103 0.160061 0.983111
Si Si6 0.938832 0.669269 0.920572
Si Si7 0.695680 0.176883 0.548051
O O1 0.206220 0.500000 0.824190
O O2 0.258301 0.223601 0.814786
O O3 0.156755 0.265496 0.896182
O O4 0.271227 0.367080 0.965898
O O5 0.930898 0.500000 0.698497
O O6 0.951361 0.228012 0.649966
O O7 0.840843 0.294056 0.702714
O O8 0.952526 0.285959 0.821456
O O9 0.500000 0.709801 0.500000
O O10 0.578844 0.500000 0.458235
O O11 0.623570 0.765677 0.507468
O O12 0.214168 0.272720 0.651213
O O13 0.250100 0.000000 0.701899
O O14 0.123852 0.000000 0.949343
O O15 0.117306 0.227498 0.056436
O O16 0.913378 0.500000 0.914919
O O17 0.000000 0.691390 0.000000
O O18 0.750000 0.250000 0.500000
O O19 0.697399 0.000000 0.537362
#
# Coordination Sequence:
#
# PCOD8098039 Si02
#       7
#     8   8   8   8   8   8   8
#     4  10  20  34  55  83 116 155 196 242 302 365
#     4  10  21  38  64  92 119 161 209 258 318 380
#     4  11  25  45  68  94 128 170 212 263 323 385
#     4  11  21  36  61  92 124 157 201 257 312 373
#     4  10  20  34  55  82 114 153 196 247 302 358
#     4  10  21  39  61  85 118 159 205 257 308 370
#     4  12  24  40  65  96 128 164 206 262 318 379
#
# _framework density 20.246395
#
# number of rings (size 3 to 8) (size 9 to 14) (size 15 to 20)
#    0.000    1.429    2.857    3.000    0.000    3.714 
#    2.571    0.000    0.000    0.000    0.000    0.000 
#    0.000    0.000    0.000    0.000    0.000    0.000 
#
# Total GULP energy -347106.154328 kJ/mol
# GULP energy per Si atom -12396.648369 kJ/mol
# Density = 2.020031 g / cm^3
# Si number density = 20.246395 Si / 1000 Ang^3
#
#
#
# Elastic Constant Matrix: (Units=GPa)
#
#
# Indices 1 2 3 4 5 6 
#
# 1 76.0056 60.7727 48.3768 0.0000 -9.8574 0.0000
# 2 60.7727 144.4985 74.5573 0.0000 -8.9724 0.0000
# 3 48.3768 74.5573 91.3572 0.0000 -22.5003 0.0000
# 4 0.0000 0.0000 0.0000 35.8960 0.0000 -3.2399
# 5 -9.8574 -8.9724 -22.5003 0.0000 34.8077 0.0000
# 6 0.0000 0.0000 0.0000 -3.2399 0.0000 23.2689
#
#
#
# Elastic Compliance Matrix: (Units=1/GPa)
#
#
# Indices 1 2 3 4 5 6 
#
# 1 0.022240 -0.005690 -0.007068 0.000000 0.000262 0.000000
# 2 -0.005690 0.013857 -0.009292 0.000000 -0.004046 0.000000
# 3 -0.007068 -0.009292 0.025202 0.000000 0.011894 0.000000
# 4 0.000000 0.000000 0.000000 0.028213 0.000000 0.003928
# 5 0.000262 -0.004046 0.011894 0.000000 0.035449 0.000000
# 6 0.000000 0.000000 0.000000 0.003928 0.000000 0.043523
#
#
# Mechanical properties :
#
#
# Convention : Reuss Voigt Hill
#
# Bulk Modulus (GPa) = 58.14936 75.47498 66.81217
# Shear Modulus (GPa) = 22.90261 27.33813 25.12037
#
# Velocity S-wave (km/s) = 3.36697 3.67859 3.52623
# Velocity P-wave (km/s) = 6.62560 7.44324 7.04629
#
# Compressibility (1/GPa) = 0.01719709
#
# Stress axis : x y z
#
# Youngs Moduli (GPa) = 44.96498 72.16662 39.68011
#
# Poissons Ratio (x) = 0.41064 0.28047
# Poissons Ratio (y) = 0.25586 0.36871
# Poissons Ratio (z) = 0.31782 0.67058
#
# Static dielectric constant tensor:
#      x y z
#    x 3.527310 0.000000 0.027990 
#    y 0.000000 4.012500 0.000000 
#    z 0.027990 0.000000 3.850680 
# 
# 
# High freq. dielectric constant tensor:
#      x y z
#    x 1.761810 0.000000 -0.010050 
#    y 0.000000 1.805470 0.000000 
#    z -0.010050 0.000000 1.796340 
# 
# From -- ./inp_files/230968.got.cif
#   From: 2010.06.25/outbox.cif.g09.slc.cpg/sg12_116_cif.got.tgz:230968.got - 2010.06.28 00:19:55.
