data_PCOD8098123
_publ_section_title
;
Structure prediction by ZEFSAII (Michael W. Deem and Ramdas Pophale) SiO2 
 PCOD8098123
Probable space group: C 2/M
;
_chemical_formula_sum "Si O2"
_cell_formula_units_Z 64
_cell_length_a 28.093128
_cell_length_b 14.539166
_cell_length_c 9.995896
_cell_angle_alpha 90.000000
_cell_angle_beta 122.310731
_cell_angle_gamma 90.000000
_cell_volume 3450.651899
_symmetry_space_group_name_H-M "C 2/M"
_symmetry_group_IT_number 12
_symmetry_cell_setting 'monoclinic'
loop_
_space_group_symop_operation_xyz
x,y,z
-x,y,-z
-x,-y,-z
x,-y,z
1/2+x,1/2+y,z
1/2-x,1/2+y,-z
1/2-x,1/2-y,-z
1/2+x,1/2-y,z
loop_
_atom_site_type_symbol
_atom_site_label
_atom_site_fract_x
_atom_site_fract_y
_atom_site_fract_z
Si Si1 0.892527 0.891158 0.716555
Si Si2 0.505411 0.255286 0.158769
Si Si3 0.637360 0.097094 0.821621
Si Si4 0.302707 0.606550 0.362927
Si Si5 0.380411 0.713887 0.958661
Si Si6 0.823923 0.602161 0.835495
Si Si7 0.186742 0.224506 0.874849
Si Si8 0.490334 0.896323 0.334157
O O1 0.844073 0.858951 0.541606
O O2 0.871442 0.864083 0.833147
O O3 0.949924 0.837953 0.764870
O O4 0.904310 0.000000 0.728436
O O5 0.523335 0.171377 0.283168
O O6 0.500000 0.216912 0.000000
O O7 0.444090 0.292017 0.109570
O O8 0.654932 0.185633 0.762490
O O9 0.576005 0.108249 0.795758
O O10 0.640819 0.000000 0.745061
O O11 0.680662 0.094151 0.010641
O O12 0.310656 0.500000 0.352664
O O13 0.238526 0.629444 0.309742
O O14 0.320269 0.648340 0.247372
O O15 0.366684 0.813738 0.867279
O O16 0.340943 0.693165 0.026400
O O17 0.842296 0.500000 0.806249
O O18 0.250000 0.250000 0.000000
O O19 0.500000 0.862946 0.500000
O O20 0.513842 0.000000 0.349829
#
# Coordination Sequence:
#
# PCOD8098123 Si02
#       8
#     8   8   8   8   8   8   8   8
#     4  10  24  42  57  77 115 160 196 240 288 328
#     4  10  21  37  58  81 109 152 199 234 277 339
#     4   9  17  31  52  76 112 148 173 211 279 344
#     4  10  21  37  57  83 115 152 189 231 289 343
#     4  10  20  36  59  86 107 147 195 232 288 339
#     4   9  16  32  57  82 112 145 179 221 282 352
#     4  11  19  33  57  90 114 140 185 235 281 340
#     4  10  20  34  55  84 115 147 181 226 286 344
#
# _framework density 18.547218999999998
#
# number of rings (size 3 to 8) (size 9 to 14) (size 15 to 20)
#    0.000    2.125    5.000    0.000    1.750    3.500 
#    0.000    1.875    0.000    2.625    0.000    0.000 
#    0.000    0.000    0.000    0.000    0.000    0.000 
#
# Total GULP energy -396494.007089 kJ/mol
# GULP energy per Si atom -12390.437722 kJ/mol
# Density = 1.850500 g / cm^3
# Si number density = 18.547219 Si / 1000 Ang^3
#
#
#
# Elastic Constant Matrix: (Units=GPa)
#
#
# Indices 1 2 3 4 5 6 
#
# 1 79.7883 30.4827 36.9346 0.0000 7.5491 0.0000
# 2 30.4827 89.6212 40.4828 0.0000 1.7598 0.0000
# 3 36.9346 40.4828 102.2224 0.0000 5.4021 0.0000
# 4 0.0000 0.0000 0.0000 27.6461 0.0000 -2.2824
# 5 7.5491 1.7598 5.4021 0.0000 27.8755 0.0000
# 6 0.0000 0.0000 0.0000 -2.2824 0.0000 35.0203
#
#
#
# Elastic Compliance Matrix: (Units=1/GPa)
#
#
# Indices 1 2 3 4 5 6 
#
# 1 0.016166 -0.003500 -0.004279 0.000000 -0.003328 0.000000
# 2 -0.003500 0.014348 -0.004465 0.000000 0.000908 0.000000
# 3 -0.004279 -0.004465 0.013156 0.000000 -0.001109 0.000000
# 4 0.000000 0.000000 0.000000 0.036367 0.000000 0.002370
# 5 -0.003328 0.000908 -0.001109 0.000000 0.036933 0.000000
# 6 0.000000 0.000000 0.000000 0.002370 0.000000 0.028709
#
#
# Mechanical properties :
#
#
# Convention : Reuss Voigt Hill
#
# Bulk Modulus (GPa) = 52.13699 54.15912 53.14805
# Shear Modulus (GPa) = 28.31873 29.02382 28.67128
#
# Velocity S-wave (km/s) = 3.91173 3.96012 3.93600
# Velocity P-wave (km/s) = 6.96947 7.08337 7.02665
#
# Compressibility (1/GPa) = 0.01918024
#
# Stress axis : x y z
#
# Youngs Moduli (GPa) = 61.85788 69.69673 76.01286
#
# Poissons Ratio (x) = 0.24396 0.32526
# Poissons Ratio (y) = 0.21652 0.33943
# Poissons Ratio (z) = 0.26469 0.31122
#
# Static dielectric constant tensor:
#      x y z
#    x 3.340110 0.000000 0.235630 
#    y 0.000000 3.663340 0.000000 
#    z 0.235630 0.000000 3.443140 
# 
# 
# High freq. dielectric constant tensor:
#      x y z
#    x 1.700390 0.000000 0.024310 
#    y 0.000000 1.723700 0.000000 
#    z 0.024310 0.000000 1.711750 
# 
# From -- ./inp_files/111684.got.cif
#   From: 2010.06.25/outbox.cif.g09.slc.cpg/sg12_56_cif.got.tgz:111684.got - 2010.06.28 00:19:55.
