data_PCOD8098590
_publ_section_title
;
Structure prediction by ZEFSAII (Michael W. Deem and Ramdas Pophale) SiO2 
 PCOD8098590
Probable space group: C 2/M
;
_chemical_formula_sum "Si O2"
_cell_formula_units_Z 64
_cell_length_a 21.111957
_cell_length_b 19.099984
_cell_length_c 18.253507
_cell_angle_alpha 90.000000
_cell_angle_beta 27.832236
_cell_angle_gamma 90.000000
_cell_volume 3436.505469
_symmetry_space_group_name_H-M "C 2/M"
_symmetry_group_IT_number 12
_symmetry_cell_setting 'monoclinic'
loop_
_space_group_symop_operation_xyz
x,y,z
-x,y,-z
-x,-y,-z
x,-y,z
1/2+x,1/2+y,z
1/2-x,1/2+y,-z
1/2-x,1/2-y,-z
1/2+x,1/2-y,z
loop_
_atom_site_type_symbol
_atom_site_label
_atom_site_fract_x
_atom_site_fract_y
_atom_site_fract_z
Si Si1 0.377222 0.789587 0.674042
Si Si2 0.301539 0.361018 0.751084
Si Si3 0.583648 0.332946 0.984900
Si Si4 0.697452 0.080232 0.711640
Si Si5 0.364644 0.417078 0.933744
Si Si6 0.855390 0.306564 0.861406
Si Si7 0.483031 0.418527 0.364349
Si Si8 0.959950 0.318947 0.904390
O O1 0.500000 0.821753 0.500000
O O2 0.338398 0.714407 0.679638
O O3 0.243496 0.836814 0.802170
O O4 0.417381 0.782168 0.719617
O O5 0.245187 0.412202 0.746465
O O6 0.439781 0.388910 0.644278
O O7 0.185385 0.354589 0.931724
O O8 0.500000 0.355575 0.000000
O O9 0.556616 0.391035 0.074443
O O10 0.535482 0.256919 0.062459
O O11 0.577192 0.133397 0.817674
O O12 0.823841 0.099897 0.530337
O O13 0.649646 0.000000 0.748295
O O14 0.343485 0.500000 0.957193
O O15 0.457379 0.389559 0.772211
O O16 0.217944 0.380827 0.076889
O O17 0.973565 0.314187 0.801801
O O18 0.750000 0.250000 0.000000
O O19 0.507068 0.500000 0.342906
#
# Coordination Sequence:
#
# PCOD8098590 Si02
#       8
#     8   8   8   8   8   8   8   8
#     4  10  20  34  58  86 113 137 185 242 280 326
#     4  11  19  33  58  78 109 153 195 223 269 333
#     4  10  21  38  58  81 111 144 182 233 286 329
#     4  11  24  36  49  82 124 152 182 230 283 333
#     4  10  20  36  61  84 105 141 194 235 269 332
#     4  11  18  38  62  84 112 151 188 229 278 334
#     4  10  20  35  53  77 113 151 189 231 274 327
#     4  11  21  36  58  81 113 151 186 232 277 332
#
# _framework density 18.623570999999998
#
# number of rings (size 3 to 8) (size 9 to 14) (size 15 to 20)
#    0.000    1.500    5.000    3.375    0.000    3.250 
#    2.250    0.625    0.000    6.000    0.000    0.000 
#    0.000    0.000    0.000    0.000    0.000    0.000 
#
# Total GULP energy -396755.282127 kJ/mol
# GULP energy per Si atom -12398.602566 kJ/mol
# Density = 1.858118 g / cm^3
# Si number density = 18.623571 Si / 1000 Ang^3
#
#
#
# Elastic Constant Matrix: (Units=GPa)
#
#
# Indices 1 2 3 4 5 6 
#
# 1 105.2945 42.6713 23.4287 0.0002 15.0115 -0.0015
# 2 42.6713 43.4280 37.9285 -0.0006 -12.9214 -0.0012
# 3 23.4287 37.9285 80.0927 -0.0007 12.3133 -0.0002
# 4 0.0002 -0.0006 -0.0007 19.5237 -0.0009 1.4198
# 5 15.0115 -12.9214 12.3133 -0.0009 25.0856 0.0012
# 6 -0.0015 -0.0012 -0.0002 1.4198 0.0012 26.1566
#
#
#
# Elastic Compliance Matrix: (Units=1/GPa)
#
#
# Indices 1 2 3 4 5 6 
#
# 1 -0.014549 0.057609 -0.031287 0.000003 0.053737 -0.000001
# 2 0.057609 -0.131065 0.065865 -0.000009 -0.134314 0.000004
# 3 -0.031287 0.065865 -0.019088 0.000005 0.062018 -0.000002
# 4 0.000003 -0.000009 0.000005 0.051423 -0.000007 -0.002791
# 5 0.053737 -0.134314 0.062018 -0.000007 -0.091919 0.000002
# 6 -0.000001 0.000004 -0.000002 -0.002791 0.000002 0.038383
#
#
# Mechanical properties :
#
#
# Convention : Reuss Voigt Hill
#
# Bulk Modulus (GPa) = 50.83545 48.54134 49.68840
# Shear Modulus (GPa) = -14.50826 22.47229 3.98201
#
# Velocity S-wave (km/s) = -2.79413 3.47747 1.46383
# Velocity P-wave (km/s) = 4.11655 6.49960 5.44016
#
# Compressibility (1/GPa) = 0.01967131
#
# Stress axis : x y z
#
# Youngs Moduli (GPa) = -68.73433 -7.62979 -52.38981
#
# Poissons Ratio (x) = 0.43954 -1.63910
# Poissons Ratio (y) = 3.95969 3.45063
# Poissons Ratio (z) = -2.15047 0.50253
#
# Static dielectric constant tensor:
#      x y z
#    x 3.532900 -0.000010 0.195350 
#    y -0.000010 3.303500 0.000010 
#    z 0.195350 0.000010 3.586420 
# 
# 
# High freq. dielectric constant tensor:
#      x y z
#    x 1.723480 0.000000 0.009940 
#    y 0.000000 1.711150 0.000000 
#    z 0.009940 0.000000 1.710770 
# 
# From -- ./inp_files/285203.got.cif
#   From: 2010.06.25/outbox.cif.g09.slc.cpg/sg12_143_cif.got.tgz:285203.got - 2010.06.28 00:19:55.
