data_PCOD8098631
_publ_section_title
;
Structure prediction by ZEFSAII (Michael W. Deem and Ramdas Pophale) SiO2 
 PCOD8098631
Probable space group: C 2/M
;
_chemical_formula_sum "Si O2"
_cell_formula_units_Z 28
_cell_length_a 10.198813
_cell_length_b 26.024122
_cell_length_c 8.785783
_cell_angle_alpha 90.000000
_cell_angle_beta 29.638922
_cell_angle_gamma 90.000000
_cell_volume 1153.190222
_symmetry_space_group_name_H-M "C 2/M"
_symmetry_group_IT_number 12
_symmetry_cell_setting 'monoclinic'
loop_
_space_group_symop_operation_xyz
x,y,z
-x,y,-z
-x,-y,-z
x,-y,z
1/2+x,1/2+y,z
1/2-x,1/2+y,-z
1/2-x,1/2-y,-z
1/2+x,1/2-y,z
loop_
_atom_site_type_symbol
_atom_site_label
_atom_site_fract_x
_atom_site_fract_y
_atom_site_fract_z
Si Si1 0.079634 0.603229 0.247040
Si Si2 0.250157 0.710974 0.139627
Si Si3 0.262975 0.557647 0.637211
Si Si4 0.741593 0.500000 0.865622
O O1 0.238784 0.655986 0.063042
O O2 0.259903 0.552041 0.028044
O O3 0.000000 0.601441 0.500000
O O4 0.806240 0.598415 0.426629
O O5 0.000000 0.720632 0.500000
O O6 0.500000 0.715536 0.000000
O O7 0.250000 0.750000 0.000000
O O8 0.500000 0.580816 0.500000
O O9 0.335893 0.500000 0.499913
O O10 0.000000 0.553560 0.000000
O O11 0.000000 0.500000 0.500000
O O12 0.500000 0.500000 0.000000
#
# Coordination Sequence:
#
# PCOD8098631 Si02
#       4
#     8   8   8   4
#     4  10  22  42  67 100 131 176 229 281 336 414
#     4  11  25  47  73 104 138 181 240 298 355 417
#     4  10  22  39  59  92 137 179 214 260 329 411
#     4  10  20  34  58  94 130 164 205 270 338 392
#
# _framework density 24.280467999999999
#
# number of rings (size 3 to 8) (size 9 to 14) (size 15 to 20)
#    0.000    1.714    1.429    1.714    0.000   10.286 
#    0.000    2.857    0.000    0.000    0.000    0.000 
#    0.000    0.000    0.000    0.000    0.000    0.000 
#
# Total GULP energy -173511.744941 kJ/mol
# GULP energy per Si atom -12393.696067 kJ/mol
# Density = 2.422520 g / cm^3
# Si number density = 24.280468 Si / 1000 Ang^3
#
#
#
# Elastic Constant Matrix: (Units=GPa)
#
#
# Indices 1 2 3 4 5 6 
#
# 1 268.1916 104.2511 59.4538 0.0000 -46.9818 0.0000
# 2 104.2511 216.7105 46.1027 0.0000 -9.5714 0.0000
# 3 59.4538 46.1027 73.1591 0.0000 -30.0541 0.0000
# 4 0.0000 0.0000 0.0000 16.1512 0.0000 -16.3530
# 5 -46.9818 -9.5714 -30.0541 0.0000 49.8392 0.0000
# 6 0.0000 0.0000 0.0000 -16.3530 0.0000 28.0208
#
#
#
# Elastic Compliance Matrix: (Units=1/GPa)
#
#
# Indices 1 2 3 4 5 6 
#
# 1 0.005618 -0.002195 -0.001568 0.000000 0.003929 0.000000
# 2 -0.002195 0.006254 -0.003342 0.000000 -0.002884 0.000000
# 3 -0.001568 -0.003342 0.021505 0.000000 0.010848 0.000000
# 4 0.000000 0.000000 0.000000 0.151344 0.000000 0.088325
# 5 0.003929 -0.002884 0.010848 0.000000 0.029756 0.000000
# 6 0.000000 0.000000 0.000000 0.088325 0.000000 0.087234
#
#
# Mechanical properties :
#
#
# Convention : Reuss Voigt Hill
#
# Bulk Modulus (GPa) = 52.17210 108.63072 80.40141
# Shear Modulus (GPa) = 15.51296 42.01913 28.76604
#
# Velocity S-wave (km/s) = 2.53040 4.16453 3.44574
# Velocity P-wave (km/s) = 5.48372 8.24388 7.00117
#
# Compressibility (1/GPa) = 0.01916733
#
# Stress axis : x y z
#
# Youngs Moduli (GPa) = 178.00152 159.89437 46.49975
#
# Poissons Ratio (x) = 0.35104 0.07291
# Poissons Ratio (y) = 0.39080 0.15538
# Poissons Ratio (z) = 0.27912 0.53430
#
# Static dielectric constant tensor:
#      x y z
#    x 4.998420 0.000000 -0.114360 
#    y 0.000000 -0.100150 0.000000 
#    z -0.114360 0.000000 4.339830 
# 
# 
# High freq. dielectric constant tensor:
#      x y z
#    x 1.990770 0.000000 -0.005820 
#    y 0.000000 1.945920 0.000000 
#    z -0.005820 0.000000 1.971740 
# 
# From -- ./inp_files/40012.got.cif
#   From: 2010.06.25/outbox.cif.g09.slc.cpg/sg12_21_cif.got.tgz:40012.got - 2010.06.28 00:19:55.
