data_PCOD8098392
_publ_section_title
;
Structure prediction by ZEFSAII (Michael W. Deem and Ramdas Pophale) SiO2 
 PCOD8098392
Probable space group: C 2/M
;
_chemical_formula_sum "Si O2"
_cell_formula_units_Z 24
_cell_length_a 9.322883
_cell_length_b 17.118094
_cell_length_c 10.542109
_cell_angle_alpha 90.000000
_cell_angle_beta 38.573379
_cell_angle_gamma 90.000000
_cell_volume 1049.013399
_symmetry_space_group_name_H-M "C 2/M"
_symmetry_group_IT_number 12
_symmetry_cell_setting 'monoclinic'
loop_
_space_group_symop_operation_xyz
x,y,z
-x,y,-z
-x,-y,-z
x,-y,z
1/2+x,1/2+y,z
1/2-x,1/2+y,-z
1/2-x,1/2-y,-z
1/2+x,1/2-y,z
loop_
_atom_site_type_symbol
_atom_site_label
_atom_site_fract_x
_atom_site_fract_y
_atom_site_fract_z
Si Si1 0.628691 0.850105 0.525288
Si Si2 0.733783 0.913809 0.715952
Si Si3 0.385404 0.706101 0.797055
O O1 0.500000 0.897077 0.500000
O O2 0.594006 0.891321 0.685513
O O3 0.497401 0.766653 0.620593
O O4 0.896507 0.842445 0.299345
O O5 0.703547 0.851876 0.852093
O O6 0.000000 0.913560 0.500000
O O7 0.653678 0.000000 0.815598
O O8 0.250000 0.750000 0.000000
#
# Coordination Sequence:
#
# PCOD8098392 Si02
#       3
#     8   8   8
#     4  10  20  34  56  87 115 146 196 244 282 336
#     4   9  19  37  59  83 117 156 190 234 294 350
#     4  10  20  36  57  83 114 155 197 234 284 348
#
# _framework density 22.878640000000001
#
# number of rings (size 3 to 8) (size 9 to 14) (size 15 to 20)
#    0.000    2.333    0.000    5.000    0.000    6.000 
#    0.000    3.333    0.000    2.000    0.000   21.000 
#    0.000    0.000    0.000    0.000    0.000    0.000 
#
# Total GULP energy -148711.361135 kJ/mol
# GULP energy per Si atom -12392.613428 kJ/mol
# Density = 2.282657 g / cm^3
# Si number density = 22.878640 Si / 1000 Ang^3
#
#
#
# Elastic Constant Matrix: (Units=GPa)
#
#
# Indices 1 2 3 4 5 6 
#
# 1 190.5040 63.2577 60.1837 -0.0001 41.4055 0.0002
# 2 63.2577 138.7203 32.5758 0.0003 25.6861 -0.0002
# 3 60.1837 32.5758 111.8640 -0.0003 19.1845 0.0001
# 4 -0.0001 0.0003 -0.0003 -0.3661 0.0003 24.7416
# 5 41.4055 25.6861 19.1845 0.0003 37.9356 -0.0002
# 6 0.0002 -0.0002 0.0001 24.7416 -0.0002 14.6705
#
#
#
# Elastic Compliance Matrix: (Units=1/GPa)
#
#
# Indices 1 2 3 4 5 6 
#
# 1 0.008083 -0.001904 -0.002740 0.000000 -0.006148 0.000000
# 2 -0.001904 0.008954 -0.000985 0.000000 -0.003486 0.000000
# 3 -0.002740 -0.000985 0.011030 0.000000 -0.001920 0.000000
# 4 0.000000 0.000000 0.000000 -0.023757 0.000001 0.040066
# 5 -0.006148 -0.003486 -0.001920 0.000001 0.036402 0.000000
# 6 0.000000 0.000000 0.000000 0.040066 0.000000 0.000593
#
#
# Mechanical properties :
#
#
# Convention : Reuss Voigt Hill
#
# Bulk Modulus (GPa) = 59.49480 83.68030 71.58755
# Shear Modulus (GPa) = 85.96056 29.45275 57.70666
#
# Velocity S-wave (km/s) = 6.13628 3.59185 5.02769
# Velocity P-wave (km/s) = 8.73306 7.33873 8.06608
#
# Compressibility (1/GPa) = 0.01680819
#
# Stress axis : x y z
#
# Youngs Moduli (GPa) = 123.71069 111.68250 90.66366
#
# Poissons Ratio (x) = 0.21268 0.24842
# Poissons Ratio (y) = 0.23558 0.08931
# Poissons Ratio (z) = 0.33897 0.11002
#
# Static dielectric constant tensor:
#      x y z
#    x 4.500560 0.000000 -0.037130 
#    y 0.000000 4.335000 0.000000 
#    z -0.037130 0.000000 3.830730 
# 
# 
# High freq. dielectric constant tensor:
#      x y z
#    x 1.914510 0.000000 -0.001490 
#    y 0.000000 1.872370 0.000000 
#    z -0.001490 0.000000 1.897810 
# 
# From -- ./inp_files/37119.got.cif
#   From: 2010.06.25/outbox.cif.g09.slc.cpg/sg12_19_cif.got.tgz:37119.got - 2010.06.28 00:19:55.
