data_PCOD8098257
_publ_section_title
;
Structure prediction by ZEFSAII (Michael W. Deem and Ramdas Pophale) SiO2 
 PCOD8098257
Probable space group: C 2/M
;
_chemical_formula_sum "Si O2"
_cell_formula_units_Z 56
_cell_length_a 20.325170
_cell_length_b 9.027616
_cell_length_c 15.921598
_cell_angle_alpha 90.000000
_cell_angle_beta 81.310530
_cell_angle_gamma 90.000000
_cell_volume 2887.886447
_symmetry_space_group_name_H-M "C 2/M"
_symmetry_group_IT_number 12
_symmetry_cell_setting 'monoclinic'
loop_
_space_group_symop_operation_xyz
x,y,z
-x,y,-z
-x,-y,-z
x,-y,z
1/2+x,1/2+y,z
1/2-x,1/2+y,-z
1/2-x,1/2-y,-z
1/2+x,1/2-y,z
loop_
_atom_site_type_symbol
_atom_site_label
_atom_site_fract_x
_atom_site_fract_y
_atom_site_fract_z
Si Si1 0.093855 0.672595 0.664224
Si Si2 0.530364 0.673789 0.245209
Si Si3 0.181762 0.672928 0.487282
Si Si4 0.312131 0.825443 0.030643
Si Si5 0.661873 0.325727 0.319693
Si Si6 0.046413 0.674034 0.067681
Si Si7 0.301361 0.824386 0.220877
O O1 0.079358 0.500000 0.681902
O O2 0.126125 0.701939 0.567934
O O3 0.143293 0.736823 0.726035
O O4 0.025050 0.760996 0.681853
O O5 0.520463 0.500000 0.239530
O O6 0.601971 0.714900 0.269187
O O7 0.522243 0.743347 0.155080
O O8 0.196472 0.500000 0.473491
O O9 0.250000 0.750000 0.500000
O O10 0.151827 0.740049 0.408359
O O11 0.318380 0.766398 0.124675
O O12 0.300573 0.000000 0.032593
O O13 0.250000 0.750000 0.000000
O O14 0.378079 0.780578 0.967598
O O15 0.665222 0.500000 0.338496
O O16 0.728881 0.266800 0.262531
O O17 0.038773 0.500000 0.084862
O O18 0.000000 0.725054 0.000000
O O19 0.301521 0.000000 0.224197
#
# Coordination Sequence:
#
# PCOD8098257 Si02
#       7
#     8   8   8   8   8   8   8
#     4  10  21  39  62  84 113 153 195 238 287 353
#     4  11  24  39  59  88 121 156 193 247 302 343
#     4  11  22  38  63  91 118 152 194 243 293 346
#     4  10  20  34  56  83 112 147 190 238 288 342
#     4  10  21  39  60  84 120 159 195 238 295 352
#     4  10  21  39  62  84 113 158 204 243 288 351
#     4   9  17  35  60  81 106 150 196 232 280 344
#
# _framework density 19.391344
#
# number of rings (size 3 to 8) (size 9 to 14) (size 15 to 20)
#    0.000    1.857    1.429    2.571    0.000    7.143 
#    0.000    5.714    0.000    0.000    0.000    0.000 
#    0.000    0.000    0.000    0.000    0.000    0.000 
#
# Total GULP energy -347322.184966 kJ/mol
# GULP energy per Si atom -12404.363749 kJ/mol
# Density = 1.934721 g / cm^3
# Si number density = 19.391344 Si / 1000 Ang^3
#
#
#
# Elastic Constant Matrix: (Units=GPa)
#
#
# Indices 1 2 3 4 5 6 
#
# 1 98.9859 38.2674 22.0725 0.0000 -9.7368 0.0000
# 2 38.2674 56.4792 41.2435 0.0000 -2.6320 0.0000
# 3 22.0725 41.2435 106.3030 0.0000 -5.0975 0.0000
# 4 0.0000 0.0000 0.0000 33.0797 0.0000 1.1901
# 5 -9.7368 -2.6320 -5.0975 0.0000 31.1859 0.0000
# 6 0.0000 0.0000 0.0000 1.1901 0.0000 33.5773
#
#
#
# Elastic Compliance Matrix: (Units=1/GPa)
#
#
# Indices 1 2 3 4 5 6 
#
# 1 0.014198 -0.010358 0.001251 0.000000 0.003763 0.000000
# 2 -0.010358 0.032270 -0.010476 0.000000 -0.002223 0.000000
# 3 0.001251 -0.010476 0.013292 0.000000 0.001679 0.000000
# 4 0.000000 0.000000 0.000000 0.030269 0.000000 -0.001073
# 5 0.003763 -0.002223 0.001679 0.000000 0.033328 0.000000
# 6 0.000000 0.000000 0.000000 -0.001073 0.000000 0.029820
#
#
# Mechanical properties :
#
#
# Convention : Reuss Voigt Hill
#
# Bulk Modulus (GPa) = 48.55665 51.65942 50.10804
# Shear Modulus (GPa) = 25.09942 30.24757 27.67349
#
# Velocity S-wave (km/s) = 3.60163 3.95378 3.78180
# Velocity P-wave (km/s) = 6.51079 6.89503 6.70566
#
# Compressibility (1/GPa) = 0.02059450
#
# Stress axis : x y z
#
# Youngs Moduli (GPa) = 70.43237 30.98827 75.23143
#
# Poissons Ratio (x) = 0.32098 -0.09413
# Poissons Ratio (y) = 0.72955 0.78813
# Poissons Ratio (z) = -0.08812 0.32464
#
# Static dielectric constant tensor:
#      x y z
#    x 3.650650 0.000000 -0.144850 
#    y 0.000000 3.352200 0.000000 
#    z -0.144850 0.000000 4.632250 
# 
# 
# High freq. dielectric constant tensor:
#      x y z
#    x 1.766570 0.000000 -0.003100 
#    y 0.000000 1.734470 0.000000 
#    z -0.003100 0.000000 1.768730 
# 
# From -- ./inp_files/231036.got.cif
#   From: 2010.06.25/outbox.cif.g09.slc.cpg/sg12_116_cif.got.tgz:231036.got - 2010.06.28 00:19:55.
