data_PCOD8098165
_publ_section_title
;
Structure prediction by ZEFSAII (Michael W. Deem and Ramdas Pophale) SiO2 
 PCOD8098165
Probable space group: C 2/M
;
_chemical_formula_sum "Si O2"
_cell_formula_units_Z 56
_cell_length_a 24.657725
_cell_length_b 8.460638
_cell_length_c 14.991808
_cell_angle_alpha 90.000000
_cell_angle_beta 58.319735
_cell_angle_gamma 90.000000
_cell_volume 2661.556159
_symmetry_space_group_name_H-M "C 2/M"
_symmetry_group_IT_number 12
_symmetry_cell_setting 'monoclinic'
loop_
_space_group_symop_operation_xyz
x,y,z
-x,y,-z
-x,-y,-z
x,-y,z
1/2+x,1/2+y,z
1/2-x,1/2+y,-z
1/2-x,1/2-y,-z
1/2+x,1/2-y,z
loop_
_atom_site_type_symbol
_atom_site_label
_atom_site_fract_x
_atom_site_fract_y
_atom_site_fract_z
Si Si1 0.124210 0.178973 0.938802
Si Si2 0.321140 0.684605 0.290599
Si Si3 0.064386 0.815544 0.495563
Si Si4 0.247463 0.684561 0.904092
Si Si5 0.307643 0.185203 0.693337
Si Si6 0.919868 0.313958 0.326073
Si Si7 0.006597 0.681229 0.092722
O O1 0.124445 0.219561 0.832417
O O2 0.196441 0.204671 0.901531
O O3 0.103628 0.000000 0.975222
O O4 0.082438 0.292939 0.039367
O O5 0.317630 0.500000 0.315257
O O6 0.250588 0.744444 0.321513
O O7 0.347292 0.775162 0.356260
O O8 0.124536 0.716920 0.409456
O O9 0.058743 0.779707 0.605081
O O10 0.000000 0.761179 0.500000
O O11 0.076626 0.000000 0.469133
O O12 0.231088 0.500000 0.918660
O O13 0.308273 0.720459 0.787901
O O14 0.250000 0.750000 0.000000
O O15 0.299698 0.000000 0.718123
O O16 0.926823 0.500000 0.337593
O O17 0.968269 0.246921 0.208544
O O18 0.986511 0.500000 0.101907
O O19 0.000000 0.766701 0.000000
#
# Coordination Sequence:
#
# PCOD8098165 Si02
#       7
#     8   8   8   8   8   8   8
#     4  10  20  34  55  85 122 163 203 248 305 363
#     4   9  19  36  59  90 125 157 196 246 303 373
#     4  11  26  47  67  88 119 162 211 262 312 369
#     4  11  22  38  61  89 123 161 204 253 305 362
#     4  10  22  42  67  94 124 161 203 253 312 371
#     4  11  23  38  62  92 123 164 210 259 313 369
#     4  10  20  35  55  86 126 164 203 247 303 369
#
# _framework density 21.040323999999998
#
# number of rings (size 3 to 8) (size 9 to 14) (size 15 to 20)
#    0.000    1.714    1.429    3.857    0.000    7.143 
#    0.000    2.857    0.000    0.000    0.000    0.000 
#    0.000    0.000    0.000    0.000    0.000    0.000 
#
# Total GULP energy -346973.487017 kJ/mol
# GULP energy per Si atom -12391.910251 kJ/mol
# Density = 2.099244 g / cm^3
# Si number density = 21.040324 Si / 1000 Ang^3
#
#
#
# Elastic Constant Matrix: (Units=GPa)
#
#
# Indices 1 2 3 4 5 6 
#
# 1 104.0816 29.1132 58.9688 0.0000 10.3715 0.0000
# 2 29.1132 59.3306 21.4556 0.0000 6.1507 0.0002
# 3 58.9688 21.4556 120.7161 0.0000 5.5896 0.0000
# 4 0.0000 0.0000 0.0000 33.4716 0.0000 0.1131
# 5 10.3715 6.1507 5.5896 0.0000 36.1176 0.0000
# 6 0.0000 0.0002 0.0000 0.1131 0.0000 31.9288
#
#
#
# Elastic Compliance Matrix: (Units=1/GPa)
#
#
# Indices 1 2 3 4 5 6 
#
# 1 0.014698 -0.004705 -0.006230 0.000000 -0.002455 0.000000
# 2 -0.004705 0.019762 -0.001129 0.000000 -0.001840 0.000000
# 3 -0.006230 -0.001129 0.011519 0.000000 0.000199 0.000000
# 4 0.000000 0.000000 0.000000 0.029876 0.000000 -0.000106
# 5 -0.002455 -0.001840 0.000199 0.000000 0.028675 0.000000
# 6 0.000000 0.000000 0.000000 -0.000106 0.000000 0.031320
#
#
# Mechanical properties :
#
#
# Convention : Reuss Voigt Hill
#
# Bulk Modulus (GPa) = 45.76357 55.91152 50.83755
# Shear Modulus (GPa) = 29.89315 31.94299 30.91807
#
# Velocity S-wave (km/s) = 3.77338 3.90061 3.83752
# Velocity P-wave (km/s) = 6.38609 6.84964 6.62192
#
# Compressibility (1/GPa) = 0.02185144
#
# Stress axis : x y z
#
# Youngs Moduli (GPa) = 68.03529 50.60129 86.81539
#
# Poissons Ratio (x) = 0.23807 0.54086
# Poissons Ratio (y) = 0.32010 0.09802
# Poissons Ratio (z) = 0.42386 0.05713
#
# Static dielectric constant tensor:
#      x y z
#    x 3.825930 0.000000 -0.096390 
#    y 0.000000 3.441790 0.000000 
#    z -0.096390 0.000000 3.918770 
# 
# 
# High freq. dielectric constant tensor:
#      x y z
#    x 1.818130 0.000000 -0.004110 
#    y 0.000000 1.818710 0.000000 
#    z -0.004110 0.000000 1.826530 
# 
# From -- ./inp_files/238380.got.cif
#   From: 2010.06.25/outbox.cif.g09.slc.cpg/sg12_120_cif.got.tgz:238380.got - 2010.06.28 00:19:55.
