data_PCOD8098230
_publ_section_title
;
Structure prediction by ZEFSAII (Michael W. Deem and Ramdas Pophale) SiO2 
 PCOD8098230
Probable space group: C 2/M
;
_chemical_formula_sum "Si O2"
_cell_formula_units_Z 56
_cell_length_a 9.611200
_cell_length_b 19.094555
_cell_length_c 18.746885
_cell_angle_alpha 90.000000
_cell_angle_beta 122.186603
_cell_angle_gamma 90.000000
_cell_volume 2911.720716
_symmetry_space_group_name_H-M "C 2/M"
_symmetry_group_IT_number 12
_symmetry_cell_setting 'monoclinic'
loop_
_space_group_symop_operation_xyz
x,y,z
-x,y,-z
-x,-y,-z
x,-y,z
1/2+x,1/2+y,z
1/2-x,1/2+y,-z
1/2-x,1/2-y,-z
1/2+x,1/2-y,z
loop_
_atom_site_type_symbol
_atom_site_label
_atom_site_fract_x
_atom_site_fract_y
_atom_site_fract_z
Si Si1 0.062019 0.702048 0.596201
Si Si2 0.738485 0.921230 0.709332
Si Si3 0.392367 0.219849 0.689135
Si Si4 0.932891 0.221706 0.054002
Si Si5 0.978396 0.579376 0.219378
Si Si6 0.432025 0.652723 0.195665
Si Si7 0.562524 0.870180 0.096475
O O1 0.120048 0.622755 0.625280
O O2 0.211761 0.753091 0.656989
O O3 0.000000 0.713254 0.500000
O O4 0.914537 0.719707 0.609793
O O5 0.688782 0.910019 0.779680
O O6 0.926445 0.901491 0.744544
O O7 0.711588 0.000000 0.677688
O O8 0.398072 0.140847 0.721909
O O9 0.534454 0.270570 0.760610
O O10 0.942905 0.160930 0.113829
O O11 0.048986 0.287209 0.104104
O O12 0.750000 0.250000 0.000000
O O13 0.000000 0.187044 0.000000
O O14 0.045960 0.500000 0.251835
O O15 0.954707 0.588890 0.127051
O O16 0.256447 0.616669 0.164334
O O17 0.500000 0.892782 0.000000
#
# Coordination Sequence:
#
# PCOD8098230 Si02
#       7
#     8   8   8   8   8   8   8
#     4  10  20  35  59  86 112 137 167 221 271 320
#     4   9  22  39  57  81 107 145 184 217 268 328
#     4  10  20  34  56  82 109 136 182 215 266 325
#     4  11  21  32  51  82 112 138 182 235 281 318
#     4  10  21  37  55  74 108 148 184 225 267 321
#     4  11  21  34  58  79 108 144 181 233 270 314
#     4  11  22  34  52  82 108 143 185 230 283 313
#
# _framework density 19.232613000000001
#
# number of rings (size 3 to 8) (size 9 to 14) (size 15 to 20)
#    0.000    1.714    4.286    1.286    6.000    1.143 
#    0.000    0.000    0.000    2.571    0.000    0.000 
#    0.000    0.000    0.000    0.000    0.000    0.000 
#
# Total GULP energy -347011.404169 kJ/mol
# GULP energy per Si atom -12393.264435 kJ/mol
# Density = 1.918884 g / cm^3
# Si number density = 19.232613 Si / 1000 Ang^3
#
#
#
# Elastic Constant Matrix: (Units=GPa)
#
#
# Indices 1 2 3 4 5 6 
#
# 1 70.4524 14.8635 19.7030 0.0000 -4.9640 0.0000
# 2 14.8635 96.3236 17.8515 0.0000 -2.0342 0.0000
# 3 19.7030 17.8515 68.7637 0.0000 -9.5893 0.0000
# 4 0.0000 0.0000 0.0000 10.6468 0.0000 -3.9429
# 5 -4.9640 -2.0342 -9.5893 0.0000 33.0265 0.0000
# 6 0.0000 0.0000 0.0000 -3.9429 0.0000 20.6891
#
#
#
# Elastic Compliance Matrix: (Units=1/GPa)
#
#
# Indices 1 2 3 4 5 6 
#
# 1 0.015721 -0.001677 -0.003913 0.000000 0.001124 0.000000
# 2 -0.001677 0.011086 -0.002436 0.000000 -0.000277 0.000000
# 3 -0.003913 -0.002436 0.016876 0.000000 0.004162 0.000000
# 4 0.000000 0.000000 0.000000 0.101058 0.000000 0.019260
# 5 0.001124 -0.000277 0.004162 0.000000 0.031639 0.000000
# 6 0.000000 0.000000 0.000000 0.019260 0.000000 0.052005
#
#
# Mechanical properties :
#
#
# Convention : Reuss Voigt Hill
#
# Bulk Modulus (GPa) = 36.18944 37.81952 37.00448
# Shear Modulus (GPa) = 19.71237 25.08058 22.39647
#
# Velocity S-wave (km/s) = 3.20495 3.61510 3.41619
# Velocity P-wave (km/s) = 5.70554 6.09362 5.90277
#
# Compressibility (1/GPa) = 0.02763237
#
# Stress axis : x y z
#
# Youngs Moduli (GPa) = 63.60849 90.20316 59.25421
#
# Poissons Ratio (x) = 0.15128 0.23183
# Poissons Ratio (y) = 0.10668 0.14435
# Poissons Ratio (z) = 0.24887 0.21974
#
# Static dielectric constant tensor:
#      x y z
#    x 3.864180 0.000000 -0.383650 
#    y 0.000000 2.397310 0.000000 
#    z -0.383650 0.000000 3.841280 
# 
# 
# High freq. dielectric constant tensor:
#      x y z
#    x 1.763340 0.000000 -0.015830 
#    y 0.000000 1.729730 0.000000 
#    z -0.015830 0.000000 1.724030 
# 
# From -- ./inp_files/300911.got.cif
#   From: 2010.06.25/outbox.cif.g09.slc.cpg/sg12_151_cif.got.tgz:300911.got - 2010.06.28 00:19:55.
