data_PCOD8098355
_publ_section_title
;
Structure prediction by ZEFSAII (Michael W. Deem and Ramdas Pophale) SiO2 
 PCOD8098355
Probable space group: C 2/M
;
_chemical_formula_sum "Si O2"
_cell_formula_units_Z 56
_cell_length_a 19.522178
_cell_length_b 7.785993
_cell_length_c 29.147812
_cell_angle_alpha 90.000000
_cell_angle_beta 141.566430
_cell_angle_gamma 90.000000
_cell_volume 2754.000566
_symmetry_space_group_name_H-M "C 2/M"
_symmetry_group_IT_number 12
_symmetry_cell_setting 'monoclinic'
loop_
_space_group_symop_operation_xyz
x,y,z
-x,y,-z
-x,-y,-z
x,-y,z
1/2+x,1/2+y,z
1/2-x,1/2+y,-z
1/2-x,1/2-y,-z
1/2+x,1/2-y,z
loop_
_atom_site_type_symbol
_atom_site_label
_atom_site_fract_x
_atom_site_fract_y
_atom_site_fract_z
Si Si1 0.177711 0.799888 0.868617
Si Si2 0.468880 0.295223 0.124065
Si Si3 0.935038 0.500000 0.530599
Si Si4 0.670526 0.194426 0.284716
Si Si5 0.825546 0.500000 0.382814
Si Si6 0.578263 0.303495 0.001653
Si Si7 0.124984 0.806959 0.439072
Si Si8 0.477926 0.198653 0.706007
O O1 0.122987 0.729774 0.887364
O O2 0.293356 0.709375 0.918593
O O3 0.099587 0.757663 0.784637
O O4 0.200157 0.000000 0.884249
O O5 0.474274 0.500000 0.129132
O O6 0.587892 0.218072 0.198794
O O7 0.440238 0.221288 0.058581
O O8 0.830176 0.500000 0.440864
O O9 0.934695 0.674236 0.559241
O O10 0.049708 0.500000 0.565892
O O11 0.769460 0.329073 0.333185
O O12 0.605265 0.237494 0.296606
O O13 0.717372 0.000000 0.309212
O O14 0.542240 0.500000 0.979081
O O15 0.500000 0.216879 0.000000
O O16 0.250000 0.750000 0.500000
O O17 0.062340 0.809463 0.357809
O O18 0.119980 0.000000 0.456884
O O19 0.478524 0.000000 0.692442
#
# Coordination Sequence:
#
# PCOD8098355 Si02
#       8
#     8   8   4   8   4   8   8   8
#     4  10  20  34  56  85 116 157 202 258 308 356
#     4   9  18  36  60  85 114 156 209 253 304 362
#     4  11  26  44  62  96 123 171 205 242 319 369
#     4  10  21  37  65  95 119 163 207 254 306 361
#     4  11  24  44  66  86 132 165 203 253 300 374
#     4  10  21  37  55  81 117 160 200 246 311 374
#     4  12  23  40  65  95 127 160 206 258 311 368
#     4  10  20  37  62  93 124 156 207 256 309 367
#
# _framework density 20.334054999999999
#
# number of rings (size 3 to 8) (size 9 to 14) (size 15 to 20)
#    0.000    1.714    2.143    2.143    2.000    3.714 
#    2.571    1.429    0.000    0.000    0.000    0.000 
#    0.000    0.000    0.000    0.000    0.000    0.000 
#
# Total GULP energy -347209.683598 kJ/mol
# GULP energy per Si atom -12400.345843 kJ/mol
# Density = 2.028777 g / cm^3
# Si number density = 20.334055 Si / 1000 Ang^3
#
#
#
# Elastic Constant Matrix: (Units=GPa)
#
#
# Indices 1 2 3 4 5 6 
#
# 1 86.2880 22.7591 61.1156 0.0002 3.1870 -0.0008
# 2 22.7591 98.6423 29.8753 0.0002 3.8553 -0.0005
# 3 61.1156 29.8753 144.9484 0.0001 -0.9956 -0.0005
# 4 0.0002 0.0002 0.0001 27.1153 -0.0001 1.1941
# 5 3.1870 3.8553 -0.9956 -0.0001 28.6639 0.0003
# 6 -0.0008 -0.0005 -0.0005 1.1941 0.0003 19.0886
#
#
#
# Elastic Compliance Matrix: (Units=1/GPa)
#
#
# Indices 1 2 3 4 5 6 
#
# 1 0.016934 -0.001778 -0.006786 0.000000 -0.001879 0.000001
# 2 -0.001778 0.011067 -0.001540 0.000000 -0.001344 0.000000
# 3 -0.006786 -0.001540 0.010087 0.000000 0.001312 0.000000
# 4 0.000000 0.000000 0.000000 0.036981 0.000000 -0.002313
# 5 -0.001879 -0.001344 0.001312 0.000000 0.035322 -0.000001
# 6 0.000001 0.000000 0.000000 -0.002313 -0.000001 0.052532
#
#
# Mechanical properties :
#
#
# Convention : Reuss Voigt Hill
#
# Bulk Modulus (GPa) = 55.93549 61.93097 58.93323
# Shear Modulus (GPa) = 26.44189 29.38213 27.91201
#
# Velocity S-wave (km/s) = 3.60998 3.80540 3.70898
# Velocity P-wave (km/s) = 6.70403 7.05911 6.88386
#
# Compressibility (1/GPa) = 0.01787774
#
# Stress axis : x y z
#
# Youngs Moduli (GPa) = 59.05196 90.35852 99.13792
#
# Poissons Ratio (x) = 0.16068 0.67280
# Poissons Ratio (y) = 0.10501 0.15272
# Poissons Ratio (z) = 0.40076 0.13919
#
# Static dielectric constant tensor:
#      x y z
#    x 3.636850 0.000000 -0.222500 
#    y 0.000000 4.144710 0.000000 
#    z -0.222500 0.000000 3.898470 
# 
# 
# High freq. dielectric constant tensor:
#      x y z
#    x 1.770130 0.000000 -0.003750 
#    y 0.000000 1.796470 0.000000 
#    z -0.003750 0.000000 1.807310 
# 
# From -- ./inp_files/363255.got.cif
#   From: 2010.06.25/outbox.cif.g09.slc.cpg/sg12_182_cif.got.tgz:363255.got - 2010.06.28 00:19:55.
