data_PCOD8098318
_publ_section_title
;
Structure prediction by ZEFSAII (Michael W. Deem and Ramdas Pophale) SiO2 
 PCOD8098318
Probable space group: C 2/M
;
_chemical_formula_sum "Si O2"
_cell_formula_units_Z 56
_cell_length_a 33.197725
_cell_length_b 8.496177
_cell_length_c 12.370964
_cell_angle_alpha 90.000000
_cell_angle_beta 120.189638
_cell_angle_gamma 90.000000
_cell_volume 3016.011355
_symmetry_space_group_name_H-M "C 2/M"
_symmetry_group_IT_number 12
_symmetry_cell_setting 'monoclinic'
loop_
_space_group_symop_operation_xyz
x,y,z
-x,y,-z
-x,-y,-z
x,-y,z
1/2+x,1/2+y,z
1/2-x,1/2+y,-z
1/2-x,1/2-y,-z
1/2+x,1/2-y,z
loop_
_atom_site_type_symbol
_atom_site_label
_atom_site_fract_x
_atom_site_fract_y
_atom_site_fract_z
Si Si1 0.551994 0.683998 0.242121
Si Si2 0.110253 0.316280 0.516595
Si Si3 0.549720 0.317110 0.612520
Si Si4 0.106753 0.182221 0.101340
Si Si5 0.198845 0.815965 0.545796
Si Si6 0.455114 0.181378 0.161647
Si Si7 0.804019 0.318208 0.693206
O O1 0.540532 0.500000 0.226578
O O2 0.579351 0.725159 0.387504
O O3 0.582436 0.733586 0.180226
O O4 0.503699 0.777151 0.169757
O O5 0.109422 0.500000 0.489933
O O6 0.089908 0.282273 0.607608
O O7 0.163011 0.250572 0.585934
O O8 0.500000 0.260334 0.500000
O O9 0.557788 0.500000 0.599302
O O10 0.552346 0.286948 0.743044
O O11 0.161816 0.216642 0.185361
O O12 0.098250 0.000000 0.064316
O O13 0.086579 0.285145 0.977108
O O14 0.188898 0.725780 0.421685
O O15 0.251057 0.782238 0.658336
O O16 0.190682 0.000000 0.513668
O O17 0.454741 0.000000 0.195348
O O18 0.816643 0.500000 0.724848
#
# Coordination Sequence:
#
# PCOD8098318 Si02
#       7
#     8   8   8   8   8   8   8
#     4  11  22  37  56  82 116 155 193 230 282 341
#     4  12  23  35  58  87 117 149 189 238 285 334
#     4  11  23  40  62  82 110 151 193 236 285 338
#     4  11  23  38  58  82 117 157 193 232 284 346
#     4  10  20  35  55  83 117 152 187 231 288 342
#     4  12  25  39  58  83 115 151 195 240 281 336
#     4  10  20  34  56  84 115 149 191 237 281 334
#
# _framework density 18.567568999999999
#
# number of rings (size 3 to 8) (size 9 to 14) (size 15 to 20)
#    0.000    1.000    2.857    5.143    0.000    5.714 
#    0.000    0.000    0.000    0.857    0.000    0.000 
#    0.000    0.000    0.000    0.000    0.000    0.000 
#
# Total GULP energy -347401.145077 kJ/mol
# GULP energy per Si atom -12407.183753 kJ/mol
# Density = 1.852531 g / cm^3
# Si number density = 18.567569 Si / 1000 Ang^3
#
#
#
# Elastic Constant Matrix: (Units=GPa)
#
#
# Indices 1 2 3 4 5 6 
#
# 1 112.5521 28.9506 38.0890 0.0000 14.7291 0.0000
# 2 28.9506 58.3764 16.6998 0.0000 4.5668 0.0000
# 3 38.0890 16.6998 86.4225 0.0000 9.3456 0.0000
# 4 0.0000 0.0000 0.0000 29.3192 0.0000 1.6911
# 5 14.7291 4.5668 9.3456 0.0000 25.0731 0.0000
# 6 0.0000 0.0000 0.0000 1.6911 0.0000 30.7703
#
#
#
# Elastic Compliance Matrix: (Units=1/GPa)
#
#
# Indices 1 2 3 4 5 6 
#
# 1 0.011974 -0.004449 -0.003902 0.000000 -0.004769 0.000000
# 2 -0.004449 0.019890 -0.001848 0.000000 -0.000320 0.000000
# 3 -0.003902 -0.001848 0.013925 0.000000 -0.002562 0.000000
# 4 0.000000 0.000000 0.000000 0.034216 0.000000 -0.001880
# 5 -0.004769 -0.000320 -0.002562 0.000000 0.043698 0.000000
# 6 0.000000 0.000000 0.000000 -0.001880 0.000000 0.032602
#
#
# Mechanical properties :
#
#
# Convention : Reuss Voigt Hill
#
# Bulk Modulus (GPa) = 39.38341 47.20331 43.29336
# Shear Modulus (GPa) = 27.00280 28.60663 27.80471
#
# Velocity S-wave (km/s) = 3.81766 3.92940 3.87394
# Velocity P-wave (km/s) = 6.37884 6.78709 6.58613
#
# Compressibility (1/GPa) = 0.02539140
#
# Stress axis : x y z
#
# Youngs Moduli (GPa) = 83.51697 50.27588 71.81434
#
# Poissons Ratio (x) = 0.22367 0.28020
# Poissons Ratio (y) = 0.37155 0.13272
# Poissons Ratio (z) = 0.32586 0.09291
#
# Static dielectric constant tensor:
#      x y z
#    x 3.585650 0.000000 0.138020 
#    y 0.000000 3.453730 0.000000 
#    z 0.138020 0.000000 3.247420 
# 
# 
# High freq. dielectric constant tensor:
#      x y z
#    x 1.720180 0.000000 0.011670 
#    y 0.000000 1.736040 0.000000 
#    z 0.011670 0.000000 1.699510 
# 
# From -- ./inp_files/187154.got.cif
#   From: 2010.06.25/outbox.cif.g09.slc.cpg/sg12_94_cif.got.tgz:187154.got - 2010.06.28 00:19:55.
