data_PCOD8098952
_publ_section_title
;
Structure prediction by ZEFSAII (Michael W. Deem and Ramdas Pophale) SiO2 
 PCOD8098952
Probable space group: C 2/M
;
_chemical_formula_sum "Si O2"
_cell_formula_units_Z 56
_cell_length_a 29.866216
_cell_length_b 8.839992
_cell_length_c 15.970066
_cell_angle_alpha 90.000000
_cell_angle_beta 44.891202
_cell_angle_gamma 90.000000
_cell_volume 2975.757551
_symmetry_space_group_name_H-M "C 2/M"
_symmetry_group_IT_number 12
_symmetry_cell_setting 'monoclinic'
loop_
_space_group_symop_operation_xyz
x,y,z
-x,y,-z
-x,-y,-z
x,-y,z
1/2+x,1/2+y,z
1/2-x,1/2+y,-z
1/2-x,1/2-y,-z
1/2+x,1/2-y,z
loop_
_atom_site_type_symbol
_atom_site_label
_atom_site_fract_x
_atom_site_fract_y
_atom_site_fract_z
Si Si1 0.404315 0.822495 0.608593
Si Si2 0.282441 0.175575 0.677833
Si Si3 0.637156 0.676268 0.882843
Si Si4 0.541699 0.175705 0.126766
Si Si5 0.807892 0.177537 0.471718
Si Si6 0.091603 0.325070 0.773256
Si Si7 0.484522 0.820283 0.653611
O O1 0.330612 0.782531 0.689751
O O2 0.427015 0.762266 0.669463
O O3 0.449427 0.759091 0.473931
O O4 0.415541 0.000000 0.594842
O O5 0.211157 0.212368 0.800250
O O6 0.303491 0.280101 0.573964
O O7 0.289574 0.000000 0.642136
O O8 0.625608 0.500000 0.882296
O O9 0.611490 0.765427 0.837109
O O10 0.601046 0.730720 0.013300
O O11 0.483121 0.198583 0.141057
O O12 0.525159 0.244395 0.240128
O O13 0.560795 0.000000 0.106692
O O14 0.750000 0.250000 0.500000
O O15 0.873391 0.236987 0.347139
O O16 0.804413 0.000000 0.464105
O O17 0.110669 0.500000 0.741984
O O18 0.486257 0.000000 0.658953
#
# Coordination Sequence:
#
# PCOD8098952 Si02
#       7
#     8   8   8   8   8   8   8
#     4   8  14  28  54  83 107 131 169 221 273 323
#     4  10  20  35  54  78 109 144 180 220 268 318
#     4  11  23  36  51  73 107 148 185 223 268 320
#     4  10  21  36  55  78 105 140 183 228 273 317
#     4  12  23  35  54  80 110 142 175 217 265 316
#     4  11  22  37  57  79 105 140 181 227 274 319
#     4   8  14  28  53  83 106 129 170 225 274 317
#
# _framework density 18.818736999999999
#
# number of rings (size 3 to 8) (size 9 to 14) (size 15 to 20)
#    0.000    2.000    1.429    4.286    0.000    5.714 
#    0.000    0.714    0.000    0.857    0.000    3.000 
#    0.000    0.000    0.000    0.000    0.000    0.000 
#
# Total GULP energy -347163.636769 kJ/mol
# GULP energy per Si atom -12398.701313 kJ/mol
# Density = 1.877590 g / cm^3
# Si number density = 18.818737 Si / 1000 Ang^3
#
#
#
# Elastic Constant Matrix: (Units=GPa)
#
#
# Indices 1 2 3 4 5 6 
#
# 1 135.2208 33.4637 56.9033 0.0001 -4.1109 0.0000
# 2 33.4637 71.6400 34.2027 0.0014 -3.8448 -0.0003
# 3 56.9033 34.2027 110.2247 0.0002 -6.8262 -0.0002
# 4 0.0001 0.0014 0.0002 29.6859 -0.0001 -2.5018
# 5 -4.1109 -3.8448 -6.8262 -0.0001 21.0328 0.0000
# 6 0.0000 -0.0003 -0.0002 -2.5018 0.0000 16.0827
#
#
#
# Elastic Compliance Matrix: (Units=1/GPa)
#
#
# Indices 1 2 3 4 5 6 
#
# 1 0.009828 -0.002544 -0.004280 0.000000 0.000067 0.000000
# 2 -0.002544 0.017084 -0.003904 -0.000001 0.001359 0.000000
# 3 -0.004280 -0.003904 0.012652 0.000000 0.002556 0.000000
# 4 0.000000 -0.000001 0.000000 0.034134 0.000000 0.005310
# 5 0.000067 0.001359 0.002556 0.000000 0.048636 0.000000
# 6 0.000000 0.000000 0.000000 0.005310 0.000000 0.063005
#
#
# Mechanical properties :
#
#
# Convention : Reuss Voigt Hill
#
# Bulk Modulus (GPa) = 55.22444 62.91387 59.06915
# Shear Modulus (GPa) = 23.49310 26.19466 24.84388
#
# Velocity S-wave (km/s) = 3.53709 3.73493 3.63735
# Velocity P-wave (km/s) = 6.78900 7.21829 7.00693
#
# Compressibility (1/GPa) = 0.01810793
#
# Stress axis : x y z
#
# Youngs Moduli (GPa) = 101.74958 58.53601 79.04103
#
# Poissons Ratio (x) = 0.14890 0.33832
# Poissons Ratio (y) = 0.25882 0.30855
# Poissons Ratio (z) = 0.43552 0.22851
#
# Static dielectric constant tensor:
#      x y z
#    x 3.614080 0.000000 0.020300 
#    y 0.000000 3.620160 0.000000 
#    z 0.020300 0.000000 3.566690 
# 
# 
# High freq. dielectric constant tensor:
#      x y z
#    x 1.737290 0.000000 -0.004330 
#    y 0.000000 1.702980 0.000000 
#    z -0.004330 0.000000 1.726970 
# 
# From -- ./inp_files/237839.got.cif
#   From: 2010.06.25/outbox.cif.g09.slc.cpg/sg12_119_cif.got.tgz:237839.got - 2010.06.28 00:19:55.
