data_PCOD8098116
_publ_section_title
;
Structure prediction by ZEFSAII (Michael W. Deem and Ramdas Pophale) SiO2 
 PCOD8098116
Probable space group: C 2/M
;
_chemical_formula_sum "Si O2"
_cell_formula_units_Z 48
_cell_length_a 18.151716
_cell_length_b 8.933428
_cell_length_c 31.447047
_cell_angle_alpha 90.000000
_cell_angle_beta 150.860432
_cell_angle_gamma 90.000000
_cell_volume 2483.075800
_symmetry_space_group_name_H-M "C 2/M"
_symmetry_group_IT_number 12
_symmetry_cell_setting 'monoclinic'
loop_
_space_group_symop_operation_xyz
x,y,z
-x,y,-z
-x,-y,-z
x,-y,z
1/2+x,1/2+y,z
1/2-x,1/2+y,-z
1/2-x,1/2-y,-z
1/2+x,1/2-y,z
loop_
_atom_site_type_symbol
_atom_site_label
_atom_site_fract_x
_atom_site_fract_y
_atom_site_fract_z
Si Si1 0.331236 0.325779 0.335607
Si Si2 0.799712 0.822642 0.813495
Si Si3 0.685986 0.325532 0.509398
Si Si4 0.837667 0.828289 0.174848
Si Si5 0.595754 0.664333 0.005683
Si Si6 0.186635 0.826408 0.343394
O O1 0.291667 0.500000 0.317095
O O2 0.248070 0.253071 0.253997
O O3 0.508344 0.296821 0.421429
O O4 0.275913 0.249989 0.350534
O O5 0.695284 0.765931 0.799428
O O6 0.977136 0.780174 0.909993
O O7 0.778481 0.000000 0.799791
O O8 0.725495 0.500000 0.528881
O O9 0.750000 0.250000 0.500000
O O10 0.766985 0.250691 0.589794
O O11 0.008696 0.804081 0.246468
O O12 0.802244 0.000000 0.167647
O O13 0.734569 0.777646 0.082730
O O14 0.661019 0.500000 0.026894
O O15 0.500000 0.651608 0.000000
O O16 0.230833 0.000000 0.367681
#
# Coordination Sequence:
#
# PCOD8098116 Si02
#       6
#     8   8   8   8   8   8
#     4  11  24  40  58  83 114 147 186 230 276 330
#     4  10  20  35  57  84 113 147 188 231 277 331
#     4  11  24  41  62  88 114 143 184 230 275 328
#     4  10  20  34  55  84 114 145 187 234 276 326
#     4   8  16  31  52  80 111 144 185 231 277 326
#     4  11  24  40  58  83 115 150 187 227 276 333
#
# _framework density 19.330863999999998
#
# number of rings (size 3 to 8) (size 9 to 14) (size 15 to 20)
#    0.000    1.833    0.000    5.000    0.000   15.000 
#    0.000    0.833    0.000    0.000    0.000    0.000 
#    0.000    0.000    0.000    0.000    0.000    0.000 
#
# Total GULP energy -297629.285749 kJ/mol
# GULP energy per Si atom -12401.220240 kJ/mol
# Density = 1.928687 g / cm^3
# Si number density = 19.330864 Si / 1000 Ang^3
#
#
#
# Elastic Constant Matrix: (Units=GPa)
#
#
# Indices 1 2 3 4 5 6 
#
# 1 77.8715 54.7540 14.6921 -0.0001 54.6745 -0.0006
# 2 54.7540 137.3885 62.0361 -0.0003 34.4009 -0.0001
# 3 14.6921 62.0361 94.3949 0.0000 58.8838 -0.0003
# 4 -0.0001 -0.0003 0.0000 54.7982 0.0003 41.9610
# 5 54.6745 34.4009 58.8838 0.0003 -58.4222 0.0014
# 6 -0.0006 -0.0001 -0.0003 41.9610 0.0014 163.2013
#
#
#
# Elastic Compliance Matrix: (Units=1/GPa)
#
#
# Indices 1 2 3 4 5 6 
#
# 1 0.012785 -0.005684 -0.002229 0.000000 0.006372 0.000000
# 2 -0.005684 0.012857 -0.005506 0.000000 -0.003299 0.000000
# 3 -0.002229 -0.005506 0.010980 0.000000 0.005738 0.000000
# 4 0.000000 0.000000 0.000000 0.022722 0.000000 -0.005842
# 5 0.006372 -0.003299 0.005738 0.000000 -0.007313 0.000000
# 6 0.000000 0.000000 0.000000 -0.005842 0.000000 0.007629
#
#
# Mechanical properties :
#
#
# Convention : Reuss Voigt Hill
#
# Bulk Modulus (GPa) = 102.22326 63.62435 82.92381
# Shear Modulus (GPa) = 55.70344 43.79365 49.74854
#
# Velocity S-wave (km/s) = 5.37386 4.76487 5.07850
# Velocity P-wave (km/s) = 9.56557 7.95341 8.79650
#
# Compressibility (1/GPa) = 0.00978251
#
# Stress axis : x y z
#
# Youngs Moduli (GPa) = 78.21368 77.78146 91.07587
#
# Poissons Ratio (x) = 0.44214 0.20300
# Poissons Ratio (y) = 0.44460 0.50150
# Poissons Ratio (z) = 0.17433 0.42829
#
# Static dielectric constant tensor:
#      x y z
#    x 3.318160 0.000000 -0.006100 
#    y 0.000000 3.760480 0.000000 
#    z -0.006100 0.000000 3.976450 
# 
# 
# High freq. dielectric constant tensor:
#      x y z
#    x 1.733940 0.000000 -0.001710 
#    y 0.000000 1.768250 0.000000 
#    z -0.001710 0.000000 1.772730 
# 
# From -- ./inp_files/274000.got.cif
#   From: 2010.06.25/outbox.cif.g09.slc.cpg/sg12_137_cif.got.tgz:274000.got - 2010.06.28 00:19:55.
