data_PCOD8098772
_publ_section_title
;
Structure prediction by ZEFSAII (Michael W. Deem and Ramdas Pophale) SiO2 
 PCOD8098772
Probable space group: C 2/M
;
_chemical_formula_sum "Si O2"
_cell_formula_units_Z 48
_cell_length_a 13.795127
_cell_length_b 14.082370
_cell_length_c 25.497823
_cell_angle_alpha 90.000000
_cell_angle_beta 32.279393
_cell_angle_gamma 90.000000
_cell_volume 2645.361930
_symmetry_space_group_name_H-M "C 2/M"
_symmetry_group_IT_number 12
_symmetry_cell_setting 'monoclinic'
loop_
_space_group_symop_operation_xyz
x,y,z
-x,y,-z
-x,-y,-z
x,-y,z
1/2+x,1/2+y,z
1/2-x,1/2+y,-z
1/2-x,1/2-y,-z
1/2+x,1/2-y,z
loop_
_atom_site_type_symbol
_atom_site_label
_atom_site_fract_x
_atom_site_fract_y
_atom_site_fract_z
Si Si1 0.178256 0.338381 0.705712
Si Si2 0.346431 0.890856 0.926152
Si Si3 0.526413 0.254313 0.047335
Si Si4 0.361521 0.110031 0.390512
Si Si5 0.188796 0.278729 0.268513
Si Si6 0.503801 0.604036 0.614857
O O1 0.151291 0.325945 0.656103
O O2 0.211985 0.236242 0.720017
O O3 0.357669 0.402345 0.633934
O O4 0.001706 0.387835 0.811149
O O5 0.410385 0.838340 0.949759
O O6 0.301410 0.000000 0.960326
O O7 0.167997 0.840407 0.985364
O O8 0.335987 0.294073 0.156089
O O9 0.500000 0.221339 0.000000
O O10 0.551614 0.132541 0.332663
O O11 0.198133 0.136700 0.503860
O O12 0.355952 0.000000 0.377225
O O13 0.068772 0.182899 0.310810
O O14 0.518622 0.500000 0.634870
#
# Coordination Sequence:
#
# PCOD8098772 Si02
#       6
#     8   8   8   8   8   8
#     4   9  19  31  53  76 102 126 163 204 248 287
#     4  10  20  35  53  74 102 131 163 206 251 291
#     4  10  21  35  52  75  99 131 170 205 244 296
#     4  11  19  31  53  79 101 130 166 201 243 298
#     4   9  21  33  49  75 106 130 160 208 252 288
#     4   9  18  32  51  75 102 129 164 206 246 288
#
# _framework density 18.144964999999999
#
# number of rings (size 3 to 8) (size 9 to 14) (size 15 to 20)
#    1.000    1.333    0.000    3.500    0.000    2.667 
#    0.000    0.000    0.000    1.000    0.000    3.500 
#    0.000    0.000    0.000    0.000    0.000    0.000 
#
# Total GULP energy -297404.818424 kJ/mol
# GULP energy per Si atom -12391.867434 kJ/mol
# Density = 1.810367 g / cm^3
# Si number density = 18.144965 Si / 1000 Ang^3
#
#
#
# Elastic Constant Matrix: (Units=GPa)
#
#
# Indices 1 2 3 4 5 6 
#
# 1 57.5225 19.6464 32.2774 -0.0021 -8.4516 0.0002
# 2 19.6464 56.7808 27.4476 0.0000 -12.1138 -0.0001
# 3 32.2774 27.4476 104.8175 0.0044 -20.9434 -0.0008
# 4 -0.0021 0.0000 0.0044 4.5838 -0.0015 -0.6417
# 5 -8.4516 -12.1138 -20.9434 -0.0015 14.9615 0.0001
# 6 0.0002 -0.0001 -0.0008 -0.6417 0.0001 16.2527
#
#
#
# Elastic Compliance Matrix: (Units=1/GPa)
#
#
# Indices 1 2 3 4 5 6 
#
# 1 0.022207 -0.004861 -0.005339 0.000016 0.001136 0.000000
# 2 -0.004861 0.023035 -0.001884 0.000004 0.013267 0.000000
# 3 -0.005339 -0.001884 0.014953 -0.000012 0.016390 0.000000
# 4 0.000016 0.000004 -0.000012 0.219374 0.000017 0.008661
# 5 0.001136 0.013267 0.016390 0.000017 0.101164 0.000001
# 6 0.000000 0.000000 0.000000 0.008661 0.000001 0.061870
#
#
# Mechanical properties :
#
#
# Convention : Reuss Voigt Hill
#
# Bulk Modulus (GPa) = 27.75685 41.98485 34.87085
# Shear Modulus (GPa) = 10.44321 16.47620 13.45971
#
# Velocity S-wave (km/s) = 2.40165 3.01663 2.72653
# Velocity P-wave (km/s) = 4.79803 5.94325 5.40107
#
# Compressibility (1/GPa) = 0.03602715
#
# Stress axis : x y z
#
# Youngs Moduli (GPa) = 45.03034 43.41273 66.87818
#
# Poissons Ratio (x) = 0.21102 0.35704
# Poissons Ratio (y) = 0.21888 0.12601
# Poissons Ratio (z) = 0.24040 0.08180
#
# Static dielectric constant tensor:
#      x y z
#    x 3.091540 0.000000 -0.214110 
#    y 0.000000 3.090880 0.000000 
#    z -0.214110 0.000000 3.432680 
# 
# 
# High freq. dielectric constant tensor:
#      x y z
#    x 1.677540 0.000000 -0.018700 
#    y 0.000000 1.681460 0.000000 
#    z -0.018700 0.000000 1.718110 
# 
# From -- ./inp_files/361213.got.cif
#   From: 2010.06.25/outbox.cif.g09.slc.cpg/sg12_181_cif.got.tgz:361213.got - 2010.06.28 00:19:55.
