data_PCOD8098008
_publ_section_title
;
Structure prediction by ZEFSAII (Michael W. Deem and Ramdas Pophale) SiO2 
 PCOD8098008
Probable space group: C 2/M
;
_chemical_formula_sum "Si O2"
_cell_formula_units_Z 64
_cell_length_a 30.736662
_cell_length_b 13.877830
_cell_length_c 9.945685
_cell_angle_alpha 90.000000
_cell_angle_beta 60.465150
_cell_angle_gamma 90.000000
_cell_volume 3691.137137
_symmetry_space_group_name_H-M "C 2/M"
_symmetry_group_IT_number 12
_symmetry_cell_setting 'monoclinic'
loop_
_space_group_symop_operation_xyz
x,y,z
-x,y,-z
-x,-y,-z
x,-y,z
1/2+x,1/2+y,z
1/2-x,1/2+y,-z
1/2-x,1/2-y,-z
1/2+x,1/2-y,z
loop_
_atom_site_type_symbol
_atom_site_label
_atom_site_fract_x
_atom_site_fract_y
_atom_site_fract_z
Si Si1 0.546666 0.612076 0.020859
Si Si2 0.312989 0.387273 0.548339
Si Si3 0.687909 0.892523 0.109423
Si Si4 0.801012 0.389741 0.219654
Si Si5 0.356934 0.706644 0.743694
Si Si6 0.650759 0.297964 0.778581
Si Si7 0.545624 0.391625 0.331256
Si Si8 0.794462 0.890601 0.069821
O O1 0.559738 0.500000 0.974828
O O2 0.595078 0.676392 0.913044
O O3 0.500000 0.644643 0.000000
O O4 0.530892 0.630793 0.199417
O O5 0.326395 0.500000 0.539352
O O6 0.253471 0.372485 0.632777
O O7 0.336157 0.330724 0.636364
O O8 0.340686 0.340979 0.380291
O O9 0.646762 0.822002 0.235034
O O10 0.736276 0.881204 0.128834
O O11 0.665933 0.000000 0.151718
O O12 0.702327 0.867052 0.934159
O O13 0.818445 0.500000 0.218289
O O14 0.840947 0.318152 0.229683
O O15 0.414453 0.682772 0.673942
O O16 0.325259 0.660609 0.909110
O O17 0.693961 0.342912 0.805473
O O18 0.500000 0.378104 0.500000
O O19 0.567164 0.500000 0.307686
O O20 0.812691 0.000000 0.046952
#
# Coordination Sequence:
#
# PCOD8098008 Si02
#       8
#     8   8   8   8   8   8   8   8
#     4  10  21  36  54  77 107 138 173 221 274 328
#     4  11  23  34  51  82 117 146 176 218 268 323
#     4  10  20  34  55  82 109 141 185 228 261 308
#     4  10  20  36  54  79 111 144 184 226 263 307
#     4  12  20  35  56  78 107 146 181 218 269 318
#     4  12  22  36  54  79 109 149 183 216 268 324
#     4  10  21  35  54  80 105 134 176 223 273 327
#     4  11  19  31  54  80 108 140 179 218 259 320
#
# _framework density 17.338829
#
# number of rings (size 3 to 8) (size 9 to 14) (size 15 to 20)
#    0.000    1.250    3.750    3.750    1.750    0.000 
#    0.000    1.875    0.000    0.750    0.000    0.000 
#    0.000    0.000    0.000    0.000    0.000    0.000 
#
# Total GULP energy -396844.024819 kJ/mol
# GULP energy per Si atom -12401.375776 kJ/mol
# Density = 1.729937 g / cm^3
# Si number density = 17.338829 Si / 1000 Ang^3
#
#
#
# Elastic Constant Matrix: (Units=GPa)
#
#
# Indices 1 2 3 4 5 6 
#
# 1 96.6849 57.9948 39.3545 0.0000 8.6957 0.0000
# 2 57.9948 118.2340 49.0818 0.0000 2.5658 0.0000
# 3 39.3545 49.0818 120.1629 0.0000 10.4587 0.0000
# 4 0.0000 0.0000 0.0000 23.2311 0.0000 -0.9016
# 5 8.6957 2.5658 10.4587 0.0000 32.3988 0.0000
# 6 0.0000 0.0000 0.0000 -0.9016 0.0000 27.5029
#
#
#
# Elastic Compliance Matrix: (Units=1/GPa)
#
#
# Indices 1 2 3 4 5 6 
#
# 1 0.015443 -0.006644 -0.002087 0.000000 -0.002945 0.000000
# 2 -0.006644 0.013053 -0.003314 0.000000 0.001819 0.000000
# 3 -0.002087 -0.003314 0.010585 0.000000 -0.002594 0.000000
# 4 0.000000 0.000000 0.000000 0.043101 0.000000 0.001413
# 5 -0.002945 0.001819 -0.002594 0.000000 0.032349 0.000000
# 6 0.000000 0.000000 0.000000 0.001413 0.000000 0.036406
#
#
# Mechanical properties :
#
#
# Convention : Reuss Voigt Hill
#
# Bulk Modulus (GPa) = 66.71287 69.77155 68.24221
# Shear Modulus (GPa) = 27.77389 29.20326 28.48857
#
# Velocity S-wave (km/s) = 4.00663 4.10844 4.05785
# Velocity P-wave (km/s) = 7.74362 7.92673 7.83571
#
# Compressibility (1/GPa) = 0.01498961
#
# Stress axis : x y z
#
# Youngs Moduli (GPa) = 64.75446 76.60969 94.47245
#
# Poissons Ratio (x) = 0.50903 0.19720
# Poissons Ratio (y) = 0.43026 0.31308
# Poissons Ratio (z) = 0.13517 0.25388
#
# Static dielectric constant tensor:
#      x y z
#    x 3.099640 0.000000 0.106080 
#    y 0.000000 3.580780 0.000000 
#    z 0.106080 0.000000 3.050810 
# 
# 
# High freq. dielectric constant tensor:
#      x y z
#    x 1.654140 0.000000 0.014320 
#    y 0.000000 1.668790 0.000000 
#    z 0.014320 0.000000 1.670670 
# 
# From -- ./inp_files/104498.got.cif
#   From: 2010.06.25/outbox.cif.g09.slc.cpg/sg12_53_cif.got.tgz:104498.got - 2010.06.28 00:19:55.
