data_PCOD8098558
_publ_section_title
;
Structure prediction by ZEFSAII (Michael W. Deem and Ramdas Pophale) SiO2 
 PCOD8098558
Probable space group: C 2/M
;
_chemical_formula_sum "Si O2"
_cell_formula_units_Z 48
_cell_length_a 30.726439
_cell_length_b 17.287228
_cell_length_c 9.196510
_cell_angle_alpha 90.000000
_cell_angle_beta 31.145423
_cell_angle_gamma 90.000000
_cell_volume 2526.557753
_symmetry_space_group_name_H-M "C 2/M"
_symmetry_group_IT_number 12
_symmetry_cell_setting 'monoclinic'
loop_
_space_group_symop_operation_xyz
x,y,z
-x,y,-z
-x,-y,-z
x,-y,z
1/2+x,1/2+y,z
1/2-x,1/2+y,-z
1/2-x,1/2-y,-z
1/2+x,1/2-y,z
loop_
_atom_site_type_symbol
_atom_site_label
_atom_site_fract_x
_atom_site_fract_y
_atom_site_fract_z
Si Si1 0.879236 0.584976 0.950720
Si Si2 0.993132 0.273378 0.677552
Si Si3 0.912218 0.194329 0.168214
Si Si4 0.767731 0.703340 0.715638
Si Si5 0.215630 0.089384 0.610186
Si Si6 0.331713 0.827234 0.829316
O O1 0.916900 0.500000 0.860926
O O2 0.802600 0.596933 0.278723
O O3 0.953851 0.641819 0.776694
O O4 0.851635 0.594703 0.860070
O O5 0.000000 0.233207 0.500000
O O6 0.086881 0.284137 0.470638
O O7 0.936269 0.220938 0.939285
O O8 0.856088 0.261362 0.404043
O O9 0.857365 0.117355 0.293385
O O10 0.000000 0.176017 0.000000
O O11 0.723346 0.645605 0.728715
O O12 0.776685 0.656480 0.843351
O O13 0.708204 0.774796 0.927462
O O14 0.197620 0.000000 0.707312
#
# Coordination Sequence:
#
# PCOD8098558 Si02
#       6
#     8   8   8   8   8   8
#     4  10  20  35  56  84 121 159 190 230 290 358
#     4  10  20  34  57  91 116 148 194 246 289 342
#     4  12  22  39  64  86 114 153 201 248 283 337
#     4  11  21  39  62  88 114 152 197 245 289 339
#     4  11  23  39  60  86 120 158 193 234 295 353
#     4  10  21  35  59  89 117 147 198 243 291 338
#
# _framework density 18.998179
#
# number of rings (size 3 to 8) (size 9 to 14) (size 15 to 20)
#    0.000    1.333    5.000    2.500    0.000    4.000 
#    0.000    0.000    0.000    7.500    0.000    0.000 
#    0.000    0.000    0.000    0.000    0.000    0.000 
#
# Total GULP energy -297345.061417 kJ/mol
# GULP energy per Si atom -12389.377559 kJ/mol
# Density = 1.895494 g / cm^3
# Si number density = 18.998179 Si / 1000 Ang^3
#
#
#
# Elastic Constant Matrix: (Units=GPa)
#
#
# Indices 1 2 3 4 5 6 
#
# 1 99.9910 38.3499 17.8015 0.0000 0.2438 0.0000
# 2 38.3499 44.6879 23.8913 0.0000 7.9796 0.0000
# 3 17.8015 23.8913 86.2769 0.0000 7.2215 0.0000
# 4 0.0000 0.0000 0.0000 23.3401 0.0000 -0.7711
# 5 0.2438 7.9796 7.2215 0.0000 31.9765 0.0000
# 6 0.0000 0.0000 0.0000 -0.7711 0.0000 21.8213
#
#
#
# Elastic Compliance Matrix: (Units=1/GPa)
#
#
# Indices 1 2 3 4 5 6 
#
# 1 0.015245 -0.013894 0.000429 0.000000 0.003254 0.000000
# 2 -0.013894 0.039738 -0.007457 0.000000 -0.008127 0.000000
# 3 0.000429 -0.007457 0.013670 0.000000 -0.001230 0.000000
# 4 0.000000 0.000000 0.000000 0.042895 0.000000 0.001516
# 5 0.003254 -0.008127 -0.001230 0.000000 0.033554 0.000000
# 6 0.000000 0.000000 0.000000 0.001516 0.000000 0.045880
#
#
# Mechanical properties :
#
#
# Convention : Reuss Voigt Hill
#
# Bulk Modulus (GPa) = 37.29852 43.44902 40.37377
# Shear Modulus (GPa) = 20.68148 25.48846 23.08497
#
# Velocity S-wave (km/s) = 3.30298 3.66680 3.48963
# Velocity P-wave (km/s) = 5.84992 6.39116 6.12652
#
# Compressibility (1/GPa) = 0.02681071
#
# Stress axis : x y z
#
# Youngs Moduli (GPa) = 65.59461 25.16452 73.15328
#
# Poissons Ratio (x) = 0.34963 -0.03141
# Poissons Ratio (y) = 0.91134 0.54553
# Poissons Ratio (z) = -0.02817 0.18766
#
# Static dielectric constant tensor:
#      x y z
#    x 3.546390 0.000000 0.059330 
#    y 0.000000 3.280580 0.000000 
#    z 0.059330 0.000000 3.731250 
# 
# 
# High freq. dielectric constant tensor:
#      x y z
#    x 1.743850 0.000000 0.003090 
#    y 0.000000 1.705480 0.000000 
#    z 0.003090 0.000000 1.759180 
# 
# From -- ./inp_files/75066.got.cif
#   From: 2010.06.25/outbox.cif.g09.slc.cpg/sg12_38_cif.got.tgz:75066.got - 2010.06.28 00:19:55.
