data_PCOD8098424
_publ_section_title
;
Structure prediction by ZEFSAII (Michael W. Deem and Ramdas Pophale) SiO2 
 PCOD8098424
Probable space group: C 2/M
;
_chemical_formula_sum "Si O2"
_cell_formula_units_Z 40
_cell_length_a 15.059788
_cell_length_b 28.898060
_cell_length_c 11.036431
_cell_angle_alpha 90.000000
_cell_angle_beta 153.360677
_cell_angle_gamma 90.000000
_cell_volume 2153.551773
_symmetry_space_group_name_H-M "C 2/M"
_symmetry_group_IT_number 12
_symmetry_cell_setting 'monoclinic'
loop_
_space_group_symop_operation_xyz
x,y,z
-x,y,-z
-x,-y,-z
x,-y,z
1/2+x,1/2+y,z
1/2-x,1/2+y,-z
1/2-x,1/2-y,-z
1/2+x,1/2-y,z
loop_
_atom_site_type_symbol
_atom_site_label
_atom_site_fract_x
_atom_site_fract_y
_atom_site_fract_z
Si Si1 0.139521 0.800083 0.272127
Si Si2 0.215806 0.626653 0.079768
Si Si3 0.557004 0.775369 0.818554
Si Si4 0.580345 0.051143 0.232610
Si Si5 0.880616 0.123417 0.548152
O O1 0.358977 0.783556 0.492263
O O2 0.163334 0.834268 0.415471
O O3 0.017073 0.754476 0.158884
O O4 0.000000 0.824219 0.000000
O O5 0.277491 0.632205 0.293940
O O6 0.387954 0.617825 0.193014
O O7 0.110827 0.674053 0.924796
O O8 0.070357 0.583671 0.877838
O O9 0.750000 0.750000 0.000000
O O10 0.795945 0.075425 0.498917
O O11 0.596317 0.000000 0.311780
O O12 0.500000 0.045739 0.000000
#
# Coordination Sequence:
#
# PCOD8098424 Si02
#       5
#     8   8   8   8   8
#     4  11  25  36  54  81 114 149 186 226 273 331
#     4  10  20  34  57  80 112 143 183 226 278 328
#     4  11  23  38  55  81 111 150 191 225 271 328
#     4   9  18  33  55  82 111 141 180 231 284 331
#     4  10  20  36  55  82 110 147 180 227 277 332
#
# _framework density 18.573968000000001
#
# number of rings (size 3 to 8) (size 9 to 14) (size 15 to 20)
#    0.000    1.800    4.000    0.000    5.600    1.600 
#    0.000    4.000    0.000    0.600    0.000    1.400 
#    0.000    0.000    0.000    0.000    0.000    0.000 
#
# Total GULP energy -247766.717293 kJ/mol
# GULP energy per Si atom -12388.335865 kJ/mol
# Density = 1.853169 g / cm^3
# Si number density = 18.573968 Si / 1000 Ang^3
#
#
#
# Elastic Constant Matrix: (Units=GPa)
#
#
# Indices 1 2 3 4 5 6 
#
# 1 76.9143 48.4042 52.9754 0.0000 35.1260 0.0002
# 2 48.4042 159.5914 59.1586 0.0000 31.9772 0.0001
# 3 52.9754 59.1586 69.4621 0.0000 26.2547 0.0001
# 4 0.0000 0.0000 0.0000 22.5534 0.0000 7.0058
# 5 35.1260 31.9772 26.2547 0.0000 34.3476 0.0001
# 6 0.0002 0.0001 0.0001 7.0058 0.0001 28.7982
#
#
#
# Elastic Compliance Matrix: (Units=1/GPa)
#
#
# Indices 1 2 3 4 5 6 
#
# 1 0.036891 0.000931 -0.020167 0.000000 -0.023179 0.000000
# 2 0.000931 0.009509 -0.007176 0.000000 -0.004320 0.000000
# 3 -0.020167 -0.007176 0.035956 0.000000 -0.000179 0.000000
# 4 0.000000 0.000000 0.000000 0.047964 0.000000 -0.011668
# 5 -0.023179 -0.004320 -0.000179 0.000000 0.056977 0.000000
# 6 0.000000 0.000000 0.000000 -0.011668 0.000000 0.037563
#
#
# Mechanical properties :
#
#
# Convention : Reuss Voigt Hill
#
# Bulk Modulus (GPa) = 33.86124 69.67160 51.76642
# Shear Modulus (GPa) = 17.38958 26.83515 22.11237
#
# Velocity S-wave (km/s) = 3.06311 3.80514 3.45411
# Velocity P-wave (km/s) = 5.54800 7.54303 6.62108
#
# Compressibility (1/GPa) = 0.02953229
#
# Stress axis : x y z
#
# Youngs Moduli (GPa) = 27.10657 105.16092 27.81174
#
# Poissons Ratio (x) = -0.09788 0.56088
# Poissons Ratio (y) = -0.02523 0.19957
# Poissons Ratio (z) = 0.54666 0.75462
#
# Static dielectric constant tensor:
#      x y z
#    x 2.768760 0.000000 0.423320 
#    y 0.000000 3.666240 0.000000 
#    z 0.423320 0.000000 3.570960 
# 
# 
# High freq. dielectric constant tensor:
#      x y z
#    x 1.699590 0.000000 0.040050 
#    y 0.000000 1.723600 0.000000 
#    z 0.040050 0.000000 1.714290 
# 
# From -- ./inp_files/149250.got.cif
#   From: 2010.06.25/outbox.cif.g09.slc.cpg/sg12_75_cif.got.tgz:149250.got - 2010.06.28 00:19:55.
