data_PCOD8098790
_publ_section_title
;
Structure prediction by ZEFSAII (Michael W. Deem and Ramdas Pophale) SiO2 
 PCOD8098790
Probable space group: C 2/M
;
_chemical_formula_sum "Si O2"
_cell_formula_units_Z 56
_cell_length_a 19.271537
_cell_length_b 8.544189
_cell_length_c 24.585819
_cell_angle_alpha 90.000000
_cell_angle_beta 136.413127
_cell_angle_gamma 90.000000
_cell_volume 2791.109856
_symmetry_space_group_name_H-M "C 2/M"
_symmetry_group_IT_number 12
_symmetry_cell_setting 'monoclinic'
loop_
_space_group_symop_operation_xyz
x,y,z
-x,y,-z
-x,-y,-z
x,-y,z
1/2+x,1/2+y,z
1/2-x,1/2+y,-z
1/2-x,1/2-y,-z
1/2+x,1/2-y,z
loop_
_atom_site_type_symbol
_atom_site_label
_atom_site_fract_x
_atom_site_fract_y
_atom_site_fract_z
Si Si1 0.501810 0.178145 0.812233
Si Si2 0.319665 0.816845 0.586105
Si Si3 0.668754 0.178310 0.992582
Si Si4 0.388723 0.317290 0.931397
Si Si5 0.717429 0.185216 0.755257
Si Si6 0.292291 0.680860 0.682530
Si Si7 0.460379 0.315698 0.275840
O O1 0.561827 0.190380 0.902174
O O2 0.407277 0.291614 0.765289
O O3 0.567914 0.234606 0.797841
O O4 0.466519 0.000000 0.781092
O O5 0.250000 0.750000 0.500000
O O6 0.266963 0.781761 0.614532
O O7 0.427989 0.735226 0.643089
O O8 0.333508 0.000000 0.586020
O O9 0.695280 0.000000 0.022352
O O10 0.750000 0.250000 0.000000
O O11 0.670991 0.281704 0.047609
O O12 0.403293 0.500000 0.931217
O O13 0.319760 0.251887 0.842860
O O14 0.500000 0.237328 0.000000
O O15 0.722477 0.228853 0.694105
O O16 0.618904 0.266472 0.723321
O O17 0.708350 0.000000 0.758931
O O18 0.277190 0.500000 0.659288
O O19 0.457154 0.500000 0.266371
#
# Coordination Sequence:
#
# PCOD8098790 Si02
#       7
#     8   8   8   8   8   8   8
#     4  10  20  35  53  75 106 143 186 234 284 335
#     4  11  22  40  65  91 120 148 180 222 270 327
#     4  11  23  35  50  74 104 141 186 238 289 335
#     4  10  21  37  56  78 108 149 193 238 289 340
#     4  10  21  37  56  81 115 151 188 233 284 336
#     4  10  20  36  60  86 111 144 185 224 270 330
#     4  11  22  36  58  86 114 148 190 231 277 332
#
# _framework density 20.063701999999999
#
# number of rings (size 3 to 8) (size 9 to 14) (size 15 to 20)
#    0.000    1.571    0.000    7.286    0.000    8.857 
#    0.000    0.714    0.000    4.286    0.000    0.000 
#    0.000    0.000    0.000    0.000    0.000    0.000 
#
# Total GULP energy -347205.867017 kJ/mol
# GULP energy per Si atom -12400.209536 kJ/mol
# Density = 2.001804 g / cm^3
# Si number density = 20.063702 Si / 1000 Ang^3
#
#
#
# Elastic Constant Matrix: (Units=GPa)
#
#
# Indices 1 2 3 4 5 6 
#
# 1 105.6856 17.4908 27.2797 0.0000 -11.5648 0.0000
# 2 17.4908 50.0508 25.3595 0.0000 -4.8509 0.0000
# 3 27.2797 25.3595 94.8341 0.0000 -12.8705 0.0000
# 4 0.0000 0.0000 0.0000 28.3848 0.0000 -1.9373
# 5 -11.5648 -4.8509 -12.8705 0.0000 23.7586 0.0000
# 6 0.0000 0.0000 0.0000 -1.9373 0.0000 34.2905
#
#
#
# Elastic Compliance Matrix: (Units=1/GPa)
#
#
# Indices 1 2 3 4 5 6 
#
# 1 0.010770 -0.002417 -0.001950 0.000000 0.003692 0.000000
# 2 -0.002417 0.023702 -0.005554 0.000000 0.000654 0.000000
# 3 -0.001950 -0.005554 0.013285 0.000000 0.005113 0.000000
# 4 0.000000 0.000000 0.000000 0.035366 0.000000 0.001998
# 5 0.003692 0.000654 0.005113 0.000000 0.046791 0.000000
# 6 0.000000 0.000000 0.000000 0.001998 0.000000 0.029275
#
#
# Mechanical properties :
#
#
# Convention : Reuss Voigt Hill
#
# Bulk Modulus (GPa) = 35.82599 43.42563 39.62581
# Shear Modulus (GPa) = 26.54815 29.31616 27.93215
#
# Velocity S-wave (km/s) = 3.64152 3.82665 3.73523
# Velocity P-wave (km/s) = 5.96454 6.41991 6.19641
#
# Compressibility (1/GPa) = 0.02791270
#
# Stress axis : x y z
#
# Youngs Moduli (GPa) = 92.85428 42.19065 75.27330
#
# Poissons Ratio (x) = 0.10199 0.14681
# Poissons Ratio (y) = 0.22447 0.41807
# Poissons Ratio (z) = 0.18110 0.23433
#
# Static dielectric constant tensor:
#      x y z
#    x 3.698790 0.000000 -0.178120 
#    y 0.000000 3.647560 0.000000 
#    z -0.178120 0.000000 3.741390 
# 
# 
# High freq. dielectric constant tensor:
#      x y z
#    x 1.786060 0.000000 -0.010600 
#    y 0.000000 1.785140 0.000000 
#    z -0.010600 0.000000 1.773520 
# 
# From -- ./inp_files/342593.got.cif
#   From: 2010.06.25/outbox.cif.g09.slc.cpg/sg12_172_cif.got.tgz:342593.got - 2010.06.28 00:19:55.
