data_PCOD8098304
_publ_section_title
;
Structure prediction by ZEFSAII (Michael W. Deem and Ramdas Pophale) SiO2 
 PCOD8098304
Probable space group: C 2/M
;
_chemical_formula_sum "Si O2"
_cell_formula_units_Z 56
_cell_length_a 31.315363
_cell_length_b 8.543996
_cell_length_c 20.341977
_cell_angle_alpha 90.000000
_cell_angle_beta 31.038705
_cell_angle_gamma 90.000000
_cell_volume 2806.330864
_symmetry_space_group_name_H-M "C 2/M"
_symmetry_group_IT_number 12
_symmetry_cell_setting 'monoclinic'
loop_
_space_group_symop_operation_xyz
x,y,z
-x,y,-z
-x,-y,-z
x,-y,z
1/2+x,1/2+y,z
1/2-x,1/2+y,-z
1/2-x,1/2-y,-z
1/2+x,1/2-y,z
loop_
_atom_site_type_symbol
_atom_site_label
_atom_site_fract_x
_atom_site_fract_y
_atom_site_fract_z
Si Si1 0.851817 0.326610 0.308360
Si Si2 0.325893 0.678156 0.476369
Si Si3 0.738000 0.683061 0.089014
Si Si4 0.492065 0.678088 0.939778
Si Si5 0.601901 0.313905 0.061691
Si Si6 0.478766 0.181693 0.333410
Si Si7 0.049736 0.181149 0.367885
O O1 0.890890 0.500000 0.247461
O O2 0.769079 0.311760 0.372403
O O3 0.830224 0.305158 0.412972
O O4 0.915679 0.189284 0.209547
O O5 0.344553 0.500000 0.428667
O O6 0.391172 0.727927 0.445793
O O7 0.755844 0.500000 0.060982
O O8 0.648312 0.717007 0.239940
O O9 0.750000 0.750000 0.000000
O O10 0.804084 0.761652 0.050703
O O11 0.465873 0.500000 0.986172
O O12 0.427530 0.749493 0.971573
O O13 0.500000 0.766667 0.000000
O O14 0.594164 0.500000 0.075287
O O15 0.542623 0.244619 0.195361
O O16 0.513354 0.208662 0.360067
O O17 0.464753 0.000000 0.339634
O O18 0.000000 0.223283 0.500000
O O19 0.035639 0.000000 0.368047
#
# Coordination Sequence:
#
# PCOD8098304 Si02
#       7
#     8   8   8   8   8   8   8
#     4  10  20  34  56  84 112 148 193 243 294 347
#     4  10  20  35  56  83 116 151 189 239 295 351
#     4  11  22  38  65  96 125 161 207 258 309 371
#     4  10  22  40  60  82 117 164 205 249 308 366
#     4  11  22  38  62  89 121 161 205 256 310 366
#     4  12  23  36  61  92 120 154 201 252 302 363
#     4  10  23  44  66  88 123 167 203 246 310 374
#
# _framework density 19.954882000000001
#
# number of rings (size 3 to 8) (size 9 to 14) (size 15 to 20)
#    0.000    1.429    2.857    3.000    0.000    3.429 
#    2.571    0.000    0.000    0.000    0.000    0.000 
#    0.000    0.000    0.000    0.000    0.000    0.000 
#
# Total GULP energy -347011.291956 kJ/mol
# GULP energy per Si atom -12393.260427 kJ/mol
# Density = 1.990946 g / cm^3
# Si number density = 19.954882 Si / 1000 Ang^3
#
#
#
# Elastic Constant Matrix: (Units=GPa)
#
#
# Indices 1 2 3 4 5 6 
#
# 1 159.0958 35.9918 68.0329 0.0257 -12.2074 -0.0071
# 2 35.9918 67.7340 23.5385 0.0516 -6.9346 -0.0142
# 3 68.0329 23.5385 92.0689 0.0741 -6.4828 -0.0087
# 4 0.0257 0.0516 0.0741 19.1119 -0.0244 -7.5842
# 5 -12.2074 -6.9346 -6.4828 -0.0244 36.9515 0.0037
# 6 -0.0071 -0.0142 -0.0087 -7.5842 0.0037 21.8176
#
#
#
# Elastic Compliance Matrix: (Units=1/GPa)
#
#
# Indices 1 2 3 4 5 6 
#
# 1 0.009777 -0.002811 -0.006395 0.000024 0.001581 0.000007
# 2 -0.002811 0.017214 -0.002189 -0.000033 0.001918 -0.000002
# 3 -0.006395 -0.002189 0.016168 -0.000054 0.000313 -0.000016
# 4 0.000024 -0.000033 -0.000054 0.060696 0.000030 0.021099
# 5 0.001581 0.001918 0.000313 0.000030 0.028000 0.000008
# 6 0.000007 -0.000002 -0.000016 0.021099 0.000008 0.053169
#
#
# Mechanical properties :
#
#
# Convention : Reuss Voigt Hill
#
# Bulk Modulus (GPa) = 49.09009 63.78058 56.43534
# Shear Modulus (GPa) = 23.29863 28.33191 25.81527
#
# Velocity S-wave (km/s) = 3.42067 3.77211 3.60068
# Velocity P-wave (km/s) = 6.34470 7.14168 6.75495
#
# Compressibility (1/GPa) = 0.02037071
#
# Stress axis : x y z
#
# Youngs Moduli (GPa) = 102.27724 58.09079 61.84896
#
# Poissons Ratio (x) = 0.16331 0.39551
# Poissons Ratio (y) = 0.28753 0.13537
# Poissons Ratio (z) = 0.65404 0.12714
#
# Static dielectric constant tensor:
#      x y z
#    x 3.965240 -0.000020 -0.226320 
#    y -0.000020 3.576550 0.000070 
#    z -0.226320 0.000070 3.675030 
# 
# 
# High freq. dielectric constant tensor:
#      x y z
#    x 1.784570 0.000000 -0.021680 
#    y 0.000000 1.780400 0.000000 
#    z -0.021680 0.000000 1.762100 
# 
# From -- ./inp_files/292433.got.cif
#   From: 2010.06.25/outbox.cif.g09.slc.cpg/sg12_147_cif.got.tgz:292433.got - 2010.06.28 00:19:55.
