data_PCOD8098608
_publ_section_title
;
Structure prediction by ZEFSAII (Michael W. Deem and Ramdas Pophale) SiO2 
 PCOD8098608
Probable space group: C 2/M
;
_chemical_formula_sum "Si O2"
_cell_formula_units_Z 44
_cell_length_a 21.714800
_cell_length_b 13.051293
_cell_length_c 9.271212
_cell_angle_alpha 90.000000
_cell_angle_beta 60.278778
_cell_angle_gamma 90.000000
_cell_volume 2281.863569
_symmetry_space_group_name_H-M "C 2/M"
_symmetry_group_IT_number 12
_symmetry_cell_setting 'monoclinic'
loop_
_space_group_symop_operation_xyz
x,y,z
-x,y,-z
-x,-y,-z
x,-y,z
1/2+x,1/2+y,z
1/2-x,1/2+y,-z
1/2-x,1/2-y,-z
1/2+x,1/2-y,z
loop_
_atom_site_type_symbol
_atom_site_label
_atom_site_fract_x
_atom_site_fract_y
_atom_site_fract_z
Si Si1 0.633607 0.381862 0.459648
Si Si2 0.000000 0.766896 0.500000
Si Si3 0.276333 0.222127 0.812798
Si Si4 0.182706 0.218537 0.670032
Si Si5 0.093052 0.384568 0.227837
Si Si6 0.918295 0.382785 0.088420
O O1 0.639351 0.500000 0.412005
O O2 0.557209 0.339962 0.505612
O O3 0.694530 0.324240 0.298589
O O4 0.642748 0.367862 0.622324
O O5 0.031089 0.694240 0.339198
O O6 0.211210 0.177288 0.791951
O O7 0.337776 0.137253 0.754916
O O8 0.250000 0.250000 0.000000
O O9 0.250000 0.250000 0.500000
O O10 0.129192 0.313880 0.751354
O O11 0.067004 0.500000 0.288965
O O12 0.111671 0.370402 0.038340
O O13 0.911904 0.500000 0.149824
O O14 0.000000 0.347053 0.000000
#
# Coordination Sequence:
#
# PCOD8098608 Si02
#       6
#     8   4   8   8   8   8
#     4  10  22  38  59  82 113 160 203 242 295 356
#     4  10  20  38  60  84 120 156 196 248 300 360
#     4  10  20  37  58  86 118 153 193 249 297 351
#     4  10  21  37  58  86 122 160 199 248 297 360
#     4  10  20  34  58  89 117 150 191 241 303 363
#     4  10  20  35  59  88 118 154 195 245 306 362
#
# _framework density 19.282485000000001
#
# number of rings (size 3 to 8) (size 9 to 14) (size 15 to 20)
#    0.000    2.000    1.818    1.636    0.000    4.364 
#    0.000    9.091    0.000    1.636    0.000    0.000 
#    0.000    0.000    0.000    0.000    0.000    0.000 
#
# Total GULP energy -272762.545196 kJ/mol
# GULP energy per Si atom -12398.297509 kJ/mol
# Density = 1.923860 g / cm^3
# Si number density = 19.282485 Si / 1000 Ang^3
#
#
#
# Elastic Constant Matrix: (Units=GPa)
#
#
# Indices 1 2 3 4 5 6 
#
# 1 121.7968 42.7379 43.2237 0.0000 13.0714 0.0000
# 2 42.7379 108.1813 40.6284 0.0000 1.6525 0.0000
# 3 43.2237 40.6284 95.2176 0.0000 4.4247 0.0000
# 4 0.0000 0.0000 0.0000 30.1395 0.0000 3.1091
# 5 13.0714 1.6525 4.4247 0.0000 37.0170 0.0000
# 6 0.0000 0.0000 0.0000 3.1091 0.0000 16.5933
#
#
#
# Elastic Compliance Matrix: (Units=1/GPa)
#
#
# Indices 1 2 3 4 5 6 
#
# 1 0.010832 -0.002905 -0.003525 0.000000 -0.003274 0.000000
# 2 -0.002905 0.011787 -0.003755 0.000000 0.000949 0.000000
# 3 -0.003525 -0.003755 0.013715 0.000000 -0.000227 0.000000
# 4 0.000000 0.000000 0.000000 0.033833 0.000000 -0.006339
# 5 -0.003274 0.000949 -0.000227 0.000000 0.028155 0.000000
# 6 0.000000 0.000000 0.000000 -0.006339 0.000000 0.061453
#
#
# Mechanical properties :
#
#
# Convention : Reuss Voigt Hill
#
# Bulk Modulus (GPa) = 62.64190 64.26396 63.45293
# Shear Modulus (GPa) = 26.95872 29.99034 28.47453
#
# Velocity S-wave (km/s) = 3.74317 3.94803 3.84696
# Velocity P-wave (km/s) = 7.15812 7.36088 7.26021
#
# Compressibility (1/GPa) = 0.01596376
#
# Stress axis : x y z
#
# Youngs Moduli (GPa) = 92.31576 84.83829 72.91154
#
# Poissons Ratio (x) = 0.24649 0.25705
# Poissons Ratio (y) = 0.26821 0.27376
# Poissons Ratio (z) = 0.32546 0.31854
#
# Static dielectric constant tensor:
#      x y z
#    x 4.200610 0.000000 0.279400 
#    y 0.000000 3.305830 0.000000 
#    z 0.279400 0.000000 3.558040 
# 
# 
# High freq. dielectric constant tensor:
#      x y z
#    x 1.771390 0.000000 0.007710 
#    y 0.000000 1.726740 0.000000 
#    z 0.007710 0.000000 1.747650 
# 
# From -- ./inp_files/94826.got.cif
#   From: 2010.06.25/outbox.cif.g09.slc.cpg/sg12_48_cif.got.tgz:94826.got - 2010.06.28 00:19:55.
