data_PCOD8098397
_publ_section_title
;
Structure prediction by ZEFSAII (Michael W. Deem and Ramdas Pophale) SiO2 
 PCOD8098397
Probable space group: C 2/M
;
_chemical_formula_sum "Si O2"
_cell_formula_units_Z 56
_cell_length_a 9.385684
_cell_length_b 14.724013
_cell_length_c 19.790678
_cell_angle_alpha 90.000000
_cell_angle_beta 88.922573
_cell_angle_gamma 90.000000
_cell_volume 2734.487876
_symmetry_space_group_name_H-M "C 2/M"
_symmetry_group_IT_number 12
_symmetry_cell_setting 'monoclinic'
loop_
_space_group_symop_operation_xyz
x,y,z
-x,y,-z
-x,-y,-z
x,-y,z
1/2+x,1/2+y,z
1/2-x,1/2+y,-z
1/2-x,1/2-y,-z
1/2+x,1/2-y,z
loop_
_atom_site_type_symbol
_atom_site_label
_atom_site_fract_x
_atom_site_fract_y
_atom_site_fract_z
Si Si1 0.632298 0.184134 0.671388
Si Si2 0.120275 0.758211 0.241023
Si Si3 0.860420 0.808178 0.456638
Si Si4 0.344350 0.402341 0.026558
Si Si5 0.219319 0.500000 0.454843
Si Si6 0.076288 0.500000 0.600726
Si Si7 0.100212 0.605066 0.935312
Si Si8 0.881463 0.223209 0.150409
O O1 0.789479 0.185080 0.704732
O O2 0.497583 0.192089 0.723407
O O3 0.615042 0.263532 0.616488
O O4 0.631296 0.087138 0.638240
O O5 0.244720 0.707245 0.199119
O O6 0.022127 0.815888 0.188588
O O7 0.750000 0.750000 0.500000
O O8 0.000000 0.808751 0.500000
O O9 0.813535 0.910927 0.443437
O O10 0.283983 0.500000 0.053801
O O11 0.338335 0.329284 0.084456
O O12 0.500000 0.416335 0.000000
O O13 0.257197 0.372559 0.961426
O O14 0.147153 0.500000 0.527636
O O15 0.094714 0.500000 0.400376
O O16 0.081203 0.500000 0.911640
O O17 0.080168 0.672074 0.871233
O O18 0.000000 0.628518 0.000000
#
# Coordination Sequence:
#
# PCOD8098397 Si02
#       8
#     8   8   8   8   4   4   8   8
#     4  11  23  44  63  90 123 168 203 258 300 370
#     4  10  24  41  59  83 118 163 220 239 296 354
#     4  12  23  40  69  96 132 163 201 268 321 372
#     4  10  20  34  56  87 117 149 190 248 317 370
#     4  11  23  38  64 110 122 158 204 252 334 386
#     4  11  22  40  68  94 130 158 207 252 320 385
#     4  10  20  34  58  91 118 148 196 253 316 373
#     4  11  20  39  60  83 118 162 201 260 292 367
#
# _framework density 20.479156
#
# number of rings (size 3 to 8) (size 9 to 14) (size 15 to 20)
#    0.000    1.286    1.429    5.357    0.000    0.000 
#    7.714    0.000    3.143    0.000    0.000    0.000 
#    0.000    0.000    0.000    0.000    0.000    0.000 
#
# Total GULP energy -346972.936398 kJ/mol
# GULP energy per Si atom -12391.890586 kJ/mol
# Density = 2.043254 g / cm^3
# Si number density = 20.479156 Si / 1000 Ang^3
#
#
#
# Elastic Constant Matrix: (Units=GPa)
#
#
# Indices 1 2 3 4 5 6 
#
# 1 139.3204 34.1160 36.5310 0.0000 20.8738 0.0000
# 2 34.1160 129.0750 44.9725 0.0000 7.9541 0.0000
# 3 36.5310 44.9725 88.7658 0.0000 8.7545 0.0000
# 4 0.0000 0.0000 0.0000 13.1533 0.0000 -3.8399
# 5 20.8738 7.9541 8.7545 0.0000 40.9396 0.0000
# 6 0.0000 0.0000 0.0000 -3.8399 0.0000 22.0815
#
#
#
# Elastic Compliance Matrix: (Units=1/GPa)
#
#
# Indices 1 2 3 4 5 6 
#
# 1 0.008698 -0.001156 -0.002634 0.000000 -0.003647 0.000000
# 2 -0.001156 0.009589 -0.004349 0.000000 -0.000344 0.000000
# 3 -0.002634 -0.004349 0.014646 0.000000 -0.000944 0.000000
# 4 0.000000 0.000000 0.000000 0.080093 0.000000 0.013928
# 5 -0.003647 -0.000344 -0.000944 0.000000 0.026554 0.000000
# 6 0.000000 0.000000 0.000000 0.013928 0.000000 0.047709
#
#
# Mechanical properties :
#
#
# Convention : Reuss Voigt Hill
#
# Bulk Modulus (GPa) = 60.04156 65.37780 62.70968
# Shear Modulus (GPa) = 23.90988 31.33766 27.62377
#
# Velocity S-wave (km/s) = 3.42061 3.91605 3.67668
# Velocity P-wave (km/s) = 6.70692 7.24159 6.97938
#
# Compressibility (1/GPa) = 0.01665513
#
# Stress axis : x y z
#
# Youngs Moduli (GPa) = 114.96979 104.28166 68.27863
#
# Poissons Ratio (x) = 0.12060 0.17984
# Poissons Ratio (y) = 0.13296 0.29691
# Poissons Ratio (z) = 0.30283 0.45348
#
# Static dielectric constant tensor:
#      x y z
#    x 4.057630 0.000000 0.142040 
#    y 0.000000 3.889230 0.000000 
#    z 0.142040 0.000000 3.760130 
# 
# 
# High freq. dielectric constant tensor:
#      x y z
#    x 1.825220 0.000000 0.009460 
#    y 0.000000 1.783100 0.000000 
#    z 0.009460 0.000000 1.806590 
# 
# From -- ./inp_files/300208.got.cif
#   From: 2010.06.25/outbox.cif.g09.slc.cpg/sg12_151_cif.got.tgz:300208.got - 2010.06.28 00:19:55.
