data_PCOD8098221
_publ_section_title
;
Structure prediction by ZEFSAII (Michael W. Deem and Ramdas Pophale) SiO2 
 PCOD8098221
Probable space group: C 2/M
;
_chemical_formula_sum "Si O2"
_cell_formula_units_Z 64
_cell_length_a 20.239780
_cell_length_b 9.177555
_cell_length_c 24.280698
_cell_angle_alpha 90.000000
_cell_angle_beta 51.104797
_cell_angle_gamma 90.000000
_cell_volume 3510.254409
_symmetry_space_group_name_H-M "C 2/M"
_symmetry_group_IT_number 12
_symmetry_cell_setting 'monoclinic'
loop_
_space_group_symop_operation_xyz
x,y,z
-x,y,-z
-x,-y,-z
x,-y,z
1/2+x,1/2+y,z
1/2-x,1/2+y,-z
1/2-x,1/2-y,-z
1/2+x,1/2-y,z
loop_
_atom_site_type_symbol
_atom_site_label
_atom_site_fract_x
_atom_site_fract_y
_atom_site_fract_z
Si Si1 0.098571 0.826425 0.795528
Si Si2 0.995519 0.671140 0.938479
Si Si3 0.067036 0.829437 0.420234
Si Si4 0.534124 0.832257 0.209071
Si Si5 0.992669 0.669284 0.654061
Si Si6 0.163009 0.333978 0.049200
Si Si7 0.315659 0.169367 0.427849
Si Si8 0.239718 0.669424 0.664123
O O1 0.193560 0.767118 0.734591
O O2 0.068463 0.762329 0.869793
O O3 0.037482 0.771089 0.778804
O O4 0.098533 0.000000 0.797868
O O5 0.010907 0.500000 0.919291
O O6 0.903862 0.718538 0.962324
O O7 0.000000 0.711000 0.000000
O O8 0.161158 0.791081 0.391296
O O9 0.000000 0.766309 0.500000
O O10 0.055589 0.758840 0.366796
O O11 0.052257 0.000000 0.420930
O O12 0.549353 0.793267 0.264852
O O13 0.622476 0.809820 0.130789
O O14 0.501962 0.000000 0.220185
O O15 0.983249 0.500000 0.645165
O O16 0.090566 0.717154 0.603723
O O17 0.186422 0.500000 0.026445
O O18 0.250000 0.250000 0.000000
O O19 0.250000 0.250000 0.500000
O O20 0.301942 0.212415 0.371919
O O21 0.300117 0.000000 0.444486
O O22 0.226503 0.500000 0.685542
#
# Coordination Sequence:
#
# PCOD8098221 Si02
#       8
#     8   8   8   8   8   8   8   8
#     4  11  21  33  56  88 115 141 181 238 281 312
#     4   9  19  38  61  81 109 151 190 220 266 334
#     4  10  22  39  58  79 108 147 185 228 279 331
#     4   9  18  37  59  78 108 151 188 219 272 334
#     4  10  20  36  58  80 107 143 183 227 276 327
#     4   9  18  33  56  82 109 144 179 219 266 318
#     4  10  20  34  56  82 105 138 180 227 273 322
#     4  10  20  38  58  76 109 152 186 218 271 341
#
# _framework density 18.232298
#
# number of rings (size 3 to 8) (size 9 to 14) (size 15 to 20)
#    0.000    2.250    1.250    2.625    0.000    5.500 
#    2.250    0.000    0.000    0.000    0.000    0.000 
#    0.000    0.000    0.000    0.000    0.000    0.000 
#
# Total GULP energy -396843.559767 kJ/mol
# GULP energy per Si atom -12401.361243 kJ/mol
# Density = 1.819080 g / cm^3
# Si number density = 18.232298 Si / 1000 Ang^3
#
#
#
# Elastic Constant Matrix: (Units=GPa)
#
#
# Indices 1 2 3 4 5 6 
#
# 1 58.2549 32.0265 35.1118 -0.0001 1.7913 0.0000
# 2 32.0265 68.0667 53.7067 -0.0002 -3.6529 -0.0002
# 3 35.1118 53.7067 121.7431 0.0000 -2.4317 0.0000
# 4 -0.0001 -0.0002 0.0000 32.6468 0.0000 -1.2455
# 5 1.7913 -3.6529 -2.4317 0.0000 33.9649 0.0000
# 6 0.0000 -0.0002 0.0000 -1.2455 0.0000 29.8059
#
#
#
# Elastic Compliance Matrix: (Units=1/GPa)
#
#
# Indices 1 2 3 4 5 6 
#
# 1 0.024031 -0.009099 -0.002966 0.000000 -0.002458 0.000000
# 2 -0.009099 0.026081 -0.008828 0.000000 0.002653 0.000000
# 3 -0.002966 -0.008828 0.012967 0.000000 0.000135 0.000000
# 4 0.000000 0.000000 0.000000 0.030680 0.000000 0.001282
# 5 -0.002458 0.002653 0.000135 0.000000 0.029867 0.000000
# 6 0.000000 0.000000 0.000000 0.001282 0.000000 0.033604
#
#
# Mechanical properties :
#
#
# Convention : Reuss Voigt Hill
#
# Bulk Modulus (GPa) = 46.96465 54.41718 50.69092
# Shear Modulus (GPa) = 24.25848 27.76483 26.01166
#
# Velocity S-wave (km/s) = 3.65159 3.90659 3.78124
# Velocity P-wave (km/s) = 6.60256 7.08943 6.85032
#
# Compressibility (1/GPa) = 0.02129261
#
# Stress axis : x y z
#
# Youngs Moduli (GPa) = 41.61210 38.34242 77.12035
#
# Poissons Ratio (x) = 0.34887 0.22875
# Poissons Ratio (y) = 0.37862 0.68084
# Poissons Ratio (z) = 0.12342 0.33850
#
# Static dielectric constant tensor:
#      x y z
#    x 3.269730 0.000000 0.031670 
#    y 0.000000 3.240570 0.000000 
#    z 0.031670 0.000000 3.550910 
# 
# 
# High freq. dielectric constant tensor:
#      x y z
#    x 1.695970 0.000000 -0.000650 
#    y 0.000000 1.695300 0.000000 
#    z -0.000650 0.000000 1.719170 
# 
# From -- ./inp_files/345976.got.cif
#   From: 2010.06.25/outbox.cif.g09.slc.cpg/sg12_173_cif.got.tgz:345976.got - 2010.06.28 00:19:55.
