data_PCOD8098857
_publ_section_title
;
Structure prediction by ZEFSAII (Michael W. Deem and Ramdas Pophale) SiO2 
 PCOD8098857
Probable space group: C 2/M
;
_chemical_formula_sum "Si O2"
_cell_formula_units_Z 56
_cell_length_a 12.709668
_cell_length_b 12.406905
_cell_length_c 28.576009
_cell_angle_alpha 90.000000
_cell_angle_beta 37.238934
_cell_angle_gamma 90.000000
_cell_volume 2726.812455
_symmetry_space_group_name_H-M "C 2/M"
_symmetry_group_IT_number 12
_symmetry_cell_setting 'monoclinic'
loop_
_space_group_symop_operation_xyz
x,y,z
-x,y,-z
-x,-y,-z
x,-y,z
1/2+x,1/2+y,z
1/2-x,1/2+y,-z
1/2-x,1/2-y,-z
1/2+x,1/2-y,z
loop_
_atom_site_type_symbol
_atom_site_label
_atom_site_fract_x
_atom_site_fract_y
_atom_site_fract_z
Si Si1 0.636795 0.126137 0.491723
Si Si2 0.425993 0.792535 0.886954
Si Si3 0.857985 0.622471 0.009852
Si Si4 0.594936 0.875085 0.247841
Si Si5 0.161472 0.880276 0.917260
Si Si6 0.482551 0.751321 0.377069
Si Si7 0.809667 0.624242 0.272275
O O1 0.500000 0.155888 0.500000
O O2 0.562545 0.159721 0.568311
O O3 0.812084 0.191085 0.418652
O O4 0.678804 0.000000 0.477593
O O5 0.440530 0.813600 0.936852
O O6 0.315897 0.886994 0.900362
O O7 0.614948 0.799291 0.796089
O O8 0.324241 0.680310 0.911517
O O9 0.811544 0.500000 0.012863
O O10 0.000000 0.624393 0.000000
O O11 0.762158 0.830391 0.158301
O O12 0.579467 0.809468 0.300439
O O13 0.418841 0.860493 0.280806
O O14 0.625531 0.000000 0.248728
O O15 0.095583 0.000000 0.928679
O O16 0.000000 0.815861 0.000000
O O17 0.614193 0.663440 0.352052
O O18 0.805994 0.500000 0.257290
#
# Coordination Sequence:
#
# PCOD8098857 Si02
#       7
#     8   8   8   8   8   8   8
#     4  10  22  40  60  85 117 148 180 223 280 347
#     4  10  20  35  54  74 106 147 185 229 285 335
#     4  10  21  36  54  78 108 145 193 244 289 335
#     4   9  19  35  55  82 114 145 187 240 280 321
#     4   9  17  31  53  79 108 147 192 234 280 331
#     4  11  21  36  61  87 112 147 186 228 281 337
#     4  10  21  37  56  80 111 146 185 227 275 337
#
# _framework density 20.536798999999998
#
# number of rings (size 3 to 8) (size 9 to 14) (size 15 to 20)
#    0.000    2.143    0.000    4.286    0.000    4.571 
#    0.000    2.857    0.000   15.000    0.000    0.000 
#    0.000    0.000    0.000    0.000    0.000    0.000 
#
# Total GULP energy -347073.109972 kJ/mol
# GULP energy per Si atom -12395.468213 kJ/mol
# Density = 2.049006 g / cm^3
# Si number density = 20.536799 Si / 1000 Ang^3
#
#
#
# Elastic Constant Matrix: (Units=GPa)
#
#
# Indices 1 2 3 4 5 6 
#
# 1 70.6192 30.4054 38.6930 0.0000 3.5475 0.0000
# 2 30.4054 91.4098 36.2888 0.0000 -2.4704 0.0000
# 3 38.6930 36.2888 118.9682 0.0002 0.5296 -0.0002
# 4 0.0000 0.0000 0.0002 18.1424 0.0000 0.8994
# 5 3.5475 -2.4704 0.5296 0.0000 31.1278 0.0000
# 6 0.0000 0.0000 -0.0002 0.8994 0.0000 25.7899
#
#
#
# Elastic Compliance Matrix: (Units=1/GPa)
#
#
# Indices 1 2 3 4 5 6 
#
# 1 0.018791 -0.004430 -0.004750 0.000000 -0.002412 0.000000
# 2 -0.004430 0.013526 -0.002692 0.000000 0.001624 0.000000
# 3 -0.004750 -0.002692 0.010771 0.000000 0.000144 0.000000
# 4 0.000000 0.000000 0.000000 0.055215 0.000000 -0.001926
# 5 -0.002412 0.001624 0.000144 0.000000 0.032527 0.000000
# 6 0.000000 0.000000 0.000000 -0.001926 0.000000 0.038842
#
#
# Mechanical properties :
#
#
# Convention : Reuss Voigt Hill
#
# Bulk Modulus (GPa) = 51.69460 54.64127 53.16794
# Shear Modulus (GPa) = 25.01695 26.71935 25.86815
#
# Velocity S-wave (km/s) = 3.49399 3.61092 3.55293
# Velocity P-wave (km/s) = 6.44233 6.63696 6.54037
#
# Compressibility (1/GPa) = 0.01934438
#
# Stress axis : x y z
#
# Youngs Moduli (GPa) = 53.21572 73.93160 92.84260
#
# Poissons Ratio (x) = 0.32753 0.44097
# Poissons Ratio (y) = 0.23576 0.24995
# Poissons Ratio (z) = 0.25275 0.19904
#
# Static dielectric constant tensor:
#      x y z
#    x 3.597080 0.000000 -0.057880 
#    y 0.000000 3.696050 0.000000 
#    z -0.057880 0.000000 3.771880 
# 
# 
# High freq. dielectric constant tensor:
#      x y z
#    x 1.803700 0.000000 -0.003230 
#    y 0.000000 1.801040 0.000000 
#    z -0.003230 0.000000 1.801880 
# 
# From -- ./inp_files/358171.got.cif
#   From: 2010.06.25/outbox.cif.g09.slc.cpg/sg12_180_cif.got.tgz:358171.got - 2010.06.28 00:19:55.
