data_PCOD8098088
_publ_section_title
;
Structure prediction by ZEFSAII (Michael W. Deem and Ramdas Pophale) SiO2 
 PCOD8098088
Probable space group: C 2/M
;
_chemical_formula_sum "Si O2"
_cell_formula_units_Z 56
_cell_length_a 25.061006
_cell_length_b 9.644164
_cell_length_c 14.321082
_cell_angle_alpha 90.000000
_cell_angle_beta 59.611228
_cell_angle_gamma 90.000000
_cell_volume 2985.759523
_symmetry_space_group_name_H-M "C 2/M"
_symmetry_group_IT_number 12
_symmetry_cell_setting 'monoclinic'
loop_
_space_group_symop_operation_xyz
x,y,z
-x,y,-z
-x,-y,-z
x,-y,z
1/2+x,1/2+y,z
1/2-x,1/2+y,-z
1/2-x,1/2-y,-z
1/2+x,1/2-y,z
loop_
_atom_site_type_symbol
_atom_site_label
_atom_site_fract_x
_atom_site_fract_y
_atom_site_fract_z
Si Si1 0.565831 0.158460 0.707127
Si Si2 0.730372 0.160689 0.795932
Si Si3 0.511320 0.346051 0.098349
Si Si4 0.524404 0.838038 0.378801
Si Si5 0.792772 0.660546 0.395957
Si Si6 0.850544 0.160948 0.992139
Si Si7 0.857610 0.157981 0.774918
O O1 0.541178 0.249665 0.813263
O O2 0.530443 0.197712 0.643931
O O3 0.637984 0.188232 0.630006
O O4 0.554268 0.000000 0.745674
O O5 0.714999 0.208388 0.704462
O O6 0.802955 0.186564 0.749855
O O7 0.712896 0.000000 0.826914
O O8 0.691604 0.250434 0.902529
O O9 0.505401 0.500000 0.147251
O O10 0.579040 0.286170 0.060481
O O11 0.500000 0.351041 0.000000
O O12 0.500000 0.786775 0.500000
O O13 0.586070 0.758161 0.297069
O O14 0.540936 0.000000 0.365170
O O15 0.774054 0.500000 0.422558
O O16 0.750000 0.750000 0.500000
O O17 0.830616 0.185709 0.902576
O O18 0.844691 0.000000 0.026536
O O19 0.881577 0.000000 0.746574
#
# Coordination Sequence:
#
# PCOD8098088 Si02
#       7
#     8   8   8   8   8   8   8
#     4  10  21  38  58  82 113 146 185 231 277 328
#     4  10  22  38  57  83 115 149 188 231 276 331
#     4  10  20  34  55  83 115 148 184 227 274 329
#     4  10  22  38  58  85 113 146 189 233 279 332
#     4  10  23  41  59  83 113 147 189 234 277 329
#     4  10  20  35  55  83 115 147 186 228 275 332
#     4  10  21  38  58  84 116 148 185 230 279 333
#
# _framework density 18.755697999999999
#
# number of rings (size 3 to 8) (size 9 to 14) (size 15 to 20)
#    0.000    2.000    1.429    1.286    2.000    3.429 
#    0.000    0.000    0.000    0.000    0.000    0.000 
#    0.000    0.000    0.000    0.000    0.000    0.000 
#
# Total GULP energy -347296.856859 kJ/mol
# GULP energy per Si atom -12403.459174 kJ/mol
# Density = 1.871301 g / cm^3
# Si number density = 18.755698 Si / 1000 Ang^3
#
#
#
# Elastic Constant Matrix: (Units=GPa)
#
#
# Indices 1 2 3 4 5 6 
#
# 1 95.1842 42.3680 45.1228 0.0000 -3.2669 0.0000
# 2 42.3680 76.4548 69.8878 -0.0001 -10.2099 -0.0001
# 3 45.1228 69.8878 124.2109 0.0000 -4.4548 0.0000
# 4 0.0000 -0.0001 0.0000 108.1296 0.0000 57.4415
# 5 -3.2669 -10.2099 -4.4548 0.0000 26.0520 0.0000
# 6 0.0000 -0.0001 0.0000 57.4415 0.0000 85.0515
#
#
#
# Elastic Compliance Matrix: (Units=1/GPa)
#
#
# Indices 1 2 3 4 5 6 
#
# 1 0.014108 -0.006677 -0.001407 0.000000 -0.001088 0.000000
# 2 -0.006677 0.031862 -0.015177 0.000000 0.009055 0.000000
# 3 -0.001407 -0.015177 0.016986 0.000000 -0.003220 0.000000
# 4 0.000000 0.000000 0.000000 0.014423 0.000000 -0.009741
# 5 -0.001088 0.009055 -0.003220 0.000000 0.041246 0.000000
# 6 0.000000 0.000000 0.000000 -0.009741 0.000000 0.018336
#
#
# Mechanical properties :
#
#
# Convention : Reuss Voigt Hill
#
# Bulk Modulus (GPa) = 60.85122 67.84525 64.34823
# Shear Modulus (GPa) = 26.46036 53.07802 39.76919
#
# Velocity S-wave (km/s) = 3.76012 5.32552 4.60975
# Velocity P-wave (km/s) = 7.16700 8.60619 7.91936
#
# Compressibility (1/GPa) = 0.01643352
#
# Stress axis : x y z
#
# Youngs Moduli (GPa) = 70.88337 31.38495 58.87158
#
# Poissons Ratio (x) = 0.20955 0.08285
# Poissons Ratio (y) = 0.47327 0.89351
# Poissons Ratio (z) = 0.09975 0.47634
#
# Static dielectric constant tensor:
#      x y z
#    x 3.086470 0.000000 0.003100 
#    y 0.000000 3.457570 0.000000 
#    z 0.003100 0.000000 3.246550 
# 
# 
# High freq. dielectric constant tensor:
#      x y z
#    x 1.747260 0.000000 0.007360 
#    y 0.000000 1.725130 0.000000 
#    z 0.007360 0.000000 1.723460 
# 
# From -- ./inp_files/238347.got.cif
#   From: 2010.06.25/outbox.cif.g09.slc.cpg/sg12_120_cif.got.tgz:238347.got - 2010.06.28 00:19:55.
