data_PCOD8098094
_publ_section_title
;
Structure prediction by ZEFSAII (Michael W. Deem and Ramdas Pophale) SiO2 
 PCOD8098094
Probable space group: C 2/M
;
_chemical_formula_sum "Si O2"
_cell_formula_units_Z 56
_cell_length_a 28.430181
_cell_length_b 9.606826
_cell_length_c 13.643911
_cell_angle_alpha 90.000000
_cell_angle_beta 126.751125
_cell_angle_gamma 90.000000
_cell_volume 2985.810002
_symmetry_space_group_name_H-M "C 2/M"
_symmetry_group_IT_number 12
_symmetry_cell_setting 'monoclinic'
loop_
_space_group_symop_operation_xyz
x,y,z
-x,y,-z
-x,-y,-z
x,-y,z
1/2+x,1/2+y,z
1/2-x,1/2+y,-z
1/2-x,1/2-y,-z
1/2+x,1/2-y,z
loop_
_atom_site_type_symbol
_atom_site_label
_atom_site_fract_x
_atom_site_fract_y
_atom_site_fract_z
Si Si1 0.920369 0.159145 0.133983
Si Si2 0.561699 0.845043 0.024957
Si Si3 0.516493 0.338017 0.412229
Si Si4 0.375869 0.839911 0.532155
Si Si5 0.837939 0.663980 0.701859
Si Si6 0.751063 0.339670 0.295229
Si Si7 0.785853 0.161973 0.967745
O O1 0.958751 0.192405 0.276807
O O2 0.926046 0.000000 0.108225
O O3 0.944905 0.248190 0.076119
O O4 0.853381 0.196704 0.073483
O O5 0.610653 0.789069 0.160541
O O6 0.578553 0.000000 0.010687
O O7 0.500000 0.845862 0.000000
O O8 0.500000 0.286914 0.500000
O O9 0.534045 0.500000 0.432974
O O10 0.571224 0.253196 0.439703
O O11 0.357064 0.791371 0.617076
O O12 0.320940 0.819916 0.390803
O O13 0.396878 0.000000 0.560424
O O14 0.824600 0.500000 0.689772
O O15 0.779698 0.746906 0.659877
O O16 0.733250 0.500000 0.291225
O O17 0.730798 0.289817 0.162603
O O18 0.771170 0.000000 0.964289
O O19 0.750000 0.250000 0.000000
#
# Coordination Sequence:
#
# PCOD8098094 Si02
#       7
#     8   8   8   8   8   8   8
#     4  10  21  39  59  82 113 147 186 232 281 331
#     4  10  20  34  55  83 115 150 186 227 274 329
#     4  10  23  41  60  83 111 148 193 236 280 334
#     4  10  22  39  59  85 116 150 188 232 280 334
#     4  10  20  35  56  85 117 149 188 228 276 335
#     4  10  21  38  59  85 117 149 186 231 281 335
#     4  10  22  38  58  85 114 146 187 234 281 334
#
# _framework density 18.755379000000001
#
# number of rings (size 3 to 8) (size 9 to 14) (size 15 to 20)
#    0.000    2.000    1.429    1.286    2.000    4.571 
#    0.000    0.000    0.000    0.000    0.000    0.000 
#    0.000    0.000    0.000    0.000    0.000    0.000 
#
# Total GULP energy -347314.054236 kJ/mol
# GULP energy per Si atom -12404.073366 kJ/mol
# Density = 1.871269 g / cm^3
# Si number density = 18.755379 Si / 1000 Ang^3
#
#
#
# Elastic Constant Matrix: (Units=GPa)
#
#
# Indices 1 2 3 4 5 6 
#
# 1 131.5903 68.7713 64.3003 0.0000 -12.7390 0.0000
# 2 68.7713 67.7308 48.4343 0.0000 -8.1222 0.0000
# 3 64.3003 48.4343 130.4525 0.0000 -6.1369 0.0000
# 4 0.0000 0.0000 0.0000 23.3738 0.0000 2.5492
# 5 -12.7390 -8.1222 -6.1369 0.0000 29.5638 0.0000
# 6 0.0000 0.0000 0.0000 2.5492 0.0000 39.9658
#
#
#
# Elastic Compliance Matrix: (Units=1/GPa)
#
#
# Indices 1 2 3 4 5 6 
#
# 1 0.017040 -0.015068 -0.002680 0.000000 0.002646 0.000000
# 2 -0.015068 0.033908 -0.005079 0.000000 0.001769 0.000000
# 3 -0.002680 -0.005079 0.010859 0.000000 -0.000296 0.000000
# 4 0.000000 0.000000 0.000000 0.043083 0.000000 -0.002748
# 5 0.002646 0.001769 -0.000296 0.000000 0.035390 0.000000
# 6 0.000000 0.000000 0.000000 -0.002748 0.000000 0.025197
#
#
# Mechanical properties :
#
#
# Convention : Reuss Voigt Hill
#
# Bulk Modulus (GPa) = 61.91140 76.97617 69.44378
# Shear Modulus (GPa) = 23.09330 28.46518 25.77924
#
# Velocity S-wave (km/s) = 3.51278 3.90000 3.71144
# Velocity P-wave (km/s) = 7.03807 7.83654 7.44801
#
# Compressibility (1/GPa) = 0.01615211
#
# Stress axis : x y z
#
# Youngs Moduli (GPa) = 58.68627 29.49190 92.09360
#
# Poissons Ratio (x) = 0.44437 0.24682
# Poissons Ratio (y) = 0.88426 0.46776
# Poissons Ratio (z) = 0.15729 0.14979
#
# Static dielectric constant tensor:
#      x y z
#    x 3.279000 0.000000 0.048850 
#    y 0.000000 3.462760 0.000000 
#    z 0.048850 0.000000 3.753640 
# 
# 
# High freq. dielectric constant tensor:
#      x y z
#    x 1.726140 0.000000 0.003620 
#    y 0.000000 1.723710 0.000000 
#    z 0.003620 0.000000 1.747010 
# 
# From -- ./inp_files/249300.got.cif
#   From: 2010.06.25/outbox.cif.g09.slc.cpg/sg12_125_cif.got.tgz:249300.got - 2010.06.28 00:19:55.
