data_PCOD8098636
_publ_section_title
;
Structure prediction by ZEFSAII (Michael W. Deem and Ramdas Pophale) SiO2 
 PCOD8098636
Probable space group: C 2/M
;
_chemical_formula_sum "Si O2"
_cell_formula_units_Z 56
_cell_length_a 27.494252
_cell_length_b 24.976298
_cell_length_c 12.136255
_cell_angle_alpha 90.000000
_cell_angle_beta 19.784970
_cell_angle_gamma 90.000000
_cell_volume 2820.992398
_symmetry_space_group_name_H-M "C 2/M"
_symmetry_group_IT_number 12
_symmetry_cell_setting 'monoclinic'
loop_
_space_group_symop_operation_xyz
x,y,z
-x,y,-z
-x,-y,-z
x,-y,z
1/2+x,1/2+y,z
1/2-x,1/2+y,-z
1/2-x,1/2-y,-z
1/2+x,1/2-y,z
loop_
_atom_site_type_symbol
_atom_site_label
_atom_site_fract_x
_atom_site_fract_y
_atom_site_fract_z
Si Si1 0.370219 0.868760 0.585481
Si Si2 0.355511 0.937183 0.045788
Si Si3 0.171799 0.441352 0.136739
Si Si4 0.603705 0.243343 0.372235
Si Si5 0.746419 0.817167 0.371596
Si Si6 0.060028 0.777224 0.701820
Si Si7 0.158040 0.876875 0.627213
O O1 0.278492 0.901422 0.872640
O O2 0.436435 0.817013 0.505502
O O3 0.256221 0.852038 0.734751
O O4 0.497985 0.902949 0.257022
O O5 0.245041 0.923009 0.378768
O O6 0.395452 0.000000 0.968582
O O7 0.277869 0.924696 0.093633
O O8 0.232130 0.500000 0.037991
O O9 0.000000 0.441527 0.500000
O O10 0.500000 0.265566 0.500000
O O11 0.603379 0.279633 0.481699
O O12 0.750000 0.250000 0.000000
O O13 0.610174 0.776991 0.657633
O O14 0.743847 0.858253 0.478903
O O15 0.888592 0.780715 0.077670
O O16 0.138933 0.826841 0.588088
O O17 0.000000 0.898532 0.000000
#
# Coordination Sequence:
#
# PCOD8098636 Si02
#       7
#     8   8   8   8   8   8   8
#     4  10  20  34  59  86 129 153 197 250 309 362
#     4  10  21  38  64  92 119 159 210 261 319 372
#     4   8  15  31  56  86 117 153 193 241 306 374
#     4  11  22  33  53  87 126 161 191 240 306 364
#     4  10  22  40  59  89 121 167 209 253 303 363
#     4  10  22  39  59  84 122 165 209 245 300 374
#     4  10  23  41  61  84 118 165 215 259 311 365
#
# _framework density 19.851168999999999
#
# number of rings (size 3 to 8) (size 9 to 14) (size 15 to 20)
#    0.000    2.143    0.000    4.714    8.000    0.857 
#    0.000    2.143    0.000    1.714    0.000    8.000 
#    0.000    0.000    0.000    0.000    0.000    0.000 
#
# Total GULP energy -347072.128117 kJ/mol
# GULP energy per Si atom -12395.433147 kJ/mol
# Density = 1.980599 g / cm^3
# Si number density = 19.851169 Si / 1000 Ang^3
#
#
#
# Elastic Constant Matrix: (Units=GPa)
#
#
# Indices 1 2 3 4 5 6 
#
# 1 129.1729 38.1360 39.1527 -0.0019 3.3199 0.0024
# 2 38.1360 74.9659 31.3162 -0.0008 2.3218 -0.0004
# 3 39.1527 31.3162 85.3727 -0.0066 12.7454 0.0004
# 4 -0.0019 -0.0008 -0.0066 28.1838 -0.0022 10.8099
# 5 3.3199 2.3218 12.7454 -0.0022 34.6722 -0.0005
# 6 0.0024 -0.0004 0.0004 10.8099 -0.0005 30.4375
#
#
#
# Elastic Compliance Matrix: (Units=1/GPa)
#
#
# Indices 1 2 3 4 5 6 
#
# 1 0.009782 -0.003645 -0.003222 0.000000 0.000492 -0.000001
# 2 -0.003645 0.017154 -0.004763 -0.000001 0.000951 0.000001
# 3 -0.003222 -0.004763 0.015706 0.000003 -0.005146 -0.000001
# 4 0.000000 -0.000001 0.000003 0.041077 0.000001 -0.014588
# 5 0.000492 0.000951 -0.005146 0.000001 0.030622 0.000000
# 6 -0.000001 0.000001 -0.000001 -0.014588 0.000000 0.038035
#
#
# Mechanical properties :
#
#
# Convention : Reuss Voigt Hill
#
# Bulk Modulus (GPa) = 51.59496 56.30237 53.94867
# Shear Modulus (GPa) = 27.45785 30.71916 29.08850
#
# Velocity S-wave (km/s) = 3.72315 3.93806 3.83211
# Velocity P-wave (km/s) = 6.67307 7.00725 6.84220
#
# Compressibility (1/GPa) = 0.01938174
#
# Stress axis : x y z
#
# Youngs Moduli (GPa) = 102.23059 58.29601 63.66827
#
# Poissons Ratio (x) = 0.21250 0.20516
# Poissons Ratio (y) = 0.37266 0.30322
# Poissons Ratio (z) = 0.32942 0.27764
#
# Static dielectric constant tensor:
#      x y z
#    x 3.972650 -0.000030 0.230180 
#    y -0.000030 3.719570 0.000030 
#    z 0.230180 0.000030 3.388150 
# 
# 
# High freq. dielectric constant tensor:
#      x y z
#    x 1.788920 0.000000 0.019170 
#    y 0.000000 1.762480 0.000000 
#    z 0.019170 0.000000 1.749410 
# 
# From -- ./inp_files/185132.got.cif
#   From: 2010.06.25/outbox.cif.g09.slc.cpg/sg12_93_cif.got.tgz:185132.got - 2010.06.28 00:19:55.
