data_PCOD8098986
_publ_section_title
;
Structure prediction by ZEFSAII (Michael W. Deem and Ramdas Pophale) SiO2 
 PCOD8098986
Probable space group: C 2/M
;
_chemical_formula_sum "Si O2"
_cell_formula_units_Z 40
_cell_length_a 18.566638
_cell_length_b 10.460999
_cell_length_c 11.027380
_cell_angle_alpha 90.000000
_cell_angle_beta 76.325993
_cell_angle_gamma 90.000000
_cell_volume 2081.093130
_symmetry_space_group_name_H-M "C 2/M"
_symmetry_group_IT_number 12
_symmetry_cell_setting 'monoclinic'
loop_
_space_group_symop_operation_xyz
x,y,z
-x,y,-z
-x,-y,-z
x,-y,z
1/2+x,1/2+y,z
1/2-x,1/2+y,-z
1/2-x,1/2-y,-z
1/2+x,1/2-y,z
loop_
_atom_site_type_symbol
_atom_site_label
_atom_site_fract_x
_atom_site_fract_y
_atom_site_fract_z
Si Si1 0.765228 0.734302 0.696218
Si Si2 0.395411 0.355378 0.798780
Si Si3 0.461259 0.353526 0.386492
Si Si4 0.202921 0.857182 0.953823
Si Si5 0.162739 0.639073 0.563123
O O1 0.835609 0.776919 0.746070
O O2 0.704707 0.665559 0.808643
O O3 0.794313 0.638004 0.582004
O O4 0.722891 0.850535 0.647238
O O5 0.389657 0.500000 0.752973
O O6 0.479086 0.308908 0.739185
O O7 0.378635 0.345962 0.950630
O O8 0.500000 0.339395 0.500000
O O9 0.433906 0.500000 0.376742
O O10 0.392982 0.257448 0.405299
O O11 0.234324 0.000000 0.968812
O O12 0.250000 0.750000 0.000000
O O13 0.123441 0.500000 0.591470
#
# Coordination Sequence:
#
# PCOD8098986 Si02
#       5
#     8   8   8   8   8
#     4  10  20  35  54  80 112 142 178 221 271 323
#     4   9  17  34  58  80 103 140 183 219 260 320
#     4  10  20  36  56  78 107 145 183 219 265 325
#     4   9  18  33  55  81 108 138 178 223 268 317
#     4  11  23  35  54  83 113 144 178 225 275 317
#
# _framework density 19.220669000000001
#
# number of rings (size 3 to 8) (size 9 to 14) (size 15 to 20)
#    0.000    2.200    2.000    1.200    0.000    5.200 
#    0.000    2.000    0.000    4.800    0.000    0.000 
#    0.000    0.000    0.000    0.000    0.000    0.000 
#
# Total GULP energy -247761.590995 kJ/mol
# GULP energy per Si atom -12388.079550 kJ/mol
# Density = 1.917692 g / cm^3
# Si number density = 19.220669 Si / 1000 Ang^3
#
#
#
# Elastic Constant Matrix: (Units=GPa)
#
#
# Indices 1 2 3 4 5 6 
#
# 1 60.7199 39.6188 42.8227 0.0000 -12.6638 0.0000
# 2 39.6188 120.1117 47.4669 0.0000 -11.4162 0.0000
# 3 42.8227 47.4669 155.1779 0.0000 -28.8992 0.0000
# 4 0.0000 0.0000 0.0000 13.2861 0.0000 -7.5952
# 5 -12.6638 -11.4162 -28.8992 0.0000 28.3536 0.0000
# 6 0.0000 0.0000 0.0000 -7.5952 0.0000 23.0321
#
#
#
# Elastic Compliance Matrix: (Units=1/GPa)
#
#
# Indices 1 2 3 4 5 6 
#
# 1 0.024080 -0.005944 -0.004036 0.000000 0.004248 0.000000
# 2 -0.005944 0.010964 -0.001710 0.000000 0.000016 0.000000
# 3 -0.004036 -0.001710 0.009402 0.000000 0.007092 0.000000
# 4 0.000000 0.000000 0.000000 0.092752 0.000000 0.030587
# 5 0.004248 0.000016 0.007092 0.000000 0.044401 0.000000
# 6 0.000000 0.000000 0.000000 0.030587 0.000000 0.053504
#
#
# Mechanical properties :
#
#
# Convention : Reuss Voigt Hill
#
# Bulk Modulus (GPa) = 47.47178 66.20292 56.83735
# Shear Modulus (GPa) = 18.83212 26.67443 22.75328
#
# Velocity S-wave (km/s) = 3.13355 3.72936 3.44436
# Velocity P-wave (km/s) = 6.15175 7.28440 6.74191
#
# Compressibility (1/GPa) = 0.02106514
#
# Stress axis : x y z
#
# Youngs Moduli (GPa) = 41.52888 91.21042 106.36372
#
# Poissons Ratio (x) = 0.54216 0.42924
# Poissons Ratio (y) = 0.24685 0.18191
# Poissons Ratio (z) = 0.16759 0.15600
#
# Static dielectric constant tensor:
#      x y z
#    x 3.245690 0.000000 -0.384790 
#    y 0.000000 3.471570 0.000000 
#    z -0.384790 0.000000 4.355030 
# 
# 
# High freq. dielectric constant tensor:
#      x y z
#    x 1.709390 0.000000 -0.019930 
#    y 0.000000 1.742970 0.000000 
#    z -0.019930 0.000000 1.769400 
# 
# From -- ./inp_files/152746.got.cif
#   From: 2010.06.25/outbox.cif.g09.slc.cpg/sg12_77_cif.got.tgz:152746.got - 2010.06.28 00:19:55.
