data_PCOD8098516
_publ_section_title
;
Structure prediction by ZEFSAII (Michael W. Deem and Ramdas Pophale) SiO2 
 PCOD8098516
Probable space group: C 2/M
;
_chemical_formula_sum "Si O2"
_cell_formula_units_Z 48
_cell_length_a 14.919422
_cell_length_b 8.579779
_cell_length_c 19.388398
_cell_angle_alpha 90.000000
_cell_angle_beta 78.052901
_cell_angle_gamma 90.000000
_cell_volume 2428.060243
_symmetry_space_group_name_H-M "C 2/M"
_symmetry_group_IT_number 12
_symmetry_cell_setting 'monoclinic'
loop_
_space_group_symop_operation_xyz
x,y,z
-x,y,-z
-x,-y,-z
x,-y,z
1/2+x,1/2+y,z
1/2-x,1/2+y,-z
1/2-x,1/2-y,-z
1/2+x,1/2-y,z
loop_
_atom_site_type_symbol
_atom_site_label
_atom_site_fract_x
_atom_site_fract_y
_atom_site_fract_z
Si Si1 0.056996 0.816918 0.828130
Si Si2 0.877384 0.184441 0.932920
Si Si3 0.235610 0.182984 0.426699
Si Si4 0.320447 0.183469 0.079996
Si Si5 0.954018 0.317831 0.579894
Si Si6 0.588137 0.318456 0.666364
O O1 0.143291 0.738044 0.851777
O O2 0.059148 0.771954 0.747862
O O3 0.962445 0.750771 0.875073
O O4 0.064522 0.000000 0.838239
O O5 0.783627 0.245063 0.912421
O O6 0.879639 0.000000 0.934934
O O7 0.884687 0.246646 0.009740
O O8 0.250000 0.250000 0.500000
O O9 0.151702 0.269689 0.403582
O O10 0.325407 0.213644 0.367478
O O11 0.215900 0.000000 0.434599
O O12 0.323880 0.000000 0.074099
O O13 0.964049 0.500000 0.594530
O O14 0.000000 0.274613 0.500000
O O15 0.002723 0.218813 0.631212
O O16 0.613842 0.500000 0.655751
#
# Coordination Sequence:
#
# PCOD8098516 Si02
#       6
#     8   8   8   8   8   8
#     4  10  22  39  58  82 117 158 195 236 291 353
#     4   9  19  37  58  81 115 156 196 237 288 348
#     4  12  24  40  64  90 118 153 195 244 298 356
#     4  10  20  34  57  88 117 150 197 246 289 339
#     4  11  23  40  64  91 119 152 195 246 299 355
#     4  11  24  41  61  89 122 158 202 248 302 361
#
# _framework density 19.768868000000001
#
# number of rings (size 3 to 8) (size 9 to 14) (size 15 to 20)
#    0.000    1.500    1.667    3.500    0.000    6.667 
#    0.000    1.667    0.000    0.000    0.000    0.000 
#    0.000    0.000    0.000    0.000    0.000    0.000 
#
# Total GULP energy -297741.454074 kJ/mol
# GULP energy per Si atom -12405.893920 kJ/mol
# Density = 1.972387 g / cm^3
# Si number density = 19.768868 Si / 1000 Ang^3
#
#
#
# Elastic Constant Matrix: (Units=GPa)
#
#
# Indices 1 2 3 4 5 6 
#
# 1 103.3959 7.7512 44.2038 0.0000 8.7517 0.0000
# 2 7.7512 37.6603 23.3602 0.0000 1.0711 0.0000
# 3 44.2038 23.3602 114.4580 0.0000 10.6351 0.0000
# 4 0.0000 0.0000 0.0000 31.1529 0.0000 4.2960
# 5 8.7517 1.0711 10.6351 0.0000 31.9536 0.0000
# 6 0.0000 0.0000 0.0000 4.2960 0.0000 33.6460
#
#
#
# Elastic Compliance Matrix: (Units=1/GPa)
#
#
# Indices 1 2 3 4 5 6 
#
# 1 0.011684 0.000393 -0.004431 0.000000 -0.001738 0.000000
# 2 0.000393 0.030451 -0.006462 0.000000 0.001022 0.000000
# 3 -0.004431 -0.006462 0.012005 0.000000 -0.002566 0.000000
# 4 0.000000 0.000000 0.000000 0.032675 0.000000 -0.004172
# 5 -0.001738 0.001022 -0.002566 0.000000 0.032591 0.000000
# 6 0.000000 0.000000 0.000000 -0.004172 0.000000 0.030254
#
#
# Mechanical properties :
#
#
# Convention : Reuss Voigt Hill
#
# Bulk Modulus (GPa) = 30.17398 45.12717 37.65057
# Shear Modulus (GPa) = 27.51695 31.36377 29.44036
#
# Velocity S-wave (km/s) = 3.73491 3.98744 3.86324
# Velocity P-wave (km/s) = 5.82202 6.63901 6.24389
#
# Compressibility (1/GPa) = 0.03314113
#
# Stress axis : x y z
#
# Youngs Moduli (GPa) = 85.59052 32.83929 83.29703
#
# Poissons Ratio (x) = -0.01291 0.36908
# Poissons Ratio (y) = -0.03365 0.53825
# Poissons Ratio (z) = 0.37924 0.21220
#
# Static dielectric constant tensor:
#      x y z
#    x 3.910960 0.000000 -0.107510 
#    y 0.000000 3.644180 0.000000 
#    z -0.107510 0.000000 3.806340 
# 
# 
# High freq. dielectric constant tensor:
#      x y z
#    x 1.783500 0.000000 0.004680 
#    y 0.000000 1.772090 0.000000 
#    z 0.004680 0.000000 1.767250 
# 
# From -- ./inp_files/267674.got.cif
#   From: 2010.06.25/outbox.cif.g09.slc.cpg/sg12_134_cif.got.tgz:267674.got - 2010.06.28 00:19:55.
