data_PCOD8098940
_publ_section_title
;
Structure prediction by ZEFSAII (Michael W. Deem and Ramdas Pophale) SiO2 
 PCOD8098940
Probable space group: C 2/M
;
_chemical_formula_sum "Si O2"
_cell_formula_units_Z 48
_cell_length_a 14.866906
_cell_length_b 7.759687
_cell_length_c 21.993473
_cell_angle_alpha 90.000000
_cell_angle_beta 71.172220
_cell_angle_gamma 90.000000
_cell_volume 2401.463405
_symmetry_space_group_name_H-M "C 2/M"
_symmetry_group_IT_number 12
_symmetry_cell_setting 'monoclinic'
loop_
_space_group_symop_operation_xyz
x,y,z
-x,y,-z
-x,-y,-z
x,-y,z
1/2+x,1/2+y,z
1/2-x,1/2+y,-z
1/2-x,1/2-y,-z
1/2+x,1/2-y,z
loop_
_atom_site_type_symbol
_atom_site_label
_atom_site_fract_x
_atom_site_fract_y
_atom_site_fract_z
Si Si1 0.560427 0.811958 0.193425
Si Si2 0.201527 0.205529 0.595959
Si Si3 0.354271 0.000000 0.065808
Si Si4 0.060311 0.500000 0.076896
Si Si5 0.601367 0.800318 0.499559
Si Si6 0.770566 0.794081 0.161046
Si Si7 0.636077 0.307935 0.738052
O O1 0.660670 0.751382 0.198067
O O2 0.478305 0.684086 0.233135
O O3 0.532809 0.000000 0.226362
O O4 0.570070 0.829273 0.117509
O O5 0.306848 0.277942 0.556308
O O6 0.120819 0.270878 0.566703
O O7 0.173051 0.282189 0.668261
O O8 0.199314 0.000000 0.595226
O O9 0.303625 0.822944 0.097539
O O10 0.459625 0.000000 0.067585
O O11 0.356725 0.000000 0.991772
O O12 0.500000 0.716172 0.500000
O O13 0.596004 0.000000 0.485108
O O14 0.824472 0.721479 0.209056
O O15 0.786619 0.000000 0.144015
O O16 0.676869 0.500000 0.728384
#
# Coordination Sequence:
#
# PCOD8098940 Si02
#       7
#     8   8   4   4   8   8   8
#     4   9  19  37  54  78 109 140 183 232 273 332
#     4   9  19  34  52  77 109 142 178 225 272 320
#     4  11  20  38  62  79 115 151 181 240 289 333
#     4   9  20  38  58  81 109 147 185 236 285 329
#     4   9  18  34  55  78 107 141 181 223 269 325
#     4  10  21  37  57  82 113 148 187 234 284 336
#     4  10  20  35  54  77 110 147 184 227 281 333
#
# _framework density 19.987812000000002
#
# number of rings (size 3 to 8) (size 9 to 14) (size 15 to 20)
#    0.500    2.000    1.667    0.000    1.167    3.000 
#    0.000    5.833    0.000    0.000    0.000    0.000 
#    0.000    0.000    0.000    0.000    0.000    0.000 
#
# Total GULP energy -297347.907560 kJ/mol
# GULP energy per Si atom -12389.496148 kJ/mol
# Density = 1.994232 g / cm^3
# Si number density = 19.987812 Si / 1000 Ang^3
#
#
#
# Elastic Constant Matrix: (Units=GPa)
#
#
# Indices 1 2 3 4 5 6 
#
# 1 133.4174 14.2325 41.5305 0.0000 -11.5365 0.0000
# 2 14.2325 39.1866 23.1762 0.0000 -4.0863 0.0000
# 3 41.5305 23.1762 136.6847 0.0000 -12.9627 0.0000
# 4 0.0000 0.0000 0.0000 22.8690 0.0000 -1.9186
# 5 -11.5365 -4.0863 -12.9627 0.0000 15.4061 0.0000
# 6 0.0000 0.0000 0.0000 -1.9186 0.0000 17.1790
#
#
#
# Elastic Compliance Matrix: (Units=1/GPa)
#
#
# Indices 1 2 3 4 5 6 
#
# 1 0.008648 -0.001526 -0.001948 0.000000 0.004431 0.000000
# 2 -0.001526 0.028836 -0.004139 0.000000 0.003023 0.000000
# 3 -0.001948 -0.004139 0.009093 0.000000 0.005094 0.000000
# 4 0.000000 0.000000 0.000000 0.044141 0.000000 0.004930
# 5 0.004431 0.003023 0.005094 0.000000 0.073315 0.000000
# 6 0.000000 0.000000 0.000000 0.004930 0.000000 0.058761
#
#
# Mechanical properties :
#
#
# Convention : Reuss Voigt Hill
#
# Bulk Modulus (GPa) = 31.89841 51.90746 41.90294
# Shear Modulus (GPa) = 20.12296 26.44747 23.28522
#
# Velocity S-wave (km/s) = 3.17639 3.64150 3.41687
# Velocity P-wave (km/s) = 5.42644 6.61110 6.04784
#
# Compressibility (1/GPa) = 0.03134953
#
# Stress axis : x y z
#
# Youngs Moduli (GPa) = 115.63615 34.67832 109.97415
#
# Poissons Ratio (x) = 0.05293 0.21428
# Poissons Ratio (y) = 0.17650 0.45519
# Poissons Ratio (z) = 0.22532 0.14353
#
# Static dielectric constant tensor:
#      x y z
#    x 3.722060 0.000000 0.012210 
#    y 0.000000 3.307230 0.000000 
#    z 0.012210 0.000000 3.825840 
# 
# 
# High freq. dielectric constant tensor:
#      x y z
#    x 1.786120 0.000000 -0.000340 
#    y 0.000000 1.752640 0.000000 
#    z -0.000340 0.000000 1.771390 
# 
# From -- ./inp_files/308325.got.cif
#   From: 2010.06.25/outbox.cif.g09.slc.cpg/sg12_155_cif.got.tgz:308325.got - 2010.06.28 00:19:55.
