data_PCOD8098903
_publ_section_title
;
Structure prediction by ZEFSAII (Michael W. Deem and Ramdas Pophale) SiO2 
 PCOD8098903
Probable space group: C 2/M
;
_chemical_formula_sum "Si O2"
_cell_formula_units_Z 56
_cell_length_a 19.305260
_cell_length_b 9.368973
_cell_length_c 19.049308
_cell_angle_alpha 90.000000
_cell_angle_beta 68.843268
_cell_angle_gamma 90.000000
_cell_volume 3213.221651
_symmetry_space_group_name_H-M "C 2/M"
_symmetry_group_IT_number 12
_symmetry_cell_setting 'monoclinic'
loop_
_space_group_symop_operation_xyz
x,y,z
-x,y,-z
-x,-y,-z
x,-y,z
1/2+x,1/2+y,z
1/2-x,1/2+y,-z
1/2-x,1/2-y,-z
1/2+x,1/2-y,z
loop_
_atom_site_type_symbol
_atom_site_label
_atom_site_fract_x
_atom_site_fract_y
_atom_site_fract_z
Si Si1 0.648991 0.336826 0.306699
Si Si2 0.327681 0.665139 0.545992
Si Si3 0.237381 0.668852 0.076480
Si Si4 0.923105 0.668252 0.240527
Si Si5 0.155288 0.665947 0.592654
Si Si6 0.413437 0.165443 0.792412
Si Si7 0.303395 0.834618 0.176373
O O1 0.625411 0.500000 0.305570
O O2 0.639210 0.288359 0.390853
O O3 0.594502 0.244809 0.278600
O O4 0.734428 0.315438 0.253795
O O5 0.342954 0.500000 0.525711
O O6 0.240426 0.697651 0.579449
O O7 0.368293 0.754058 0.470185
O O8 0.251620 0.500000 0.063216
O O9 0.153110 0.703118 0.130484
O O10 0.294470 0.734258 0.111899
O O11 0.250000 0.750000 0.000000
O O12 0.910427 0.500000 0.247805
O O13 0.893000 0.729727 0.325441
O O14 0.876062 0.723628 0.190987
O O15 0.009261 0.711345 0.199138
O O16 0.139594 0.500000 0.586412
O O17 0.414140 0.000000 0.773228
O O18 0.311444 0.000000 0.149486
#
# Coordination Sequence:
#
# PCOD8098903 Si02
#       7
#     8   8   8   8   8   8   8
#     4   9  16  29  48  69  94 127 165 200 239 287
#     4   9  16  27  43  67  95 124 162 204 242 280
#     4  10  20  35  54  77 101 125 155 191 232 281
#     4   9  16  31  52  73  97 126 161 200 242 285
#     4   9  16  27  45  68  93 124 161 202 243 281
#     4   9  19  33  51  74  98 123 157 200 239 280
#     4   9  16  30  54  76  94 124 162 197 235 280
#
# _framework density 17.427990999999999
#
# number of rings (size 3 to 8) (size 9 to 14) (size 15 to 20)
#    0.000    2.857    1.429    0.429    0.000    1.143 
#    0.000    3.571    0.000    8.571    0.000    0.000 
#    0.000    0.000    0.000    0.000    0.000    0.000 
#
# Total GULP energy -347143.582746 kJ/mol
# GULP energy per Si atom -12397.985098 kJ/mol
# Density = 1.738832 g / cm^3
# Si number density = 17.427991 Si / 1000 Ang^3
#
#
#
# Elastic Constant Matrix: (Units=GPa)
#
#
# Indices 1 2 3 4 5 6 
#
# 1 113.7414 42.7356 63.0003 0.0000 19.3958 0.0000
# 2 42.7356 61.0017 57.9977 0.0000 11.9566 0.0000
# 3 63.0003 57.9977 135.5932 0.0000 22.9718 0.0000
# 4 0.0000 0.0000 0.0000 31.2999 0.0000 6.8130
# 5 19.3958 11.9566 22.9718 0.0000 21.4449 0.0000
# 6 0.0000 0.0000 0.0000 6.8130 0.0000 21.0762
#
#
#
# Elastic Compliance Matrix: (Units=1/GPa)
#
#
# Indices 1 2 3 4 5 6 
#
# 1 0.013496 -0.005532 -0.002882 0.000000 -0.006035 0.000000
# 2 -0.005532 0.030095 -0.010149 0.000000 -0.000905 0.000000
# 3 -0.002882 -0.010149 0.014239 0.000000 -0.006988 0.000000
# 4 0.000000 0.000000 0.000000 0.034367 0.000000 -0.011109
# 5 -0.006035 -0.000905 -0.006988 0.000000 0.060079 0.000000
# 6 0.000000 0.000000 0.000000 -0.011109 0.000000 0.051038
#
#
# Mechanical properties :
#
#
# Convention : Reuss Voigt Hill
#
# Bulk Modulus (GPa) = 48.30004 70.86707 59.58355
# Shear Modulus (GPa) = 20.21505 24.53771 22.37638
#
# Velocity S-wave (km/s) = 3.40945 3.75633 3.58709
# Velocity P-wave (km/s) = 6.57825 7.71780 7.17070
#
# Compressibility (1/GPa) = 0.02070392
#
# Stress axis : x y z
#
# Youngs Moduli (GPa) = 74.09800 33.22815 70.22957
#
# Poissons Ratio (x) = 0.18381 0.20240
# Poissons Ratio (y) = 0.40988 0.71278
# Poissons Ratio (z) = 0.21355 0.33724
#
# Static dielectric constant tensor:
#      x y z
#    x 3.250190 0.000000 0.139080 
#    y 0.000000 3.126690 0.000000 
#    z 0.139080 0.000000 3.288110 
# 
# 
# High freq. dielectric constant tensor:
#      x y z
#    x 1.659790 0.000000 0.012620 
#    y 0.000000 1.656040 0.000000 
#    z 0.012620 0.000000 1.669370 
# 
# From -- ./inp_files/276678.got.cif
#   From: 2010.06.25/outbox.cif.g09.slc.cpg/sg12_139_cif.got.tgz:276678.got - 2010.06.28 00:19:55.
