data_PCOD8098150
_publ_section_title
;
Structure prediction by ZEFSAII (Michael W. Deem and Ramdas Pophale) SiO2 
 PCOD8098150
Probable space group: C 2/M
;
_chemical_formula_sum "Si O2"
_cell_formula_units_Z 56
_cell_length_a 34.958786
_cell_length_b 8.867548
_cell_length_c 12.140747
_cell_angle_alpha 90.000000
_cell_angle_beta 52.418007
_cell_angle_gamma 90.000000
_cell_volume 2982.595487
_symmetry_space_group_name_H-M "C 2/M"
_symmetry_group_IT_number 12
_symmetry_cell_setting 'monoclinic'
loop_
_space_group_symop_operation_xyz
x,y,z
-x,y,-z
-x,-y,-z
x,-y,z
1/2+x,1/2+y,z
1/2-x,1/2+y,-z
1/2-x,1/2-y,-z
1/2+x,1/2-y,z
loop_
_atom_site_type_symbol
_atom_site_label
_atom_site_fract_x
_atom_site_fract_y
_atom_site_fract_z
Si Si1 0.844824 0.676302 0.719952
Si Si2 0.278471 0.323639 0.667937
Si Si3 0.011494 0.824218 0.356779
Si Si4 0.831054 0.678048 0.172426
Si Si5 0.575436 0.823830 0.597992
Si Si6 0.877644 0.176401 0.880256
Si Si7 0.857579 0.176509 0.351584
O O1 0.840741 0.500000 0.751708
O O2 0.797047 0.730828 0.740485
O O3 0.891762 0.716537 0.565181
O O4 0.847478 0.764536 0.829526
O O5 0.282000 0.500000 0.689855
O O6 0.224420 0.269879 0.738450
O O7 0.310058 0.282783 0.505466
O O8 0.066355 0.785712 0.233547
O O9 0.000000 0.768883 0.500000
O O10 0.978701 0.731049 0.329604
O O11 0.999435 0.000000 0.364607
O O12 0.835041 0.500000 0.169295
O O13 0.854686 0.743837 0.239970
O O14 0.860595 0.738640 0.017975
O O15 0.594991 0.736756 0.670158
O O16 0.576203 0.000000 0.622482
O O17 0.868210 0.000000 0.909693
O O18 0.863047 0.000000 0.323163
#
# Coordination Sequence:
#
# PCOD8098150 Si02
#       7
#     8   8   8   8   8   8   8
#     4  10  20  34  55  85 116 146 184 232 280 330
#     4   9  20  37  59  84 111 148 189 231 277 330
#     4  10  20  36  59  85 112 146 186 229 277 334
#     4  11  23  39  57  81 115 150 188 233 281 329
#     4  10  20  34  57  88 117 144 181 232 284 328
#     4  11  23  38  57  81 114 152 189 227 278 339
#     4  10  20  37  61  85 112 147 190 231 274 330
#
# _framework density 18.775593000000001
#
# number of rings (size 3 to 8) (size 9 to 14) (size 15 to 20)
#    0.000    1.857    1.429    2.571    0.000    4.857 
#    0.000    0.714    0.000    4.286    0.000    0.000 
#    0.000    0.000    0.000    0.000    0.000    0.000 
#
# Total GULP energy -347370.961432 kJ/mol
# GULP energy per Si atom -12406.105765 kJ/mol
# Density = 1.873286 g / cm^3
# Si number density = 18.775593 Si / 1000 Ang^3
#
#
#
# Elastic Constant Matrix: (Units=GPa)
#
#
# Indices 1 2 3 4 5 6 
#
# 1 121.9368 48.7461 41.8053 0.0000 31.8013 0.0000
# 2 48.7461 70.0094 24.9409 0.0000 17.7271 0.0000
# 3 41.8053 24.9409 36.2629 0.0000 44.8454 0.0000
# 4 0.0000 0.0000 0.0000 30.8483 0.0000 3.7871
# 5 31.8013 17.7271 44.8454 0.0000 11.4560 0.0000
# 6 0.0000 0.0000 0.0000 3.7871 0.0000 36.7174
#
#
#
# Elastic Compliance Matrix: (Units=1/GPa)
#
#
# Indices 1 2 3 4 5 6 
#
# 1 0.014104 -0.006441 -0.006317 0.000000 -0.004458 0.000000
# 2 -0.006441 0.020558 -0.002737 0.000000 -0.003215 0.000000
# 3 -0.006317 -0.002737 -0.002556 0.000000 0.031777 0.000000
# 4 0.000000 0.000000 0.000000 0.032832 0.000000 -0.003386
# 5 -0.004458 -0.003215 0.031777 0.000000 -0.019751 0.000000
# 6 0.000000 0.000000 0.000000 -0.003386 0.000000 0.027584
#
#
# Mechanical properties :
#
#
# Convention : Reuss Voigt Hill
#
# Bulk Modulus (GPa) = 896.56105 51.02152 473.79129
# Shear Modulus (GPa) = 48.01473 23.31879 35.66676
#
# Velocity S-wave (km/s) = 5.06246 3.52799 4.36321
# Velocity P-wave (km/s) = 22.64337 6.62035 16.68159
#
# Compressibility (1/GPa) = 0.00111537
#
# Stress axis : x y z
#
# Youngs Moduli (GPa) = 70.90029 48.64254 -391.23336
#
# Poissons Ratio (x) = 0.31333 -2.47133
# Poissons Ratio (y) = 0.45670 -1.07095
# Poissons Ratio (z) = 0.44786 0.13315
#
# Static dielectric constant tensor:
#      x y z
#    x 3.491170 0.000000 -0.001700 
#    y 0.000000 3.451220 0.000000 
#    z -0.001700 0.000000 3.395550 
# 
# 
# High freq. dielectric constant tensor:
#      x y z
#    x 1.740110 0.000000 0.004960 
#    y 0.000000 1.738510 0.000000 
#    z 0.004960 0.000000 1.713210 
# 
# From -- ./inp_files/187260.got.cif
#   From: 2010.06.25/outbox.cif.g09.slc.cpg/sg12_94_cif.got.tgz:187260.got - 2010.06.28 00:19:55.
