data_PCOD8098232
_publ_section_title
;
Structure prediction by ZEFSAII (Michael W. Deem and Ramdas Pophale) SiO2 
 PCOD8098232
Probable space group: C 2/M
;
_chemical_formula_sum "Si O2"
_cell_formula_units_Z 56
_cell_length_a 19.609344
_cell_length_b 9.122077
_cell_length_c 29.384950
_cell_angle_alpha 90.000000
_cell_angle_beta 33.381185
_cell_angle_gamma 90.000000
_cell_volume 2892.061468
_symmetry_space_group_name_H-M "C 2/M"
_symmetry_group_IT_number 12
_symmetry_cell_setting 'monoclinic'
loop_
_space_group_symop_operation_xyz
x,y,z
-x,y,-z
-x,-y,-z
x,-y,z
1/2+x,1/2+y,z
1/2-x,1/2+y,-z
1/2-x,1/2-y,-z
1/2+x,1/2-y,z
loop_
_atom_site_type_symbol
_atom_site_label
_atom_site_fract_x
_atom_site_fract_y
_atom_site_fract_z
Si Si1 0.975780 0.829838 0.623044
Si Si2 0.291113 0.673494 0.561473
Si Si3 0.425241 0.326770 0.998485
Si Si4 0.745233 0.829486 0.687795
Si Si5 0.149300 0.672564 0.133792
Si Si6 0.520637 0.171482 0.687199
Si Si7 0.500576 0.326244 0.856669
O O1 0.852717 0.801134 0.663545
O O2 0.093580 0.759483 0.530797
O O3 0.954153 0.752301 0.682984
O O4 0.999135 0.000000 0.618788
O O5 0.301996 0.500000 0.554801
O O6 0.295958 0.725993 0.610952
O O7 0.162622 0.725798 0.610597
O O8 0.426350 0.500000 0.002852
O O9 0.490077 0.278856 0.915290
O O10 0.500000 0.257801 0.000000
O O11 0.282825 0.272095 0.077334
O O12 0.628818 0.733457 0.766272
O O13 0.704762 0.000000 0.707961
O O14 0.151915 0.500000 0.121591
O O15 0.047408 0.713182 0.228285
O O16 0.113954 0.757030 0.107327
O O17 0.511150 0.000000 0.683395
O O18 0.494990 0.500000 0.854155
#
# Coordination Sequence:
#
# PCOD8098232 Si02
#       7
#     8   8   8   8   8   8   8
#     4  10  21  34  55  82 111 145 184 236 280 317
#     4   9  17  35  57  79 105 145 194 226 267 332
#     4   9  20  37  59  86 113 145 183 221 270 331
#     4  10  20  37  58  80 110 149 189 225 272 333
#     4  10  20  38  62  82 109 151 189 222 267 332
#     4  10  20  34  56  82 110 147 185 223 272 335
#     4  11  22  36  59  87 113 143 183 233 275 318
#
# _framework density 19.363350000000001
#
# number of rings (size 3 to 8) (size 9 to 14) (size 15 to 20)
#    0.000    2.143    1.429    1.714    2.000    2.857 
#    0.000    1.429    0.000    3.857    0.000    0.000 
#    0.000    0.000    0.000    0.000    0.000    0.000 
#
# Total GULP energy -347228.433043 kJ/mol
# GULP energy per Si atom -12401.015466 kJ/mol
# Density = 1.931928 g / cm^3
# Si number density = 19.363350 Si / 1000 Ang^3
#
#
#
# Elastic Constant Matrix: (Units=GPa)
#
#
# Indices 1 2 3 4 5 6 
#
# 1 146.3009 47.3207 55.4403 0.0054 15.5890 -0.0161
# 2 47.3207 36.6721 25.8659 0.0074 3.3758 -0.0071
# 3 55.4403 25.8659 71.5252 0.0031 -6.7940 -0.0196
# 4 0.0054 0.0074 0.0031 13.9048 0.0028 4.8169
# 5 15.5890 3.3758 -6.7940 0.0028 30.6014 -0.0070
# 6 -0.0161 -0.0071 -0.0196 4.8169 -0.0070 30.6540
#
#
#
# Elastic Compliance Matrix: (Units=1/GPa)
#
#
# Indices 1 2 3 4 5 6 
#
# 1 0.014656 -0.012992 -0.007390 0.000005 -0.007673 -0.000003
# 2 -0.012992 0.049712 -0.007967 -0.000021 -0.000634 0.000003
# 3 -0.007390 -0.007967 0.023528 -0.000004 0.009867 0.000012
# 4 0.000005 -0.000021 -0.000004 0.076058 -0.000011 -0.011952
# 5 -0.007673 -0.000634 0.009867 -0.000011 0.038848 0.000013
# 6 -0.000003 0.000003 0.000012 -0.011952 0.000013 0.034500
#
#
# Mechanical properties :
#
#
# Convention : Reuss Voigt Hill
#
# Bulk Modulus (GPa) = 32.05565 56.86133 44.45849
# Shear Modulus (GPa) = 16.42580 23.42345 19.92463
#
# Velocity S-wave (km/s) = 2.91571 3.48182 3.21126
# Velocity P-wave (km/s) = 5.28449 6.75228 6.06297
#
# Compressibility (1/GPa) = 0.03119575
#
# Stress axis : x y z
#
# Youngs Moduli (GPa) = 68.23237 20.11605 42.50299
#
# Poissons Ratio (x) = 0.26136 0.31411
# Poissons Ratio (y) = 0.88651 0.33862
# Poissons Ratio (z) = 0.50426 0.16026
#
# Static dielectric constant tensor:
#      x y z
#    x 3.755700 -0.000010 -0.002550 
#    y -0.000010 3.168500 0.000000 
#    z -0.002550 0.000000 3.690520 
# 
# 
# High freq. dielectric constant tensor:
#      x y z
#    x 1.769850 0.000000 -0.000020 
#    y 0.000000 1.713240 0.000000 
#    z -0.000020 0.000000 1.765710 
# 
# From -- ./inp_files/362964.got.cif
#   From: 2010.06.25/outbox.cif.g09.slc.cpg/sg12_182_cif.got.tgz:362964.got - 2010.06.28 00:19:55.
