data_PCOD8098799
_publ_section_title
;
Structure prediction by ZEFSAII (Michael W. Deem and Ramdas Pophale) SiO2 
 PCOD8098799
Probable space group: C 2/M
;
_chemical_formula_sum "Si O2"
_cell_formula_units_Z 64
_cell_length_a 27.741076
_cell_length_b 8.960777
_cell_length_c 22.409155
_cell_angle_alpha 90.000000
_cell_angle_beta 38.503180
_cell_angle_gamma 90.000000
_cell_volume 3467.961923
_symmetry_space_group_name_H-M "C 2/M"
_symmetry_group_IT_number 12
_symmetry_cell_setting 'monoclinic'
loop_
_space_group_symop_operation_xyz
x,y,z
-x,y,-z
-x,-y,-z
x,-y,z
1/2+x,1/2+y,z
1/2-x,1/2+y,-z
1/2-x,1/2-y,-z
1/2+x,1/2-y,z
loop_
_atom_site_type_symbol
_atom_site_label
_atom_site_fract_x
_atom_site_fract_y
_atom_site_fract_z
Si Si1 0.664262 0.169276 0.793823
Si Si2 0.632594 0.172878 0.958779
Si Si3 0.531738 0.676765 0.604733
Si Si4 0.182398 0.822468 0.027252
Si Si5 0.987567 0.175554 0.774171
Si Si6 0.974363 0.175713 0.133659
Si Si7 0.429896 0.833705 0.613682
Si Si8 0.663273 0.672921 0.389267
O O1 0.673987 0.193748 0.855078
O O2 0.603712 0.283461 0.824636
O O3 0.746972 0.201426 0.682695
O O4 0.636869 0.000000 0.807300
O O5 0.627495 0.000000 0.982302
O O6 0.683295 0.261174 0.958594
O O7 0.546409 0.238684 0.034905
O O8 0.525277 0.500000 0.609569
O O9 0.529978 0.740821 0.674214
O O10 0.455330 0.740231 0.646665
O O11 0.611084 0.730135 0.495637
O O12 0.101457 0.771263 0.135412
O O13 0.192298 0.000000 0.015986
O O14 0.250000 0.750000 0.000000
O O15 0.033555 0.224531 0.789165
O O16 0.987809 0.000000 0.768553
O O17 0.990222 0.000000 0.112398
O O18 0.500000 0.835254 0.500000
O O19 0.356883 0.758679 0.652155
O O20 0.406864 0.000000 0.656122
O O21 0.646205 0.500000 0.393633
#
# Coordination Sequence:
#
# PCOD8098799 Si02
#       8
#     8   8   8   8   8   8   8   8
#     4  10  21  35  51  74 102 130 162 205 254 295
#     4  10  20  35  54  74 100 133 166 202 247 297
#     4   9  16  31  54  72  92 129 171 201 233 288
#     4  10  20  35  53  76 107 136 166 204 246 293
#     4   8  17  33  52  73  96 127 165 204 244 288
#     4  10  20  35  54  75  99 127 164 207 250 299
#     4   9  17  29  45  68  99 128 156 197 245 285
#     4   9  18  32  50  72  97 128 167 203 236 287
#
# _framework density 18.454643000000001
#
# number of rings (size 3 to 8) (size 9 to 14) (size 15 to 20)
#    0.000    2.625    0.000    2.625    0.000    5.500 
#    0.000    9.375    0.000    0.000    0.000    0.000 
#    0.000    0.000    0.000    0.000    0.000    0.000 
#
# Total GULP energy -396726.462034 kJ/mol
# GULP energy per Si atom -12397.701939 kJ/mol
# Density = 1.841264 g / cm^3
# Si number density = 18.454643 Si / 1000 Ang^3
#
#
#
# Elastic Constant Matrix: (Units=GPa)
#
#
# Indices 1 2 3 4 5 6 
#
# 1 106.4232 38.5175 44.4357 0.0058 -1.0585 -0.0075
# 2 38.5175 68.6788 27.4063 0.0255 -0.0499 -0.0205
# 3 44.4357 27.4063 84.3458 0.0250 10.3634 -0.0108
# 4 0.0058 0.0255 0.0250 18.2016 -0.0081 -0.9198
# 5 -1.0585 -0.0499 10.3634 -0.0081 25.0756 0.0034
# 6 -0.0075 -0.0205 -0.0108 -0.9198 0.0034 30.4270
#
#
#
# Elastic Compliance Matrix: (Units=1/GPa)
#
#
# Indices 1 2 3 4 5 6 
#
# 1 0.013852 -0.005407 -0.005911 0.000013 0.003017 -0.000002
# 2 -0.005407 0.018979 -0.003471 -0.000019 0.001244 0.000010
# 3 -0.005911 -0.003471 0.016992 -0.000020 -0.007279 0.000002
# 4 0.000013 -0.000019 -0.000020 0.055024 0.000026 0.001663
# 5 0.003017 0.001244 -0.007279 0.000026 0.043018 -0.000005
# 6 -0.000002 0.000010 0.000002 0.001663 -0.000005 0.032916
#
#
# Mechanical properties :
#
#
# Convention : Reuss Voigt Hill
#
# Bulk Modulus (GPa) = 49.39690 53.35185 51.37438
# Shear Modulus (GPa) = 23.03001 24.68006 23.85504
#
# Velocity S-wave (km/s) = 3.53643 3.66093 3.59922
# Velocity P-wave (km/s) = 6.59544 6.84415 6.72095
#
# Compressibility (1/GPa) = 0.02024418
#
# Stress axis : x y z
#
# Youngs Moduli (GPa) = 72.19341 52.68917 58.85029
#
# Poissons Ratio (x) = 0.28492 0.34787
# Poissons Ratio (y) = 0.39039 0.20426
# Poissons Ratio (z) = 0.42674 0.18288
#
# Static dielectric constant tensor:
#      x y z
#    x 3.380800 -0.000040 0.218710 
#    y -0.000040 3.370690 0.000040 
#    z 0.218710 0.000040 3.582380 
# 
# 
# High freq. dielectric constant tensor:
#      x y z
#    x 1.710830 0.000000 0.006380 
#    y 0.000000 1.709750 0.000000 
#    z 0.006380 0.000000 1.706400 
# 
# From -- ./inp_files/324141.got.cif
#   From: 2010.06.25/outbox.cif.g09.slc.cpg/sg12_163_cif.got.tgz:324141.got - 2010.06.28 00:19:55.
