data_PCOD8098606
_publ_section_title
;
Structure prediction by ZEFSAII (Michael W. Deem and Ramdas Pophale) SiO2 
 PCOD8098606
Probable space group: C 2/M
;
_chemical_formula_sum "Si O2"
_cell_formula_units_Z 56
_cell_length_a 28.381096
_cell_length_b 8.934867
_cell_length_c 19.661672
_cell_angle_alpha 90.000000
_cell_angle_beta 143.223011
_cell_angle_gamma 90.000000
_cell_volume 2985.027822
_symmetry_space_group_name_H-M "C 2/M"
_symmetry_group_IT_number 12
_symmetry_cell_setting 'monoclinic'
loop_
_space_group_symop_operation_xyz
x,y,z
-x,y,-z
-x,-y,-z
x,-y,z
1/2+x,1/2+y,z
1/2-x,1/2+y,-z
1/2-x,1/2-y,-z
1/2+x,1/2-y,z
loop_
_atom_site_type_symbol
_atom_site_label
_atom_site_fract_x
_atom_site_fract_y
_atom_site_fract_z
Si Si1 0.963453 0.174704 0.156594
Si Si2 0.136385 0.825304 0.729432
Si Si3 0.636724 0.174926 0.587474
Si Si4 0.815943 0.328770 0.933385
Si Si5 0.054304 0.824795 0.124668
Si Si6 0.702496 0.825362 0.244067
Si Si7 0.511270 0.174736 0.676982
O O1 0.002501 0.265942 0.263006
O O2 0.012361 0.216802 0.146265
O O3 0.966627 0.000000 0.176744
O O4 0.872719 0.221446 0.041618
O O5 0.113701 0.744888 0.633133
O O6 0.227011 0.796207 0.853857
O O7 0.085250 0.761046 0.731305
O O8 0.119948 0.000000 0.700146
O O9 0.714787 0.245985 0.645387
O O10 0.566641 0.210827 0.455146
O O11 0.650259 0.000000 0.613699
O O12 0.839638 0.500000 0.975166
O O13 0.824687 0.291003 0.863990
O O14 0.137137 0.738702 0.219407
O O15 0.071251 0.000000 0.137173
O O16 0.000000 0.768040 0.000000
O O17 0.714454 0.000000 0.270712
O O18 0.530636 0.000000 0.700073
#
# Coordination Sequence:
#
# PCOD8098606 Si02
#       7
#     8   8   8   8   8   8   8
#     4  11  23  37  57  83 113 151 189 230 282 337
#     4  10  21  37  60  88 114 146 189 235 281 331
#     4  10  21  38  60  84 113 149 190 234 281 331
#     4   9  19  35  54  82 116 146 181 227 279 335
#     4  10  20  36  58  86 116 146 185 231 283 339
#     4  10  20  34  58  89 115 145 186 234 283 329
#     4  11  24  40  57  80 113 154 192 232 282 334
#
# _framework density 18.760294999999999
#
# number of rings (size 3 to 8) (size 9 to 14) (size 15 to 20)
#    0.000    1.857    1.429    3.429    0.000    8.857 
#    0.000    0.714    0.000    0.000    0.000    0.000 
#    0.000    0.000    0.000    0.000    0.000    0.000 
#
# Total GULP energy -347355.941428 kJ/mol
# GULP energy per Si atom -12405.569337 kJ/mol
# Density = 1.871760 g / cm^3
# Si number density = 18.760295 Si / 1000 Ang^3
#
#
#
# Elastic Constant Matrix: (Units=GPa)
#
#
# Indices 1 2 3 4 5 6 
#
# 1 114.0025 46.7972 50.9841 0.0000 5.7814 0.0000
# 2 46.7972 76.4230 36.9795 0.0000 4.3607 0.0000
# 3 50.9841 36.9795 66.4239 0.0000 -2.0211 0.0000
# 4 0.0000 0.0000 0.0000 31.1265 0.0000 0.0930
# 5 5.7814 4.3607 -2.0211 0.0000 23.6550 0.0000
# 6 0.0000 0.0000 0.0000 0.0930 0.0000 34.7891
#
#
#
# Elastic Compliance Matrix: (Units=1/GPa)
#
#
# Indices 1 2 3 4 5 6 
#
# 1 0.014821 -0.004539 -0.008957 0.000000 -0.003551 0.000000
# 2 -0.004539 0.019718 -0.007591 0.000000 -0.003174 0.000000
# 3 -0.008957 -0.007591 0.026333 0.000000 0.005838 0.000000
# 4 0.000000 0.000000 0.000000 0.032127 0.000000 -0.000086
# 5 -0.003551 -0.003174 0.005838 0.000000 0.044226 0.000000
# 6 0.000000 0.000000 0.000000 -0.000086 0.000000 0.028745
#
#
# Mechanical properties :
#
#
# Convention : Reuss Voigt Hill
#
# Bulk Modulus (GPa) = 53.47605 58.48566 55.98085
# Shear Modulus (GPa) = 23.32350 26.05334 24.68842
#
# Velocity S-wave (km/s) = 3.52978 3.73064 3.63160
# Velocity P-wave (km/s) = 6.72155 7.05690 6.89126
#
# Compressibility (1/GPa) = 0.01869996
#
# Stress axis : x y z
#
# Youngs Moduli (GPa) = 67.47359 50.71436 37.97479
#
# Poissons Ratio (x) = 0.23017 0.34014
# Poissons Ratio (y) = 0.30624 0.28825
# Poissons Ratio (z) = 0.60436 0.38495
#
# Static dielectric constant tensor:
#      x y z
#    x 3.453870 0.000000 0.076620 
#    y 0.000000 3.482230 0.000000 
#    z 0.076620 0.000000 3.331460 
# 
# 
# High freq. dielectric constant tensor:
#      x y z
#    x 1.728410 0.000000 0.010550 
#    y 0.000000 1.739920 0.000000 
#    z 0.010550 0.000000 1.720720 
# 
# From -- ./inp_files/288190.got.cif
#   From: 2010.06.25/outbox.cif.g09.slc.cpg/sg12_145_cif.got.tgz:288190.got - 2010.06.28 00:19:55.
