data_PCOD8098188
_publ_section_title
;
Structure prediction by ZEFSAII (Michael W. Deem and Ramdas Pophale) SiO2 
 PCOD8098188
Probable space group: C 2/M
;
_chemical_formula_sum "Si O2"
_cell_formula_units_Z 64
_cell_length_a 15.673322
_cell_length_b 9.363601
_cell_length_c 28.894036
_cell_angle_alpha 90.000000
_cell_angle_beta 50.619383
_cell_angle_gamma 90.000000
_cell_volume 3277.650082
_symmetry_space_group_name_H-M "C 2/M"
_symmetry_group_IT_number 12
_symmetry_cell_setting 'monoclinic'
loop_
_space_group_symop_operation_xyz
x,y,z
-x,y,-z
-x,-y,-z
x,-y,z
1/2+x,1/2+y,z
1/2-x,1/2+y,-z
1/2-x,1/2-y,-z
1/2+x,1/2-y,z
loop_
_atom_site_type_symbol
_atom_site_label
_atom_site_fract_x
_atom_site_fract_y
_atom_site_fract_z
Si Si1 0.029886 0.709329 0.538512
Si Si2 0.334248 0.337719 0.728394
Si Si3 0.719187 0.164767 0.943463
Si Si4 0.577651 0.667249 0.064372
Si Si5 0.470108 0.846150 0.362690
Si Si6 0.352189 0.833691 0.135363
Si Si7 0.757957 0.830135 0.425822
Si Si8 0.181946 0.154313 0.371948
O O1 0.996267 0.618795 0.595566
O O2 0.161285 0.739925 0.490832
O O3 0.000000 0.628752 0.500000
O O4 0.950069 0.847802 0.570767
O O5 0.372860 0.500000 0.726087
O O6 0.435870 0.229064 0.700392
O O7 0.237422 0.289932 0.795706
O O8 0.290869 0.325001 0.691167
O O9 0.845775 0.192848 0.916347
O O10 0.702618 0.202249 0.895351
O O11 0.687332 0.000000 0.964469
O O12 0.636932 0.266601 0.999399
O O13 0.558936 0.500000 0.062028
O O14 0.459924 0.742265 0.110450
O O15 0.372089 0.734511 0.403148
O O16 0.441286 0.000000 0.349514
O O17 0.384304 0.000000 0.127363
O O18 0.742810 0.782090 0.377743
O O19 0.758546 0.000000 0.430383
O O20 0.227542 0.000000 0.372456
#
# Coordination Sequence:
#
# PCOD8098188 Si02
#       8
#     8   8   8   8   8   8   8   8
#     4   9  20  34  54  79 104 133 171 216 270 330
#     4   9  20  39  58  76 105 142 182 225 271 327
#     4   9  19  36  57  83 118 155 190 227 278 340
#     4  10  20  34  55  87 122 150 187 238 282 324
#     4  11  22  36  55  77 106 139 175 223 272 323
#     4  10  20  37  60  82 111 155 196 229 278 340
#     4  11  22  35  53  78 106 137 174 219 272 332
#     4   9  19  36  56  77 104 137 175 221 273 327
#
# _framework density 19.526185000000002
#
# number of rings (size 3 to 8) (size 9 to 14) (size 15 to 20)
#    0.000    2.250    0.000    2.250    0.000   13.250 
#    2.250    0.000    0.000    0.000    0.000    0.000 
#    0.000    0.000    0.000    0.000    0.000    0.000 
#
# Total GULP energy -396440.803936 kJ/mol
# GULP energy per Si atom -12388.775123 kJ/mol
# Density = 1.948174 g / cm^3
# Si number density = 19.526185 Si / 1000 Ang^3
#
#
#
# Elastic Constant Matrix: (Units=GPa)
#
#
# Indices 1 2 3 4 5 6 
#
# 1 91.2740 50.9760 67.9086 0.0000 -11.8622 0.0001
# 2 50.9760 97.0964 62.0485 0.0000 -7.3410 0.0002
# 3 67.9086 62.0485 146.5263 0.0000 -9.5148 0.0000
# 4 0.0000 0.0000 0.0000 7.2028 0.0000 -4.7006
# 5 -11.8622 -7.3410 -9.5148 0.0000 24.0754 0.0000
# 6 0.0001 0.0002 0.0000 -4.7006 0.0000 28.4907
#
#
#
# Elastic Compliance Matrix: (Units=1/GPa)
#
#
# Indices 1 2 3 4 5 6 
#
# 1 0.019583 -0.005892 -0.006231 0.000000 0.005390 0.000000
# 2 -0.005892 0.015987 -0.004014 0.000000 0.000385 0.000000
# 3 -0.006231 -0.004014 0.011427 0.000000 0.000222 0.000000
# 4 0.000000 0.000000 0.000000 0.155587 0.000000 0.025670
# 5 0.005390 0.000385 0.000222 0.000000 0.044397 0.000000
# 6 0.000000 0.000000 0.000000 0.025670 0.000000 0.039334
#
#
# Mechanical properties :
#
#
# Convention : Reuss Voigt Hill
#
# Bulk Modulus (GPa) = 67.92308 77.41811 72.67059
# Shear Modulus (GPa) = 15.45615 22.21802 18.83709
#
# Velocity S-wave (km/s) = 2.81652 3.37687 3.10935
# Velocity P-wave (km/s) = 6.74079 7.41207 7.08438
#
# Compressibility (1/GPa) = 0.01472254
#
# Stress axis : x y z
#
# Youngs Moduli (GPa) = 51.06523 62.55254 87.51442
#
# Poissons Ratio (x) = 0.36855 0.54529
# Poissons Ratio (y) = 0.30087 0.35129
# Poissons Ratio (z) = 0.31818 0.25109
#
# Static dielectric constant tensor:
#      x y z
#    x 3.677620 0.000000 0.035880 
#    y 0.000000 3.525570 0.000000 
#    z 0.035880 0.000000 3.456550 
# 
# 
# High freq. dielectric constant tensor:
#      x y z
#    x 1.761110 0.000000 0.001890 
#    y 0.000000 1.758080 0.000000 
#    z 0.001890 0.000000 1.746070 
# 
# From -- ./inp_files/378151.got.cif
#   From: 2010.06.25/outbox.cif.g09.slc.cpg/sg12_190_cif.got.tgz:378151.got - 2010.06.28 00:19:55.
