data_PCOD8098093
_publ_section_title
;
Structure prediction by ZEFSAII (Michael W. Deem and Ramdas Pophale) SiO2 
 PCOD8098093
Probable space group: C 2/M
;
_chemical_formula_sum "Si O2"
_cell_formula_units_Z 56
_cell_length_a 22.892089
_cell_length_b 8.660607
_cell_length_c 15.117370
_cell_angle_alpha 90.000000
_cell_angle_beta 92.689059
_cell_angle_gamma 90.000000
_cell_volume 2993.860181
_symmetry_space_group_name_H-M "C 2/M"
_symmetry_group_IT_number 12
_symmetry_cell_setting 'monoclinic'
loop_
_space_group_symop_operation_xyz
x,y,z
-x,y,-z
-x,-y,-z
x,-y,z
1/2+x,1/2+y,z
1/2-x,1/2+y,-z
1/2-x,1/2-y,-z
1/2+x,1/2-y,z
loop_
_atom_site_type_symbol
_atom_site_label
_atom_site_fract_x
_atom_site_fract_y
_atom_site_fract_z
Si Si1 0.067128 0.819887 0.013684
Si Si2 0.622556 0.824036 0.850720
Si Si3 0.930716 0.326885 0.488685
Si Si4 0.945114 0.179616 0.311926
Si Si5 0.635131 0.181044 0.173153
Si Si6 0.253128 0.321225 0.903223
Si Si7 0.078982 0.819501 0.332783
O O1 0.105178 0.721607 0.948415
O O2 0.077085 0.000000 0.996250
O O3 0.087809 0.775334 0.112769
O O4 0.000000 0.773478 0.000000
O O5 0.589492 0.714748 0.779867
O O6 0.692003 0.803129 0.847561
O O7 0.603984 0.000000 0.831064
O O8 0.906519 0.500000 0.497192
O O9 0.912541 0.263378 0.391170
O O10 0.904176 0.222050 0.564980
O O11 0.000000 0.320852 0.500000
O O12 0.012438 0.232949 0.306690
O O13 0.943417 0.000000 0.332448
O O14 0.700379 0.230589 0.152575
O O15 0.622784 0.223872 0.273819
O O16 0.627420 0.000000 0.156553
O O17 0.271368 0.500000 0.913567
O O18 0.250000 0.250000 0.000000
O O19 0.088301 0.000000 0.317348
#
# Coordination Sequence:
#
# PCOD8098093 Si02
#       7
#     8   8   8   8   8   8   8
#     4  11  23  37  54  78 110 146 180 221 276 332
#     4  11  23  37  56  81 108 142 184 230 276 326
#     4   9  17  31  53  81 113 147 183 225 271 324
#     4  10  20  34  55  83 115 150 184 222 274 331
#     4  12  24  37  56  81 109 145 186 230 277 327
#     4  11  23  40  60  80 105 142 189 235 279 327
#     4  10  20  35  55  82 115 149 185 225 273 330
#
# _framework density 18.70495
#
# number of rings (size 3 to 8) (size 9 to 14) (size 15 to 20)
#    0.000    1.429    1.429    4.714    0.000    9.714 
#    0.000    0.000    0.000    0.857    0.000    0.000 
#    0.000    0.000    0.000    0.000    0.000    0.000 
#
# Total GULP energy -347342.437533 kJ/mol
# GULP energy per Si atom -12405.087055 kJ/mol
# Density = 1.866238 g / cm^3
# Si number density = 18.704950 Si / 1000 Ang^3
#
#
#
# Elastic Constant Matrix: (Units=GPa)
#
#
# Indices 1 2 3 4 5 6 
#
# 1 70.1262 35.1572 20.7693 0.0000 -20.4828 0.0000
# 2 35.1572 74.1949 20.9690 0.0000 -6.7751 0.0000
# 3 20.7693 20.9690 90.2952 0.0000 -21.4850 0.0000
# 4 0.0000 0.0000 0.0000 38.9945 0.0000 -1.4913
# 5 -20.4828 -6.7751 -21.4850 0.0000 20.4200 0.0000
# 6 0.0000 0.0000 0.0000 -1.4913 0.0000 25.8014
#
#
#
# Elastic Compliance Matrix: (Units=1/GPa)
#
#
# Indices 1 2 3 4 5 6 
#
# 1 0.026454 -0.010916 0.002538 0.000000 0.025583 0.000000
# 2 -0.010916 0.018973 -0.004005 0.000000 -0.008869 0.000000
# 3 0.002538 -0.004005 0.015622 0.000000 0.017653 0.000000
# 4 0.000000 0.000000 0.000000 0.025701 0.000000 0.001486
# 5 0.025583 -0.008869 0.017653 0.000000 0.090264 0.000000
# 6 0.000000 0.000000 0.000000 0.001486 0.000000 0.038843
#
#
# Mechanical properties :
#
#
# Convention : Reuss Voigt Hill
#
# Bulk Modulus (GPa) = 27.56340 43.15639 35.35989
# Shear Modulus (GPa) = 19.78485 27.55789 23.67137
#
# Velocity S-wave (km/s) = 3.25581 3.84252 3.56127
# Velocity P-wave (km/s) = 5.37602 6.54285 5.98792
#
# Compressibility (1/GPa) = 0.03628000
#
# Stress axis : x y z
#
# Youngs Moduli (GPa) = 37.80201 52.70720 64.01390
#
# Poissons Ratio (x) = 0.57536 -0.16244
# Poissons Ratio (y) = 0.41265 0.25641
# Poissons Ratio (z) = -0.09592 0.21112
#
# Static dielectric constant tensor:
#      x y z
#    x 3.309050 0.000000 -0.096060 
#    y 0.000000 3.529260 0.000000 
#    z -0.096060 0.000000 3.450370 
# 
# 
# High freq. dielectric constant tensor:
#      x y z
#    x 1.699950 0.000000 -0.008550 
#    y 0.000000 1.742700 0.000000 
#    z -0.008550 0.000000 1.729110 
# 
# From -- ./inp_files/230890.got.cif
#   From: 2010.06.25/outbox.cif.g09.slc.cpg/sg12_116_cif.got.tgz:230890.got - 2010.06.28 00:19:55.
