data_PCOD8098411
_publ_section_title
;
Structure prediction by ZEFSAII (Michael W. Deem and Ramdas Pophale) SiO2 
 PCOD8098411
Probable space group: C 2/M
;
_chemical_formula_sum "Si O2"
_cell_formula_units_Z 48
_cell_length_a 27.491619
_cell_length_b 14.920824
_cell_length_c 5.963681
_cell_angle_alpha 90.000000
_cell_angle_beta 95.261323
_cell_angle_gamma 90.000000
_cell_volume 2435.981047
_symmetry_space_group_name_H-M "C 2/M"
_symmetry_group_IT_number 12
_symmetry_cell_setting 'monoclinic'
loop_
_space_group_symop_operation_xyz
x,y,z
-x,y,-z
-x,-y,-z
x,-y,z
1/2+x,1/2+y,z
1/2-x,1/2+y,-z
1/2-x,1/2-y,-z
1/2+x,1/2-y,z
loop_
_atom_site_type_symbol
_atom_site_label
_atom_site_fract_x
_atom_site_fract_y
_atom_site_fract_z
Si Si1 0.048472 0.102392 0.377527
Si Si2 0.142895 0.680917 0.321834
Si Si3 0.205238 0.186891 0.055200
Si Si4 0.121902 0.204214 0.695825
Si Si5 0.447165 0.757510 0.951266
Si Si6 0.801386 0.500000 0.690531
Si Si7 0.250122 0.000000 0.170134
O O1 0.098460 0.129431 0.525704
O O2 0.044316 0.159909 0.152169
O O3 0.000000 0.119584 0.500000
O O4 0.053405 0.000000 0.305893
O O5 0.173865 0.759164 0.220137
O O6 0.142514 0.706855 0.581850
O O7 0.086907 0.679362 0.214432
O O8 0.164998 0.585774 0.283880
O O9 0.220669 0.092682 0.170434
O O10 0.250000 0.250000 0.000000
O O11 0.168722 0.161550 0.837499
O O12 0.078165 0.242334 0.824115
O O13 0.500000 0.805001 0.000000
O O14 0.776948 0.500000 0.428879
O O15 0.773715 0.500000 0.923815
#
# Coordination Sequence:
#
# PCOD8098411 Si02
#       7
#     8   8   8   8   8   4   4
#     4  10  20  34  56  89 125 170 218 269 324 399
#     4  10  24  42  68  95 130 173 221 281 336 402
#     4  11  23  43  64  95 130 174 221 272 338 395
#     4  10  22  39  61  87 131 172 215 278 326 398
#     4  10  20  39  62  90 126 172 220 269 338 394
#     4  12  26  48  71 101 129 175 231 281 346 404
#     4  12  28  42  74  98 136 183 223 280 334 410
#
# _framework density 19.704588999999999
#
# number of rings (size 3 to 8) (size 9 to 14) (size 15 to 20)
#    0.000    1.500    3.333    1.000    5.833    2.333 
#   12.000    0.417    0.000    1.000    0.000    0.000 
#    0.000    0.000    0.000    0.000    0.000    0.000 
#
# Total GULP energy -297317.312750 kJ/mol
# GULP energy per Si atom -12388.221365 kJ/mol
# Density = 1.965974 g / cm^3
# Si number density = 19.704589 Si / 1000 Ang^3
#
#
#
# Elastic Constant Matrix: (Units=GPa)
#
#
# Indices 1 2 3 4 5 6 
#
# 1 127.4993 46.3525 42.2293 0.0000 14.6900 0.0000
# 2 46.3525 127.0514 33.0012 0.0000 7.6113 0.0000
# 3 42.2293 33.0012 111.0457 0.0000 -0.0297 0.0000
# 4 0.0000 0.0000 0.0000 27.4042 0.0000 -11.7905
# 5 14.6900 7.6113 -0.0297 0.0000 33.7601 0.0000
# 6 0.0000 0.0000 0.0000 -11.7905 0.0000 34.5070
#
#
#
# Elastic Compliance Matrix: (Units=1/GPa)
#
#
# Indices 1 2 3 4 5 6 
#
# 1 0.010310 -0.002721 -0.003113 0.000000 -0.003876 0.000000
# 2 -0.002721 0.009374 -0.001752 0.000000 -0.000931 0.000000
# 3 -0.003113 -0.001752 0.010710 0.000000 0.001759 0.000000
# 4 0.000000 0.000000 0.000000 0.042780 0.000000 0.014617
# 5 -0.003876 -0.000931 0.001759 0.000000 0.031519 0.000000
# 6 0.000000 0.000000 0.000000 0.014617 0.000000 0.033974
#
#
# Mechanical properties :
#
#
# Convention : Reuss Voigt Hill
#
# Bulk Modulus (GPa) = 65.68745 67.64026 66.66386
# Shear Modulus (GPa) = 31.46400 35.40181 33.43290
#
# Velocity S-wave (km/s) = 4.00031 4.24326 4.12358
# Velocity P-wave (km/s) = 7.39900 7.64256 7.52177
#
# Compressibility (1/GPa) = 0.01522361
#
# Stress axis : x y z
#
# Youngs Moduli (GPa) = 96.99399 106.67676 93.36870
#
# Poissons Ratio (x) = 0.29022 0.29068
# Poissons Ratio (y) = 0.26388 0.16354
# Poissons Ratio (z) = 0.30197 0.18684
#
# Static dielectric constant tensor:
#      x y z
#    x 4.086430 0.000000 0.078940 
#    y 0.000000 3.390330 0.000000 
#    z 0.078940 0.000000 3.982190 
# 
# 
# High freq. dielectric constant tensor:
#      x y z
#    x 1.782840 0.000000 0.000800 
#    y 0.000000 1.748760 0.000000 
#    z 0.000800 0.000000 1.784510 
# 
# From -- ./inp_files/28172.got.cif
#   From: 2010.06.25/outbox.cif.g09.slc.cpg/sg12_15_cif.got.tgz:28172.got - 2010.06.28 00:19:55.
