data_PCOD8098177
_publ_section_title
;
Structure prediction by ZEFSAII (Michael W. Deem and Ramdas Pophale) SiO2 
 PCOD8098177
Probable space group: C 2/M
;
_chemical_formula_sum "Si O2"
_cell_formula_units_Z 64
_cell_length_a 15.622593
_cell_length_b 25.003675
_cell_length_c 12.465294
_cell_angle_alpha 90.000000
_cell_angle_beta 140.989750
_cell_angle_gamma 90.000000
_cell_volume 3064.977000
_symmetry_space_group_name_H-M "C 2/M"
_symmetry_group_IT_number 12
_symmetry_cell_setting 'monoclinic'
loop_
_space_group_symop_operation_xyz
x,y,z
-x,y,-z
-x,-y,-z
x,-y,z
1/2+x,1/2+y,z
1/2-x,1/2+y,-z
1/2-x,1/2-y,-z
1/2+x,1/2-y,z
loop_
_atom_site_type_symbol
_atom_site_label
_atom_site_fract_x
_atom_site_fract_y
_atom_site_fract_z
Si Si1 0.145705 0.178330 0.177281
Si Si2 0.267088 0.206382 0.744136
Si Si3 0.357132 0.905921 0.900374
Si Si4 0.909381 0.652699 0.311935
Si Si5 0.876362 0.835467 0.604943
Si Si6 0.523478 0.938166 0.775359
Si Si7 0.276406 0.559966 0.426945
Si Si8 0.382865 0.739840 0.199057
O O1 0.135687 0.242587 0.164909
O O2 0.252161 0.154932 0.195244
O O3 0.189752 0.161976 0.341203
O O4 0.000000 0.154672 0.000000
O O5 0.352044 0.157421 0.875433
O O6 0.213282 0.195223 0.571290
O O7 0.144443 0.219010 0.706687
O O8 0.236573 0.934713 0.715614
O O9 0.500000 0.930034 0.000000
O O10 0.356000 0.920515 0.024851
O O11 0.946573 0.595038 0.301946
O O12 0.948164 0.700759 0.267421
O O13 0.000000 0.665082 0.500000
O O14 0.888378 0.897684 0.578558
O O15 0.020236 0.804896 0.759667
O O16 0.371609 0.924862 0.668870
O O17 0.538106 0.000000 0.760616
O O18 0.322411 0.500000 0.502636
O O19 0.250000 0.750000 0.000000
#
# Coordination Sequence:
#
# PCOD8098177 Si02
#       8
#     8   8   8   8   8   8   8   8
#     4  11  23  38  56  83 119 158 199 245 299 359
#     4  10  20  34  55  86 119 153 191 236 297 364
#     4   9  17  30  54  87 118 146 186 241 297 355
#     4  11  23  39  57  84 118 153 199 250 299 353
#     4  11  21  36  60  84 115 155 198 246 294 355
#     4  10  20  36  59  85 116 157 202 247 296 349
#     4   9  19  35  57  87 118 151 194 247 301 353
#     4  11  22  37  58  84 119 155 190 239 301 368
#
# _framework density 20.881069
#
# number of rings (size 3 to 8) (size 9 to 14) (size 15 to 20)
#    0.000    1.750    0.000    6.000    0.000    4.750 
#    0.000    0.625    0.000   13.500    0.000    0.000 
#    0.000    0.000    0.000    0.000    0.000    0.000 
#
# Total GULP energy -396638.142586 kJ/mol
# GULP energy per Si atom -12394.941956 kJ/mol
# Density = 2.083354 g / cm^3
# Si number density = 20.881069 Si / 1000 Ang^3
#
#
#
# Elastic Constant Matrix: (Units=GPa)
#
#
# Indices 1 2 3 4 5 6 
#
# 1 41.4128 18.8684 16.4543 0.0000 -3.8973 0.0000
# 2 18.8684 125.0835 47.6969 0.0000 1.7545 0.0000
# 3 16.4543 47.6969 78.6385 0.0000 2.0765 0.0000
# 4 0.0000 0.0000 0.0000 28.0177 0.0000 -0.2865
# 5 -3.8973 1.7545 2.0765 0.0000 27.7905 0.0000
# 6 0.0000 0.0000 0.0000 -0.2865 0.0000 27.0645
#
#
#
# Elastic Compliance Matrix: (Units=1/GPa)
#
#
# Indices 1 2 3 4 5 6 
#
# 1 0.027429 -0.002558 -0.004302 0.000000 0.004330 0.000000
# 2 -0.002558 0.010639 -0.005902 0.000000 -0.000589 0.000000
# 3 -0.004302 -0.005902 0.017237 0.000000 -0.001519 0.000000
# 4 0.000000 0.000000 0.000000 0.035696 0.000000 0.000378
# 5 0.004330 -0.000589 -0.001519 0.000000 0.036741 0.000000
# 6 0.000000 0.000000 0.000000 0.000378 0.000000 0.036953
#
#
# Mechanical properties :
#
#
# Convention : Reuss Voigt Hill
#
# Bulk Modulus (GPa) = 33.57891 45.68600 39.63246
# Shear Modulus (GPa) = 24.98163 27.38223 26.18193
#
# Velocity S-wave (km/s) = 3.46262 3.62517 3.54483
# Velocity P-wave (km/s) = 5.66589 6.28086 5.98128
#
# Compressibility (1/GPa) = 0.02978060
#
# Stress axis : x y z
#
# Youngs Moduli (GPa) = 36.45729 93.98950 58.01562
#
# Poissons Ratio (x) = 0.24041 0.24960
# Poissons Ratio (y) = 0.09325 0.34243
# Poissons Ratio (z) = 0.15685 0.55477
#
# Static dielectric constant tensor:
#      x y z
#    x 4.048350 0.000000 -0.205650 
#    y 0.000000 3.735570 0.000000 
#    z -0.205650 0.000000 3.672020 
# 
# 
# High freq. dielectric constant tensor:
#      x y z
#    x 1.796000 0.000000 -0.019450 
#    y 0.000000 1.811200 0.000000 
#    z -0.019450 0.000000 1.815880 
# 
# From -- ./inp_files/149814.got.cif
#   From: 2010.06.25/outbox.cif.g09.slc.cpg/sg12_75_cif.got.tgz:149814.got - 2010.06.28 00:19:55.
