data_PCOD8098249
_publ_section_title
;
Structure prediction by ZEFSAII (Michael W. Deem and Ramdas Pophale) SiO2 
 PCOD8098249
Probable space group: C 2/M
;
_chemical_formula_sum "Si O2"
_cell_formula_units_Z 56
_cell_length_a 19.286252
_cell_length_b 9.110210
_cell_length_c 16.768682
_cell_angle_alpha 90.000000
_cell_angle_beta 95.447115
_cell_angle_gamma 90.000000
_cell_volume 2932.982985
_symmetry_space_group_name_H-M "C 2/M"
_symmetry_group_IT_number 12
_symmetry_cell_setting 'monoclinic'
loop_
_space_group_symop_operation_xyz
x,y,z
-x,y,-z
-x,-y,-z
x,-y,z
1/2+x,1/2+y,z
1/2-x,1/2+y,-z
1/2-x,1/2-y,-z
1/2+x,1/2-y,z
loop_
_atom_site_type_symbol
_atom_site_label
_atom_site_fract_x
_atom_site_fract_y
_atom_site_fract_z
Si Si1 0.135432 0.328512 0.303135
Si Si2 0.683657 0.332591 0.021400
Si Si3 0.228471 0.827210 0.191430
Si Si4 0.677125 0.828805 0.485941
Si Si5 0.562295 0.670225 0.564696
Si Si6 0.005952 0.170834 0.731671
Si Si7 0.632915 0.328941 0.853046
O O1 0.138033 0.500000 0.284796
O O2 0.200600 0.252161 0.267009
O O3 0.141374 0.294735 0.397384
O O4 0.063400 0.263829 0.262603
O O5 0.705428 0.500000 0.020140
O O6 0.671720 0.293234 0.113524
O O7 0.750000 0.250000 0.000000
O O8 0.623773 0.300698 0.948464
O O9 0.304475 0.765344 0.177466
O O10 0.235171 0.000000 0.209113
O O11 0.750000 0.750000 0.500000
O O12 0.628979 0.767046 0.550897
O O13 0.688697 0.000000 0.500614
O O14 0.500000 0.715897 0.500000
O O15 0.581934 0.500000 0.556492
O O16 0.541365 0.709261 0.651843
O O17 0.059927 0.217574 0.806310
O O18 0.985597 0.000000 0.734038
O O19 0.648559 0.500000 0.836590
#
# Coordination Sequence:
#
# PCOD8098249 Si02
#       7
#     8   8   8   8   8   8   8
#     4  11  24  40  56  78 111 147 183 225 274 324
#     4   8  15  30  52  79 109 142 179 222 269 320
#     4  10  20  34  56  83 111 145 185 226 273 324
#     4  11  25  41  59  82 110 144 183 227 273 323
#     4  10  20  37  60  83 110 144 181 221 268 324
#     4  10  21  37  58  82 110 146 183 222 271 327
#     4   9  18  34  57  84 113 143 181 226 272 325
#
# _framework density 19.09319
#
# number of rings (size 3 to 8) (size 9 to 14) (size 15 to 20)
#    0.000    2.143    1.429    1.286    2.000    3.714 
#    0.000    0.714    0.000    4.286    0.000    0.000 
#    0.000    0.000    0.000    0.000    0.000    0.000 
#
# Total GULP energy -347071.753632 kJ/mol
# GULP energy per Si atom -12395.419773 kJ/mol
# Density = 1.904973 g / cm^3
# Si number density = 19.093190 Si / 1000 Ang^3
#
#
#
# Elastic Constant Matrix: (Units=GPa)
#
#
# Indices 1 2 3 4 5 6 
#
# 1 78.9256 37.2393 7.4245 0.0000 8.2677 0.0000
# 2 37.2393 72.4881 21.4307 0.0000 -0.2746 0.0000
# 3 7.4245 21.4307 37.8971 0.0000 13.2850 0.0000
# 4 0.0000 0.0000 0.0000 22.1732 0.0000 -3.1605
# 5 8.2677 -0.2746 13.2850 0.0000 32.6506 0.0000
# 6 0.0000 0.0000 0.0000 -3.1605 0.0000 35.3253
#
#
#
# Elastic Compliance Matrix: (Units=1/GPa)
#
#
# Indices 1 2 3 4 5 6 
#
# 1 0.017942 -0.010671 0.004833 0.000000 -0.006599 0.000000
# 2 -0.010671 0.023528 -0.014266 0.000000 0.008704 0.000000
# 3 0.004833 -0.014266 0.039632 0.000000 -0.017469 0.000000
# 4 0.000000 0.000000 0.000000 0.045682 0.000000 0.004087
# 5 -0.006599 0.008704 -0.017469 0.000000 0.039479 0.000000
# 6 0.000000 0.000000 0.000000 0.004087 0.000000 0.028674
#
#
# Mechanical properties :
#
#
# Convention : Reuss Voigt Hill
#
# Bulk Modulus (GPa) = 24.45387 35.72219 30.08803
# Shear Modulus (GPa) = 20.09841 26.24423 23.17132
#
# Velocity S-wave (km/s) = 3.24797 3.71149 3.48744
# Velocity P-wave (km/s) = 5.18664 6.09236 5.65766
#
# Compressibility (1/GPa) = 0.04089332
#
# Stress axis : x y z
#
# Youngs Moduli (GPa) = 55.73607 42.50263 25.23240
#
# Poissons Ratio (x) = 0.45354 -0.12194
# Poissons Ratio (y) = 0.59476 0.35996
# Poissons Ratio (z) = -0.26936 0.60633
#
# Static dielectric constant tensor:
#      x y z
#    x 3.333590 0.000000 0.210520 
#    y 0.000000 3.471980 0.000000 
#    z 0.210520 0.000000 4.232490 
# 
# 
# High freq. dielectric constant tensor:
#      x y z
#    x 1.723470 0.000000 0.011540 
#    y 0.000000 1.744230 0.000000 
#    z 0.011540 0.000000 1.755740 
# 
# From -- ./inp_files/230934.got.cif
#   From: 2010.06.25/outbox.cif.g09.slc.cpg/sg12_116_cif.got.tgz:230934.got - 2010.06.28 00:19:55.
