data_PCOD8098023
_publ_section_title
;
Structure prediction by ZEFSAII (Michael W. Deem and Ramdas Pophale) SiO2 
 PCOD8098023
Probable space group: C 2/M
;
_chemical_formula_sum "Si O2"
_cell_formula_units_Z 56
_cell_length_a 28.823387
_cell_length_b 18.091476
_cell_length_c 9.204206
_cell_angle_alpha 90.000000
_cell_angle_beta 36.466663
_cell_angle_gamma 90.000000
_cell_volume 2852.668074
_symmetry_space_group_name_H-M "C 2/M"
_symmetry_group_IT_number 12
_symmetry_cell_setting 'monoclinic'
loop_
_space_group_symop_operation_xyz
x,y,z
-x,y,-z
-x,-y,-z
x,-y,z
1/2+x,1/2+y,z
1/2-x,1/2+y,-z
1/2-x,1/2-y,-z
1/2+x,1/2-y,z
loop_
_atom_site_type_symbol
_atom_site_label
_atom_site_fract_x
_atom_site_fract_y
_atom_site_fract_z
Si Si1 0.637389 0.414261 0.792458
Si Si2 0.132073 0.835288 0.512571
Si Si3 0.575260 0.178155 0.719126
Si Si4 0.560207 0.086066 0.470833
Si Si5 0.005795 0.083982 0.654098
Si Si6 0.687126 0.915267 0.638990
Si Si7 0.790143 0.584590 0.090133
O O1 0.637830 0.500000 0.747732
O O2 0.608230 0.370023 0.726163
O O3 0.724286 0.389996 0.620258
O O4 0.578965 0.395597 0.069353
O O5 0.126198 0.747191 0.536862
O O6 0.218620 0.859508 0.246049
O O7 0.071415 0.861594 0.545312
O O8 0.547533 0.130702 0.650752
O O9 0.628844 0.131050 0.689929
O O10 0.500000 0.204388 0.000000
O O11 0.500000 0.114383 0.500000
O O12 0.544799 0.000000 0.543095
O O13 0.647650 0.099525 0.192510
O O14 0.000000 0.096711 0.500000
O O15 0.028470 0.000000 0.637309
O O16 0.670215 0.902044 0.852428
O O17 0.674136 0.000000 0.628370
O O18 0.759084 0.500000 0.161515
#
# Coordination Sequence:
#
# PCOD8098023 Si02
#       7
#     8   8   8   8   8   8   8
#     4   9  18  35  59  82 107 146 191 232 280 335
#     4  11  22  37  56  82 118 153 186 223 274 343
#     4  12  25  37  55  85 118 153 189 228 280 337
#     4  10  22  41  63  84 109 146 192 240 287 334
#     4  10  20  34  55  82 111 146 189 238 283 324
#     4   9  19  37  59  82 107 139 188 244 284 324
#     4   9  19  38  64  88 110 144 189 234 283 337
#
# _framework density 19.630745000000001
#
# number of rings (size 3 to 8) (size 9 to 14) (size 15 to 20)
#    0.000    2.000    0.000    4.714    0.000    8.000 
#    0.000    5.714    0.000    0.000    0.000    0.000 
#    0.000    0.000    0.000    0.000    0.000    0.000 
#
# Total GULP energy -347286.012811 kJ/mol
# GULP energy per Si atom -12403.071886 kJ/mol
# Density = 1.958606 g / cm^3
# Si number density = 19.630745 Si / 1000 Ang^3
#
#
#
# Elastic Constant Matrix: (Units=GPa)
#
#
# Indices 1 2 3 4 5 6 
#
# 1 78.0004 34.5881 21.8991 0.0000 -10.5156 0.0000
# 2 34.5881 75.5693 22.4309 0.0000 -8.0258 0.0000
# 3 21.8991 22.4309 85.6909 0.0000 4.0084 0.0000
# 4 0.0000 0.0000 0.0000 13.7745 0.0000 0.1541
# 5 -10.5156 -8.0258 4.0084 0.0000 25.4357 0.0000
# 6 0.0000 0.0000 0.0000 0.1541 0.0000 -13.3912
#
#
#
# Elastic Compliance Matrix: (Units=1/GPa)
#
#
# Indices 1 2 3 4 5 6 
#
# 1 0.017259 -0.006419 -0.002992 0.000000 0.005581 0.000000
# 2 -0.006419 0.017439 -0.003081 0.000000 0.003335 0.000000
# 3 -0.002992 -0.003081 0.013443 0.000000 -0.004327 0.000000
# 4 0.000000 0.000000 0.000000 0.072589 0.000000 0.000835
# 5 0.005581 0.003335 -0.004327 0.000000 0.043356 0.000000
# 6 0.000000 0.000000 0.000000 0.000835 0.000000 -0.074666
#
#
# Mechanical properties :
#
#
# Convention : Reuss Voigt Hill
#
# Bulk Modulus (GPa) = 43.17850 44.12187 43.65019
# Shear Modulus (GPa) = 40.94267 15.85330 28.39798
#
# Velocity S-wave (km/s) = 4.57184 2.84487 3.80756
# Velocity P-wave (km/s) = 7.06484 5.77198 6.45088
#
# Compressibility (1/GPa) = 0.02315967
#
# Stress axis : x y z
#
# Youngs Moduli (GPa) = 57.94043 57.34179 74.38702
#
# Poissons Ratio (x) = 0.36806 0.22254
# Poissons Ratio (y) = 0.37190 0.22916
# Poissons Ratio (z) = 0.17333 0.17665
#
# Static dielectric constant tensor:
#      x y z
#    x 3.471300 0.000000 -0.043860 
#    y 0.000000 3.460060 0.000000 
#    z -0.043860 0.000000 3.780320 
# 
# 
# High freq. dielectric constant tensor:
#      x y z
#    x 1.764970 0.000000 -0.003910 
#    y 0.000000 1.751370 0.000000 
#    z -0.003910 0.000000 1.773510 
# 
# From -- ./inp_files/105918.got.cif
#   From: 2010.06.25/outbox.cif.g09.slc.cpg/sg12_53_cif.got.tgz:105918.got - 2010.06.28 00:19:55.
