data_PCOD8098244
_publ_section_title
;
Structure prediction by ZEFSAII (Michael W. Deem and Ramdas Pophale) SiO2 
 PCOD8098244
Probable space group: C 2/M
;
_chemical_formula_sum "Si O2"
_cell_formula_units_Z 56
_cell_length_a 18.940455
_cell_length_b 9.088944
_cell_length_c 18.542791
_cell_angle_alpha 90.000000
_cell_angle_beta 116.907360
_cell_angle_gamma 90.000000
_cell_volume 2846.537413
_symmetry_space_group_name_H-M "C 2/M"
_symmetry_group_IT_number 12
_symmetry_cell_setting 'monoclinic'
loop_
_space_group_symop_operation_xyz
x,y,z
-x,y,-z
-x,-y,-z
x,-y,z
1/2+x,1/2+y,z
1/2-x,1/2+y,-z
1/2-x,1/2-y,-z
1/2+x,1/2-y,z
loop_
_atom_site_type_symbol
_atom_site_label
_atom_site_fract_x
_atom_site_fract_y
_atom_site_fract_z
Si Si1 0.835434 0.171681 0.246930
Si Si2 0.101897 0.333805 0.318997
Si Si3 0.180250 0.172137 0.233342
Si Si4 0.935024 0.672614 0.178440
Si Si5 0.583672 0.669874 0.569258
Si Si6 0.011812 0.828917 0.087633
Si Si7 0.822602 0.333201 0.500669
O O1 0.752766 0.241929 0.231963
O O2 0.862526 0.248469 0.185382
O O3 0.903257 0.195491 0.339520
O O4 0.821957 0.000000 0.226134
O O5 0.120086 0.500000 0.301363
O O6 0.164793 0.227919 0.307882
O O7 0.107836 0.320445 0.407921
O O8 0.012994 0.288210 0.259863
O O9 0.101789 0.208568 0.150912
O O10 0.199946 0.000000 0.243987
O O11 0.917184 0.500000 0.165326
O O12 0.947780 0.737371 0.104395
O O13 0.500000 0.729104 0.500000
O O14 0.593488 0.500000 0.552784
O O15 0.652543 0.760046 0.562358
O O16 0.993384 0.000000 0.091439
O O17 0.000000 0.781164 0.000000
O O18 0.799010 0.500000 0.473232
O O19 0.750000 0.250000 0.500000
#
# Coordination Sequence:
#
# PCOD8098244 Si02
#       7
#     8   8   8   8   8   8   8
#     4  11  22  36  54  77 109 145 180 221 269 318
#     4   9  19  35  52  73 103 138 176 220 269 318
#     4  10  20  34  56  83 108 139 178 218 262 315
#     4  10  20  35  57  82 107 137 176 218 259 311
#     4  10  22  38  54  74 103 141 184 229 274 317
#     4   9  19  38  62  86 112 140 171 210 259 316
#     4  11  22  34  50  73 102 137 178 224 272 318
#
# _framework density 19.673024000000002
#
# number of rings (size 3 to 8) (size 9 to 14) (size 15 to 20)
#    0.000    2.000    0.000    3.429    0.000    7.429 
#    0.000    0.714    0.000    0.000    0.000    0.000 
#    0.000    0.000    0.000    0.000    0.000    0.000 
#
# Total GULP energy -347261.737095 kJ/mol
# GULP energy per Si atom -12402.204896 kJ/mol
# Density = 1.962825 g / cm^3
# Si number density = 19.673024 Si / 1000 Ang^3
#
#
#
# Elastic Constant Matrix: (Units=GPa)
#
#
# Indices 1 2 3 4 5 6 
#
# 1 102.2576 58.8774 20.8834 0.0000 -22.3142 0.0000
# 2 58.8774 107.1683 30.4319 0.0000 -19.3882 0.0000
# 3 20.8834 30.4319 65.0151 0.0000 -18.9027 0.0000
# 4 0.0000 0.0000 0.0000 27.1525 0.0000 -5.4232
# 5 -22.3142 -19.3882 -18.9027 0.0000 27.7857 0.0000
# 6 0.0000 0.0000 0.0000 -5.4232 0.0000 38.6142
#
#
#
# Elastic Compliance Matrix: (Units=1/GPa)
#
#
# Indices 1 2 3 4 5 6 
#
# 1 0.015576 -0.007336 0.000722 0.000000 0.007881 0.000000
# 2 -0.007336 0.014827 -0.004099 0.000000 0.001665 0.000000
# 3 0.000722 -0.004099 0.020450 0.000000 0.011631 0.000000
# 4 0.000000 0.000000 0.000000 0.037892 0.000000 0.005322
# 5 0.007881 0.001665 0.011631 0.000000 0.051393 0.000000
# 6 0.000000 0.000000 0.000000 0.005322 0.000000 0.026645
#
#
# Mechanical properties :
#
#
# Convention : Reuss Voigt Hill
#
# Bulk Modulus (GPa) = 33.98481 54.98071 44.48276
# Shear Modulus (GPa) = 25.25023 29.66037 27.45530
#
# Velocity S-wave (km/s) = 3.58648 3.88708 3.73980
# Velocity P-wave (km/s) = 5.87050 6.93929 6.42715
#
# Compressibility (1/GPa) = 0.02942491
#
# Stress axis : x y z
#
# Youngs Moduli (GPa) = 64.20323 67.44407 48.90050
#
# Poissons Ratio (x) = 0.49480 -0.03532
# Poissons Ratio (y) = 0.47103 0.20047
# Poissons Ratio (z) = -0.04637 0.27649
#
# Static dielectric constant tensor:
#      x y z
#    x 3.091950 0.000000 0.009490 
#    y 0.000000 3.614680 0.000000 
#    z 0.009490 0.000000 3.694890 
# 
# 
# High freq. dielectric constant tensor:
#      x y z
#    x 1.763410 0.000000 -0.006490 
#    y 0.000000 1.774010 0.000000 
#    z -0.006490 0.000000 1.755220 
# 
# From -- ./inp_files/275520.got.cif
#   From: 2010.06.25/outbox.cif.g09.slc.cpg/sg12_138_cif.got.tgz:275520.got - 2010.06.28 00:19:55.
