data_PCOD8098688
_publ_section_title
;
Structure prediction by ZEFSAII (Michael W. Deem and Ramdas Pophale) SiO2 
 PCOD8098688
Probable space group: C 2/M
;
_chemical_formula_sum "Si O2"
_cell_formula_units_Z 56
_cell_length_a 20.400465
_cell_length_b 20.113286
_cell_length_c 15.315895
_cell_angle_alpha 90.000000
_cell_angle_beta 154.160852
_cell_angle_gamma 90.000000
_cell_volume 2739.041996
_symmetry_space_group_name_H-M "C 2/M"
_symmetry_group_IT_number 12
_symmetry_cell_setting 'monoclinic'
loop_
_space_group_symop_operation_xyz
x,y,z
-x,y,-z
-x,-y,-z
x,-y,z
1/2+x,1/2+y,z
1/2-x,1/2+y,-z
1/2-x,1/2-y,-z
1/2+x,1/2-y,z
loop_
_atom_site_type_symbol
_atom_site_label
_atom_site_fract_x
_atom_site_fract_y
_atom_site_fract_z
Si Si1 0.941945 0.076055 0.838553
Si Si2 0.832119 0.288371 0.308852
Si Si3 0.577134 0.253375 0.312358
Si Si4 0.860259 0.576029 0.068396
Si Si5 0.596120 0.181185 0.033193
Si Si6 0.642976 0.362720 0.944066
Si Si7 0.130590 0.367938 0.481613
O O1 0.791304 0.115811 0.628661
O O2 0.076191 0.082369 0.930042
O O3 0.894020 0.000000 0.792687
O O4 0.000000 0.105419 0.000000
O O5 0.835503 0.353555 0.376225
O O6 0.000000 0.261798 0.500000
O O7 0.744886 0.222599 0.240629
O O8 0.765004 0.314657 0.136723
O O9 0.750000 0.250000 0.500000
O O10 0.500047 0.238804 0.127609
O O11 0.503390 0.320411 0.262323
O O12 0.545083 0.197058 0.344321
O O13 0.832204 0.500000 0.006275
O O14 0.875128 0.619490 0.997740
O O15 0.007703 0.575934 0.309054
O O16 0.715465 0.601938 0.947880
O O17 0.500000 0.153734 0.000000
#
# Coordination Sequence:
#
# PCOD8098688 Si02
#       7
#     8   8   8   8   8   8   8
#     4  11  22  35  55  86 126 169 209 240 287 372
#     4  11  22  37  63  94 130 155 196 261 321 376
#     4  10  20  34  63  91 121 149 201 262 311 360
#     4  11  25  44  62  87 128 171 210 251 303 374
#     4  10  24  41  64  92 117 160 211 262 322 364
#     4  11  22  38  60  91 127 166 204 248 312 368
#     4  11  21  37  60  91 120 164 201 254 310 363
#
# _framework density 20.445105000000002
#
# number of rings (size 3 to 8) (size 9 to 14) (size 15 to 20)
#    0.000    1.286    4.286    1.714    4.000    2.000 
#    0.000    0.714    0.000    0.429    0.000    0.000 
#    0.000    0.000    0.000    0.000    0.000    0.000 
#
# Total GULP energy -346993.682414 kJ/mol
# GULP energy per Si atom -12392.631515 kJ/mol
# Density = 2.039857 g / cm^3
# Si number density = 20.445105 Si / 1000 Ang^3
#
#
#
# Elastic Constant Matrix: (Units=GPa)
#
#
# Indices 1 2 3 4 5 6 
#
# 1 127.3870 40.3991 32.1935 0.0000 25.4628 0.0000
# 2 40.3991 95.5146 34.7498 0.0000 9.2826 0.0000
# 3 32.1935 34.7498 102.5353 0.0000 28.4369 0.0000
# 4 0.0000 0.0000 0.0000 29.9262 0.0000 2.1388
# 5 25.4628 9.2826 28.4369 0.0000 32.2238 0.0000
# 6 0.0000 0.0000 0.0000 2.1388 0.0000 26.4148
#
#
#
# Elastic Compliance Matrix: (Units=1/GPa)
#
#
# Indices 1 2 3 4 5 6 
#
# 1 0.010472 -0.003718 -0.000040 0.000000 -0.007169 0.000000
# 2 -0.003718 0.013263 -0.004082 0.000000 0.002719 0.000000
# 3 -0.000040 -0.004082 0.014318 0.000000 -0.011428 0.000000
# 4 0.000000 0.000000 0.000000 0.033610 0.000000 -0.002721
# 5 -0.007169 0.002719 -0.011428 0.000000 0.045999 0.000000
# 6 0.000000 0.000000 0.000000 -0.002721 0.000000 0.038078
#
#
# Mechanical properties :
#
#
# Convention : Reuss Voigt Hill
#
# Bulk Modulus (GPa) = 44.69471 60.01350 52.35410
# Shear Modulus (GPa) = 27.95204 32.25259 30.10232
#
# Velocity S-wave (km/s) = 3.70154 3.97611 3.84128
# Velocity P-wave (km/s) = 6.33852 7.10609 6.73325
#
# Compressibility (1/GPa) = 0.02237401
#
# Stress axis : x y z
#
# Youngs Moduli (GPa) = 95.49011 75.39788 69.84237
#
# Poissons Ratio (x) = 0.28035 0.00277
# Poissons Ratio (y) = 0.35505 0.28507
# Poissons Ratio (z) = 0.00379 0.30775
#
# Static dielectric constant tensor:
#      x y z
#    x 3.750680 0.000000 -0.046530 
#    y 0.000000 5.155620 0.000000 
#    z -0.046530 0.000000 4.046900 
# 
# 
# High freq. dielectric constant tensor:
#      x y z
#    x 1.791400 0.000000 0.018230 
#    y 0.000000 1.782320 0.000000 
#    z 0.018230 0.000000 1.805020 
# 
# From -- ./inp_files/65465.got.cif
#   From: 2010.06.25/outbox.cif.g09.slc.cpg/sg12_33_cif.got.tgz:65465.got - 2010.06.28 00:19:55.
