data_PCOD8098265
_publ_section_title
;
Structure prediction by ZEFSAII (Michael W. Deem and Ramdas Pophale) SiO2 
 PCOD8098265
Probable space group: C 2/M
;
_chemical_formula_sum "Si O2"
_cell_formula_units_Z 64
_cell_length_a 12.230720
_cell_length_b 30.189722
_cell_length_c 14.707160
_cell_angle_alpha 90.000000
_cell_angle_beta 144.194494
_cell_angle_gamma 90.000000
_cell_volume 3177.036902
_symmetry_space_group_name_H-M "C 2/M"
_symmetry_group_IT_number 12
_symmetry_cell_setting 'monoclinic'
loop_
_space_group_symop_operation_xyz
x,y,z
-x,y,-z
-x,-y,-z
x,-y,z
1/2+x,1/2+y,z
1/2-x,1/2+y,-z
1/2-x,1/2-y,-z
1/2+x,1/2-y,z
loop_
_atom_site_type_symbol
_atom_site_label
_atom_site_fract_x
_atom_site_fract_y
_atom_site_fract_z
Si Si1 0.326425 0.368923 0.169687
Si Si2 0.873710 0.590576 0.594771
Si Si3 0.491590 0.551126 0.387693
Si Si4 0.316857 0.208101 0.817262
Si Si5 0.781358 0.194989 0.831434
Si Si6 0.335307 0.047867 0.315779
Si Si7 0.692510 0.371586 0.306375
Si Si8 0.533124 0.158338 0.827669
O O1 0.349602 0.416066 0.237827
O O2 0.324874 0.329910 0.243780
O O3 0.493720 0.359005 0.213401
O O4 0.138812 0.365644 0.983193
O O5 0.698409 0.557783 0.486443
O O6 0.844567 0.623273 0.488900
O O7 0.065585 0.563153 0.711053
O O8 0.897484 0.620484 0.698872
O O9 0.500000 0.562511 0.500000
O O10 0.429949 0.500000 0.330087
O O11 0.216808 0.255743 0.757923
O O12 0.392347 0.196882 0.767066
O O13 0.500000 0.210639 0.000000
O O14 0.732085 0.164932 0.712053
O O15 0.670926 0.179107 0.846143
O O16 0.000000 0.191687 0.000000
O O17 0.500000 0.045105 0.500000
O O18 0.174924 0.081834 0.239340
O O19 0.239769 0.000000 0.237441
#
# Coordination Sequence:
#
# PCOD8098265 Si02
#       8
#     8   8   8   8   8   8   8   8
#     4  10  21  38  61  86 118 148 199 244 293 337
#     4  10  20  35  59  83 121 156 192 236 297 358
#     4  10  21  39  64  87 115 158 200 237 289 357
#     4   9  22  36  58  87 111 154 197 245 289 359
#     4  11  21  35  60  85 118 151 203 240 295 354
#     4   9  17  31  52  79 108 144 189 231 281 345
#     4  10  20  34  56  83 115 155 193 239 291 354
#     4  11  21  37  61  85 119 157 192 248 297 340
#
# _framework density 20.144556000000001
#
# number of rings (size 3 to 8) (size 9 to 14) (size 15 to 20)
#    0.000    2.000    2.500    1.125    1.750    4.500 
#    0.000    1.875    8.250    6.000    0.000    0.000 
#    0.000    0.000    0.000    0.000    0.000    0.000 
#
# Total GULP energy -396630.981111 kJ/mol
# GULP energy per Si atom -12394.718160 kJ/mol
# Density = 2.009871 g / cm^3
# Si number density = 20.144556 Si / 1000 Ang^3
#
#
#
# Elastic Constant Matrix: (Units=GPa)
#
#
# Indices 1 2 3 4 5 6 
#
# 1 117.9861 58.1930 19.1615 0.0000 -11.4245 0.0000
# 2 58.1930 161.2651 41.3900 0.0000 -12.8383 0.0000
# 3 19.1615 41.3900 46.1742 0.0000 -12.6477 0.0000
# 4 0.0000 0.0000 0.0000 22.6611 0.0000 1.2727
# 5 -11.4245 -12.8383 -12.6477 0.0000 28.9539 0.0000
# 6 0.0000 0.0000 0.0000 1.2727 0.0000 34.1666
#
#
#
# Elastic Compliance Matrix: (Units=1/GPa)
#
#
# Indices 1 2 3 4 5 6 
#
# 1 0.010502 -0.003441 -0.000632 0.000000 0.002342 0.000000
# 2 -0.003441 0.009187 -0.006887 0.000000 -0.000293 0.000000
# 3 -0.000632 -0.006887 0.030884 0.000000 0.010187 0.000000
# 4 0.000000 0.000000 0.000000 0.044221 0.000000 -0.001647
# 5 0.002342 -0.000293 0.010187 0.000000 0.039782 0.000000
# 6 0.000000 0.000000 0.000000 -0.001647 0.000000 0.029330
#
#
# Mechanical properties :
#
#
# Convention : Reuss Voigt Hill
#
# Bulk Modulus (GPa) = 34.90198 62.54604 48.72401
# Shear Modulus (GPa) = 25.59148 30.93506 28.26327
#
# Velocity S-wave (km/s) = 3.56812 3.92299 3.74976
# Velocity P-wave (km/s) = 5.85992 7.18581 6.55647
#
# Compressibility (1/GPa) = 0.02865167
#
# Stress axis : x y z
#
# Youngs Moduli (GPa) = 95.21808 108.84843 32.37952
#
# Poissons Ratio (x) = 0.37455 0.02047
# Poissons Ratio (y) = 0.32765 0.22301
# Poissons Ratio (z) = 0.06020 0.74968
#
# Static dielectric constant tensor:
#      x y z
#    x 3.988840 0.000000 -0.114810 
#    y 0.000000 4.013770 0.000000 
#    z -0.114810 0.000000 3.282930 
# 
# 
# High freq. dielectric constant tensor:
#      x y z
#    x 1.806310 0.000000 -0.006950 
#    y 0.000000 1.788600 0.000000 
#    z -0.006950 0.000000 1.746830 
# 
# From -- ./inp_files/209877.got.cif
#   From: 2010.06.25/outbox.cif.g09.slc.cpg/sg12_105_cif.got.tgz:209877.got - 2010.06.28 00:19:55.
