data_PCOD8098993
_publ_section_title
;
Structure prediction by ZEFSAII (Michael W. Deem and Ramdas Pophale) SiO2 
 PCOD8098993
Probable space group: C 2/M
;
_chemical_formula_sum "Si O2"
_cell_formula_units_Z 56
_cell_length_a 28.136433
_cell_length_b 8.622397
_cell_length_c 17.560042
_cell_angle_alpha 90.000000
_cell_angle_beta 136.181115
_cell_angle_gamma 90.000000
_cell_volume 2949.631525
_symmetry_space_group_name_H-M "C 2/M"
_symmetry_group_IT_number 12
_symmetry_cell_setting 'monoclinic'
loop_
_space_group_symop_operation_xyz
x,y,z
-x,y,-z
-x,-y,-z
x,-y,z
1/2+x,1/2+y,z
1/2-x,1/2+y,-z
1/2-x,1/2-y,-z
1/2+x,1/2-y,z
loop_
_atom_site_type_symbol
_atom_site_label
_atom_site_fract_x
_atom_site_fract_y
_atom_site_fract_z
Si Si1 0.657346 0.821589 0.108370
Si Si2 0.069465 0.679855 0.865428
Si Si3 0.325784 0.182225 0.704582
Si Si4 0.674028 0.683155 0.561704
Si Si5 0.199813 0.318604 0.750561
Si Si6 0.180459 0.818007 0.885664
Si Si7 0.914567 0.316136 0.669531
O O1 0.638285 0.775256 0.173141
O O2 0.719242 0.716653 0.149267
O O3 0.683227 0.000000 0.136470
O O4 0.591415 0.797032 0.978925
O O5 0.076252 0.500000 0.849411
O O6 0.116933 0.782747 0.866757
O O7 0.992272 0.742525 0.768672
O O8 0.247470 0.244536 0.614720
O O9 0.368769 0.257712 0.685094
O O10 0.324595 0.000000 0.691095
O O11 0.668463 0.500000 0.549384
O O12 0.665318 0.733581 0.638936
O O13 0.613504 0.759623 0.443571
O O14 0.187535 0.500000 0.727906
O O15 0.163201 0.257513 0.784267
O O16 0.190324 0.000000 0.887433
O O17 0.250000 0.750000 0.000000
O O18 0.912658 0.500000 0.671109
#
# Coordination Sequence:
#
# PCOD8098993 Si02
#       7
#     8   8   8   8   8   8   8
#     4   9  17  32  53  80 114 148 184 227 275 330
#     4  10  21  35  54  81 116 152 186 227 277 331
#     4   8  16  31  54  82 110 145 191 235 275 321
#     4  10  20  36  57  81 111 148 190 234 278 327
#     4  11  21  35  58  86 111 140 181 232 282 328
#     4  12  23  37  59  85 113 144 182 225 273 331
#     4  10  20  35  54  80 114 152 192 232 274 325
#
# _framework density 18.985422
#
# number of rings (size 3 to 8) (size 9 to 14) (size 15 to 20)
#    0.000    2.000    1.429    4.286    0.000    1.143 
#    0.000    6.429    0.000    4.286    0.000    6.000 
#    0.000    0.000    0.000    0.000    0.000    0.000 
#
# Total GULP energy -347232.163214 kJ/mol
# GULP energy per Si atom -12401.148686 kJ/mol
# Density = 1.894221 g / cm^3
# Si number density = 18.985422 Si / 1000 Ang^3
#
#
#
# Elastic Constant Matrix: (Units=GPa)
#
#
# Indices 1 2 3 4 5 6 
#
# 1 79.6667 18.1651 54.4471 0.0000 -11.5971 0.0000
# 2 18.1651 24.7624 9.0253 0.0000 10.0756 0.0000
# 3 54.4471 9.0253 141.7191 0.0000 -3.0819 0.0000
# 4 0.0000 0.0000 0.0000 26.2134 0.0000 -2.6469
# 5 -11.5971 10.0756 -3.0819 0.0000 24.1449 0.0000
# 6 0.0000 0.0000 0.0000 -2.6469 0.0000 23.4881
#
#
#
# Elastic Compliance Matrix: (Units=1/GPa)
#
#
# Indices 1 2 3 4 5 6 
#
# 1 0.027973 -0.027033 -0.008512 0.000000 0.023630 0.000000
# 2 -0.027033 0.076616 0.004542 0.000000 -0.044376 0.000000
# 3 -0.008512 0.004542 0.009935 0.000000 -0.004715 0.000000
# 4 0.000000 0.000000 0.000000 0.038587 0.000000 0.004348
# 5 0.023630 -0.044376 -0.004715 0.000000 0.070683 0.000000
# 6 0.000000 0.000000 0.000000 0.004348 0.000000 0.043065
#
#
# Mechanical properties :
#
#
# Convention : Reuss Voigt Hill
#
# Bulk Modulus (GPa) = 19.04136 45.49147 32.26641
# Shear Modulus (GPa) = 14.43540 25.73666 20.08603
#
# Velocity S-wave (km/s) = 2.76042 3.68584 3.25618
# Velocity P-wave (km/s) = 4.49568 6.49055 5.58293
#
# Compressibility (1/GPa) = 0.05251726
#
# Stress axis : x y z
#
# Youngs Moduli (GPa) = 35.74841 13.05212 100.65922
#
# Poissons Ratio (x) = 0.35284 0.85677
# Poissons Ratio (y) = 0.96640 -0.45716
# Poissons Ratio (z) = 0.30428 -0.05928
#
# Static dielectric constant tensor:
#      x y z
#    x 3.635680 0.000000 -0.153230 
#    y 0.000000 3.280520 0.000000 
#    z -0.153230 0.000000 3.542710 
# 
# 
# High freq. dielectric constant tensor:
#      x y z
#    x 1.732440 0.000000 -0.020610 
#    y 0.000000 1.722820 0.000000 
#    z -0.020610 0.000000 1.736840 
# 
# From -- ./inp_files/288482.got.cif
#   From: 2010.06.25/outbox.cif.g09.slc.cpg/sg12_145_cif.got.tgz:288482.got - 2010.06.28 00:19:55.
