data_PCOD8098837
_publ_section_title
;
Structure prediction by ZEFSAII (Michael W. Deem and Ramdas Pophale) SiO2 
 PCOD8098837
Probable space group: C 2/M
;
_chemical_formula_sum "Si O2"
_cell_formula_units_Z 56
_cell_length_a 19.190461
_cell_length_b 27.140717
_cell_length_c 9.412864
_cell_angle_alpha 90.000000
_cell_angle_beta 33.181559
_cell_angle_gamma 90.000000
_cell_volume 2683.175612
_symmetry_space_group_name_H-M "C 2/M"
_symmetry_group_IT_number 12
_symmetry_cell_setting 'monoclinic'
loop_
_space_group_symop_operation_xyz
x,y,z
-x,y,-z
-x,-y,-z
x,-y,z
1/2+x,1/2+y,z
1/2-x,1/2+y,-z
1/2-x,1/2-y,-z
1/2+x,1/2-y,z
loop_
_atom_site_type_symbol
_atom_site_label
_atom_site_fract_x
_atom_site_fract_y
_atom_site_fract_z
Si Si1 0.776881 0.614094 0.722681
Si Si2 0.129770 0.604139 0.134170
Si Si3 0.948146 0.443605 0.240517
Si Si4 0.680870 0.775121 0.320614
Si Si5 0.905856 0.714446 0.851968
Si Si6 0.032961 0.943574 0.099370
Si Si7 0.627547 0.445119 0.368227
O O1 0.762079 0.672378 0.729760
O O2 0.828317 0.589876 0.489465
O O3 0.877531 0.602932 0.680408
O O4 0.640929 0.589999 0.988115
O O5 0.276915 0.597385 0.841958
O O6 0.053607 0.560938 0.184742
O O7 0.080940 0.655695 0.152214
O O8 0.903502 0.500000 0.305503
O O9 0.000000 0.425121 0.000000
O O10 0.641658 0.774479 0.224182
O O11 0.549372 0.763162 0.632418
O O12 0.798576 0.736698 0.142893
O O13 0.904378 0.939351 0.410675
O O14 0.082305 0.000000 0.010934
O O15 0.000000 0.923564 0.000000
O O16 0.500000 0.437154 0.500000
O O17 0.683214 0.500000 0.243065
#
# Coordination Sequence:
#
# PCOD8098837 Si02
#       7
#     8   8   8   8   8   8   8
#     4  11  21  38  62  86 116 155 204 248 299 354
#     4  11  21  37  61  89 118 152 200 252 299 354
#     4  11  25  39  57  86 121 162 201 240 298 362
#     4   9  18  34  57  87 120 151 193 251 303 365
#     4   9  18  34  56  87 121 152 192 248 310 358
#     4  10  22  37  55  81 118 160 199 242 294 358
#     4  10  20  35  53  81 116 149 194 246 297 352
#
# _framework density 20.870792000000002
#
# number of rings (size 3 to 8) (size 9 to 14) (size 15 to 20)
#    0.000    1.857    2.857    1.286    2.000    3.429 
#    2.571    0.000    0.000    1.714    0.000    0.000 
#    0.000    0.000    0.000    0.000    0.000    0.000 
#
# Total GULP energy -347088.472755 kJ/mol
# GULP energy per Si atom -12396.016884 kJ/mol
# Density = 2.082329 g / cm^3
# Si number density = 20.870792 Si / 1000 Ang^3
#
#
#
# Elastic Constant Matrix: (Units=GPa)
#
#
# Indices 1 2 3 4 5 6 
#
# 1 38.3395 13.0018 3.8313 0.0000 10.0649 0.0000
# 2 13.0018 64.2230 37.7556 0.0000 -4.8888 0.0000
# 3 3.8313 37.7556 100.8110 0.0002 -3.5499 -0.0001
# 4 0.0000 0.0000 0.0002 31.0554 -0.0001 -3.1229
# 5 10.0649 -4.8888 -3.5499 -0.0001 33.9965 0.0000
# 6 0.0000 0.0000 -0.0001 -3.1229 0.0000 15.4897
#
#
#
# Elastic Compliance Matrix: (Units=1/GPa)
#
#
# Indices 1 2 3 4 5 6 
#
# 1 0.031339 -0.007968 0.001431 0.000000 -0.010275 0.000000
# 2 -0.007968 0.022143 -0.007824 0.000000 0.004726 0.000000
# 3 0.001431 -0.007824 0.012788 0.000000 -0.000214 0.000000
# 4 0.000000 0.000000 0.000000 0.032867 0.000000 0.006626
# 5 -0.010275 0.004726 -0.000214 0.000000 0.033114 0.000000
# 6 0.000000 0.000000 0.000000 0.006626 0.000000 0.065895
#
#
# Mechanical properties :
#
#
# Convention : Reuss Voigt Hill
#
# Bulk Modulus (GPa) = 26.63184 34.72788 30.67986
# Shear Modulus (GPa) = 20.88701 26.02731 23.45716
#
# Velocity S-wave (km/s) = 3.16694 3.53522 3.35613
# Velocity P-wave (km/s) = 5.11475 5.77402 5.45435
#
# Compressibility (1/GPa) = 0.03754904
#
# Stress axis : x y z
#
# Youngs Moduli (GPa) = 31.90886 45.16076 78.19975
#
# Poissons Ratio (x) = 0.35985 -0.11193
# Poissons Ratio (y) = 0.25426 0.61181
# Poissons Ratio (z) = -0.04567 0.35333
#
# Static dielectric constant tensor:
#      x y z
#    x 3.465770 0.000000 -0.058130 
#    y 0.000000 3.622700 0.000000 
#    z -0.058130 0.000000 4.178960 
# 
# 
# High freq. dielectric constant tensor:
#      x y z
#    x 1.784850 0.000000 -0.013280 
#    y 0.000000 1.796290 0.000000 
#    z -0.013280 0.000000 1.831840 
# 
# From -- ./inp_files/80436.got.cif
#   From: 2010.06.25/outbox.cif.g09.slc.cpg/sg12_41_cif.got.tgz:80436.got - 2010.06.28 00:19:55.
