data_PCOD8098508
_publ_section_title
;
Structure prediction by ZEFSAII (Michael W. Deem and Ramdas Pophale) SiO2 
 PCOD8098508
Probable space group: C 2/M
;
_chemical_formula_sum "Si O2"
_cell_formula_units_Z 56
_cell_length_a 14.758261
_cell_length_b 9.020846
_cell_length_c 26.297114
_cell_angle_alpha 90.000000
_cell_angle_beta 55.233359
_cell_angle_gamma 90.000000
_cell_volume 2875.995845
_symmetry_space_group_name_H-M "C 2/M"
_symmetry_group_IT_number 12
_symmetry_cell_setting 'monoclinic'
loop_
_space_group_symop_operation_xyz
x,y,z
-x,y,-z
-x,-y,-z
x,-y,z
1/2+x,1/2+y,z
1/2-x,1/2+y,-z
1/2-x,1/2-y,-z
1/2+x,1/2-y,z
loop_
_atom_site_type_symbol
_atom_site_label
_atom_site_fract_x
_atom_site_fract_y
_atom_site_fract_z
Si Si1 0.312709 0.173167 0.208195
Si Si2 0.253405 0.175268 0.874647
Si Si3 0.276589 0.173889 0.568936
Si Si4 0.150481 0.831211 0.007021
Si Si5 0.165427 0.171106 0.350888
Si Si6 0.964106 0.174599 0.859044
Si Si7 0.916080 0.826726 0.444021
O O1 0.273847 0.247584 0.168997
O O2 0.216823 0.201459 0.279508
O O3 0.422543 0.250680 0.194671
O O4 0.335257 0.000000 0.192092
O O5 0.149185 0.206785 0.946969
O O6 0.364777 0.246120 0.861386
O O7 0.270349 0.000000 0.860669
O O8 0.268502 0.235540 0.628419
O O9 0.164078 0.219613 0.576433
O O10 0.381625 0.243526 0.506565
O O11 0.293299 0.000000 0.565405
O O12 0.183352 0.000000 0.001957
O O13 0.250000 0.750000 0.000000
O O14 0.043344 0.799430 0.076569
O O15 0.038416 0.222409 0.389131
O O16 0.175254 0.000000 0.363111
O O17 0.964314 0.000000 0.845617
O O18 0.908038 0.000000 0.458130
#
# Coordination Sequence:
#
# PCOD8098508 Si02
#       7
#     8   8   8   8   8   8   8
#     4  11  24  39  54  79 112 150 195 233 272 327
#     4  10  20  37  59  83 111 143 182 232 284 334
#     4  10  20  34  57  88 113 135 173 223 270 318
#     4   8  16  31  54  81 107 137 177 225 280 337
#     4  10  22  39  56  75 107 149 186 220 263 318
#     4  10  20  37  59  82 110 145 183 229 284 338
#     4   9  19  37  58  80 109 144 176 212 266 324
#
# _framework density 19.471516999999999
#
# number of rings (size 3 to 8) (size 9 to 14) (size 15 to 20)
#    0.000    2.286    0.000    2.143    0.000    6.857 
#    0.000    4.286    0.000    0.000    0.000    0.000 
#    0.000    0.000    0.000    0.000    0.000    0.000 
#
# Total GULP energy -347063.761490 kJ/mol
# GULP energy per Si atom -12395.134339 kJ/mol
# Density = 1.942720 g / cm^3
# Si number density = 19.471517 Si / 1000 Ang^3
#
#
#
# Elastic Constant Matrix: (Units=GPa)
#
#
# Indices 1 2 3 4 5 6 
#
# 1 53.4545 21.2467 24.7888 0.0000 3.9438 0.0000
# 2 21.2467 69.5141 40.1840 0.0000 7.3625 0.0000
# 3 24.7888 40.1840 81.5769 0.0000 2.4144 0.0000
# 4 0.0000 0.0000 0.0000 31.9715 0.0000 4.6991
# 5 3.9438 7.3625 2.4144 0.0000 28.7909 0.0000
# 6 0.0000 0.0000 0.0000 4.6991 0.0000 32.7719
#
#
#
# Elastic Compliance Matrix: (Units=1/GPa)
#
#
# Indices 1 2 3 4 5 6 
#
# 1 0.022664 -0.003909 -0.004911 0.000000 -0.001693 0.000000
# 2 -0.003909 0.021338 -0.009201 0.000000 -0.004150 0.000000
# 3 -0.004911 -0.009201 0.018239 0.000000 0.001496 0.000000
# 4 0.000000 0.000000 0.000000 0.031951 0.000000 -0.004581
# 5 -0.001693 -0.004150 0.001496 0.000000 0.035901 0.000000
# 6 0.000000 0.000000 0.000000 -0.004581 0.000000 0.031171
#
#
# Mechanical properties :
#
#
# Convention : Reuss Voigt Hill
#
# Bulk Modulus (GPa) = 38.16865 41.88716 40.02791
# Shear Modulus (GPa) = 24.26745 26.59526 25.43135
#
# Velocity S-wave (km/s) = 3.53413 3.69976 3.61789
# Velocity P-wave (km/s) = 6.02481 6.30949 6.16879
#
# Compressibility (1/GPa) = 0.02619951
#
# Stress axis : x y z
#
# Youngs Moduli (GPa) = 44.12375 46.86414 54.82882
#
# Poissons Ratio (x) = 0.18317 0.26928
# Poissons Ratio (y) = 0.17246 0.50445
# Poissons Ratio (z) = 0.21671 0.43117
#
# Static dielectric constant tensor:
#      x y z
#    x 3.466090 0.000000 -0.071440 
#    y 0.000000 3.584490 0.000000 
#    z -0.071440 0.000000 3.869790 
# 
# 
# High freq. dielectric constant tensor:
#      x y z
#    x 1.751580 0.000000 0.001250 
#    y 0.000000 1.764660 0.000000 
#    z 0.001250 0.000000 1.762460 
# 
# From -- ./inp_files/309017.got.cif
#   From: 2010.06.25/outbox.cif.g09.slc.cpg/sg12_155_cif.got.tgz:309017.got - 2010.06.28 00:19:55.
