data_PCOD8098849
_publ_section_title
;
Structure prediction by ZEFSAII (Michael W. Deem and Ramdas Pophale) SiO2 
 PCOD8098849
Probable space group: C 2/M
;
_chemical_formula_sum "Si O2"
_cell_formula_units_Z 56
_cell_length_a 20.597838
_cell_length_b 8.971034
_cell_length_c 23.308496
_cell_angle_alpha 90.000000
_cell_angle_beta 129.180905
_cell_angle_gamma 90.000000
_cell_volume 3338.620002
_symmetry_space_group_name_H-M "C 2/M"
_symmetry_group_IT_number 12
_symmetry_cell_setting 'monoclinic'
loop_
_space_group_symop_operation_xyz
x,y,z
-x,y,-z
-x,-y,-z
x,-y,z
1/2+x,1/2+y,z
1/2-x,1/2+y,-z
1/2-x,1/2-y,-z
1/2+x,1/2-y,z
loop_
_atom_site_type_symbol
_atom_site_label
_atom_site_fract_x
_atom_site_fract_y
_atom_site_fract_z
Si Si1 0.818756 0.170448 0.576065
Si Si2 0.928393 0.827805 0.085019
Si Si3 0.361682 0.171959 0.159134
Si Si4 0.467013 0.172105 0.700357
Si Si5 0.142772 0.829035 0.279615
Si Si6 0.102417 0.675765 0.151900
Si Si7 0.322518 0.329216 0.913422
O O1 0.750000 0.250000 0.500000
O O2 0.911276 0.246244 0.619560
O O3 0.793405 0.184715 0.630075
O O4 0.825281 0.000000 0.560171
O O5 0.882047 0.770906 0.115710
O O6 0.010792 0.737068 0.114377
O O7 0.953263 0.000000 0.106828
O O8 0.861584 0.806354 0.997333
O O9 0.432848 0.191854 0.248923
O O10 0.274348 0.221266 0.138244
O O11 0.358274 0.000000 0.137151
O O12 0.444088 0.249775 0.748675
O O13 0.440052 0.000000 0.685947
O O14 0.169063 0.743158 0.236131
O O15 0.125803 0.000000 0.254978
O O16 0.102583 0.500000 0.156444
O O17 0.129835 0.723655 0.104195
O O18 0.331003 0.500000 0.897407
#
# Coordination Sequence:
#
# PCOD8098849 Si02
#       7
#     8   8   8   8   8   8   8
#     4   9  17  27  45  74 106 134 162 201 246 290
#     4  11  21  34  54  73  96 131 169 215 264 309
#     4  10  20  35  54  74 100 133 169 211 255 305
#     4   9  16  28  48  73 100 130 162 197 242 296
#     4   9  18  31  49  72  98 131 164 197 245 296
#     4  12  23  35  52  73  98 132 173 216 258 304
#     4  10  23  38  50  71 101 133 170 213 262 307
#
# _framework density 16.773396000000002
#
# number of rings (size 3 to 8) (size 9 to 14) (size 15 to 20)
#    0.857    1.143    1.429    3.429    0.000    4.000 
#    0.000    0.000    0.000    0.000    0.000    1.000 
#    0.000    8.000    0.000    0.000    0.000    0.000 
#
# Total GULP energy -346905.191987 kJ/mol
# GULP energy per Si atom -12389.471142 kJ/mol
# Density = 1.673522 g / cm^3
# Si number density = 16.773396 Si / 1000 Ang^3
#
#
#
# Elastic Constant Matrix: (Units=GPa)
#
#
# Indices 1 2 3 4 5 6 
#
# 1 60.6160 36.2309 28.0509 0.0000 12.5180 0.0000
# 2 36.2309 128.6700 43.4928 0.0000 10.2019 0.0000
# 3 28.0509 43.4928 81.1777 0.0000 20.8048 0.0000
# 4 0.0000 0.0000 0.0000 29.2040 0.0000 -3.5794
# 5 12.5180 10.2019 20.8048 0.0000 15.0436 0.0000
# 6 0.0000 0.0000 0.0000 -3.5794 0.0000 22.0307
#
#
#
# Elastic Compliance Matrix: (Units=1/GPa)
#
#
# Indices 1 2 3 4 5 6 
#
# 1 0.022979 -0.004741 -0.002051 0.000000 -0.013070 0.000000
# 2 -0.004741 0.010477 -0.004903 0.000000 0.003621 0.000000
# 3 -0.002051 -0.004903 0.022251 0.000000 -0.025741 0.000000
# 4 0.000000 0.000000 0.000000 0.034938 0.000000 0.005677
# 5 -0.013070 0.003621 -0.025741 0.000000 0.110494 0.000000
# 6 0.000000 0.000000 0.000000 0.005677 0.000000 0.046313
#
#
# Mechanical properties :
#
#
# Convention : Reuss Voigt Hill
#
# Bulk Modulus (GPa) = 30.94217 54.00143 42.47180
# Shear Modulus (GPa) = 17.75479 24.10160 20.92820
#
# Velocity S-wave (km/s) = 3.25700 3.79475 3.53611
# Velocity P-wave (km/s) = 5.71238 7.17390 6.48445
#
# Compressibility (1/GPa) = 0.03231835
#
# Stress axis : x y z
#
# Youngs Moduli (GPa) = 43.51765 95.44702 44.94121
#
# Poissons Ratio (x) = 0.45252 0.09216
# Poissons Ratio (y) = 0.20632 0.22035
# Poissons Ratio (z) = 0.08924 0.46797
#
# Static dielectric constant tensor:
#      x y z
#    x 2.880440 0.000000 0.090160 
#    y 0.000000 3.257840 0.000000 
#    z 0.090160 0.000000 3.205950 
# 
# 
# High freq. dielectric constant tensor:
#      x y z
#    x 1.605990 0.000000 0.010280 
#    y 0.000000 1.662480 0.000000 
#    z 0.010280 0.000000 1.645540 
# 
# From -- ./inp_files/319338.got.cif
#   From: 2010.06.25/outbox.cif.g09.slc.cpg/sg12_160_cif.got.tgz:319338.got - 2010.06.28 00:19:55.
