data_PCOD8098990
_publ_section_title
;
Structure prediction by ZEFSAII (Michael W. Deem and Ramdas Pophale) SiO2 
 PCOD8098990
Probable space group: C 2/M
;
_chemical_formula_sum "Si O2"
_cell_formula_units_Z 56
_cell_length_a 28.104045
_cell_length_b 12.642094
_cell_length_c 9.097473
_cell_angle_alpha 90.000000
_cell_angle_beta 66.798639
_cell_angle_gamma 90.000000
_cell_volume 2970.870117
_symmetry_space_group_name_H-M "C 2/M"
_symmetry_group_IT_number 12
_symmetry_cell_setting 'monoclinic'
loop_
_space_group_symop_operation_xyz
x,y,z
-x,y,-z
-x,-y,-z
x,-y,z
1/2+x,1/2+y,z
1/2-x,1/2+y,-z
1/2-x,1/2-y,-z
1/2+x,1/2-y,z
loop_
_atom_site_type_symbol
_atom_site_label
_atom_site_fract_x
_atom_site_fract_y
_atom_site_fract_z
Si Si1 0.892896 0.622630 0.601696
Si Si2 0.472374 0.288717 0.393982
Si Si3 0.708653 0.121565 0.447075
Si Si4 0.140815 0.621142 0.035768
Si Si5 0.457464 0.779669 0.949205
Si Si6 0.696908 0.748781 0.738340
Si Si7 0.596347 0.623908 0.773914
O O1 0.908976 0.500000 0.587690
O O2 0.943626 0.686844 0.496102
O O3 0.848967 0.646542 0.536290
O O4 0.868803 0.658109 0.786583
O O5 0.500000 0.348498 0.500000
O O6 0.519537 0.250593 0.235653
O O7 0.431320 0.359031 0.351861
O O8 0.711775 0.155373 0.612521
O O9 0.751729 0.180322 0.296115
O O10 0.722273 0.000000 0.416338
O O11 0.159821 0.500000 0.002414
O O12 0.087594 0.634287 0.010389
O O13 0.182074 0.700891 0.913288
O O14 0.500000 0.836159 0.000000
O O15 0.438835 0.672726 0.054200
O O16 0.652705 0.677673 0.714173
O O17 0.602526 0.500000 0.794788
#
# Coordination Sequence:
#
# PCOD8098990 Si02
#       7
#     8   8   8   8   8   8   8
#     4  10  21  36  56  82 114 147 177 218 275 329
#     4  11  20  35  56  80 112 144 185 227 265 319
#     4  10  20  36  59  85 109 140 180 222 277 328
#     4  10  20  35  54  80 113 147 180 219 270 325
#     4   9  20  34  52  78 108 145 181 227 269 316
#     4  10  20  36  59  84 109 142 178 230 271 319
#     4  10  21  38  57  79 107 145 185 226 276 323
#
# _framework density 18.849696999999999
#
# number of rings (size 3 to 8) (size 9 to 14) (size 15 to 20)
#    0.000    2.000    2.857    0.857    0.000    4.571 
#    0.000    0.000    0.000    0.000    0.000    0.000 
#    0.000    0.000    0.000    0.000    0.000    0.000 
#
# Total GULP energy -347131.219817 kJ/mol
# GULP energy per Si atom -12397.543565 kJ/mol
# Density = 1.880679 g / cm^3
# Si number density = 18.849697 Si / 1000 Ang^3
#
#
#
# Elastic Constant Matrix: (Units=GPa)
#
#
# Indices 1 2 3 4 5 6 
#
# 1 32.5904 18.1779 9.6299 0.0000 -1.0312 0.0000
# 2 18.1779 77.2930 33.5847 0.0000 -1.7451 0.0000
# 3 9.6299 33.5847 100.0256 0.0000 0.3688 0.0000
# 4 0.0000 0.0000 0.0000 23.7890 0.0000 -1.1681
# 5 -1.0312 -1.7451 0.3688 0.0000 30.4148 0.0000
# 6 0.0000 0.0000 0.0000 -1.1681 0.0000 23.0870
#
#
#
# Elastic Compliance Matrix: (Units=1/GPa)
#
#
# Indices 1 2 3 4 5 6 
#
# 1 0.035378 -0.007987 -0.000727 0.000000 0.000750 0.000000
# 2 -0.007987 0.016977 -0.004934 0.000000 0.000763 0.000000
# 3 -0.000727 -0.004934 0.011726 0.000000 -0.000450 0.000000
# 4 0.000000 0.000000 0.000000 0.042141 0.000000 0.002132
# 5 0.000750 0.000763 -0.000450 0.000000 0.032953 0.000000
# 6 0.000000 0.000000 0.000000 0.002132 0.000000 0.043422
#
#
# Mechanical properties :
#
#
# Convention : Reuss Voigt Hill
#
# Bulk Modulus (GPa) = 27.18581 36.96599 32.07590
# Shear Modulus (GPa) = 22.50676 25.35928 23.93302
#
# Velocity S-wave (km/s) = 3.45920 3.67187 3.56712
# Velocity P-wave (km/s) = 5.51438 6.13436 5.83261
#
# Compressibility (1/GPa) = 0.03678390
#
# Stress axis : x y z
#
# Youngs Moduli (GPa) = 28.26652 58.90166 85.28213
#
# Poissons Ratio (x) = 0.47047 0.06199
# Poissons Ratio (y) = 0.22578 0.42080
# Poissons Ratio (z) = 0.02055 0.29063
#
# Static dielectric constant tensor:
#      x y z
#    x 3.577010 0.000000 0.009200 
#    y 0.000000 3.188920 0.000000 
#    z 0.009200 0.000000 3.554960 
# 
# 
# High freq. dielectric constant tensor:
#      x y z
#    x 1.736450 0.000000 -0.003990 
#    y 0.000000 1.711950 0.000000 
#    z -0.003990 0.000000 1.739650 
# 
# From -- ./inp_files/103131.got.cif
#   From: 2010.06.25/outbox.cif.g09.slc.cpg/sg12_52_cif.got.tgz:103131.got - 2010.06.28 00:19:55.
