data_PCOD8098388
_publ_section_title
;
Structure prediction by ZEFSAII (Michael W. Deem and Ramdas Pophale) SiO2 
 PCOD8098388
Probable space group: C 2/M
;
_chemical_formula_sum "Si O2"
_cell_formula_units_Z 56
_cell_length_a 18.851977
_cell_length_b 17.813333
_cell_length_c 9.238828
_cell_angle_alpha 90.000000
_cell_angle_beta 63.452212
_cell_angle_gamma 90.000000
_cell_volume 2775.424163
_symmetry_space_group_name_H-M "C 2/M"
_symmetry_group_IT_number 12
_symmetry_cell_setting 'monoclinic'
loop_
_space_group_symop_operation_xyz
x,y,z
-x,y,-z
-x,-y,-z
x,-y,z
1/2+x,1/2+y,z
1/2-x,1/2+y,-z
1/2-x,1/2-y,-z
1/2+x,1/2-y,z
loop_
_atom_site_type_symbol
_atom_site_label
_atom_site_fract_x
_atom_site_fract_y
_atom_site_fract_z
Si Si1 0.370845 0.914608 0.554156
Si Si2 0.082343 0.702343 0.686486
Si Si3 0.208094 0.917292 0.559719
Si Si4 0.353341 0.742067 0.088262
Si Si5 0.906328 0.083770 0.089292
Si Si6 0.807091 0.215433 0.622564
Si Si7 0.089989 0.285775 0.257830
O O1 0.412254 0.885441 0.366254
O O2 0.276384 0.906788 0.618499
O O3 0.398771 0.863587 0.664024
O O4 0.397300 0.000000 0.559443
O O5 0.084730 0.719761 0.854698
O O6 0.162335 0.739144 0.545743
O O7 0.001055 0.733935 0.693484
O O8 0.124586 0.903037 0.717797
O O9 0.216796 0.866817 0.408744
O O10 0.212447 0.000000 0.489651
O O11 0.374273 0.655210 0.028196
O O12 0.266008 0.743562 0.233879
O O13 0.360064 0.791097 0.936575
O O14 0.877405 0.000000 0.061785
O O15 0.000000 0.086164 0.000000
O O16 0.878105 0.216213 0.675045
#
# Coordination Sequence:
#
# PCOD8098388 Si02
#       7
#     8   8   8   8   8   8   8
#     4  10  21  40  63  87 118 161 209 253 303 367
#     4  11  21  38  62  88 118 159 206 250 301 367
#     4  10  20  37  64  90 116 162 213 251 299 367
#     4  12  22  39  61  90 122 162 205 254 298 367
#     4  10  20  34  56  86 120 157 198 247 301 355
#     4  11  21  39  62  86 119 157 206 254 301 358
#     4  11  25  36  58  93 126 156 196 257 315 358
#
# _framework density 20.177097
#
# number of rings (size 3 to 8) (size 9 to 14) (size 15 to 20)
#    0.000    1.286    2.857    5.571    0.000    1.143 
#    0.000    2.143    0.000    4.286    0.000    0.000 
#    0.000    0.000    0.000    0.000    0.000    0.000 
#
# Total GULP energy -346963.134348 kJ/mol
# GULP energy per Si atom -12391.540512 kJ/mol
# Density = 2.013117 g / cm^3
# Si number density = 20.177097 Si / 1000 Ang^3
#
#
#
# Elastic Constant Matrix: (Units=GPa)
#
#
# Indices 1 2 3 4 5 6 
#
# 1 63.2705 26.7598 12.5261 0.0000 1.3253 0.0000
# 2 26.7598 120.1147 38.9733 0.0000 13.3796 0.0000
# 3 12.5261 38.9733 76.7907 0.0000 9.5073 0.0000
# 4 0.0000 0.0000 0.0000 22.9534 0.0000 0.9797
# 5 1.3253 13.3796 9.5073 0.0000 40.5645 0.0000
# 6 0.0000 0.0000 0.0000 0.9797 0.0000 21.0707
#
#
#
# Elastic Compliance Matrix: (Units=1/GPa)
#
#
# Indices 1 2 3 4 5 6 
#
# 1 0.017550 -0.003645 -0.001123 0.000000 0.000892 0.000000
# 2 -0.003645 0.010912 -0.004647 0.000000 -0.002391 0.000000
# 3 -0.001123 -0.004647 0.015829 0.000000 -0.002140 0.000000
# 4 0.000000 0.000000 0.000000 0.043653 0.000000 -0.002030
# 5 0.000892 -0.002391 -0.002140 0.000000 0.025913 0.000000
# 6 0.000000 0.000000 0.000000 -0.002030 0.000000 0.047554
#
#
# Mechanical properties :
#
#
# Convention : Reuss Voigt Hill
#
# Bulk Modulus (GPa) = 39.27718 46.29935 42.78826
# Shear Modulus (GPa) = 26.49299 29.04552 27.76925
#
# Velocity S-wave (km/s) = 3.62750 3.79823 3.71384
# Velocity P-wave (km/s) = 6.08715 6.49859 6.29623
#
# Compressibility (1/GPa) = 0.02546008
#
# Stress axis : x y z
#
# Youngs Moduli (GPa) = 56.97869 91.64544 63.17384
#
# Poissons Ratio (x) = 0.33403 0.07097
# Poissons Ratio (y) = 0.20768 0.29359
# Poissons Ratio (z) = 0.06401 0.42591
#
# Static dielectric constant tensor:
#      x y z
#    x 3.756520 0.000000 -0.101140 
#    y 0.000000 3.917580 0.000000 
#    z -0.101140 0.000000 3.691660 
# 
# 
# High freq. dielectric constant tensor:
#      x y z
#    x 1.793390 0.000000 -0.019150 
#    y 0.000000 1.779390 0.000000 
#    z -0.019150 0.000000 1.774920 
# 
# From -- ./inp_files/75887.got.cif
#   From: 2010.06.25/outbox.cif.g09.slc.cpg/sg12_38_cif.got.tgz:75887.got - 2010.06.28 00:19:55.
