data_PCOD8098936
_publ_section_title
;
Structure prediction by ZEFSAII (Michael W. Deem and Ramdas Pophale) SiO2 
 PCOD8098936
Probable space group: C 2/M
;
_chemical_formula_sum "Si O2"
_cell_formula_units_Z 64
_cell_length_a 29.702394
_cell_length_b 9.053249
_cell_length_c 14.948497
_cell_angle_alpha 90.000000
_cell_angle_beta 120.638733
_cell_angle_gamma 90.000000
_cell_volume 3458.539132
_symmetry_space_group_name_H-M "C 2/M"
_symmetry_group_IT_number 12
_symmetry_cell_setting 'monoclinic'
loop_
_space_group_symop_operation_xyz
x,y,z
-x,y,-z
-x,-y,-z
x,-y,z
1/2+x,1/2+y,z
1/2-x,1/2+y,-z
1/2-x,1/2-y,-z
1/2+x,1/2-y,z
loop_
_atom_site_type_symbol
_atom_site_label
_atom_site_fract_x
_atom_site_fract_y
_atom_site_fract_z
Si Si1 0.670781 0.673278 0.180706
Si Si2 0.702950 0.326508 0.901395
Si Si3 0.890474 0.171603 0.702123
Si Si4 0.640052 0.171500 0.503094
Si Si5 0.115122 0.174410 0.947032
Si Si6 0.505490 0.673883 0.773333
Si Si7 0.219577 0.175012 0.715841
Si Si8 0.978084 0.670447 0.571176
O O1 0.684007 0.500000 0.185197
O O2 0.633112 0.705803 0.225546
O O3 0.723427 0.763316 0.247784
O O4 0.641789 0.737571 0.063651
O O5 0.712485 0.500000 0.918761
O O6 0.648741 0.279116 0.893921
O O7 0.701237 0.275705 0.796442
O O8 0.750000 0.250000 0.000000
O O9 0.859172 0.265311 0.596748
O O10 0.951619 0.219846 0.767895
O O11 0.885495 0.000000 0.670971
O O12 0.681032 0.258099 0.604228
O O13 0.583720 0.198024 0.489815
O O14 0.655462 0.000000 0.515029
O O15 0.055907 0.236620 0.878047
O O16 0.113091 0.000000 0.954805
O O17 0.510310 0.500000 0.768974
O O18 0.507656 0.738481 0.676525
O O19 0.219941 0.000000 0.706233
O O20 0.991931 0.500000 0.599993
O O21 0.000000 0.729908 0.500000
#
# Coordination Sequence:
#
# PCOD8098936 Si02
#       8
#     8   8   8   8   8   8   8   8
#     4  10  20  36  58  79 107 145 182 220 266 320
#     4  10  20  35  54  77 109 144 176 218 266 313
#     4   9  19  36  57  82 108 138 179 227 269 311
#     4  10  21  37  57  78 106 145 180 218 272 324
#     4   9  18  33  54  81 110 140 175 214 262 320
#     4   9  18  33  54  80 109 138 174 218 265 315
#     4  11  23  36  54  82 112 140 179 227 268 315
#     4   9  19  35  52  75 106 139 178 219 260 315
#
# _framework density 18.504922000000001
#
# number of rings (size 3 to 8) (size 9 to 14) (size 15 to 20)
#    0.000    2.375    1.250    0.750    1.750    2.750 
#    0.000    3.750    0.000    0.000    0.000    4.375 
#    0.000    0.000    0.000    0.000    0.000    0.000 
#
# Total GULP energy -396822.839698 kJ/mol
# GULP energy per Si atom -12400.713741 kJ/mol
# Density = 1.846280 g / cm^3
# Si number density = 18.504922 Si / 1000 Ang^3
#
#
#
# Elastic Constant Matrix: (Units=GPa)
#
#
# Indices 1 2 3 4 5 6 
#
# 1 104.2019 32.4386 59.3850 0.0000 -2.9841 0.0000
# 2 32.4386 44.0861 35.1548 0.0000 4.2799 0.0000
# 3 59.3850 35.1548 103.6709 0.0000 19.1021 0.0000
# 4 0.0000 0.0000 0.0000 25.0163 0.0000 -0.3250
# 5 -2.9841 4.2799 19.1021 0.0000 32.9472 0.0000
# 6 0.0000 0.0000 0.0000 -0.3250 0.0000 23.6424
#
#
#
# Elastic Compliance Matrix: (Units=1/GPa)
#
#
# Indices 1 2 3 4 5 6 
#
# 1 0.016770 -0.005901 -0.008986 0.000000 0.007495 0.000000
# 2 -0.005901 0.033326 -0.007864 0.000000 -0.000304 0.000000
# 3 -0.008986 -0.007864 0.019506 0.000000 -0.011101 0.000000
# 4 0.000000 0.000000 0.000000 0.039981 0.000000 0.000550
# 5 0.007495 -0.000304 -0.011101 0.000000 0.037506 0.000000
# 6 0.000000 0.000000 0.000000 0.000550 0.000000 0.042304
#
#
# Mechanical properties :
#
#
# Convention : Reuss Voigt Hill
#
# Bulk Modulus (GPa) = 41.49772 56.21287 48.85529
# Shear Modulus (GPa) = 20.58219 24.65321 22.61770
#
# Velocity S-wave (km/s) = 3.33867 3.65396 3.49987
# Velocity P-wave (km/s) = 6.11033 6.94587 6.54146
#
# Compressibility (1/GPa) = 0.02409771
#
# Stress axis : x y z
#
# Youngs Moduli (GPa) = 59.63156 30.00684 51.26743
#
# Poissons Ratio (x) = 0.17708 0.46069
# Poissons Ratio (y) = 0.35190 0.40319
# Poissons Ratio (z) = 0.53585 0.23598
#
# Static dielectric constant tensor:
#      x y z
#    x 3.619200 0.000000 0.019560 
#    y 0.000000 3.279220 0.000000 
#    z 0.019560 0.000000 3.581260 
# 
# 
# High freq. dielectric constant tensor:
#      x y z
#    x 1.725180 0.000000 0.000940 
#    y 0.000000 1.701700 0.000000 
#    z 0.000940 0.000000 1.723830 
# 
# From -- ./inp_files/249095.got.cif
#   From: 2010.06.25/outbox.cif.g09.slc.cpg/sg12_125_cif.got.tgz:249095.got - 2010.06.28 00:19:55.
