data_PCOD8098865
_publ_section_title
;
Structure prediction by ZEFSAII (Michael W. Deem and Ramdas Pophale) SiO2 
 PCOD8098865
Probable space group: C 2/M
;
_chemical_formula_sum "Si O2"
_cell_formula_units_Z 44
_cell_length_a 16.490031
_cell_length_b 17.628137
_cell_length_c 28.487807
_cell_angle_alpha 90.000000
_cell_angle_beta 161.997457
_cell_angle_gamma 90.000000
_cell_volume 2559.343577
_symmetry_space_group_name_H-M "C 2/M"
_symmetry_group_IT_number 12
_symmetry_cell_setting 'monoclinic'
loop_
_space_group_symop_operation_xyz
x,y,z
-x,y,-z
-x,-y,-z
x,-y,z
1/2+x,1/2+y,z
1/2-x,1/2+y,-z
1/2-x,1/2-y,-z
1/2+x,1/2-y,z
loop_
_atom_site_type_symbol
_atom_site_label
_atom_site_fract_x
_atom_site_fract_y
_atom_site_fract_z
Si Si1 0.952092 0.913389 0.871170
Si Si2 0.000000 0.184498 0.500000
Si Si3 0.508017 0.912232 0.790755
Si Si4 0.766346 0.322123 0.166776
Si Si5 0.013858 0.413893 0.561116
Si Si6 0.241907 0.773566 0.441662
O O1 0.776539 0.856730 0.805513
O O2 0.817365 0.904555 0.745751
O O3 0.923081 0.000000 0.873514
O O4 0.263937 0.892728 0.044584
O O5 0.243041 0.134653 0.652619
O O6 0.061948 0.232632 0.487201
O O7 0.627635 0.891860 0.806037
O O8 0.431263 0.000000 0.750188
O O9 0.949749 0.248421 0.265361
O O10 0.500000 0.288765 0.000000
O O11 0.917879 0.500000 0.514862
O O12 0.804341 0.362930 0.474165
O O13 0.000000 0.387805 0.500000
O O14 0.250000 0.750000 0.500000
#
# Coordination Sequence:
#
# PCOD8098865 Si02
#       6
#     8   4   8   8   8   8
#     4   9  16  29  50  77 103 135 178 214 255 307
#     4  10  21  34  49  78 108 138 176 212 271 324
#     4   9  17  30  49  75 110 139 163 207 264 327
#     4   9  17  29  49  77 105 135 169 212 263 317
#     4  10  20  35  54  75 101 138 184 224 255 297
#     4  11  20  35  54  75 107 137 173 222 266 311
#
# _framework density 17.191908999999999
#
# number of rings (size 3 to 8) (size 9 to 14) (size 15 to 20)
#    0.000    2.364    2.727    0.818    0.000    2.182 
#    0.000    3.636    0.000    0.545    0.000    0.000 
#    0.000    0.000    0.000    0.000    0.000    0.000 
#
# Total GULP energy -272540.683492 kJ/mol
# GULP energy per Si atom -12388.212886 kJ/mol
# Density = 1.715278 g / cm^3
# Si number density = 17.191909 Si / 1000 Ang^3
#
#
#
# Elastic Constant Matrix: (Units=GPa)
#
#
# Indices 1 2 3 4 5 6 
#
# 1 97.3241 36.1652 48.8568 -0.0023 -7.9332 -0.0079
# 2 36.1652 83.6735 50.9782 0.0586 3.0412 -0.0070
# 3 48.8568 50.9782 125.8787 -0.0647 -2.0744 -0.0622
# 4 -0.0023 0.0586 -0.0647 21.2240 -0.0276 0.7998
# 5 -7.9332 3.0412 -2.0744 -0.0276 28.4299 0.0083
# 6 -0.0079 -0.0070 -0.0622 0.7998 0.0083 18.8682
#
#
#
# Elastic Compliance Matrix: (Units=1/GPa)
#
#
# Indices 1 2 3 4 5 6 
#
# 1 0.013937 -0.003870 -0.003776 0.000006 0.004027 -0.000010
# 2 -0.003870 0.017075 -0.005468 -0.000068 -0.003305 -0.000009
# 3 -0.003776 -0.005468 0.011630 0.000049 0.000380 0.000032
# 4 0.000006 -0.000068 0.000049 0.047192 0.000059 -0.002000
# 5 0.004027 -0.003305 0.000380 0.000059 0.036679 -0.000017
# 6 -0.000010 -0.000009 0.000032 -0.002000 -0.000017 0.053084
#
#
# Mechanical properties :
#
#
# Convention : Reuss Voigt Hill
#
# Bulk Modulus (GPa) = 60.91658 64.31963 62.61810
# Shear Modulus (GPa) = 23.66352 25.09616 24.37984
#
# Velocity S-wave (km/s) = 3.71406 3.82483 3.76985
# Velocity P-wave (km/s) = 7.34183 7.54982 7.44655
#
# Compressibility (1/GPa) = 0.01641589
#
# Stress axis : x y z
#
# Youngs Moduli (GPa) = 71.75368 58.56475 85.98340
#
# Poissons Ratio (x) = 0.22663 0.32464
# Poissons Ratio (y) = 0.27767 0.47013
# Poissons Ratio (z) = 0.27092 0.32021
#
# Static dielectric constant tensor:
#      x y z
#    x 3.116050 0.000000 -0.102570 
#    y 0.000000 3.203500 0.000030 
#    z -0.102570 0.000030 3.606530 
# 
# 
# High freq. dielectric constant tensor:
#      x y z
#    x 1.644020 0.000000 -0.015610 
#    y 0.000000 1.657700 -0.000010 
#    z -0.015610 -0.000010 1.672690 
# 
# From -- ./inp_files/157094.got.cif
#   From: 2010.06.25/outbox.cif.g09.slc.cpg/sg12_79_cif.got.tgz:157094.got - 2010.06.28 00:19:55.
