data_PCOD8098176
_publ_section_title
;
Structure prediction by ZEFSAII (Michael W. Deem and Ramdas Pophale) SiO2 
 PCOD8098176
Probable space group: C 2/M
;
_chemical_formula_sum "Si O2"
_cell_formula_units_Z 64
_cell_length_a 19.978463
_cell_length_b 9.079627
_cell_length_c 21.649505
_cell_angle_alpha 90.000000
_cell_angle_beta 119.947316
_cell_angle_gamma 90.000000
_cell_volume 3402.820160
_symmetry_space_group_name_H-M "C 2/M"
_symmetry_group_IT_number 12
_symmetry_cell_setting 'monoclinic'
loop_
_space_group_symop_operation_xyz
x,y,z
-x,y,-z
-x,-y,-z
x,-y,z
1/2+x,1/2+y,z
1/2-x,1/2+y,-z
1/2-x,1/2-y,-z
1/2+x,1/2-y,z
loop_
_atom_site_type_symbol
_atom_site_label
_atom_site_fract_x
_atom_site_fract_y
_atom_site_fract_z
Si Si1 0.917352 0.173870 0.441541
Si Si2 0.803682 0.672611 0.938847
Si Si3 0.379555 0.168937 0.299301
Si Si4 0.361529 0.327803 0.082300
Si Si5 0.796643 0.171076 0.810759
Si Si6 0.732736 0.673327 0.556164
Si Si7 0.971540 0.668971 0.222159
Si Si8 0.149139 0.330259 0.284195
O O1 0.895343 0.230528 0.364635
O O2 0.852612 0.221883 0.461184
O O3 0.000000 0.239928 0.500000
O O4 0.921290 0.000000 0.438439
O O5 0.820161 0.500000 0.944053
O O6 0.714331 0.708055 0.912338
O O7 0.827450 0.743743 0.884874
O O8 0.858017 0.743766 0.015754
O O9 0.294049 0.199538 0.236027
O O10 0.438358 0.217133 0.272970
O O11 0.391241 0.000000 0.324075
O O12 0.369638 0.500000 0.072748
O O13 0.436534 0.271107 0.152818
O O14 0.840033 0.232536 0.771180
O O15 0.816560 0.000000 0.827034
O O16 0.739151 0.500000 0.549014
O O17 0.750000 0.750000 0.500000
O O18 0.794013 0.726348 0.635810
O O19 0.948826 0.500000 0.197294
O O20 0.062703 0.691543 0.268290
O O21 0.167217 0.500000 0.276149
#
# Coordination Sequence:
#
# PCOD8098176 Si02
#       8
#     8   8   8   8   8   8   8   8
#     4  10  22  39  58  83 114 148 187 236 287 334
#     4  10  20  34  57  85 116 154 191 230 284 342
#     4  10  21  36  58  85 112 147 190 236 282 332
#     4  10  20  34  55  86 119 150 188 236 285 332
#     4  11  21  36  59  86 114 147 191 240 283 332
#     4  10  22  39  58  81 112 149 189 230 279 340
#     4  10  21  38  58  83 116 151 190 234 284 341
#     4  10  22  40  60  81 113 155 191 230 284 346
#
# _framework density 18.807929999999999
#
# number of rings (size 3 to 8) (size 9 to 14) (size 15 to 20)
#    0.000    1.875    2.500    1.125    1.750    3.750 
#    0.000    0.625    0.000    3.750    0.000    0.000 
#    0.000    0.000    0.000    0.000    0.000    0.000 
#
# Total GULP energy -396957.507531 kJ/mol
# GULP energy per Si atom -12404.922110 kJ/mol
# Density = 1.876512 g / cm^3
# Si number density = 18.807930 Si / 1000 Ang^3
#
#
#
# Elastic Constant Matrix: (Units=GPa)
#
#
# Indices 1 2 3 4 5 6 
#
# 1 109.3036 40.7037 52.0723 0.0000 -14.5191 0.0000
# 2 40.7037 65.8036 52.3406 0.0000 -8.8337 0.0000
# 3 52.0723 52.3406 116.8912 0.0000 -22.2240 0.0000
# 4 0.0000 0.0000 0.0000 38.0687 0.0000 -5.5364
# 5 -14.5191 -8.8337 -22.2240 0.0000 32.3757 0.0000
# 6 0.0000 0.0000 0.0000 -5.5364 0.0000 26.3761
#
#
#
# Elastic Compliance Matrix: (Units=1/GPa)
#
#
# Indices 1 2 3 4 5 6 
#
# 1 0.012812 -0.005319 -0.002886 0.000000 0.002313 0.000000
# 2 -0.005319 0.025836 -0.009560 0.000000 -0.001898 0.000000
# 3 -0.002886 -0.009560 0.015388 0.000000 0.006660 0.000000
# 4 0.000000 0.000000 0.000000 0.027095 0.000000 0.005687
# 5 0.002313 -0.001898 0.006660 0.000000 0.035979 0.000000
# 6 0.000000 0.000000 0.000000 0.005687 0.000000 0.039107
#
#
# Mechanical properties :
#
#
# Convention : Reuss Voigt Hill
#
# Bulk Modulus (GPa) = 54.03786 64.69242 59.36514
# Shear Modulus (GPa) = 25.26341 29.15622 27.20981
#
# Velocity S-wave (km/s) = 3.66899 3.94154 3.80770
# Velocity P-wave (km/s) = 6.83684 7.42868 7.13890
#
# Compressibility (1/GPa) = 0.01850554
#
# Stress axis : x y z
#
# Youngs Moduli (GPa) = 78.05417 38.70530 64.98742
#
# Poissons Ratio (x) = 0.20587 0.18754
# Poissons Ratio (y) = 0.41516 0.62130
# Poissons Ratio (z) = 0.22525 0.37003
#
# Static dielectric constant tensor:
#      x y z
#    x 3.482280 0.000000 0.083010 
#    y 0.000000 3.428530 0.000000 
#    z 0.083010 0.000000 3.547720 
# 
# 
# High freq. dielectric constant tensor:
#      x y z
#    x 1.726200 0.000000 -0.004710 
#    y 0.000000 1.729840 0.000000 
#    z -0.004710 0.000000 1.736920 
# 
# From -- ./inp_files/320035.got.cif
#   From: 2010.06.25/outbox.cif.g09.slc.cpg/sg12_161_cif.got.tgz:320035.got - 2010.06.28 00:19:55.
