data_PCOD8098465
_publ_section_title
;
Structure prediction by ZEFSAII (Michael W. Deem and Ramdas Pophale) SiO2 
 PCOD8098465
Probable space group: C 2/M
;
_chemical_formula_sum "Si O2"
_cell_formula_units_Z 48
_cell_length_a 20.439491
_cell_length_b 8.981150
_cell_length_c 20.868538
_cell_angle_alpha 90.000000
_cell_angle_beta 41.361396
_cell_angle_gamma 90.000000
_cell_volume 2531.443482
_symmetry_space_group_name_H-M "C 2/M"
_symmetry_group_IT_number 12
_symmetry_cell_setting 'monoclinic'
loop_
_space_group_symop_operation_xyz
x,y,z
-x,y,-z
-x,-y,-z
x,-y,z
1/2+x,1/2+y,z
1/2-x,1/2+y,-z
1/2-x,1/2-y,-z
1/2+x,1/2-y,z
loop_
_atom_site_type_symbol
_atom_site_label
_atom_site_fract_x
_atom_site_fract_y
_atom_site_fract_z
Si Si1 0.401262 0.326438 0.381921
Si Si2 0.533094 0.825514 0.098367
Si Si3 0.824853 0.172282 0.228293
Si Si4 0.298236 0.671629 0.101418
Si Si5 0.749047 0.826601 0.600646
Si Si6 0.587702 0.173698 0.202297
O O1 0.398233 0.500000 0.367142
O O2 0.344766 0.237864 0.368111
O O3 0.350562 0.295261 0.487925
O O4 0.512996 0.266584 0.302231
O O5 0.431695 0.743913 0.158163
O O6 0.571627 0.782680 0.140400
O O7 0.515728 0.000000 0.103849
O O8 0.613319 0.774073 0.987839
O O9 0.784080 0.197676 0.187199
O O10 0.745314 0.248066 0.334471
O O11 0.833695 0.000000 0.239126
O O12 0.324054 0.500000 0.067359
O O13 0.198081 0.721664 0.139911
O O14 0.729165 0.000000 0.624924
O O15 0.569855 0.000000 0.228492
#
# Coordination Sequence:
#
# PCOD8098465 Si02
#       6
#     8   8   8   8   8   8
#     4  10  20  34  57  86 112 143 183 227 277 331
#     4  11  22  36  58  85 110 145 191 236 280 326
#     4  11  22  37  58  83 112 149 190 230 275 329
#     4  10  23  40  56  79 114 153 190 228 274 331
#     4  10  20  35  56  84 114 143 182 230 277 328
#     4  10  21  38  58  82 114 149 186 230 277 328
#
# _framework density 18.961514999999999
#
# number of rings (size 3 to 8) (size 9 to 14) (size 15 to 20)
#    0.000    1.667    1.667    3.000    0.000    6.667 
#    0.000    0.833    0.000    5.000    0.000    0.000 
#    0.000    0.000    0.000    0.000    0.000    0.000 
#
# Total GULP energy -297723.607011 kJ/mol
# GULP energy per Si atom -12405.150292 kJ/mol
# Density = 1.891836 g / cm^3
# Si number density = 18.961515 Si / 1000 Ang^3
#
#
#
# Elastic Constant Matrix: (Units=GPa)
#
#
# Indices 1 2 3 4 5 6 
#
# 1 61.7347 24.1598 9.1305 0.0001 8.9146 -0.0001
# 2 24.1598 85.5196 42.2933 -0.0002 6.4056 0.0006
# 3 9.1305 42.2933 94.6823 0.0001 13.1217 -0.0001
# 4 0.0001 -0.0002 0.0001 39.4247 0.0000 0.8950
# 5 8.9146 6.4056 13.1217 0.0000 14.4548 -0.0001
# 6 -0.0001 0.0006 -0.0001 0.8950 -0.0001 25.7258
#
#
#
# Elastic Compliance Matrix: (Units=1/GPa)
#
#
# Indices 1 2 3 4 5 6 
#
# 1 0.019855 -0.005888 0.002346 0.000000 -0.011765 0.000000
# 2 -0.005888 0.016760 -0.007313 0.000000 0.002842 0.000000
# 3 0.002346 -0.007313 0.015275 0.000000 -0.012072 0.000000
# 4 0.000000 0.000000 0.000000 0.025385 0.000000 -0.000883
# 5 -0.011765 0.002842 -0.012072 0.000000 0.086137 0.000000
# 6 0.000000 0.000000 0.000000 -0.000883 0.000000 0.038902
#
#
# Mechanical properties :
#
#
# Convention : Reuss Voigt Hill
#
# Bulk Modulus (GPa) = 33.13420 43.67819 38.40619
# Shear Modulus (GPa) = 21.35996 27.01126 24.18561
#
# Velocity S-wave (km/s) = 3.35996 3.77839 3.57530
# Velocity P-wave (km/s) = 5.70656 6.49000 6.11085
#
# Compressibility (1/GPa) = 0.03018030
#
# Stress axis : x y z
#
# Youngs Moduli (GPa) = 50.36636 59.66538 65.46664
#
# Poissons Ratio (x) = 0.35131 -0.15358
# Poissons Ratio (y) = 0.29656 0.47873
# Poissons Ratio (z) = -0.11816 0.43631
#
# Static dielectric constant tensor:
#      x y z
#    x 3.386620 0.000000 0.093860 
#    y 0.000000 3.545560 0.000000 
#    z 0.093860 0.000000 3.690630 
# 
# 
# High freq. dielectric constant tensor:
#      x y z
#    x 1.719360 0.000000 0.006620 
#    y 0.000000 1.746770 0.000000 
#    z 0.006620 0.000000 1.749410 
# 
# From -- ./inp_files/229847.got.cif
#   From: 2010.06.25/outbox.cif.g09.slc.cpg/sg12_115_cif.got.tgz:229847.got - 2010.06.28 00:19:55.
