data_PCOD8098252
_publ_section_title
;
Structure prediction by ZEFSAII (Michael W. Deem and Ramdas Pophale) SiO2 
 PCOD8098252
Probable space group: C 2/M
;
_chemical_formula_sum "Si O2"
_cell_formula_units_Z 64
_cell_length_a 28.514758
_cell_length_b 9.382617
_cell_length_c 19.651941
_cell_angle_alpha 90.000000
_cell_angle_beta 140.437761
_cell_angle_gamma 90.000000
_cell_volume 3348.739137
_symmetry_space_group_name_H-M "C 2/M"
_symmetry_group_IT_number 12
_symmetry_cell_setting 'monoclinic'
loop_
_space_group_symop_operation_xyz
x,y,z
-x,y,-z
-x,-y,-z
x,-y,z
1/2+x,1/2+y,z
1/2-x,1/2+y,-z
1/2-x,1/2-y,-z
1/2+x,1/2-y,z
loop_
_atom_site_type_symbol
_atom_site_label
_atom_site_fract_x
_atom_site_fract_y
_atom_site_fract_z
Si Si1 0.688056 0.665899 0.469599
Si Si2 0.469231 0.168879 0.038966
Si Si3 0.468071 0.663540 0.768206
Si Si4 0.451414 0.336619 0.276029
Si Si5 0.217923 0.832553 0.900871
Si Si6 0.952670 0.662085 0.514226
Si Si7 0.696225 0.832094 0.135555
Si Si8 0.312550 0.333351 0.374341
O O1 0.703088 0.500000 0.476448
O O2 0.750000 0.750000 0.500000
O O3 0.608091 0.709357 0.352558
O O4 0.694965 0.709633 0.555833
O O5 0.520217 0.238569 0.153255
O O6 0.472476 0.000000 0.052425
O O7 0.500000 0.213773 0.000000
O O8 0.386295 0.230358 0.953867
O O9 0.465087 0.500000 0.788878
O O10 0.534229 0.686952 0.788271
O O11 0.469937 0.500000 0.316362
O O12 0.368195 0.296985 0.201662
O O13 0.505615 0.234924 0.377001
O O14 0.258956 0.774077 0.879501
O O15 0.230633 0.000000 0.926082
O O16 0.250000 0.750000 0.000000
O O17 0.935350 0.500000 0.515696
O O18 0.878012 0.744841 0.413763
O O19 0.000000 0.670432 0.500000
O O20 0.738010 0.789526 0.251680
O O21 0.690866 0.000000 0.123497
O O22 0.330288 0.500000 0.384706
#
# Coordination Sequence:
#
# PCOD8098252 Si02
#       8
#     8   8   8   8   8   8   8   8
#     4  10  22  38  60  88 116 150 191 238 291 348
#     4  10  22  38  59  85 112 150 195 236 282 340
#     4  10  21  39  59  85 117 145 188 239 284 345
#     4  10  20  37  59  82 109 149 195 233 280 347
#     4  10  20  34  56  83 111 146 187 234 283 336
#     4  11  23  36  53  84 121 152 187 236 288 340
#     4   9  19  36  57  84 113 143 191 237 276 332
#     4  10  20  39  63  83 113 156 194 238 285 339
#
# _framework density 19.111671000000001
#
# number of rings (size 3 to 8) (size 9 to 14) (size 15 to 20)
#    0.000    2.000    1.250    1.875    1.750    4.250 
#    0.000    1.250    0.000    0.000    0.000    0.000 
#    0.000    0.000    0.000    0.000    0.000    0.000 
#
# Total GULP energy -396894.342522 kJ/mol
# GULP energy per Si atom -12402.948204 kJ/mol
# Density = 1.906817 g / cm^3
# Si number density = 19.111671 Si / 1000 Ang^3
#
#
#
# Elastic Constant Matrix: (Units=GPa)
#
#
# Indices 1 2 3 4 5 6 
#
# 1 134.1281 34.8966 59.8110 0.0000 3.0260 0.0000
# 2 34.8966 49.1342 38.1259 0.0000 -2.8745 0.0000
# 3 59.8110 38.1259 133.6983 0.0000 -10.6416 0.0000
# 4 0.0000 0.0000 0.0000 33.1275 0.0000 -1.4671
# 5 3.0260 -2.8745 -10.6416 0.0000 32.1083 0.0000
# 6 0.0000 0.0000 0.0000 -1.4671 0.0000 27.4317
#
#
#
# Elastic Compliance Matrix: (Units=1/GPa)
#
#
# Indices 1 2 3 4 5 6 
#
# 1 0.010293 -0.004789 -0.003441 0.000000 -0.002539 0.000000
# 2 -0.004789 0.028364 -0.005863 0.000000 0.001048 0.000000
# 3 -0.003441 -0.005863 0.010964 0.000000 0.003433 0.000000
# 4 0.000000 0.000000 0.000000 0.030258 0.000000 0.001618
# 5 -0.002539 0.001048 0.003433 0.000000 0.032616 0.000000
# 6 0.000000 0.000000 0.000000 0.001618 0.000000 0.036541
#
#
# Mechanical properties :
#
#
# Convention : Reuss Voigt Hill
#
# Bulk Modulus (GPa) = 46.65094 64.73638 55.69366
# Shear Modulus (GPa) = 27.11980 30.80862 28.96421
#
# Velocity S-wave (km/s) = 3.77107 4.01937 3.89720
# Velocity P-wave (km/s) = 6.58969 7.44894 7.03245
#
# Compressibility (1/GPa) = 0.02143580
#
# Stress axis : x y z
#
# Youngs Moduli (GPa) = 97.14996 35.25580 91.20661
#
# Poissons Ratio (x) = 0.16884 0.31387
# Poissons Ratio (y) = 0.46524 0.53472
# Poissons Ratio (z) = 0.33432 0.20669
#
# Static dielectric constant tensor:
#      x y z
#    x 3.760950 0.000000 0.170160 
#    y 0.000000 3.400640 0.000000 
#    z 0.170160 0.000000 3.695100 
# 
# 
# High freq. dielectric constant tensor:
#      x y z
#    x 1.754760 0.000000 0.000950 
#    y 0.000000 1.723110 0.000000 
#    z 0.000950 0.000000 1.751540 
# 
# From -- ./inp_files/295776.got.cif
#   From: 2010.06.25/outbox.cif.g09.slc.cpg/sg12_148_cif.got.tgz:295776.got - 2010.06.28 00:19:55.
