data_PCOD8098766
_publ_section_title
;
Structure prediction by ZEFSAII (Michael W. Deem and Ramdas Pophale) SiO2 
 PCOD8098766
Probable space group: C 2/M
;
_chemical_formula_sum "Si O2"
_cell_formula_units_Z 56
_cell_length_a 29.696595
_cell_length_b 9.084929
_cell_length_c 18.883022
_cell_angle_alpha 90.000000
_cell_angle_beta 37.597830
_cell_angle_gamma 90.000000
_cell_volume 3108.218255
_symmetry_space_group_name_H-M "C 2/M"
_symmetry_group_IT_number 12
_symmetry_cell_setting 'monoclinic'
loop_
_space_group_symop_operation_xyz
x,y,z
-x,y,-z
-x,-y,-z
x,-y,z
1/2+x,1/2+y,z
1/2-x,1/2+y,-z
1/2-x,1/2-y,-z
1/2+x,1/2-y,z
loop_
_atom_site_type_symbol
_atom_site_label
_atom_site_fract_x
_atom_site_fract_y
_atom_site_fract_z
Si Si1 0.377699 0.333854 0.252347
Si Si2 0.468853 0.831840 0.781652
Si Si3 0.963502 0.834803 0.929569
Si Si4 0.695262 0.172961 0.014625
Si Si5 0.198818 0.169189 0.859985
Si Si6 0.609956 0.669182 0.596072
Si Si7 0.250101 0.174007 0.335274
O O1 0.349206 0.500000 0.272483
O O2 0.461810 0.313941 0.116762
O O3 0.379344 0.301969 0.334168
O O4 0.324415 0.216279 0.283772
O O5 0.463707 0.788804 0.869874
O O6 0.387407 0.803067 0.850779
O O7 0.534312 0.742634 0.661524
O O8 0.491724 0.000000 0.747546
O O9 0.968111 0.000000 0.889306
O O10 0.885196 0.821340 0.068020
O O11 0.712945 0.000000 0.984831
O O12 0.750000 0.250000 0.000000
O O13 0.704552 0.249545 0.927342
O O14 0.252831 0.248253 0.737459
O O15 0.222919 0.000000 0.839790
O O16 0.602688 0.500000 0.586691
O O17 0.680268 0.733616 0.466615
O O18 0.249163 0.000000 0.326112
#
# Coordination Sequence:
#
# PCOD8098766 Si02
#       7
#     8   8   8   8   8   8   8
#     4   9  17  31  49  69  93 128 176 220 253 292
#     4   9  17  29  50  78 102 124 159 204 244 284
#     4   8  16  31  49  68  95 130 167 205 249 300
#     4  10  20  35  57  85 109 128 154 194 243 298
#     4  10  20  35  53  73 100 135 168 202 250 303
#     4   9  19  34  50  68  97 137 176 210 249 295
#     4  11  22  33  46  69 101 136 173 214 253 293
#
# _framework density 18.016753000000001
#
# number of rings (size 3 to 8) (size 9 to 14) (size 15 to 20)
#    0.000    2.571    0.000    3.000    0.000    6.286 
#    0.000    2.857    0.000    0.857    0.000    6.000 
#    0.000    0.000    0.000    0.000    0.000    0.000 
#
# Total GULP energy -347009.567118 kJ/mol
# GULP energy per Si atom -12393.198826 kJ/mol
# Density = 1.797575 g / cm^3
# Si number density = 18.016753 Si / 1000 Ang^3
#
#
#
# Elastic Constant Matrix: (Units=GPa)
#
#
# Indices 1 2 3 4 5 6 
#
# 1 62.3376 43.8158 16.8329 -0.0055 -13.1541 0.0026
# 2 43.8158 90.0077 38.6061 -0.0163 -6.1708 0.0022
# 3 16.8329 38.6061 78.4274 -0.0367 -7.0858 0.0074
# 4 -0.0055 -0.0163 -0.0367 28.6520 0.0082 -1.3574
# 5 -13.1541 -6.1708 -7.0858 0.0082 17.9490 0.0008
# 6 0.0026 0.0022 0.0074 -1.3574 0.0008 30.0551
#
#
#
# Elastic Compliance Matrix: (Units=1/GPa)
#
#
# Indices 1 2 3 4 5 6 
#
# 1 0.028743 -0.013733 0.002144 -0.000005 0.017189 -0.000003
# 2 -0.013733 0.020728 -0.007800 0.000001 -0.006017 0.000002
# 3 0.002144 -0.007800 0.016622 0.000016 0.005452 -0.000003
# 4 -0.000005 0.000001 0.000016 0.034976 -0.000013 0.001580
# 5 0.017189 -0.006017 0.005452 -0.000013 0.068395 -0.000005
# 6 -0.000003 0.000002 -0.000003 0.001580 -0.000005 0.033344
#
#
# Mechanical properties :
#
#
# Convention : Reuss Voigt Hill
#
# Bulk Modulus (GPa) = 36.60836 47.69802 42.15319
# Shear Modulus (GPa) = 19.94490 24.09908 22.02199
#
# Velocity S-wave (km/s) = 3.33080 3.66128 3.49994
# Velocity P-wave (km/s) = 5.92921 6.66371 6.30716
#
# Compressibility (1/GPa) = 0.02731616
#
# Stress axis : x y z
#
# Youngs Moduli (GPa) = 34.79152 48.24316 60.15958
#
# Poissons Ratio (x) = 0.66253 -0.12899
# Poissons Ratio (y) = 0.47780 0.46923
# Poissons Ratio (z) = -0.07460 0.37628
#
# Static dielectric constant tensor:
#      x y z
#    x 3.131460 -0.000010 -0.323580 
#    y -0.000010 3.366950 0.000020 
#    z -0.323580 0.000020 3.562460 
# 
# 
# High freq. dielectric constant tensor:
#      x y z
#    x 1.664710 0.000000 -0.020080 
#    y 0.000000 1.705020 0.000000 
#    z -0.020080 0.000000 1.696680 
# 
# From -- ./inp_files/287370.got.cif
#   From: 2010.06.25/outbox.cif.g09.slc.cpg/sg12_144_cif.got.tgz:287370.got - 2010.06.28 00:19:55.
