data_PCOD8098681
_publ_section_title
;
Structure prediction by ZEFSAII (Michael W. Deem and Ramdas Pophale) SiO2 
 PCOD8098681
Probable space group: C 2/M
;
_chemical_formula_sum "Si O2"
_cell_formula_units_Z 48
_cell_length_a 14.008427
_cell_length_b 19.279442
_cell_length_c 18.639880
_cell_angle_alpha 90.000000
_cell_angle_beta 150.210067
_cell_angle_gamma 90.000000
_cell_volume 2501.078438
_symmetry_space_group_name_H-M "C 2/M"
_symmetry_group_IT_number 12
_symmetry_cell_setting 'monoclinic'
loop_
_space_group_symop_operation_xyz
x,y,z
-x,y,-z
-x,-y,-z
x,-y,z
1/2+x,1/2+y,z
1/2-x,1/2+y,-z
1/2-x,1/2-y,-z
1/2+x,1/2-y,z
loop_
_atom_site_type_symbol
_atom_site_label
_atom_site_fract_x
_atom_site_fract_y
_atom_site_fract_z
Si Si1 0.206062 0.374672 0.917113
Si Si2 0.783536 0.500000 0.338700
Si Si3 0.726812 0.500000 0.138580
Si Si4 0.107842 0.234221 0.789680
Si Si5 0.394782 0.645481 0.759872
Si Si6 0.845611 0.232900 0.340868
Si Si7 0.025818 0.649697 0.939701
O O1 0.188409 0.434478 0.847763
O O2 0.082040 0.308767 0.810366
O O3 0.121578 0.398270 0.940215
O O4 0.429370 0.355036 0.069733
O O5 0.807843 0.500000 0.269897
O O6 0.674168 0.567061 0.298382
O O7 0.000000 0.500000 0.500000
O O8 0.500000 0.500000 0.000000
O O9 0.053642 0.239398 0.670828
O O10 0.960159 0.179195 0.727356
O O11 0.329265 0.212833 0.947526
O O12 0.225068 0.690504 0.683621
O O13 0.672650 0.178166 0.222103
O O14 0.000000 0.205895 0.500000
O O15 0.000000 0.609669 0.000000
#
# Coordination Sequence:
#
# PCOD8098681 Si02
#       7
#     8   4   4   8   8   8   8
#     4  11  19  37  60  88 112 148 206 244 285 343
#     4  12  26  42  56  86 129 162 186 227 298 366
#     4  12  24  38  63  86 118 153 190 242 294 347
#     4  10  20  34  62  82 112 155 198 245 293 326
#     4  11  20  38  58  86 117 154 195 242 287 351
#     4  11  21  33  51  86 120 146 191 242 290 346
#     4   9  18  35  57  80 112 147 190 245 293 331
#
# _framework density 19.191721999999999
#
# number of rings (size 3 to 8) (size 9 to 14) (size 15 to 20)
#    0.000    1.333    5.000    2.500    0.000    0.667 
#    3.000    0.417    0.000    3.000    0.000    1.167 
#    0.000    0.000    0.000    0.000    0.000    0.000 
#
# Total GULP energy -297530.884999 kJ/mol
# GULP energy per Si atom -12397.120208 kJ/mol
# Density = 1.914804 g / cm^3
# Si number density = 19.191722 Si / 1000 Ang^3
#
#
#
# Elastic Constant Matrix: (Units=GPa)
#
#
# Indices 1 2 3 4 5 6 
#
# 1 149.7825 63.5800 55.4141 -0.0001 -19.7323 0.0003
# 2 63.5800 91.6007 39.3901 -0.0034 0.6177 -0.0017
# 3 55.4141 39.3901 117.6235 -0.0119 -18.4651 -0.0080
# 4 -0.0001 -0.0034 -0.0119 6.0220 -0.0068 2.1756
# 5 -19.7323 0.6177 -18.4651 -0.0068 19.8788 -0.0033
# 6 0.0003 -0.0017 -0.0080 2.1756 -0.0033 36.5491
#
#
#
# Elastic Compliance Matrix: (Units=1/GPa)
#
#
# Indices 1 2 3 4 5 6 
#
# 1 0.011875 -0.007758 -0.001298 0.000006 0.010823 0.000000
# 2 -0.007758 0.018280 -0.004408 -0.000012 -0.012363 0.000000
# 3 -0.001298 -0.004408 0.012185 0.000033 0.010168 0.000001
# 4 0.000006 -0.000012 0.000033 0.169708 0.000093 -0.010102
# 5 0.010823 -0.012363 0.010168 0.000093 0.070877 0.000002
# 6 0.000000 0.000000 0.000001 -0.010102 0.000002 0.027962
#
#
# Mechanical properties :
#
#
# Convention : Reuss Voigt Hill
#
# Bulk Modulus (GPa) = 64.87258 75.08613 69.97935
# Shear Modulus (GPa) = 14.57930 25.86481 20.22206
#
# Velocity S-wave (km/s) = 2.75919 3.67510 3.24958
# Velocity P-wave (km/s) = 6.63526 7.56423 7.11492
#
# Compressibility (1/GPa) = 0.01541483
#
# Stress axis : x y z
#
# Youngs Moduli (GPa) = 84.20879 54.70372 82.06610
#
# Poissons Ratio (x) = 0.42437 0.10649
# Poissons Ratio (y) = 0.65326 0.36173
# Poissons Ratio (z) = 0.10927 0.24112
#
# Static dielectric constant tensor:
#      x y z
#    x 3.794040 0.000000 -0.125360 
#    y 0.000000 3.267750 -0.000010 
#    z -0.125360 -0.000010 3.351450 
# 
# 
# High freq. dielectric constant tensor:
#      x y z
#    x 1.764940 0.000000 -0.008490 
#    y 0.000000 1.712560 0.000000 
#    z -0.008490 0.000000 1.733920 
# 
# From -- ./inp_files/61760.got.cif
#   From: 2010.06.25/outbox.cif.g09.slc.cpg/sg12_31_cif.got.tgz:61760.got - 2010.06.28 00:19:55.
