data_PCOD8098494
_publ_section_title
;
Structure prediction by ZEFSAII (Michael W. Deem and Ramdas Pophale) SiO2 
 PCOD8098494
Probable space group: C 2/M
;
_chemical_formula_sum "Si O2"
_cell_formula_units_Z 64
_cell_length_a 18.983329
_cell_length_b 20.362897
_cell_length_c 12.462064
_cell_angle_alpha 90.000000
_cell_angle_beta 43.740108
_cell_angle_gamma 90.000000
_cell_volume 3330.611380
_symmetry_space_group_name_H-M "C 2/M"
_symmetry_group_IT_number 12
_symmetry_cell_setting 'monoclinic'
loop_
_space_group_symop_operation_xyz
x,y,z
-x,y,-z
-x,-y,-z
x,-y,z
1/2+x,1/2+y,z
1/2-x,1/2+y,-z
1/2-x,1/2-y,-z
1/2+x,1/2-y,z
loop_
_atom_site_type_symbol
_atom_site_label
_atom_site_fract_x
_atom_site_fract_y
_atom_site_fract_z
Si Si1 0.744334 0.306221 0.827660
Si Si2 0.418260 0.295891 0.669058
Si Si3 0.470802 0.270457 0.840202
Si Si4 0.195490 0.426784 0.094946
Si Si5 0.975746 0.619373 0.850277
Si Si6 0.321989 0.572431 0.740490
Si Si7 0.189155 0.760858 0.676173
Si Si8 0.348033 0.881907 0.205333
O O1 0.817048 0.248434 0.792380
O O2 0.778550 0.375546 0.839885
O O3 0.749577 0.309775 0.691356
O O4 0.626944 0.290073 0.982804
O O5 0.500000 0.261184 0.500000
O O6 0.466522 0.307606 0.732064
O O7 0.400187 0.368369 0.639666
O O8 0.475563 0.193578 0.809345
O O9 0.576221 0.290501 0.782057
O O10 0.214459 0.500000 0.119282
O O11 0.077260 0.422454 0.185821
O O12 0.263450 0.412135 0.915944
O O13 0.091328 0.595356 0.752873
O O14 0.918623 0.614226 0.024654
O O15 0.373512 0.500000 0.688583
O O16 0.248280 0.572470 0.716699
O O17 0.250000 0.750000 0.500000
O O18 0.186496 0.692883 0.743424
#
# Coordination Sequence:
#
# PCOD8098494 Si02
#       8
#     8   8   8   8   8   8   8   8
#     4  12  20  38  61  84 115 152 198 250 296 345
#     4  12  23  35  57  89 120 152 198 243 297 347
#     4  11  20  34  58  86 113 153 190 241 300 346
#     4  10  20  34  57  87 116 154 201 245 287 344
#     4   9  16  30  52  84 113 146 189 239 289 345
#     4  10  20  35  55  83 120 159 195 236 290 352
#     4  11  22  35  56  89 118 145 191 252 301 351
#     4   9  17  30  52  79 116 147 187 233 295 348
#
# _framework density 19.215692000000001
#
# number of rings (size 3 to 8) (size 9 to 14) (size 15 to 20)
#    0.000    1.500    5.000    2.250    0.000    0.750 
#    0.000    2.500    0.000    3.375    0.000    0.000 
#    0.000    0.000    0.000    0.000    0.000    0.000 
#
# Total GULP energy -396529.341931 kJ/mol
# GULP energy per Si atom -12391.541935 kJ/mol
# Density = 1.917196 g / cm^3
# Si number density = 19.215692 Si / 1000 Ang^3
#
#
#
# Elastic Constant Matrix: (Units=GPa)
#
#
# Indices 1 2 3 4 5 6 
#
# 1 118.1306 55.2462 42.1193 0.0000 12.3925 0.0000
# 2 55.2462 91.6258 15.6413 0.0000 -1.2678 0.0000
# 3 42.1193 15.6413 52.4242 0.0000 6.4213 0.0000
# 4 0.0000 0.0000 0.0000 10.6240 0.0000 3.1065
# 5 12.3925 -1.2678 6.4213 0.0000 23.3089 0.0000
# 6 0.0000 0.0000 0.0000 3.1065 0.0000 26.8256
#
#
#
# Elastic Compliance Matrix: (Units=1/GPa)
#
#
# Indices 1 2 3 4 5 6 
#
# 1 0.016697 -0.008435 -0.010095 0.000000 -0.006555 0.000000
# 2 -0.008435 0.015821 0.001451 0.000000 0.004945 0.000000
# 3 -0.010095 0.001451 0.026997 0.000000 -0.001991 0.000000
# 4 0.000000 0.000000 0.000000 0.097426 0.000000 -0.011282
# 5 -0.006555 0.004945 -0.001991 0.000000 0.047204 0.000000
# 6 0.000000 0.000000 0.000000 -0.011282 0.000000 0.038584
#
#
# Mechanical properties :
#
#
# Convention : Reuss Voigt Hill
#
# Bulk Modulus (GPa) = 39.43854 54.24379 46.84117
# Shear Modulus (GPa) = 17.52294 22.09662 19.80978
#
# Velocity S-wave (km/s) = 3.02306 3.39473 3.21427
# Velocity P-wave (km/s) = 5.72310 6.60726 6.18101
#
# Compressibility (1/GPa) = 0.02535591
#
# Stress axis : x y z
#
# Youngs Moduli (GPa) = 59.89050 63.20879 37.04093
#
# Poissons Ratio (x) = 0.53316 0.37395
# Poissons Ratio (y) = 0.50517 -0.05374
# Poissons Ratio (z) = 0.60462 -0.09171
#
# Static dielectric constant tensor:
#      x y z
#    x 3.923860 0.000000 -0.098650 
#    y 0.000000 3.261500 0.000000 
#    z -0.098650 0.000000 3.250250 
# 
# 
# High freq. dielectric constant tensor:
#      x y z
#    x 1.767410 0.000000 -0.003990 
#    y 0.000000 1.716650 0.000000 
#    z -0.003990 0.000000 1.714110 
# 
# From -- ./inp_files/159543.got.cif
#   From: 2010.06.25/outbox.cif.g09.slc.cpg/sg12_80_cif.got.tgz:159543.got - 2010.06.28 00:19:55.
