data_PCOD8098073
_publ_section_title
;
Structure prediction by ZEFSAII (Michael W. Deem and Ramdas Pophale) SiO2 
 PCOD8098073
Probable space group: C 2/M
;
_chemical_formula_sum "Si O2"
_cell_formula_units_Z 48
_cell_length_a 20.266597
_cell_length_b 8.927554
_cell_length_c 33.517407
_cell_angle_alpha 90.000000
_cell_angle_beta 155.243176
_cell_angle_gamma 90.000000
_cell_volume 2539.552001
_symmetry_space_group_name_H-M "C 2/M"
_symmetry_group_IT_number 12
_symmetry_cell_setting 'monoclinic'
loop_
_space_group_symop_operation_xyz
x,y,z
-x,y,-z
-x,-y,-z
x,-y,z
1/2+x,1/2+y,z
1/2-x,1/2+y,-z
1/2-x,1/2-y,-z
1/2+x,1/2-y,z
loop_
_atom_site_type_symbol
_atom_site_label
_atom_site_fract_x
_atom_site_fract_y
_atom_site_fract_z
Si Si1 0.024943 0.826902 0.393368
Si Si2 0.589472 0.676349 0.897463
Si Si3 0.175958 0.326889 0.197751
Si Si4 0.546450 0.174000 0.790525
Si Si5 0.834344 0.675564 0.603923
Si Si6 0.669077 0.670571 0.111713
O O1 0.050391 0.741550 0.366074
O O2 0.152767 0.773742 0.496903
O O3 0.848133 0.798552 0.312232
O O4 0.051983 0.000000 0.398438
O O5 0.611606 0.500000 0.911449
O O6 0.449743 0.721961 0.850179
O O7 0.544874 0.725352 0.828677
O O8 0.750000 0.750000 0.000000
O O9 0.125641 0.500000 0.174514
O O10 0.189013 0.285995 0.158589
O O11 0.394531 0.223908 0.680756
O O12 0.704202 0.207693 0.852612
O O13 0.536893 0.000000 0.797869
O O14 0.855517 0.500000 0.611716
O O15 0.689905 0.500000 0.138537
O O16 0.500000 0.696253 0.000000
#
# Coordination Sequence:
#
# PCOD8098073 Si02
#       6
#     8   8   8   8   8   8
#     4   9  18  32  54  86 119 151 189 234 282 335
#     4  12  26  43  62  82 112 152 194 238 290 348
#     4  11  22  37  58  85 117 151 191 237 285 339
#     4  10  20  36  58  85 117 153 193 237 287 342
#     4   9  17  32  56  85 117 153 190 231 284 339
#     4  10  20  34  55  83 113 146 188 240 290 340
#
# _framework density 18.900971999999999
#
# number of rings (size 3 to 8) (size 9 to 14) (size 15 to 20)
#    0.000    1.833    1.667    3.000    0.000    3.667 
#    0.000    0.833    0.000    5.000    0.000    0.000 
#    0.000    0.000    0.000    0.000    0.000    0.000 
#
# Total GULP energy -297602.117835 kJ/mol
# GULP energy per Si atom -12400.088243 kJ/mol
# Density = 1.885795 g / cm^3
# Si number density = 18.900972 Si / 1000 Ang^3
#
#
#
# Elastic Constant Matrix: (Units=GPa)
#
#
# Indices 1 2 3 4 5 6 
#
# 1 50.5058 22.9649 33.7041 0.0010 -7.0591 -0.0002
# 2 22.9649 73.1068 35.9532 0.0007 -6.0497 0.0001
# 3 33.7041 35.9532 108.4206 0.0019 -2.1651 0.0005
# 4 0.0010 0.0007 0.0019 21.6656 -0.0006 -5.5082
# 5 -7.0591 -6.0497 -2.1651 -0.0006 27.6450 0.0003
# 6 -0.0002 0.0001 0.0005 -5.5082 0.0003 33.0975
#
#
#
# Elastic Compliance Matrix: (Units=1/GPa)
#
#
# Indices 1 2 3 4 5 6 
#
# 1 0.027249 -0.004781 -0.006778 0.000000 0.005381 0.000000
# 2 -0.004781 0.017463 -0.004259 0.000000 0.002267 0.000000
# 3 -0.006778 -0.004259 0.012709 -0.000001 -0.001667 0.000000
# 4 0.000000 0.000000 -0.000001 0.048195 0.000001 0.008021
# 5 0.005381 0.002267 -0.001667 0.000001 0.037912 0.000000
# 6 0.000000 0.000000 0.000000 0.008021 0.000000 0.031549
#
#
# Mechanical properties :
#
#
# Convention : Reuss Voigt Hill
#
# Bulk Modulus (GPa) = 38.78270 46.36417 42.57344
# Shear Modulus (GPa) = 23.22252 25.77570 24.49911
#
# Velocity S-wave (km/s) = 3.50900 3.69687 3.60416
# Velocity P-wave (km/s) = 6.08119 6.54261 6.31612
#
# Compressibility (1/GPa) = 0.02578469
#
# Stress axis : x y z
#
# Youngs Moduli (GPa) = 36.69893 57.26473 78.68189
#
# Poissons Ratio (x) = 0.27379 0.53329
# Poissons Ratio (y) = 0.17546 0.33513
# Poissons Ratio (z) = 0.24874 0.24390
#
# Static dielectric constant tensor:
#      x y z
#    x 3.266750 0.000000 0.021310 
#    y 0.000000 3.378600 0.000000 
#    z 0.021310 0.000000 4.046540 
# 
# 
# High freq. dielectric constant tensor:
#      x y z
#    x 1.712610 0.000000 0.002830 
#    y 0.000000 1.731450 0.000000 
#    z 0.002830 0.000000 1.758440 
# 
# From -- ./inp_files/280770.got.cif
#   From: 2010.06.25/outbox.cif.g09.slc.cpg/sg12_141_cif.got.tgz:280770.got - 2010.06.28 00:19:55.
