data_PCOD8098231
_publ_section_title
;
Structure prediction by ZEFSAII (Michael W. Deem and Ramdas Pophale) SiO2 
 PCOD8098231
Probable space group: C 2/M
;
_chemical_formula_sum "Si O2"
_cell_formula_units_Z 64
_cell_length_a 19.827352
_cell_length_b 9.173242
_cell_length_c 20.620427
_cell_angle_alpha 90.000000
_cell_angle_beta 65.287295
_cell_angle_gamma 90.000000
_cell_volume 3406.981345
_symmetry_space_group_name_H-M "C 2/M"
_symmetry_group_IT_number 12
_symmetry_cell_setting 'monoclinic'
loop_
_space_group_symop_operation_xyz
x,y,z
-x,y,-z
-x,-y,-z
x,-y,z
1/2+x,1/2+y,z
1/2-x,1/2+y,-z
1/2-x,1/2-y,-z
1/2+x,1/2-y,z
loop_
_atom_site_type_symbol
_atom_site_label
_atom_site_fract_x
_atom_site_fract_y
_atom_site_fract_z
Si Si1 0.322781 0.331707 0.382674
Si Si2 0.575284 0.156724 0.434253
Si Si3 0.442081 0.171073 0.833658
Si Si4 0.295845 0.327144 0.925980
Si Si5 0.889701 0.671932 0.233045
Si Si6 0.884846 0.664720 0.719892
Si Si7 0.756326 0.670290 0.195677
Si Si8 0.823468 0.834943 0.526930
O O1 0.322031 0.500000 0.362126
O O2 0.367610 0.245356 0.309861
O O3 0.239673 0.275413 0.425106
O O4 0.356589 0.308810 0.441269
O O5 0.500000 0.132493 0.500000
O O6 0.562665 0.186562 0.363152
O O7 0.611568 0.299910 0.449678
O O8 0.619199 0.000000 0.423975
O O9 0.379775 0.264221 0.896432
O O10 0.525897 0.216319 0.820685
O O11 0.433319 0.214320 0.761774
O O12 0.428404 0.000000 0.852725
O O13 0.298953 0.500000 0.935540
O O14 0.253030 0.286489 0.876220
O O15 0.250000 0.250000 0.000000
O O16 0.885665 0.500000 0.246805
O O17 0.835040 0.720092 0.195834
O O18 0.858233 0.500000 0.741353
O O19 0.810113 0.756393 0.737946
O O20 0.746968 0.500000 0.208421
O O21 0.794995 0.000000 0.546426
#
# Coordination Sequence:
#
# PCOD8098231 Si02
#       8
#     8   8   8   8   8   8   8   8
#     4  10  21  35  52  73 100 136 177 225 276 326
#     4  10  21  33  49  72 101 135 176 226 279 327
#     4   9  19  35  56  82 111 142 179 218 263 321
#     4  10  20  37  61  85 113 145 178 214 254 310
#     4  10  20  34  56  82 109 140 177 221 271 321
#     4   9  18  33  51  74 102 138 180 221 267 320
#     4   9  19  35  55  82 108 137 175 216 262 312
#     4  10  21  36  50  69  97 134 182 228 276 330
#
# _framework density 18.784956999999999
#
# number of rings (size 3 to 8) (size 9 to 14) (size 15 to 20)
#    0.000    2.375    0.000    1.875    1.750    5.750 
#    0.000    0.625    0.000    3.750    0.000    0.000 
#    0.000    0.000    0.000    0.000    0.000    0.000 
#
# Total GULP energy -396535.398787 kJ/mol
# GULP energy per Si atom -12391.731212 kJ/mol
# Density = 1.874220 g / cm^3
# Si number density = 18.784957 Si / 1000 Ang^3
#
#
#
# Elastic Constant Matrix: (Units=GPa)
#
#
# Indices 1 2 3 4 5 6 
#
# 1 100.5765 27.9931 40.0570 0.0000 -8.4424 0.0000
# 2 27.9931 50.7166 40.3282 0.0000 -3.5467 0.0000
# 3 40.0570 40.3282 119.8645 0.0000 -13.3036 0.0000
# 4 0.0000 0.0000 0.0000 37.7363 0.0000 -4.8460
# 5 -8.4424 -3.5467 -13.3036 0.0000 18.1580 0.0000
# 6 0.0000 0.0000 0.0000 -4.8460 0.0000 27.9900
#
#
#
# Elastic Compliance Matrix: (Units=1/GPa)
#
#
# Indices 1 2 3 4 5 6 
#
# 1 0.012441 -0.004943 -0.002133 0.000000 0.003256 0.000000
# 2 -0.004943 0.028921 -0.008389 0.000000 -0.002795 0.000000
# 3 -0.002133 -0.008389 0.012612 0.000000 0.006610 0.000000
# 4 0.000000 0.000000 0.000000 0.027102 0.000000 0.004692
# 5 0.003256 -0.002795 0.006610 0.000000 0.060882 0.000000
# 6 0.000000 0.000000 0.000000 0.004692 0.000000 0.036539
#
#
# Mechanical properties :
#
#
# Convention : Reuss Voigt Hill
#
# Bulk Modulus (GPa) = 43.39581 54.21267 48.80424
# Shear Modulus (GPa) = 23.02992 27.62884 25.32938
#
# Velocity S-wave (km/s) = 3.50519 3.83926 3.67602
# Velocity P-wave (km/s) = 6.28756 6.96961 6.63735
#
# Compressibility (1/GPa) = 0.02304370
#
# Stress axis : x y z
#
# Youngs Moduli (GPa) = 80.37678 34.57742 79.29207
#
# Poissons Ratio (x) = 0.17092 0.16915
# Poissons Ratio (y) = 0.39731 0.66515
# Poissons Ratio (z) = 0.17147 0.29006
#
# Static dielectric constant tensor:
#      x y z
#    x 3.760080 0.000000 0.165160 
#    y 0.000000 3.543150 0.000000 
#    z 0.165160 0.000000 3.412560 
# 
# 
# High freq. dielectric constant tensor:
#      x y z
#    x 1.719690 0.000000 0.004320 
#    y 0.000000 1.731960 0.000000 
#    z 0.004320 0.000000 1.720260 
# 
# From -- ./inp_files/319937.got.cif
#   From: 2010.06.25/outbox.cif.g09.slc.cpg/sg12_160_cif.got.tgz:319937.got - 2010.06.28 00:19:55.
