data_PCOD8098131
_publ_section_title
;
Structure prediction by ZEFSAII (Michael W. Deem and Ramdas Pophale) SiO2 
 PCOD8098131
Probable space group: C 2/M
;
_chemical_formula_sum "Si O2"
_cell_formula_units_Z 56
_cell_length_a 21.576437
_cell_length_b 9.179690
_cell_length_c 16.304480
_cell_angle_alpha 90.000000
_cell_angle_beta 125.004471
_cell_angle_gamma 90.000000
_cell_volume 2645.181550
_symmetry_space_group_name_H-M "C 2/M"
_symmetry_group_IT_number 12
_symmetry_cell_setting 'monoclinic'
loop_
_space_group_symop_operation_xyz
x,y,z
-x,y,-z
-x,-y,-z
x,-y,z
1/2+x,1/2+y,z
1/2-x,1/2+y,-z
1/2-x,1/2-y,-z
1/2+x,1/2-y,z
loop_
_atom_site_type_symbol
_atom_site_label
_atom_site_fract_x
_atom_site_fract_y
_atom_site_fract_z
Si Si1 0.820706 0.160491 0.581529
Si Si2 0.591015 0.340178 0.518547
Si Si3 0.475854 0.160309 0.346548
Si Si4 0.165793 0.172372 0.740878
Si Si5 0.780534 0.827019 0.940131
Si Si6 0.957723 0.166258 0.053391
Si Si7 0.936618 0.340408 0.750913
O O1 0.750000 0.250000 0.500000
O O2 0.873109 0.148025 0.542924
O O3 0.862107 0.239094 0.689854
O O4 0.796399 0.000000 0.593527
O O5 0.563083 0.500000 0.524934
O O6 0.517890 0.235684 0.455739
O O7 0.651151 0.286355 0.633611
O O8 0.406776 0.264231 0.265243
O O9 0.534461 0.140346 0.318582
O O10 0.446081 0.000000 0.350836
O O11 0.238918 0.256853 0.829978
O O12 0.175035 0.000000 0.763788
O O13 0.868692 0.796097 0.987687
O O14 0.764657 0.000000 0.934632
O O15 0.750000 0.750000 0.000000
O O16 0.970149 0.000000 0.090076
O O17 0.000000 0.195932 0.000000
O O18 0.996745 0.271337 0.146971
O O19 0.914880 0.500000 0.770179
#
# Coordination Sequence:
#
# PCOD8098131 Si02
#       7
#     8   8   8   8   8   8   8
#     4  10  20  36  57  81 112 148 187 231 280 338
#     4   9  20  36  53  78 113 151 188 229 283 346
#     4  10  20  34  55  84 116 150 191 236 283 344
#     4  11  22  36  56  82 115 152 189 234 289 346
#     4  11  24  42  64  89 119 155 198 248 299 354
#     4  10  23  43  64  88 118 154 198 248 302 355
#     4  10  21  37  58  84 113 149 192 236 287 347
#
# _framework density 21.170569
#
# number of rings (size 3 to 8) (size 9 to 14) (size 15 to 20)
#    0.000    1.857    0.000    3.429    0.000   10.000 
#    0.000    2.857    0.000    0.000    0.000    0.000 
#    0.000    0.000    0.000    0.000    0.000    0.000 
#
# Total GULP energy -347017.304468 kJ/mol
# GULP energy per Si atom -12393.475160 kJ/mol
# Density = 2.112238 g / cm^3
# Si number density = 21.170569 Si / 1000 Ang^3
#
#
#
# Elastic Constant Matrix: (Units=GPa)
#
#
# Indices 1 2 3 4 5 6 
#
# 1 69.5204 39.2662 30.3391 0.0000 17.8661 0.0000
# 2 39.2662 173.8720 94.9315 0.0000 26.8145 0.0000
# 3 30.3391 94.9315 156.7071 0.0000 29.3210 0.0000
# 4 0.0000 0.0000 0.0000 36.0854 0.0000 9.4485
# 5 17.8661 26.8145 29.3210 0.0000 35.4587 0.0000
# 6 0.0000 0.0000 0.0000 9.4485 0.0000 21.2821
#
#
#
# Elastic Compliance Matrix: (Units=1/GPa)
#
#
# Indices 1 2 3 4 5 6 
#
# 1 0.017830 -0.002700 -0.000612 0.000000 -0.006436 0.000000
# 2 -0.002700 0.009209 -0.004741 0.000000 -0.001683 0.000000
# 3 -0.000612 -0.004741 0.010226 0.000000 -0.004562 0.000000
# 4 0.000000 0.000000 0.000000 0.031357 0.000000 -0.013921
# 5 -0.006436 -0.001683 -0.004562 0.000000 0.036490 0.000000
# 6 0.000000 0.000000 0.000000 -0.013921 0.000000 0.053169
#
#
# Mechanical properties :
#
#
# Convention : Reuss Voigt Hill
#
# Bulk Modulus (GPa) = 47.26228 81.01924 64.14076
# Shear Modulus (GPa) = 27.55728 34.26941 30.91335
#
# Velocity S-wave (km/s) = 3.61179 4.02771 3.82541
# Velocity P-wave (km/s) = 6.30606 7.74485 7.06219
#
# Compressibility (1/GPa) = 0.02115852
#
# Stress axis : x y z
#
# Youngs Moduli (GPa) = 56.08411 108.58551 97.79389
#
# Poissons Ratio (x) = 0.29317 0.05988
# Poissons Ratio (y) = 0.15142 0.46366
# Poissons Ratio (z) = 0.03434 0.51483
#
# Static dielectric constant tensor:
#      x y z
#    x 3.481730 0.000000 0.045100 
#    y 0.000000 4.327510 0.000000 
#    z 0.045100 0.000000 3.864600 
# 
# 
# High freq. dielectric constant tensor:
#      x y z
#    x 1.814360 0.000000 0.005400 
#    y 0.000000 1.846190 0.000000 
#    z 0.005400 0.000000 1.834750 
# 
# From -- ./inp_files/288480.got.cif
#   From: 2010.06.25/outbox.cif.g09.slc.cpg/sg12_145_cif.got.tgz:288480.got - 2010.06.28 00:19:55.
