data_PCOD8098735
_publ_section_title
;
Structure prediction by ZEFSAII (Michael W. Deem and Ramdas Pophale) SiO2 
 PCOD8098735
Probable space group: C 2/M
;
_chemical_formula_sum "Si O2"
_cell_formula_units_Z 64
_cell_length_a 23.238767
_cell_length_b 8.969175
_cell_length_c 19.623610
_cell_angle_alpha 90.000000
_cell_angle_beta 122.110389
_cell_angle_gamma 90.000000
_cell_volume 3464.503431
_symmetry_space_group_name_H-M "C 2/M"
_symmetry_group_IT_number 12
_symmetry_cell_setting 'monoclinic'
loop_
_space_group_symop_operation_xyz
x,y,z
-x,y,-z
-x,-y,-z
x,-y,z
1/2+x,1/2+y,z
1/2-x,1/2+y,-z
1/2-x,1/2-y,-z
1/2+x,1/2-y,z
loop_
_atom_site_type_symbol
_atom_site_label
_atom_site_fract_x
_atom_site_fract_y
_atom_site_fract_z
Si Si1 0.943030 0.674072 0.150429
Si Si2 0.273149 0.177346 0.228562
Si Si3 0.020832 0.832707 0.090280
Si Si4 0.555619 0.822311 0.444728
Si Si5 0.592847 0.822958 0.613630
Si Si6 0.290801 0.174870 0.086656
Si Si7 0.851392 0.323161 0.775713
Si Si8 0.577084 0.175346 0.311965
O O1 0.946647 0.500000 0.134340
O O2 0.956564 0.768165 0.090863
O O3 0.869886 0.718938 0.133481
O O4 0.000540 0.717849 0.241502
O O5 0.344628 0.239440 0.302787
O O6 0.263995 0.228009 0.144039
O O7 0.215980 0.246165 0.240177
O O8 0.269561 0.000000 0.231547
O O9 0.085583 0.725817 0.138242
O O10 0.038339 0.000000 0.126719
O O11 0.000000 0.835691 0.000000
O O12 0.598711 0.770236 0.537904
O O13 0.478132 0.762506 0.400885
O O14 0.589196 0.758723 0.395798
O O15 0.552993 0.000000 0.440643
O O16 0.593375 0.000000 0.617242
O O17 0.280767 0.000000 0.071949
O O18 0.250000 0.250000 0.000000
O O19 0.843339 0.500000 0.775081
O O20 0.867587 0.266881 0.708313
O O21 0.584238 0.000000 0.319032
#
# Coordination Sequence:
#
# PCOD8098735 Si02
#       8
#     8   8   8   8   8   8   8   8
#     4   9  18  33  51  73  98 128 165 203 248 302
#     4  10  20  35  52  72 105 139 168 209 259 303
#     4  10  21  35  53  75  98 125 161 210 262 302
#     4   8  12  22  45  76 104 126 162 210 251 298
#     4   8  14  24  44  76 105 131 161 202 256 305
#     4  10  22  36  51  72  99 132 168 207 252 301
#     4  10  21  35  51  72  98 136 178 210 248 302
#     4   8  14  27  47  69  95 126 163 207 249 290
#
# _framework density 18.473065999999999
#
# number of rings (size 3 to 8) (size 9 to 14) (size 15 to 20)
#    0.000    2.875    0.000    3.000    1.750    5.000 
#    0.000    0.625    0.000    0.000    0.000    5.250 
#    0.000    0.000    0.000    0.000    0.000    0.000 
#
# Total GULP energy -396562.995769 kJ/mol
# GULP energy per Si atom -12392.593618 kJ/mol
# Density = 1.843102 g / cm^3
# Si number density = 18.473066 Si / 1000 Ang^3
#
#
#
# Elastic Constant Matrix: (Units=GPa)
#
#
# Indices 1 2 3 4 5 6 
#
# 1 125.5101 29.5496 69.5066 0.0000 -13.9767 0.0000
# 2 29.5496 25.8356 25.4951 0.0000 -8.0624 0.0000
# 3 69.5066 25.4951 120.4963 0.0000 -20.5898 0.0000
# 4 0.0000 0.0000 0.0000 14.3125 0.0000 2.3598
# 5 -13.9767 -8.0624 -20.5898 0.0000 29.8445 0.0000
# 6 0.0000 0.0000 0.0000 2.3598 0.0000 26.5176
#
#
#
# Elastic Compliance Matrix: (Units=1/GPa)
#
#
# Indices 1 2 3 4 5 6 
#
# 1 0.013400 -0.009787 -0.005712 0.000000 -0.000309 0.000000
# 2 -0.009787 0.057349 -0.005243 0.000000 0.007292 0.000000
# 3 -0.005712 -0.005243 0.013608 0.000000 0.005297 0.000000
# 4 0.000000 0.000000 0.000000 0.070909 0.000000 -0.006310
# 5 -0.000309 0.007292 0.005297 0.000000 0.038987 0.000000
# 6 0.000000 0.000000 0.000000 -0.006310 0.000000 0.038272
#
#
# Mechanical properties :
#
#
# Convention : Reuss Voigt Hill
#
# Bulk Modulus (GPa) = 23.32347 57.88272 40.60310
# Shear Modulus (GPa) = 17.34299 23.95431 20.64865
#
# Velocity S-wave (km/s) = 3.06735 3.60490 3.34693
# Velocity P-wave (km/s) = 5.01975 6.98059 6.07974
#
# Compressibility (1/GPa) = 0.04287526
#
# Stress axis : x y z
#
# Youngs Moduli (GPa) = 74.62451 17.43704 73.48461
#
# Poissons Ratio (x) = 0.17065 0.41974
# Poissons Ratio (y) = 0.73031 0.38527
# Poissons Ratio (z) = 0.42625 0.09142
#
# Static dielectric constant tensor:
#      x y z
#    x 3.691100 0.000000 -0.257820 
#    y 0.000000 3.120090 0.000000 
#    z -0.257820 0.000000 3.610400 
# 
# 
# High freq. dielectric constant tensor:
#      x y z
#    x 1.721800 0.000000 -0.015210 
#    y 0.000000 1.674060 0.000000 
#    z -0.015210 0.000000 1.715040 
# 
# From -- ./inp_files/324257.got.cif
#   From: 2010.06.25/outbox.cif.g09.slc.cpg/sg12_163_cif.got.tgz:324257.got - 2010.06.28 00:19:55.
