data_PCOD8098320
_publ_section_title
;
Structure prediction by ZEFSAII (Michael W. Deem and Ramdas Pophale) SiO2 
 PCOD8098320
Probable space group: C 2/M
;
_chemical_formula_sum "Si O2"
_cell_formula_units_Z 52
_cell_length_a 30.493649
_cell_length_b 9.200996
_cell_length_c 13.259528
_cell_angle_alpha 90.000000
_cell_angle_beta 43.861277
_cell_angle_gamma 90.000000
_cell_volume 2577.816933
_symmetry_space_group_name_H-M "C 2/M"
_symmetry_group_IT_number 12
_symmetry_cell_setting 'monoclinic'
loop_
_space_group_symop_operation_xyz
x,y,z
-x,y,-z
-x,-y,-z
x,-y,z
1/2+x,1/2+y,z
1/2-x,1/2+y,-z
1/2-x,1/2-y,-z
1/2+x,1/2-y,z
loop_
_atom_site_type_symbol
_atom_site_label
_atom_site_fract_x
_atom_site_fract_y
_atom_site_fract_z
Si Si1 0.230960 0.172285 0.631772
Si Si2 0.042304 0.164373 0.715886
Si Si3 0.500000 0.763730 0.000000
Si Si4 0.688345 0.332930 0.142556
Si Si5 0.591704 0.669884 0.132144
Si Si6 0.876038 0.660164 0.109408
Si Si7 0.669031 0.328136 0.405117
O O1 0.250000 0.250000 0.500000
O O2 0.158655 0.221181 0.764412
O O3 0.271355 0.236207 0.656233
O O4 0.237213 0.000000 0.613490
O O5 0.030919 0.173590 0.855716
O O6 0.107026 0.237592 0.566448
O O7 0.981953 0.219948 0.750513
O O8 0.052648 0.000000 0.668673
O O9 0.553683 0.861155 0.962572
O O10 0.707637 0.500000 0.102434
O O11 0.624666 0.300692 0.184177
O O12 0.666695 0.291559 0.290717
O O13 0.750000 0.250000 0.000000
O O14 0.597410 0.500000 0.090020
O O15 0.628105 0.773750 0.994827
O O16 0.844086 0.500000 0.161429
O O17 0.679006 0.500000 0.409024
#
# Coordination Sequence:
#
# PCOD8098320 Si02
#       7
#     8   8   4   8   8   8   8
#     4  12  25  40  58  82 113 150 188 232 283 339
#     4   9  18  33  56  84 115 148 189 234 281 338
#     4  10  20  34  56  84 115 152 187 228 285 344
#     4  10  21  36  57  82 112 149 192 238 287 338
#     4   9  19  36  56  82 112 147 188 233 282 335
#     4  11  22  37  57  83 113 147 188 235 283 338
#     4  10  21  38  59  86 116 150 190 236 286 340
#
# _framework density 20.172108000000001
#
# number of rings (size 3 to 8) (size 9 to 14) (size 15 to 20)
#    0.000    1.846    0.000    4.154    0.000    7.385 
#    0.000    6.154    0.000    0.000    0.000    6.462 
#    0.000    0.000    0.000    0.000    0.000    0.000 
#
# Total GULP energy -322160.637808 kJ/mol
# GULP energy per Si atom -12390.793762 kJ/mol
# Density = 2.012620 g / cm^3
# Si number density = 20.172108 Si / 1000 Ang^3
#
#
#
# Elastic Constant Matrix: (Units=GPa)
#
#
# Indices 1 2 3 4 5 6 
#
# 1 131.0356 41.9433 44.5131 0.0000 11.6957 0.0000
# 2 41.9433 104.5324 37.9201 0.0000 3.9652 -0.0001
# 3 44.5131 37.9201 126.3217 0.0000 9.1354 0.0000
# 4 0.0000 0.0000 0.0000 26.4209 0.0000 2.7801
# 5 11.6957 3.9652 9.1354 0.0000 30.3353 0.0000
# 6 0.0000 -0.0001 0.0000 2.7801 0.0000 20.6723
#
#
#
# Elastic Compliance Matrix: (Units=1/GPa)
#
#
# Indices 1 2 3 4 5 6 
#
# 1 0.009582 -0.002906 -0.002315 0.000000 -0.002617 0.000000
# 2 -0.002906 0.011622 -0.002490 0.000000 0.000351 0.000000
# 3 -0.002315 -0.002490 0.009601 0.000000 -0.001673 0.000000
# 4 0.000000 0.000000 0.000000 0.038392 0.000000 -0.005163
# 5 -0.002617 0.000351 -0.001673 0.000000 0.034432 0.000000
# 6 0.000000 0.000000 0.000000 -0.005163 0.000000 0.049068
#
#
# Mechanical properties :
#
#
# Convention : Reuss Voigt Hill
#
# Bulk Modulus (GPa) = 65.00740 67.84920 66.42830
# Shear Modulus (GPa) = 28.86069 31.31990 30.09030
#
# Velocity S-wave (km/s) = 3.78659 3.94462 3.86642
# Velocity P-wave (km/s) = 7.17036 7.37936 7.27561
#
# Compressibility (1/GPa) = 0.01538286
#
# Stress axis : x y z
#
# Youngs Moduli (GPa) = 104.36765 86.04103 104.16033
#
# Poissons Ratio (x) = 0.25000 0.24112
# Poissons Ratio (y) = 0.30325 0.25940
# Poissons Ratio (z) = 0.24159 0.21428
#
# Static dielectric constant tensor:
#      x y z
#    x 4.640900 0.000000 -0.694390 
#    y 0.000000 3.548860 0.000000 
#    z -0.694390 0.000000 3.944020 
# 
# 
# High freq. dielectric constant tensor:
#      x y z
#    x 1.799510 0.000000 -0.007130 
#    y 0.000000 1.767900 0.000000 
#    z -0.007130 0.000000 1.792600 
# 
# From -- ./inp_files/249600.got.cif
#   From: 2010.06.25/outbox.cif.g09.slc.cpg/sg12_125_cif.got.tgz:249600.got - 2010.06.28 00:19:55.
