data_PCOD8098127
_publ_section_title
;
Structure prediction by ZEFSAII (Michael W. Deem and Ramdas Pophale) SiO2 
 PCOD8098127
Probable space group: C 2/M
;
_chemical_formula_sum "Si O2"
_cell_formula_units_Z 56
_cell_length_a 27.819306
_cell_length_b 8.822894
_cell_length_c 19.214541
_cell_angle_alpha 90.000000
_cell_angle_beta 38.589267
_cell_angle_gamma 90.000000
_cell_volume 2941.617628
_symmetry_space_group_name_H-M "C 2/M"
_symmetry_group_IT_number 12
_symmetry_cell_setting 'monoclinic'
loop_
_space_group_symop_operation_xyz
x,y,z
-x,y,-z
-x,-y,-z
x,-y,z
1/2+x,1/2+y,z
1/2-x,1/2+y,-z
1/2-x,1/2-y,-z
1/2+x,1/2-y,z
loop_
_atom_site_type_symbol
_atom_site_label
_atom_site_fract_x
_atom_site_fract_y
_atom_site_fract_z
Si Si1 0.395155 0.823867 0.431993
Si Si2 0.749527 0.325140 0.341946
Si Si3 0.053907 0.175905 0.248955
Si Si4 0.707160 0.821336 0.113728
Si Si5 0.197517 0.675020 0.874303
Si Si6 0.048511 0.824101 0.092461
Si Si7 0.389892 0.176758 0.278076
O O1 0.326099 0.773613 0.559681
O O2 0.471274 0.733466 0.368604
O O3 0.372929 0.785692 0.377680
O O4 0.412025 0.000000 0.423210
O O5 0.730386 0.500000 0.379073
O O6 0.775469 0.298546 0.234326
O O7 0.816809 0.267427 0.316900
O O8 0.119171 0.266226 0.216790
O O9 0.064488 0.208308 0.155356
O O10 0.061779 0.000000 0.257804
O O11 0.748530 0.774657 0.137734
O O12 0.710647 0.000000 0.101634
O O13 0.750000 0.750000 0.000000
O O14 0.203181 0.500000 0.890097
O O15 0.109435 0.729090 0.979002
O O16 0.963572 0.769228 0.167620
O O17 0.056952 0.000000 0.064832
O O18 0.406717 0.000000 0.247107
#
# Coordination Sequence:
#
# PCOD8098127 Si02
#       7
#     8   8   8   8   8   8   8
#     4  10  20  35  59  87 114 148 190 239 285 331
#     4  10  22  39  57  80 113 156 195 233 283 339
#     4  10  20  36  59  86 115 147 186 234 283 334
#     4  12  23  37  60  88 116 146 185 231 282 339
#     4  11  23  38  57  81 115 154 191 232 283 341
#     4  10  20  34  55  84 115 147 187 235 286 337
#     4   9  19  36  58  83 113 149 193 236 283 338
#
# _framework density 19.037144000000001
#
# number of rings (size 3 to 8) (size 9 to 14) (size 15 to 20)
#    0.000    1.714    1.429    3.429    0.000    4.000 
#    0.000    3.571    0.000    4.286    0.000    0.000 
#    0.000    0.000    0.000    0.000    0.000    0.000 
#
# Total GULP energy -347379.361268 kJ/mol
# GULP energy per Si atom -12406.405760 kJ/mol
# Density = 1.899381 g / cm^3
# Si number density = 19.037144 Si / 1000 Ang^3
#
#
#
# Elastic Constant Matrix: (Units=GPa)
#
#
# Indices 1 2 3 4 5 6 
#
# 1 43.6363 25.1946 44.3043 0.0334 -18.4916 0.0047
# 2 25.1946 103.1561 57.1660 0.0418 -10.3763 -0.0229
# 3 44.3043 57.1660 116.7686 0.0409 -19.5477 -0.0376
# 4 0.0334 0.0418 0.0409 33.6878 -0.0334 -6.5128
# 5 -18.4916 -10.3763 -19.5477 -0.0334 25.8602 0.0338
# 6 0.0047 -0.0229 -0.0376 -6.5128 0.0338 31.2398
#
#
#
# Elastic Compliance Matrix: (Units=1/GPa)
#
#
# Indices 1 2 3 4 5 6 
#
# 1 0.047020 -0.001946 -0.013040 -0.000016 0.022984 -0.000052
# 2 -0.001946 0.013389 -0.005896 -0.000008 -0.000476 0.000002
# 3 -0.013040 -0.005896 0.016533 0.000004 0.000807 0.000018
# 4 -0.000016 -0.000008 0.000004 0.030931 0.000021 0.006448
# 5 0.022984 -0.000476 0.000807 0.000021 0.055524 -0.000059
# 6 -0.000052 0.000002 0.000018 0.006448 -0.000059 0.033355
#
#
# Mechanical properties :
#
#
# Convention : Reuss Voigt Hill
#
# Bulk Modulus (GPa) = 28.42667 57.43232 42.92949
# Shear Modulus (GPa) = 19.98068 27.28396 23.63232
#
# Velocity S-wave (km/s) = 3.24321 3.78986 3.52714
# Velocity P-wave (km/s) = 5.38416 7.02743 6.25995
#
# Compressibility (1/GPa) = 0.03517823
#
# Stress axis : x y z
#
# Youngs Moduli (GPa) = 21.26765 74.68887 60.48398
#
# Poissons Ratio (x) = 0.14532 0.78871
# Poissons Ratio (y) = 0.04138 0.35663
# Poissons Ratio (z) = 0.27733 0.44038
#
# Static dielectric constant tensor:
#      x y z
#    x 3.536390 -0.000020 -0.154240 
#    y -0.000020 3.579670 0.000020 
#    z -0.154240 0.000020 3.401940 
# 
# 
# High freq. dielectric constant tensor:
#      x y z
#    x 1.735360 0.000000 -0.018220 
#    y 0.000000 1.749730 0.000000 
#    z -0.018220 0.000000 1.736600 
# 
# From -- ./inp_files/292392.got.cif
#   From: 2010.06.25/outbox.cif.g09.slc.cpg/sg12_147_cif.got.tgz:292392.got - 2010.06.28 00:19:55.
