data_PCOD8098573
_publ_section_title
;
Structure prediction by ZEFSAII (Michael W. Deem and Ramdas Pophale) SiO2 
 PCOD8098573
Probable space group: C 2/M
;
_chemical_formula_sum "Si O2"
_cell_formula_units_Z 56
_cell_length_a 31.846700
_cell_length_b 13.553252
_cell_length_c 8.589552
_cell_angle_alpha 90.000000
_cell_angle_beta 132.493806
_cell_angle_gamma 90.000000
_cell_volume 2733.709516
_symmetry_space_group_name_H-M "C 2/M"
_symmetry_group_IT_number 12
_symmetry_cell_setting 'monoclinic'
loop_
_space_group_symop_operation_xyz
x,y,z
-x,y,-z
-x,-y,-z
x,-y,z
1/2+x,1/2+y,z
1/2-x,1/2+y,-z
1/2-x,1/2-y,-z
1/2+x,1/2-y,z
loop_
_atom_site_type_symbol
_atom_site_label
_atom_site_fract_x
_atom_site_fract_y
_atom_site_fract_z
Si Si1 0.140209 0.795852 0.880393
Si Si2 0.622680 0.885623 0.647413
Si Si3 0.958682 0.886696 0.534667
Si Si4 0.052548 0.270334 0.235641
Si Si5 0.654006 0.728126 0.257097
Si Si6 0.245787 0.608235 0.833863
Si Si7 0.760241 0.608325 0.547091
O O1 0.118373 0.684600 0.787785
O O2 0.105145 0.873471 0.689213
O O3 0.129867 0.819668 0.037137
O O4 0.206302 0.812514 0.997165
O O5 0.573479 0.858979 0.399650
O O6 0.683395 0.857353 0.726674
O O7 0.616501 0.000000 0.679328
O O8 0.968362 0.822492 0.714276
O O9 0.000000 0.850061 0.500000
O O10 0.970167 0.000000 0.608007
O O11 0.103795 0.238462 0.252735
O O12 0.000000 0.308796 0.000000
O O13 0.703206 0.663312 0.465499
O O14 0.682555 0.831078 0.270441
O O15 0.259308 0.500000 0.939754
O O16 0.245923 0.598711 0.650723
O O17 0.764942 0.500000 0.637338
#
# Coordination Sequence:
#
# PCOD8098573 Si02
#       7
#     8   8   8   8   8   8   8
#     4  10  20  34  58  83 116 151 192 237 294 347
#     4  10  21  37  55  80 116 155 198 242 288 343
#     4  10  22  41  62  86 118 154 193 240 296 354
#     4  11  23  39  62  87 117 154 199 247 294 347
#     4  10  20  35  57  86 117 152 196 240 290 347
#     4   9  16  31  55  81 111 150 191 236 291 348
#     4   9  18  33  55  82 117 156 193 239 291 344
#
# _framework density 20.484985000000002
#
# number of rings (size 3 to 8) (size 9 to 14) (size 15 to 20)
#    0.000    2.143    1.429    1.714    0.000    2.286 
#    0.000    0.000    0.000   14.571    0.000    0.000 
#    0.000    0.000    0.000    0.000    0.000    0.000 
#
# Total GULP energy -347093.624593 kJ/mol
# GULP energy per Si atom -12396.200878 kJ/mol
# Density = 2.043836 g / cm^3
# Si number density = 20.484985 Si / 1000 Ang^3
#
#
#
# Elastic Constant Matrix: (Units=GPa)
#
#
# Indices 1 2 3 4 5 6 
#
# 1 73.8079 7.1066 9.4601 0.0000 5.0859 0.0000
# 2 7.1066 88.0224 13.0796 0.0000 -1.0849 0.0000
# 3 9.4601 13.0796 86.4328 0.0000 2.1608 0.0000
# 4 0.0000 0.0000 0.0000 17.5111 0.0000 -0.2233
# 5 5.0859 -1.0849 2.1608 0.0000 18.4180 0.0000
# 6 0.0000 0.0000 0.0000 -0.2233 0.0000 22.1816
#
#
#
# Elastic Compliance Matrix: (Units=1/GPa)
#
#
# Indices 1 2 3 4 5 6 
#
# 1 0.014071 -0.000990 -0.001295 0.000000 -0.003792 0.000000
# 2 -0.000990 0.011706 -0.001692 0.000000 0.001162 0.000000
# 3 -0.001295 -0.001692 0.011996 0.000000 -0.001149 0.000000
# 4 0.000000 0.000000 0.000000 0.057114 0.000000 0.000575
# 5 -0.003792 0.001162 -0.001149 0.000000 0.055545 0.000000
# 6 0.000000 0.000000 0.000000 0.000575 0.000000 0.045088
#
#
# Mechanical properties :
#
#
# Convention : Reuss Voigt Hill
#
# Bulk Modulus (GPa) = 33.53648 34.17285 33.85466
# Shear Modulus (GPa) = 23.42837 26.19660 24.81249
#
# Velocity S-wave (km/s) = 3.38551 3.57994 3.48408
# Velocity P-wave (km/s) = 5.62930 5.81430 5.72255
#
# Compressibility (1/GPa) = 0.02981828
#
# Stress axis : x y z
#
# Youngs Moduli (GPa) = 71.06625 85.42299 83.35925
#
# Poissons Ratio (x) = 0.08459 0.10799
# Poissons Ratio (y) = 0.07038 0.14106
# Poissons Ratio (z) = 0.09206 0.14455
#
# Static dielectric constant tensor:
#      x y z
#    x 3.580520 0.000000 0.129920 
#    y 0.000000 3.878170 0.000000 
#    z 0.129920 0.000000 3.725230 
# 
# 
# High freq. dielectric constant tensor:
#      x y z
#    x 1.787260 0.000000 0.006500 
#    y 0.000000 1.793440 0.000000 
#    z 0.006500 0.000000 1.798360 
# 
# From -- ./inp_files/111713.got.cif
#   From: 2010.06.25/outbox.cif.g09.slc.cpg/sg12_56_cif.got.tgz:111713.got - 2010.06.28 00:19:55.
