data_PCOD8098632
_publ_section_title
;
Structure prediction by ZEFSAII (Michael W. Deem and Ramdas Pophale) SiO2 
 PCOD8098632
Probable space group: C 2/M
;
_chemical_formula_sum "Si O2"
_cell_formula_units_Z 48
_cell_length_a 17.813369
_cell_length_b 16.071865
_cell_length_c 14.335204
_cell_angle_alpha 90.000000
_cell_angle_beta 144.134871
_cell_angle_gamma 90.000000
_cell_volume 2404.497509
_symmetry_space_group_name_H-M "C 2/M"
_symmetry_group_IT_number 12
_symmetry_cell_setting 'monoclinic'
loop_
_space_group_symop_operation_xyz
x,y,z
-x,y,-z
-x,-y,-z
x,-y,z
1/2+x,1/2+y,z
1/2-x,1/2+y,-z
1/2-x,1/2-y,-z
1/2+x,1/2-y,z
loop_
_atom_site_type_symbol
_atom_site_label
_atom_site_fract_x
_atom_site_fract_y
_atom_site_fract_z
Si Si1 0.821783 0.597095 0.752675
Si Si2 0.987852 0.500000 0.625019
Si Si3 0.725697 0.000000 0.725536
Si Si4 0.925857 0.674486 0.237570
Si Si5 0.823141 0.764604 0.478226
Si Si6 0.407089 0.825266 0.013660
Si Si7 0.721897 0.322941 0.195363
O O1 0.823489 0.500000 0.730150
O O2 0.699352 0.640361 0.580520
O O3 0.946584 0.644512 0.838322
O O4 0.820719 0.611326 0.864180
O O5 0.839821 0.500000 0.442153
O O6 0.098939 0.500000 0.660493
O O7 0.004729 0.584638 0.700212
O O8 0.815932 0.079862 0.835037
O O9 0.853639 0.682021 0.065019
O O10 0.831631 0.685778 0.228311
O O11 0.027752 0.748951 0.352154
O O12 0.750000 0.750000 0.500000
O O13 0.775717 0.702523 0.349995
O O14 0.397833 0.733565 0.956473
#
# Coordination Sequence:
#
# PCOD8098632 Si02
#       7
#     8   4   4   8   8   8   8
#     4  10  22  39  58  82 112 148 191 240 280 327
#     4   9  18  28  56  86 110 138 181 238 270 317
#     4   9  16  34  52  82 115 143 178 223 281 330
#     4  11  20  34  59  88 115 144 189 231 284 330
#     4  11  21  36  57  83 114 148 189 234 278 335
#     4  10  20  34  59  81 115 145 188 228 282 330
#     4  10  21  36  56  86 117 150 181 230 285 333
#
# _framework density 19.962589999999999
#
# number of rings (size 3 to 8) (size 9 to 14) (size 15 to 20)
#    0.000    1.833    3.333    2.000    2.333    0.000 
#    1.500    0.000    1.833   18.000    0.000    0.000 
#    0.000    0.000    0.000    0.000    0.000    0.000 
#
# Total GULP energy -297396.014056 kJ/mol
# GULP energy per Si atom -12391.500586 kJ/mol
# Density = 1.991715 g / cm^3
# Si number density = 19.962590 Si / 1000 Ang^3
#
#
#
# Elastic Constant Matrix: (Units=GPa)
#
#
# Indices 1 2 3 4 5 6 
#
# 1 87.3510 28.7176 34.3155 0.0000 -29.1713 0.0000
# 2 28.7176 161.7735 41.1056 0.0000 5.1384 0.0000
# 3 34.3155 41.1056 71.7404 0.0000 -23.5331 0.0000
# 4 0.0000 0.0000 0.0000 23.6910 0.0000 3.7490
# 5 -29.1713 5.1384 -23.5331 0.0000 35.5686 0.0000
# 6 0.0000 0.0000 0.0000 3.7490 0.0000 24.1677
#
#
#
# Elastic Compliance Matrix: (Units=1/GPa)
#
#
# Indices 1 2 3 4 5 6 
#
# 1 0.017891 -0.002992 -0.002412 0.000000 0.013510 0.000000
# 2 -0.002992 0.008452 -0.005897 0.000000 -0.007576 0.000000
# 3 -0.002412 -0.005897 0.023120 0.000000 0.014171 0.000000
# 4 0.000000 0.000000 0.000000 0.043272 0.000000 -0.006713
# 5 0.013510 -0.007576 0.014171 0.000000 0.049665 0.000000
# 6 0.000000 0.000000 0.000000 -0.006713 0.000000 0.042419
#
#
# Mechanical properties :
#
#
# Convention : Reuss Voigt Hill
#
# Bulk Modulus (GPa) = 37.22839 58.79359 48.01099
# Shear Modulus (GPa) = 23.10830 31.13387 27.12109
#
# Velocity S-wave (km/s) = 3.40601 3.95348 3.68991
# Velocity P-wave (km/s) = 5.84444 7.09618 6.50051
#
# Compressibility (1/GPa) = 0.02686122
#
# Stress axis : x y z
#
# Youngs Moduli (GPa) = 55.89457 118.32114 43.25328
#
# Poissons Ratio (x) = 0.35405 0.10431
# Poissons Ratio (y) = 0.16725 0.25504
# Poissons Ratio (z) = 0.13480 0.69769
#
# Static dielectric constant tensor:
#      x y z
#    x 3.490600 0.000000 -0.304070 
#    y 0.000000 3.892450 0.000000 
#    z -0.304070 0.000000 3.673590 
# 
# 
# High freq. dielectric constant tensor:
#      x y z
#    x 1.762470 0.000000 -0.032600 
#    y 0.000000 1.779780 0.000000 
#    z -0.032600 0.000000 1.768380 
# 
# From -- ./inp_files/233502.got.cif
#   From: 2010.06.25/outbox.cif.g09.slc.cpg/sg12_117_cif.got.tgz:233502.got - 2010.06.28 00:19:55.
