data_PCOD8098605
_publ_section_title
;
Structure prediction by ZEFSAII (Michael W. Deem and Ramdas Pophale) SiO2 
 PCOD8098605
Probable space group: C 2/M
;
_chemical_formula_sum "Si O2"
_cell_formula_units_Z 56
_cell_length_a 12.494187
_cell_length_b 18.686474
_cell_length_c 13.660646
_cell_angle_alpha 90.000000
_cell_angle_beta 57.445116
_cell_angle_gamma 90.000000
_cell_volume 2688.255120
_symmetry_space_group_name_H-M "C 2/M"
_symmetry_group_IT_number 12
_symmetry_cell_setting 'monoclinic'
loop_
_space_group_symop_operation_xyz
x,y,z
-x,y,-z
-x,-y,-z
x,-y,z
1/2+x,1/2+y,z
1/2-x,1/2+y,-z
1/2-x,1/2-y,-z
1/2+x,1/2-y,z
loop_
_atom_site_type_symbol
_atom_site_label
_atom_site_fract_x
_atom_site_fract_y
_atom_site_fract_z
Si Si1 0.284115 0.418695 0.208197
Si Si2 0.191104 0.080714 0.268742
Si Si3 0.877242 0.180550 0.008496
Si Si4 0.959069 0.324952 0.632107
Si Si5 0.830790 0.210831 0.822524
Si Si6 0.413892 0.418271 0.339107
Si Si7 0.190873 0.418099 0.577119
O O1 0.237752 0.500000 0.223704
O O2 0.340905 0.395982 0.074965
O O3 0.166178 0.372995 0.304399
O O4 0.399350 0.409070 0.229422
O O5 0.258766 0.147001 0.179999
O O6 0.233750 0.082164 0.358289
O O7 0.046323 0.109894 0.318990
O O8 0.211595 0.000000 0.215031
O O9 0.759601 0.230001 0.090226
O O10 0.903789 0.175340 0.879465
O O11 0.000000 0.213562 0.000000
O O12 0.930919 0.248959 0.698887
O O13 0.000000 0.311059 0.500000
O O14 0.068145 0.367294 0.638581
O O15 0.409690 0.500000 0.374587
O O16 0.290000 0.383683 0.451349
O O17 0.149161 0.500000 0.572272
#
# Coordination Sequence:
#
# PCOD8098605 Si02
#       7
#     8   8   8   8   8   8   8
#     4  10  20  35  61  94 123 156 204 253 304 364
#     4  10  21  38  59  84 118 157 206 255 298 355
#     4  10  22  41  62  82 116 161 202 259 314 350
#     4  11  22  38  59  92 129 164 200 242 307 375
#     4  10  24  41  59  88 117 159 209 252 307 365
#     4   9  17  32  55  86 122 156 190 239 296 355
#     4  10  20  34  58  88 123 167 196 235 301 363
#
# _framework density 20.831357000000001
#
# number of rings (size 3 to 8) (size 9 to 14) (size 15 to 20)
#    0.000    2.000    1.429    1.714    2.000    4.286 
#    0.000    1.429    0.000    0.429    0.000    0.000 
#    0.000    0.000    0.000    0.000    0.000    0.000 
#
# Total GULP energy -346888.898268 kJ/mol
# GULP energy per Si atom -12388.889224 kJ/mol
# Density = 2.078394 g / cm^3
# Si number density = 20.831357 Si / 1000 Ang^3
#
#
#
# Elastic Constant Matrix: (Units=GPa)
#
#
# Indices 1 2 3 4 5 6 
#
# 1 86.7906 21.1253 33.3545 0.0000 15.0432 0.0000
# 2 21.1253 107.1834 50.8616 0.0000 17.6715 0.0000
# 3 33.3545 50.8616 112.4078 0.0000 24.4326 0.0000
# 4 0.0000 0.0000 0.0000 12.9087 0.0000 16.4455
# 5 15.0432 17.6715 24.4326 0.0000 29.9374 0.0000
# 6 0.0000 0.0000 0.0000 16.4455 0.0000 16.9752
#
#
#
# Elastic Compliance Matrix: (Units=1/GPa)
#
#
# Indices 1 2 3 4 5 6 
#
# 1 0.013470 -0.000644 -0.002817 0.000000 -0.004090 0.000000
# 2 -0.000644 0.012168 -0.004648 0.000000 -0.003065 0.000000
# 3 -0.002817 -0.004648 0.013288 0.000000 -0.006686 0.000000
# 4 0.000000 0.000000 0.000000 -0.330729 0.000000 0.320409
# 5 -0.004090 -0.003065 -0.006686 0.000000 0.042724 0.000000
# 6 0.000000 0.000000 0.000000 0.320409 0.000000 -0.251501
#
#
# Mechanical properties :
#
#
# Convention : Reuss Voigt Hill
#
# Bulk Modulus (GPa) = 44.03647 57.45161 50.74404
# Shear Modulus (GPa) = -10.48674 25.36696 7.44011
#
# Velocity S-wave (km/s) = -2.24612 3.49338 1.89192
# Velocity P-wave (km/s) = 3.80246 6.62653 5.40230
#
# Compressibility (1/GPa) = 0.02270845
#
# Stress axis : x y z
#
# Youngs Moduli (GPa) = 74.23879 82.18373 75.25365
#
# Poissons Ratio (x) = 0.05293 0.21196
# Poissons Ratio (y) = 0.04781 0.34980
# Poissons Ratio (z) = 0.20910 0.38201
#
# Static dielectric constant tensor:
#      x y z
#    x 3.770030 0.000000 0.114530 
#    y 0.000000 3.989200 0.000000 
#    z 0.114530 0.000000 4.014390 
# 
# 
# High freq. dielectric constant tensor:
#      x y z
#    x 1.814920 0.000000 0.011200 
#    y 0.000000 1.819290 0.000000 
#    z 0.011200 0.000000 1.810010 
# 
# From -- ./inp_files/133888.got.cif
#   From: 2010.06.25/outbox.cif.g09.slc.cpg/sg12_67_cif.got.tgz:133888.got - 2010.06.28 00:19:55.
