data_PCOD8098064
_publ_section_title
;
Structure prediction by ZEFSAII (Michael W. Deem and Ramdas Pophale) SiO2 
 PCOD8098064
Probable space group: C 2/M
;
_chemical_formula_sum "Si O2"
_cell_formula_units_Z 56
_cell_length_a 24.040422
_cell_length_b 18.307205
_cell_length_c 12.630313
_cell_angle_alpha 90.000000
_cell_angle_beta 28.183232
_cell_angle_gamma 90.000000
_cell_volume 2625.364406
_symmetry_space_group_name_H-M "C 2/M"
_symmetry_group_IT_number 12
_symmetry_cell_setting 'monoclinic'
loop_
_space_group_symop_operation_xyz
x,y,z
-x,y,-z
-x,-y,-z
x,-y,z
1/2+x,1/2+y,z
1/2-x,1/2+y,-z
1/2-x,1/2-y,-z
1/2+x,1/2-y,z
loop_
_atom_site_type_symbol
_atom_site_label
_atom_site_fract_x
_atom_site_fract_y
_atom_site_fract_z
Si Si1 0.010594 0.188214 0.297659
Si Si2 0.627816 0.085279 0.765083
Si Si3 0.579718 0.714729 0.955515
Si Si4 0.773526 0.916626 0.321787
Si Si5 0.156332 0.310456 0.125524
Si Si6 0.265844 0.584565 0.091514
Si Si7 0.254962 0.835168 0.248531
O O1 0.036203 0.262804 0.321289
O O2 0.883247 0.160770 0.546989
O O3 0.000271 0.209349 0.192455
O O4 0.110596 0.125320 0.142940
O O5 0.676433 0.111330 0.569160
O O6 0.714557 0.103040 0.717030
O O7 0.613361 0.000000 0.784767
O O8 0.500000 0.121858 0.000000
O O9 0.612883 0.634535 0.856041
O O10 0.700925 0.758328 0.775542
O O11 0.500000 0.753813 0.000000
O O12 0.727699 0.908904 0.278025
O O13 0.811399 0.000000 0.282313
O O14 0.159399 0.376173 0.205664
O O15 0.250000 0.250000 0.000000
O O16 0.180253 0.347645 0.971454
O O17 0.278055 0.500000 0.036791
#
# Coordination Sequence:
#
# PCOD8098064 Si02
#       7
#     8   8   8   8   8   8   8
#     4   9  20  36  54  82 115 145 181 229 282 325
#     4  10  22  39  57  81 116 151 182 223 277 334
#     4  10  20  34  55  83 111 145 189 230 269 325
#     4   9  19  36  58  83 111 143 180 229 283 326
#     4   9  20  38  55  81 114 146 183 227 281 328
#     4   9  18  36  61  85 109 142 188 232 270 326
#     4  11  22  36  57  82 113 150 186 228 277 330
#
# _framework density 21.330373000000002
#
# number of rings (size 3 to 8) (size 9 to 14) (size 15 to 20)
#    0.000    2.429    0.000    2.143    0.000    8.286 
#    0.000    5.000    0.000    0.857    0.000   19.000 
#    0.000    0.000    0.000    0.000    0.000    0.000 
#
# Total GULP energy -346985.436710 kJ/mol
# GULP energy per Si atom -12392.337025 kJ/mol
# Density = 2.128182 g / cm^3
# Si number density = 21.330373 Si / 1000 Ang^3
#
#
#
# Elastic Constant Matrix: (Units=GPa)
#
#
# Indices 1 2 3 4 5 6 
#
# 1 114.2755 37.3890 34.5164 0.0000 5.2803 -0.0001
# 2 37.3890 49.7083 7.0077 0.0000 12.4236 0.0000
# 3 34.5164 7.0077 68.0309 0.0000 0.1611 0.0000
# 4 0.0000 0.0000 0.0000 18.1561 0.0000 6.1294
# 5 5.2803 12.4236 0.1611 0.0000 29.8963 0.0000
# 6 -0.0001 0.0000 0.0000 6.1294 0.0000 36.5865
#
#
#
# Elastic Compliance Matrix: (Units=1/GPa)
#
#
# Indices 1 2 3 4 5 6 
#
# 1 0.013704 -0.009902 -0.005937 0.000000 0.001727 0.000000
# 2 -0.009902 0.029967 0.001963 0.000000 -0.010715 0.000000
# 3 -0.005937 0.001963 0.017509 0.000000 0.000139 0.000000
# 4 0.000000 0.000000 0.000000 0.058380 0.000000 -0.009780
# 5 0.001727 -0.010715 0.000139 0.000000 0.037596 0.000000
# 6 0.000000 0.000000 0.000000 -0.009780 0.000000 0.028971
#
#
# Mechanical properties :
#
#
# Convention : Reuss Voigt Hill
#
# Bulk Modulus (GPa) = 29.91650 43.31566 36.61608
# Shear Modulus (GPa) = 22.22004 27.13454 24.67729
#
# Velocity S-wave (km/s) = 3.23105 3.57053 3.40503
# Velocity P-wave (km/s) = 5.28917 6.11141 5.71510
#
# Compressibility (1/GPa) = 0.03342637
#
# Stress axis : x y z
#
# Youngs Moduli (GPa) = 72.97069 33.37026 57.11363
#
# Poissons Ratio (x) = 0.33044 0.33909
# Poissons Ratio (y) = 0.72258 -0.11209
# Poissons Ratio (z) = 0.43323 -0.06549
#
# Static dielectric constant tensor:
#      x y z
#    x 4.093230 0.000000 0.208950 
#    y 0.000000 3.924870 0.000000 
#    z 0.208950 0.000000 3.749740 
# 
# 
# High freq. dielectric constant tensor:
#      x y z
#    x 1.842800 0.000000 0.014200 
#    y 0.000000 1.834360 0.000000 
#    z 0.014200 0.000000 1.816880 
# 
# From -- ./inp_files/177886.got.cif
#   From: 2010.06.25/outbox.cif.g09.slc.cpg/sg12_89_cif.got.tgz:177886.got - 2010.06.28 00:19:55.
