data_PCOD8098618
_publ_section_title
;
Structure prediction by ZEFSAII (Michael W. Deem and Ramdas Pophale) SiO2 
 PCOD8098618
Probable space group: C 2/M
;
_chemical_formula_sum "Si O2"
_cell_formula_units_Z 52
_cell_length_a 18.444010
_cell_length_b 14.228171
_cell_length_c 16.396854
_cell_angle_alpha 90.000000
_cell_angle_beta 34.776933
_cell_angle_gamma 90.000000
_cell_volume 2454.321632
_symmetry_space_group_name_H-M "C 2/M"
_symmetry_group_IT_number 12
_symmetry_cell_setting 'monoclinic'
loop_
_space_group_symop_operation_xyz
x,y,z
-x,y,-z
-x,-y,-z
x,-y,z
1/2+x,1/2+y,z
1/2-x,1/2+y,-z
1/2-x,1/2-y,-z
1/2+x,1/2-y,z
loop_
_atom_site_type_symbol
_atom_site_label
_atom_site_fract_x
_atom_site_fract_y
_atom_site_fract_z
Si Si1 0.000000 0.763678 0.500000
Si Si2 0.645959 0.603796 0.477234
Si Si3 0.503386 0.708045 0.744420
Si Si4 0.697138 0.764561 0.192283
Si Si5 0.566428 0.389141 0.026119
Si Si6 0.609225 0.894214 0.959405
Si Si7 0.576534 0.898352 0.724961
O O1 0.105249 0.826873 0.444887
O O2 0.079648 0.704667 0.359908
O O3 0.595238 0.500000 0.504741
O O4 0.584375 0.632185 0.620521
O O5 0.798026 0.605537 0.335976
O O6 0.361995 0.727912 0.839010
O O7 0.501135 0.671041 0.839918
O O8 0.576895 0.807929 0.666461
O O9 0.786709 0.856021 0.106608
O O10 0.772752 0.675319 0.157664
O O11 0.561041 0.500000 0.050531
O O12 0.500000 0.367714 0.000000
O O13 0.550942 0.891029 0.103637
O O14 0.654542 0.000000 0.895148
O O15 0.500000 0.858782 0.000000
O O16 0.574688 0.000000 0.679801
#
# Coordination Sequence:
#
# PCOD8098618 Si02
#       7
#     4   8   8   8   8   8   8
#     4  10  23  36  63  90 122 160 191 242 321 366
#     4  10  21  38  60  92 127 157 197 244 301 369
#     4  11  23  40  63  91 121 164 206 251 306 357
#     4  11  23  41  61  91 123 159 201 255 310 362
#     4  11  25  43  65  89 120 165 213 255 301 359
#     4  10  20  34  58  90 120 155 194 243 308 369
#     4  10  21  36  57  87 120 158 199 247 301 356
#
# _framework density 21.187117000000001
#
# number of rings (size 3 to 8) (size 9 to 14) (size 15 to 20)
#    0.000    1.538    1.538    3.000    2.154    5.538 
#    0.000    0.385    0.000    0.000    0.000    0.000 
#    0.000    0.000    0.000    0.000    0.000    0.000 
#
# Total GULP energy -322220.892309 kJ/mol
# GULP energy per Si atom -12393.111243 kJ/mol
# Density = 2.113889 g / cm^3
# Si number density = 21.187117 Si / 1000 Ang^3
#
#
#
# Elastic Constant Matrix: (Units=GPa)
#
#
# Indices 1 2 3 4 5 6 
#
# 1 90.4353 26.8028 9.9170 0.0000 1.7003 -0.0001
# 2 26.8028 102.7641 10.1426 0.0000 -9.4598 -0.0001
# 3 9.9170 10.1426 77.5340 0.0000 -0.6332 -0.0001
# 4 0.0000 0.0000 0.0000 43.9277 0.0000 49.6546
# 5 1.7003 -9.4598 -0.6332 0.0000 29.3674 0.0001
# 6 -0.0001 -0.0001 -0.0001 49.6546 0.0001 110.0827
#
#
#
# Elastic Compliance Matrix: (Units=1/GPa)
#
#
# Indices 1 2 3 4 5 6 
#
# 1 0.012172 -0.003224 -0.001150 0.000000 -0.001768 0.000000
# 2 -0.003224 0.011012 -0.000998 0.000000 0.003712 0.000000
# 3 -0.001150 -0.000998 0.013175 0.000000 0.000029 0.000000
# 4 0.000000 0.000000 0.000000 0.046446 0.000000 -0.020950
# 5 -0.001768 0.003712 0.000029 0.000000 0.035350 0.000000
# 6 0.000000 0.000000 0.000000 -0.020950 0.000000 0.018534
#
#
# Mechanical properties :
#
#
# Convention : Reuss Voigt Hill
#
# Bulk Modulus (GPa) = 39.03676 40.49536 39.76606
# Shear Modulus (GPa) = 32.05689 51.60031 41.82860
#
# Velocity S-wave (km/s) = 3.89400 4.94039 4.44807
# Velocity P-wave (km/s) = 6.21952 7.19013 6.72236
#
# Compressibility (1/GPa) = 0.02561688
#
# Stress axis : x y z
#
# Youngs Moduli (GPa) = 82.15256 90.80881 75.89917
#
# Poissons Ratio (x) = 0.29278 0.08725
# Poissons Ratio (y) = 0.26487 0.07574
# Poissons Ratio (z) = 0.09444 0.09061
#
# Static dielectric constant tensor:
#      x y z
#    x 3.798240 0.000000 -0.035660 
#    y 0.000000 3.960680 0.000000 
#    z -0.035660 0.000000 3.792850 
# 
# 
# High freq. dielectric constant tensor:
#      x y z
#    x 1.826340 0.000000 -0.006020 
#    y 0.000000 1.829370 0.000000 
#    z -0.006020 0.000000 1.829920 
# 
# From -- ./inp_files/284268.got.cif
#   From: 2010.06.25/outbox.cif.g09.slc.cpg/sg12_143_cif.got.tgz:284268.got - 2010.06.28 00:19:55.
