data_PCOD8098317
_publ_section_title
;
Structure prediction by ZEFSAII (Michael W. Deem and Ramdas Pophale) SiO2 
 PCOD8098317
Probable space group: C 2/M
;
_chemical_formula_sum "Si O2"
_cell_formula_units_Z 40
_cell_length_a 20.863534
_cell_length_b 9.220241
_cell_length_c 10.162215
_cell_angle_alpha 90.000000
_cell_angle_beta 88.632217
_cell_angle_gamma 90.000000
_cell_volume 1954.315896
_symmetry_space_group_name_H-M "C 2/M"
_symmetry_group_IT_number 12
_symmetry_cell_setting 'monoclinic'
loop_
_space_group_symop_operation_xyz
x,y,z
-x,y,-z
-x,-y,-z
x,-y,z
1/2+x,1/2+y,z
1/2-x,1/2+y,-z
1/2-x,1/2-y,-z
1/2+x,1/2-y,z
loop_
_atom_site_type_symbol
_atom_site_label
_atom_site_fract_x
_atom_site_fract_y
_atom_site_fract_z
Si Si1 0.442783 0.336939 0.105084
Si Si2 0.302432 0.328079 0.408046
Si Si3 0.948152 0.829651 0.401271
Si Si4 0.341416 0.157613 0.956637
Si Si5 0.745496 0.341257 0.184344
O O1 0.413667 0.500000 0.119486
O O2 0.463260 0.280853 0.249814
O O3 0.500000 0.338714 0.000000
O O4 0.392378 0.225877 0.051048
O O5 0.291187 0.500000 0.408076
O O6 0.250000 0.250000 0.500000
O O7 0.375237 0.287846 0.446952
O O8 0.292154 0.263422 0.263877
O O9 0.000000 0.757643 0.500000
O O10 0.956387 0.000000 0.409087
O O11 0.323712 0.262453 0.834262
O O12 0.365829 0.000000 0.904078
O O13 0.276764 0.131373 0.041718
O O14 0.733839 0.500000 0.253071
#
# Coordination Sequence:
#
# PCOD8098317 Si02
#       5
#     8   8   8   8   8
#     4  10  20  35  58  86 115 153 202 249 295 357
#     4  11  22  37  60  87 120 156 200 251 302 362
#     4   9  19  37  59  83 115 157 202 248 297 351
#     4  10  20  34  56  84 115 148 187 239 298 354
#     4  10  20  35  57  83 113 149 191 237 294 358
#
# _framework density 20.467521000000001
#
# number of rings (size 3 to 8) (size 9 to 14) (size 15 to 20)
#    0.000    2.000    2.000    1.800    0.000    3.600 
#    0.000    4.000    0.000    5.400    0.000    0.000 
#    0.000    0.000    0.000    0.000    0.000    0.000 
#
# Total GULP energy -247811.320835 kJ/mol
# GULP energy per Si atom -12390.566042 kJ/mol
# Density = 2.042094 g / cm^3
# Si number density = 20.467521 Si / 1000 Ang^3
#
#
#
# Elastic Constant Matrix: (Units=GPa)
#
#
# Indices 1 2 3 4 5 6 
#
# 1 104.1605 52.9718 62.0247 0.0000 25.3829 0.0000
# 2 52.9718 133.4703 45.7800 0.0000 22.0076 0.0000
# 3 62.0247 45.7800 68.2297 0.0000 30.7300 0.0000
# 4 0.0000 0.0000 0.0000 24.1286 0.0000 -0.5040
# 5 25.3829 22.0076 30.7300 0.0000 45.9166 0.0000
# 6 0.0000 0.0000 0.0000 -0.5040 0.0000 14.0650
#
#
#
# Elastic Compliance Matrix: (Units=1/GPa)
#
#
# Indices 1 2 3 4 5 6 
#
# 1 0.021601 -0.002412 -0.018840 0.000000 0.001823 0.000000
# 2 -0.002412 0.010007 -0.004240 0.000000 -0.000625 0.000000
# 3 -0.018840 -0.004240 0.041545 0.000000 -0.015357 0.000000
# 4 0.000000 0.000000 0.000000 0.041476 0.000000 0.001486
# 5 0.001823 -0.000625 -0.015357 0.000000 0.031348 0.000000
# 6 0.000000 0.000000 0.000000 0.001486 0.000000 0.071151
#
#
# Mechanical properties :
#
#
# Convention : Reuss Voigt Hill
#
# Bulk Modulus (GPa) = 45.10803 69.71260 57.41031
# Shear Modulus (GPa) = 18.14869 26.49432 22.32150
#
# Velocity S-wave (km/s) = 2.98099 3.60176 3.30598
# Velocity P-wave (km/s) = 5.82538 7.17154 6.53322
#
# Compressibility (1/GPa) = 0.02216900
#
# Stress axis : x y z
#
# Youngs Moduli (GPa) = 46.29328 99.92992 24.07046
#
# Poissons Ratio (x) = 0.24101 0.45349
# Poissons Ratio (y) = 0.11165 0.10207
# Poissons Ratio (z) = 0.87216 0.42374
#
# Static dielectric constant tensor:
#      x y z
#    x 3.121870 0.000000 0.972800 
#    y 0.000000 3.979640 0.000000 
#    z 0.972800 0.000000 2.735980 
# 
# 
# High freq. dielectric constant tensor:
#      x y z
#    x 1.784530 0.000000 0.014810 
#    y 0.000000 1.793210 0.000000 
#    z 0.014810 0.000000 1.795410 
# 
# From -- ./inp_files/162581.got.cif
#   From: 2010.06.25/outbox.cif.g09.slc.cpg/sg12_82_cif.got.tgz:162581.got - 2010.06.28 00:19:55.
