data_PCOD8098520
_publ_section_title
;
Structure prediction by ZEFSAII (Michael W. Deem and Ramdas Pophale) SiO2 
 PCOD8098520
Probable space group: C 2/M
;
_chemical_formula_sum "Si O2"
_cell_formula_units_Z 48
_cell_length_a 20.438278
_cell_length_b 8.953658
_cell_length_c 24.795262
_cell_angle_alpha 90.000000
_cell_angle_beta 145.636423
_cell_angle_gamma 90.000000
_cell_volume 2561.138751
_symmetry_space_group_name_H-M "C 2/M"
_symmetry_group_IT_number 12
_symmetry_cell_setting 'monoclinic'
loop_
_space_group_symop_operation_xyz
x,y,z
-x,y,-z
-x,-y,-z
x,-y,z
1/2+x,1/2+y,z
1/2-x,1/2+y,-z
1/2-x,1/2-y,-z
1/2+x,1/2-y,z
loop_
_atom_site_type_symbol
_atom_site_label
_atom_site_fract_x
_atom_site_fract_y
_atom_site_fract_z
Si Si1 0.150791 0.175433 0.398663
Si Si2 0.925806 0.324349 0.100354
Si Si3 0.339136 0.323818 0.717543
Si Si4 0.093146 0.826175 0.721723
Si Si5 0.271751 0.175284 0.096948
Si Si6 0.114536 0.826639 0.610649
O O1 0.250000 0.250000 0.500000
O O2 0.163306 0.228020 0.345910
O O3 0.028952 0.231664 0.338835
O O4 0.163249 0.000000 0.413538
O O5 0.933139 0.500000 0.096704
O O6 0.871899 0.282648 0.121970
O O7 0.052919 0.255277 0.180181
O O8 0.847255 0.255502 0.999900
O O9 0.354515 0.500000 0.733809
O O10 0.220495 0.273891 0.663984
O O11 0.192821 0.733788 0.819964
O O12 0.095053 0.792361 0.659929
O O13 0.112113 0.000000 0.747340
O O14 0.249155 0.000000 0.083453
O O15 0.000000 0.778784 0.500000
O O16 0.143273 0.000000 0.619639
#
# Coordination Sequence:
#
# PCOD8098520 Si02
#       6
#     8   8   8   8   8   8
#     4  10  21  35  55  82 111 145 188 238 287 334
#     4  10  20  35  58  86 117 153 189 230 284 348
#     4  11  22  37  58  85 117 150 189 241 290 337
#     4  10  20  37  58  82 114 152 192 235 283 342
#     4  10  20  34  57  88 118 149 186 236 289 339
#     4  10  22  40  61  82 113 158 199 235 283 345
#
# _framework density 18.741662000000002
#
# number of rings (size 3 to 8) (size 9 to 14) (size 15 to 20)
#    0.000    1.833    1.667    2.500    0.000    5.667 
#    0.000    0.833    0.000    5.000    0.000    0.000 
#    0.000    0.000    0.000    0.000    0.000    0.000 
#
# Total GULP energy -297725.834018 kJ/mol
# GULP energy per Si atom -12405.243084 kJ/mol
# Density = 1.869901 g / cm^3
# Si number density = 18.741662 Si / 1000 Ang^3
#
#
#
# Elastic Constant Matrix: (Units=GPa)
#
#
# Indices 1 2 3 4 5 6 
#
# 1 85.7286 35.6874 51.6999 0.0000 -4.4974 0.0000
# 2 35.6874 71.2372 60.3232 0.0000 -2.0203 0.0000
# 3 51.6999 60.3232 162.1383 0.0000 -6.5399 0.0000
# 4 0.0000 0.0000 0.0000 40.2487 0.0000 1.0528
# 5 -4.4974 -2.0203 -6.5399 0.0000 31.5858 0.0000
# 6 0.0000 0.0000 0.0000 1.0528 0.0000 29.5075
#
#
#
# Elastic Compliance Matrix: (Units=1/GPa)
#
#
# Indices 1 2 3 4 5 6 
#
# 1 0.015751 -0.005322 -0.002991 0.000000 0.001283 0.000000
# 2 -0.005322 0.022295 -0.006626 0.000000 -0.000704 0.000000
# 3 -0.002991 -0.006626 0.009633 0.000000 0.001145 0.000000
# 4 0.000000 0.000000 0.000000 0.024869 0.000000 -0.000887
# 5 0.001283 -0.000704 0.001145 0.000000 0.032035 0.000000
# 6 0.000000 0.000000 0.000000 -0.000887 0.000000 0.033921
#
#
# Mechanical properties :
#
#
# Convention : Reuss Voigt Hill
#
# Bulk Modulus (GPa) = 56.17667 68.28057 62.22862
# Shear Modulus (GPa) = 28.68389 31.69463 30.18926
#
# Velocity S-wave (km/s) = 3.91639 4.11680 4.01784
# Velocity P-wave (km/s) = 7.10564 7.68824 7.40267
#
# Compressibility (1/GPa) = 0.01780099
#
# Stress axis : x y z
#
# Youngs Moduli (GPa) = 63.48799 44.85374 103.81409
#
# Poissons Ratio (x) = 0.23870 0.31047
# Poissons Ratio (y) = 0.33787 0.68789
# Poissons Ratio (z) = 0.18987 0.29721
#
# Static dielectric constant tensor:
#      x y z
#    x 3.352670 0.000000 -0.035750 
#    y 0.000000 3.423260 0.000000 
#    z -0.035750 0.000000 3.535690 
# 
# 
# High freq. dielectric constant tensor:
#      x y z
#    x 1.713870 0.000000 -0.003310 
#    y 0.000000 1.729760 0.000000 
#    z -0.003310 0.000000 1.742880 
# 
# From -- ./inp_files/365545.got.cif
#   From: 2010.06.25/outbox.cif.g09.slc.cpg/sg12_183_cif.got.tgz:365545.got - 2010.06.28 00:19:55.
