data_PCOD8098634
_publ_section_title
;
Structure prediction by ZEFSAII (Michael W. Deem and Ramdas Pophale) SiO2 
 PCOD8098634
Probable space group: C 2/M
;
_chemical_formula_sum "Si O2"
_cell_formula_units_Z 56
_cell_length_a 31.858984
_cell_length_b 14.492625
_cell_length_c 12.348606
_cell_angle_alpha 90.000000
_cell_angle_beta 29.591077
_cell_angle_gamma 90.000000
_cell_volume 2815.487920
_symmetry_space_group_name_H-M "C 2/M"
_symmetry_group_IT_number 12
_symmetry_cell_setting 'monoclinic'
loop_
_space_group_symop_operation_xyz
x,y,z
-x,y,-z
-x,-y,-z
x,-y,z
1/2+x,1/2+y,z
1/2-x,1/2+y,-z
1/2-x,1/2-y,-z
1/2+x,1/2-y,z
loop_
_atom_site_type_symbol
_atom_site_label
_atom_site_fract_x
_atom_site_fract_y
_atom_site_fract_z
Si Si1 0.844136 0.220831 0.764481
Si Si2 0.428744 0.393080 0.989055
Si Si3 0.368554 0.897831 0.598789
Si Si4 0.830066 0.105603 0.994238
Si Si5 0.372869 0.607673 0.488430
Si Si6 0.917786 0.399612 0.256933
Si Si7 0.831952 0.779613 0.379543
O O1 0.895140 0.316080 0.622436
O O2 0.877406 0.168245 0.796968
O O3 0.843152 0.149633 0.667989
O O4 0.750000 0.250000 0.000000
O O5 0.414672 0.500000 0.052331
O O6 0.371395 0.365290 0.015187
O O7 0.527201 0.372253 0.747635
O O8 0.401821 0.329028 0.148633
O O9 0.433473 0.892309 0.351496
O O10 0.375065 0.000000 0.638803
O O11 0.271818 0.880470 0.773435
O O12 0.853306 0.000000 0.915725
O O13 0.351571 0.500000 0.535731
O O14 0.318590 0.655019 0.513938
O O15 0.875605 0.500000 0.328311
O O16 0.855692 0.320405 0.365436
O O17 0.000000 0.388659 0.000000
O O18 0.750000 0.750000 0.500000
#
# Coordination Sequence:
#
# PCOD8098634 Si02
#       7
#     8   8   8   8   8   8   8
#     4  10  20  34  59  84 120 157 200 243 294 349
#     4  10  22  39  62  90 126 160 192 241 306 366
#     4   9  17  32  55  83 115 153 197 240 290 348
#     4   9  18  34  57  86 117 153 196 239 286 354
#     4  11  23  40  62  93 124 155 193 249 309 358
#     4  10  20  35  57  83 112 148 194 242 287 344
#     4  12  24  37  61  87 123 158 197 237 294 361
#
# _framework density 19.889980000000001
#
# number of rings (size 3 to 8) (size 9 to 14) (size 15 to 20)
#    0.000    1.857    1.429    3.000    2.000    4.571 
#    0.000    2.143    0.000    0.000    0.000    1.000 
#    0.000    0.000    0.000    0.000    0.000    0.000 
#
# Total GULP energy -346981.965316 kJ/mol
# GULP energy per Si atom -12392.213047 kJ/mol
# Density = 1.984471 g / cm^3
# Si number density = 19.889980 Si / 1000 Ang^3
#
#
#
# Elastic Constant Matrix: (Units=GPa)
#
#
# Indices 1 2 3 4 5 6 
#
# 1 46.3905 20.7398 2.4806 0.0000 14.7585 0.0000
# 2 20.7398 124.8504 25.1175 0.0000 17.2796 0.0000
# 3 2.4806 25.1175 63.3484 0.0000 22.0711 0.0000
# 4 0.0000 0.0000 0.0000 30.7483 0.0000 14.1893
# 5 14.7585 17.2796 22.0711 0.0000 29.4452 0.0000
# 6 0.0000 0.0000 0.0000 14.1893 0.0000 31.4034
#
#
#
# Elastic Compliance Matrix: (Units=1/GPa)
#
#
# Indices 1 2 3 4 5 6 
#
# 1 0.028102 -0.003605 0.006090 0.000000 -0.016534 0.000000
# 2 -0.003605 0.009427 -0.003111 0.000000 -0.001393 0.000000
# 3 0.006090 -0.003111 0.023291 0.000000 -0.018684 0.000000
# 4 0.000000 0.000000 0.000000 0.041090 0.000000 -0.018566
# 5 -0.016534 -0.001393 -0.018684 0.000000 0.057071 0.000000
# 6 0.000000 0.000000 0.000000 -0.018566 0.000000 0.040233
#
#
# Mechanical properties :
#
#
# Convention : Reuss Voigt Hill
#
# Bulk Modulus (GPa) = 16.78782 36.80723 26.79753
# Shear Modulus (GPa) = 22.69400 30.73615 26.71508
#
# Velocity S-wave (km/s) = 3.38150 3.93531 3.66887
# Velocity P-wave (km/s) = 4.86875 6.26055 5.60799
#
# Compressibility (1/GPa) = 0.05956699
#
# Stress axis : x y z
#
# Youngs Moduli (GPa) = 35.58416 106.07616 42.93580
#
# Poissons Ratio (x) = 0.38240 -0.26147
# Poissons Ratio (y) = 0.12828 0.13359
# Poissons Ratio (z) = -0.21670 0.33003
#
# Static dielectric constant tensor:
#      x y z
#    x 3.510550 0.000000 0.377920 
#    y 0.000000 4.251510 0.000000 
#    z 0.377920 0.000000 3.608920 
# 
# 
# High freq. dielectric constant tensor:
#      x y z
#    x 1.751960 0.000000 0.029700 
#    y 0.000000 1.802360 0.000000 
#    z 0.029700 0.000000 1.766840 
# 
# From -- ./inp_files/189614.got.cif
#   From: 2010.06.25/outbox.cif.g09.slc.cpg/sg12_95_cif.got.tgz:189614.got - 2010.06.28 00:19:55.
