data_PCOD8098463
_publ_section_title
;
Structure prediction by ZEFSAII (Michael W. Deem and Ramdas Pophale) SiO2 
 PCOD8098463
Probable space group: C 2/M
;
_chemical_formula_sum "Si O2"
_cell_formula_units_Z 56
_cell_length_a 13.456159
_cell_length_b 24.985892
_cell_length_c 12.446430
_cell_angle_alpha 90.000000
_cell_angle_beta 46.599013
_cell_angle_gamma 90.000000
_cell_volume 3040.422576
_symmetry_space_group_name_H-M "C 2/M"
_symmetry_group_IT_number 12
_symmetry_cell_setting 'monoclinic'
loop_
_space_group_symop_operation_xyz
x,y,z
-x,y,-z
-x,-y,-z
x,-y,z
1/2+x,1/2+y,z
1/2-x,1/2+y,-z
1/2-x,1/2-y,-z
1/2+x,1/2-y,z
loop_
_atom_site_type_symbol
_atom_site_label
_atom_site_fract_x
_atom_site_fract_y
_atom_site_fract_z
Si Si1 0.687660 0.254484 0.164228
Si Si2 0.637776 0.166077 0.835099
Si Si3 0.617514 0.250631 0.670751
Si Si4 0.780907 0.063273 0.682595
Si Si5 0.647055 0.670406 0.834109
Si Si6 0.605658 0.441956 0.825427
Si Si7 0.473183 0.438365 0.355243
O O1 0.739345 0.307847 0.186447
O O2 0.523448 0.254181 0.291137
O O3 0.737278 0.201384 0.187933
O O4 0.750000 0.250000 0.000000
O O5 0.620542 0.196488 0.736144
O O6 0.653657 0.102658 0.799669
O O7 0.500000 0.176435 0.000000
O O8 0.750000 0.250000 0.500000
O O9 0.624648 0.304317 0.734835
O O10 0.842702 0.082251 0.521172
O O11 0.884923 0.081408 0.699754
O O12 0.738420 0.000000 0.718489
O O13 0.701508 0.608787 0.781366
O O14 0.500000 0.671485 0.000000
O O15 0.682535 0.500000 0.755728
O O16 0.531346 0.426524 0.768251
O O17 0.500000 0.448659 0.000000
O O18 0.470927 0.500000 0.383903
#
# Coordination Sequence:
#
# PCOD8098463 Si02
#       7
#     8   8   8   8   8   8   8
#     4  11  20  40  62  76 114 158 186 235 292 341
#     4  11  23  37  57  86 112 151 197 228 292 357
#     4  11  24  38  58  86 111 142 197 245 283 342
#     4   9  19  33  55  84 117 152 193 239 292 346
#     4  10  20  34  57  86 111 151 192 224 292 346
#     4   9  18  31  51  83 120 149 188 238 282 342
#     4   8  16  32  52  81 116 152 191 239 289 338
#
# _framework density 18.418493000000002
#
# number of rings (size 3 to 8) (size 9 to 14) (size 15 to 20)
#    0.000    2.143    2.857    1.714    4.000    3.714 
#    0.000    0.000    0.000    0.857    0.000    1.000 
#    0.000    0.000    0.000    0.000    0.000    0.000 
#
# Total GULP energy -346877.108812 kJ/mol
# GULP energy per Si atom -12388.468172 kJ/mol
# Density = 1.837657 g / cm^3
# Si number density = 18.418493 Si / 1000 Ang^3
#
#
#
# Elastic Constant Matrix: (Units=GPa)
#
#
# Indices 1 2 3 4 5 6 
#
# 1 101.7026 43.2258 51.5103 0.0000 -2.2169 0.0000
# 2 43.2258 156.9700 37.5112 0.0000 -2.8542 0.0000
# 3 51.5103 37.5112 108.1115 0.0000 0.9300 0.0000
# 4 0.0000 0.0000 0.0000 -1.2770 0.0000 -6.1707
# 5 -2.2169 -2.8542 0.9300 0.0000 34.2029 0.0000
# 6 0.0000 0.0000 0.0000 -6.1707 0.0000 14.1866
#
#
#
# Elastic Compliance Matrix: (Units=1/GPa)
#
#
# Indices 1 2 3 4 5 6 
#
# 1 0.013781 -0.002408 -0.005738 0.000000 0.000848 0.000000
# 2 -0.002408 0.007382 -0.001418 0.000000 0.000498 0.000000
# 3 -0.005738 -0.001418 0.012483 0.000000 -0.000830 0.000000
# 4 0.000000 0.000000 0.000000 -0.252458 0.000000 -0.109811
# 5 0.000848 0.000498 -0.000830 0.000000 0.029356 0.000000
# 6 0.000000 0.000000 0.000000 -0.109811 0.000000 0.022725
#
#
# Mechanical properties :
#
#
# Convention : Reuss Voigt Hill
#
# Bulk Modulus (GPa) = 68.88433 70.14207 69.51320
# Shear Modulus (GPa) = -35.02261 25.05829 -4.98216
#
# Velocity S-wave (km/s) = -4.36534 3.69249 -1.64647
# Velocity P-wave (km/s) = 3.47455 7.50629 5.84880
#
# Compressibility (1/GPa) = 0.01451709
#
# Stress axis : x y z
#
# Youngs Moduli (GPa) = 72.56573 135.46868 80.11188
#
# Poissons Ratio (x) = 0.32625 0.45964
# Poissons Ratio (y) = 0.17476 0.11360
# Poissons Ratio (z) = 0.41635 0.19210
#
# Static dielectric constant tensor:
#      x y z
#    x 3.434050 0.000000 0.222130 
#    y 0.000000 3.721710 0.000000 
#    z 0.222130 0.000000 3.256010 
# 
# 
# High freq. dielectric constant tensor:
#      x y z
#    x 1.694520 0.000000 0.026800 
#    y 0.000000 1.727840 0.000000 
#    z 0.026800 0.000000 1.705050 
# 
# From -- ./inp_files/136939.got.cif
#   From: 2010.06.25/outbox.cif.g09.slc.cpg/sg12_69_cif.got.tgz:136939.got - 2010.06.28 00:19:55.
