data_PCOD8098497
_publ_section_title
;
Structure prediction by ZEFSAII (Michael W. Deem and Ramdas Pophale) SiO2 
 PCOD8098497
Probable space group: C 2/M
;
_chemical_formula_sum "Si O2"
_cell_formula_units_Z 40
_cell_length_a 27.002120
_cell_length_b 9.068140
_cell_length_c 21.707737
_cell_angle_alpha 90.000000
_cell_angle_beta 21.201439
_cell_angle_gamma 90.000000
_cell_volume 1922.280149
_symmetry_space_group_name_H-M "C 2/M"
_symmetry_group_IT_number 12
_symmetry_cell_setting 'monoclinic'
loop_
_space_group_symop_operation_xyz
x,y,z
-x,y,-z
-x,-y,-z
x,-y,z
1/2+x,1/2+y,z
1/2-x,1/2+y,-z
1/2-x,1/2-y,-z
1/2+x,1/2-y,z
loop_
_atom_site_type_symbol
_atom_site_label
_atom_site_fract_x
_atom_site_fract_y
_atom_site_fract_z
Si Si1 0.599374 0.164897 0.224903
Si Si2 0.646484 0.173939 0.667731
Si Si3 0.351858 0.173212 0.193017
Si Si4 0.601609 0.832169 0.432870
Si Si5 0.399800 0.330892 0.899016
O O1 0.470009 0.177627 0.418356
O O2 0.578157 0.286739 0.197572
O O3 0.607763 0.000000 0.185999
O O4 0.739575 0.193504 0.100967
O O5 0.750000 0.250000 0.500000
O O6 0.681515 0.216344 0.697483
O O7 0.491930 0.229082 0.835644
O O8 0.653601 0.000000 0.648678
O O9 0.242956 0.244736 0.272942
O O10 0.343851 0.000000 0.193014
O O11 0.500000 0.232650 0.000000
O O12 0.500000 0.761280 0.500000
O O13 0.635553 0.000000 0.374560
O O14 0.445771 0.500000 0.853847
#
# Coordination Sequence:
#
# PCOD8098497 Si02
#       5
#     8   8   8   8   8
#     4   9  19  36  56  83 120 155 194 242 292 351
#     4  11  23  39  61  87 119 156 200 249 299 358
#     4  10  24  44  62  87 123 161 203 248 298 360
#     4  10  22  39  61  88 118 154 198 246 295 352
#     4  10  20  34  57  87 117 152 194 243 297 352
#
# _framework density 20.808620000000001
#
# number of rings (size 3 to 8) (size 9 to 14) (size 15 to 20)
#    0.000    2.000    0.000    2.400    2.800    7.200 
#    0.000    0.000    0.000    0.000    0.000    0.000 
#    0.000    0.000    0.000    0.000    0.000    0.000 
#
# Total GULP energy -248025.381906 kJ/mol
# GULP energy per Si atom -12401.269095 kJ/mol
# Density = 2.076126 g / cm^3
# Si number density = 20.808620 Si / 1000 Ang^3
#
#
#
# Elastic Constant Matrix: (Units=GPa)
#
#
# Indices 1 2 3 4 5 6 
#
# 1 104.7327 45.2989 44.7126 0.0003 -28.1178 0.0002
# 2 45.2989 69.8861 40.5734 0.0050 -8.4897 -0.0012
# 3 44.7126 40.5734 108.4129 0.0027 -18.6645 -0.0009
# 4 0.0003 0.0050 0.0027 29.8402 -0.0004 -8.9432
# 5 -28.1178 -8.4897 -18.6645 -0.0004 36.6480 0.0000
# 6 0.0002 -0.0012 -0.0009 -8.9432 0.0000 31.9967
#
#
#
# Elastic Compliance Matrix: (Units=1/GPa)
#
#
# Indices 1 2 3 4 5 6 
#
# 1 0.016714 -0.008458 -0.002036 0.000002 0.009827 0.000000
# 2 -0.008458 0.022584 -0.005678 -0.000003 -0.004149 0.000000
# 3 -0.002036 -0.005678 0.012817 0.000000 0.003650 0.000000
# 4 0.000002 -0.000003 0.000000 0.036576 0.000001 0.010223
# 5 0.009827 -0.004149 0.003650 0.000001 0.035724 0.000000
# 6 0.000000 0.000000 0.000000 0.010223 0.000000 0.034111
#
#
# Mechanical properties :
#
#
# Convention : Reuss Voigt Hill
#
# Bulk Modulus (GPa) = 50.57942 60.46682 55.52312
# Shear Modulus (GPa) = 25.32173 29.86012 27.59093
#
# Velocity S-wave (km/s) = 3.49217 3.79223 3.64529
# Velocity P-wave (km/s) = 6.37339 6.94956 6.66770
#
# Compressibility (1/GPa) = 0.01977089
#
# Stress axis : x y z
#
# Youngs Moduli (GPa) = 59.83067 44.28011 78.02055
#
# Poissons Ratio (x) = 0.37451 0.15886
# Poissons Ratio (y) = 0.50603 0.44300
# Poissons Ratio (z) = 0.12182 0.25142
#
# Static dielectric constant tensor:
#      x y z
#    x 3.725980 0.000000 -0.175450 
#    y 0.000000 3.710720 0.000000 
#    z -0.175450 0.000000 3.824080 
# 
# 
# High freq. dielectric constant tensor:
#      x y z
#    x 1.812010 0.000000 -0.011520 
#    y 0.000000 1.807590 0.000000 
#    z -0.011520 0.000000 1.822790 
# 
# From -- ./inp_files/352954.got.cif
#   From: 2010.06.25/outbox.cif.g09.slc.cpg/sg12_177_cif.got.tgz:352954.got - 2010.06.28 00:19:55.
