data_PCOD8098241
_publ_section_title
;
Structure prediction by ZEFSAII (Michael W. Deem and Ramdas Pophale) SiO2 
 PCOD8098241
Probable space group: C 2/M
;
_chemical_formula_sum "Si O2"
_cell_formula_units_Z 64
_cell_length_a 9.114360
_cell_length_b 19.912205
_cell_length_c 17.520397
_cell_angle_alpha 90.000000
_cell_angle_beta 96.799605
_cell_angle_gamma 90.000000
_cell_volume 3157.359224
_symmetry_space_group_name_H-M "C 2/M"
_symmetry_group_IT_number 12
_symmetry_cell_setting 'monoclinic'
loop_
_space_group_symop_operation_xyz
x,y,z
-x,y,-z
-x,-y,-z
x,-y,z
1/2+x,1/2+y,z
1/2-x,1/2+y,-z
1/2-x,1/2-y,-z
1/2+x,1/2-y,z
loop_
_atom_site_type_symbol
_atom_site_label
_atom_site_fract_x
_atom_site_fract_y
_atom_site_fract_z
Si Si1 0.427454 0.077374 0.267700
Si Si2 0.043821 0.342868 0.589152
Si Si3 0.214346 0.578196 0.190672
Si Si4 0.723734 0.756631 0.409926
Si Si5 0.663349 0.852104 0.034691
Si Si6 0.633452 0.701892 0.065358
Si Si7 0.186134 0.184877 0.234463
Si Si8 0.118350 0.189268 0.712084
O O1 0.485377 0.094705 0.357125
O O2 0.552850 0.096823 0.214217
O O3 0.276900 0.116258 0.241858
O O4 0.387602 0.000000 0.261820
O O5 0.214193 0.317030 0.614816
O O6 0.000000 0.363658 0.500000
O O7 0.946859 0.278149 0.610974
O O8 0.250655 0.500000 0.205139
O O9 0.218702 0.594555 0.100732
O O10 0.337006 0.620305 0.243580
O O11 0.750000 0.750000 0.500000
O O12 0.826284 0.812649 0.373239
O O13 0.691751 0.778226 0.071276
O O14 0.500000 0.870509 0.000000
O O15 0.750651 0.852946 0.959704
O O16 0.594195 0.683402 0.149603
O O17 0.500000 0.697523 0.000000
O O18 0.299668 0.247277 0.243670
O O19 0.061407 0.194576 0.292879
#
# Coordination Sequence:
#
# PCOD8098241 Si02
#       8
#     8   8   8   8   8   8   8   8
#     4  11  24  41  60  87 125 168 212 255 308 374
#     4  10  20  36  60  93 125 160 198 251 314 368
#     4  11  23  40  62  88 123 166 210 257 311 377
#     4  10  20  35  59  95 128 154 200 254 307 364
#     4  10  20  34  56  82 118 152 199 250 306 371
#     4  10  21  35  56  88 118 151 195 256 314 368
#     4  12  24  37  65  91 123 158 206 263 314 369
#     4  12  22  38  64  94 122 161 208 256 316 370
#
# _framework density 20.270104
#
# number of rings (size 3 to 8) (size 9 to 14) (size 15 to 20)
#    0.000    1.250    3.750    3.000    3.500    1.000 
#    0.000    0.625    0.000    1.500    0.000    1.750 
#    0.000    0.000    0.000    0.000    0.000    0.000 
#
# Total GULP energy -396495.958914 kJ/mol
# GULP energy per Si atom -12390.498716 kJ/mol
# Density = 2.022397 g / cm^3
# Si number density = 20.270104 Si / 1000 Ang^3
#
#
#
# Elastic Constant Matrix: (Units=GPa)
#
#
# Indices 1 2 3 4 5 6 
#
# 1 93.1403 24.2821 11.4571 0.0000 -1.6485 0.0000
# 2 24.2821 79.0372 18.5424 0.0000 4.2511 0.0000
# 3 11.4571 18.5424 91.9102 0.0000 -5.9915 0.0000
# 4 0.0000 0.0000 0.0000 29.1506 0.0000 0.4807
# 5 -1.6485 4.2511 -5.9915 0.0000 27.1399 0.0000
# 6 0.0000 0.0000 0.0000 0.4807 0.0000 24.2119
#
#
#
# Elastic Compliance Matrix: (Units=1/GPa)
#
#
# Indices 1 2 3 4 5 6 
#
# 1 0.011756 -0.003511 -0.000685 0.000000 0.001113 0.000000
# 2 -0.003511 0.014529 -0.002695 0.000000 -0.003084 0.000000
# 3 -0.000685 -0.002695 0.011702 0.000000 0.002964 0.000000
# 4 0.000000 0.000000 0.000000 0.034316 0.000000 -0.000681
# 5 0.001113 -0.003084 0.002964 0.000000 0.038051 0.000000
# 6 0.000000 0.000000 0.000000 -0.000681 0.000000 0.041316
#
#
# Mechanical properties :
#
#
# Convention : Reuss Voigt Hill
#
# Bulk Modulus (GPa) = 41.31033 41.40566 41.35800
# Shear Modulus (GPa) = 28.81539 30.08755 29.45147
#
# Velocity S-wave (km/s) = 3.77446 3.85688 3.81589
# Velocity P-wave (km/s) = 6.27850 6.34865 6.31367
#
# Compressibility (1/GPa) = 0.02420702
#
# Stress axis : x y z
#
# Youngs Moduli (GPa) = 85.06507 68.82833 85.45301
#
# Poissons Ratio (x) = 0.24165 0.05850
# Poissons Ratio (y) = 0.29865 0.23025
# Poissons Ratio (z) = 0.05823 0.18546
#
# Static dielectric constant tensor:
#      x y z
#    x 4.035570 0.000000 -0.378080 
#    y 0.000000 3.388890 0.000000 
#    z -0.378080 0.000000 4.285460 
# 
# 
# High freq. dielectric constant tensor:
#      x y z
#    x 1.797780 0.000000 -0.005070 
#    y 0.000000 1.750180 0.000000 
#    z -0.005070 0.000000 1.817620 
# 
# From -- ./inp_files/258133.got.cif
#   From: 2010.06.25/outbox.cif.g09.slc.cpg/sg12_130_cif.got.tgz:258133.got - 2010.06.28 00:19:55.
