data_PCOD8098569
_publ_section_title
;
Structure prediction by ZEFSAII (Michael W. Deem and Ramdas Pophale) SiO2 
 PCOD8098569
Probable space group: C 2/M
;
_chemical_formula_sum "Si O2"
_cell_formula_units_Z 40
_cell_length_a 12.000592
_cell_length_b 13.721278
_cell_length_c 12.344725
_cell_angle_alpha 90.000000
_cell_angle_beta 115.732862
_cell_angle_gamma 90.000000
_cell_volume 1831.136004
_symmetry_space_group_name_H-M "C 2/M"
_symmetry_group_IT_number 12
_symmetry_cell_setting 'monoclinic'
loop_
_space_group_symop_operation_xyz
x,y,z
-x,y,-z
-x,-y,-z
x,-y,z
1/2+x,1/2+y,z
1/2-x,1/2+y,-z
1/2-x,1/2-y,-z
1/2+x,1/2-y,z
loop_
_atom_site_type_symbol
_atom_site_label
_atom_site_fract_x
_atom_site_fract_y
_atom_site_fract_z
Si Si1 0.937934 0.205457 0.362007
Si Si2 0.258655 0.110202 0.992333
Si Si3 0.034795 0.389432 0.756423
Si Si4 0.013285 0.109824 0.176545
Si Si5 0.334070 0.791698 0.810019
O O1 0.979922 0.315740 0.349876
O O2 0.983254 0.130733 0.289491
O O3 0.790447 0.198579 0.313049
O O4 0.000000 0.174045 0.500000
O O5 0.111733 0.123616 0.946923
O O6 0.309546 0.185829 0.925370
O O7 0.287085 0.000000 0.964780
O O8 0.329832 0.131311 0.134550
O O9 0.021778 0.500000 0.709262
O O10 0.931992 0.368569 0.804051
O O11 0.117146 0.181523 0.175747
O O12 0.064303 0.000000 0.187007
#
# Coordination Sequence:
#
# PCOD8098569 Si02
#       5
#     8   8   8   8   8
#     4  10  23  40  55  76 109 146 184 227 271 312
#     4   9  18  35  57  83 114 142 171 214 270 328
#     4  10  21  36  57  84 111 141 178 220 268 323
#     4   9  20  37  57  83 112 142 179 220 266 323
#     4  10  20  34  58  82 107 141 181 222 268 320
#
# _framework density 21.844362
#
# number of rings (size 3 to 8) (size 9 to 14) (size 15 to 20)
#    0.000    2.400    0.000    1.200    0.000   16.000 
#    0.000    2.000    0.000   13.200    0.000    0.000 
#    0.000    0.000    0.000    0.000    0.000    0.000 
#
# Total GULP energy -248088.319504 kJ/mol
# GULP energy per Si atom -12404.415975 kJ/mol
# Density = 2.179464 g / cm^3
# Si number density = 21.844362 Si / 1000 Ang^3
#
#
#
# Elastic Constant Matrix: (Units=GPa)
#
#
# Indices 1 2 3 4 5 6 
#
# 1 64.0951 11.0140 8.7236 0.0000 19.0599 0.0000
# 2 11.0140 111.7710 3.7799 0.0000 9.5841 0.0000
# 3 8.7236 3.7799 68.9721 0.0000 18.0737 0.0000
# 4 0.0000 0.0000 0.0000 21.9702 0.0000 -0.9350
# 5 19.0599 9.5841 18.0737 0.0000 18.2945 0.0000
# 6 0.0000 0.0000 0.0000 -0.9350 0.0000 25.2574
#
#
#
# Elastic Compliance Matrix: (Units=1/GPa)
#
#
# Indices 1 2 3 4 5 6 
#
# 1 0.023674 0.000021 0.004683 0.000000 -0.029303 0.000000
# 2 0.000021 0.009424 0.001053 0.000000 -0.005999 0.000000
# 3 0.004683 0.001053 0.020606 0.000000 -0.025788 0.000000
# 4 0.000000 0.000000 0.000000 0.045588 0.000000 0.001688
# 5 -0.029303 -0.005999 -0.025788 0.000000 0.113810 0.000000
# 6 0.000000 0.000000 0.000000 0.001688 0.000000 0.039655
#
#
# Mechanical properties :
#
#
# Convention : Reuss Voigt Hill
#
# Bulk Modulus (GPa) = 15.33298 32.43038 23.88168
# Shear Modulus (GPa) = 19.01273 27.85912 23.43593
#
# Velocity S-wave (km/s) = 2.95341 3.57507 3.27901
# Velocity P-wave (km/s) = 4.32025 5.64977 5.02914
#
# Compressibility (1/GPa) = 0.06521889
#
# Stress axis : x y z
#
# Youngs Moduli (GPa) = 42.23971 106.11675 48.52903
#
# Poissons Ratio (x) = -0.00227 -0.22726
# Poissons Ratio (y) = -0.00090 -0.05110
# Poissons Ratio (z) = -0.19781 -0.11173
#
# Static dielectric constant tensor:
#      x y z
#    x 3.924820 0.000000 0.171940 
#    y 0.000000 4.056030 0.000000 
#    z 0.171940 0.000000 3.528230 
# 
# 
# High freq. dielectric constant tensor:
#      x y z
#    x 1.865460 0.000000 0.005410 
#    y 0.000000 1.874580 0.000000 
#    z 0.005410 0.000000 1.825590 
# 
# From -- ./inp_files/129576.got.cif
#   From: 2010.06.25/outbox.cif.g09.slc.cpg/sg12_65_cif.got.tgz:129576.got - 2010.06.28 00:19:55.
