data_PCOD8098881
_publ_section_title
;
Structure prediction by ZEFSAII (Michael W. Deem and Ramdas Pophale) SiO2 
 PCOD8098881
Probable space group: C 2/M
;
_chemical_formula_sum "Si O2"
_cell_formula_units_Z 56
_cell_length_a 15.134156
_cell_length_b 9.146131
_cell_length_c 31.311650
_cell_angle_alpha 90.000000
_cell_angle_beta 43.561291
_cell_angle_gamma 90.000000
_cell_volume 2986.777149
_symmetry_space_group_name_H-M "C 2/M"
_symmetry_group_IT_number 12
_symmetry_cell_setting 'monoclinic'
loop_
_space_group_symop_operation_xyz
x,y,z
-x,y,-z
-x,-y,-z
x,-y,z
1/2+x,1/2+y,z
1/2-x,1/2+y,-z
1/2-x,1/2-y,-z
1/2+x,1/2-y,z
loop_
_atom_site_type_symbol
_atom_site_label
_atom_site_fract_x
_atom_site_fract_y
_atom_site_fract_z
Si Si1 0.216362 0.330644 0.117274
Si Si2 0.098856 0.664178 0.003840
Si Si3 0.944925 0.171274 0.429937
Si Si4 0.422434 0.171445 0.208465
Si Si5 0.730519 0.171351 0.571519
Si Si6 0.273061 0.326502 0.650932
Si Si7 0.405922 0.672432 0.126630
O O1 0.241004 0.500000 0.098488
O O2 0.271133 0.239590 0.058059
O O3 0.287039 0.288493 0.136900
O O4 0.066664 0.292922 0.173103
O O5 0.128936 0.500000 0.009442
O O6 0.000000 0.661496 0.000000
O O7 0.038434 0.757062 0.063476
O O8 0.863063 0.208471 0.500898
O O9 0.888499 0.249966 0.408549
O O10 0.087371 0.234363 0.385752
O O11 0.944947 0.000000 0.420760
O O12 0.331419 0.226692 0.278387
O O13 0.377702 0.259771 0.182586
O O14 0.405193 0.000000 0.204988
O O15 0.737410 0.234713 0.616866
O O16 0.703054 0.000000 0.580454
O O17 0.278623 0.500000 0.646642
O O18 0.425546 0.500000 0.123613
#
# Coordination Sequence:
#
# PCOD8098881 Si02
#       7
#     8   8   8   8   8   8   8
#     4   9  19  35  53  73 100 132 165 206 254 301
#     4   9  17  31  54  80 101 126 164 208 253 300
#     4   9  17  31  52  78 104 130 165 209 254 297
#     4  10  21  36  52  72  99 135 176 208 242 296
#     4   9  17  31  53  78 102 131 168 208 251 299
#     4   9  18  33  52  72  99 137 174 205 243 298
#     4  10  20  35  54  76 103 132 164 207 256 301
#
# _framework density 18.749306000000001
#
# number of rings (size 3 to 8) (size 9 to 14) (size 15 to 20)
#    0.000    2.714    0.000    1.286    0.000    6.286 
#    0.000    3.571    0.000    3.429    0.000    0.000 
#    0.000    0.000    0.000    0.000    0.000    0.000 
#
# Total GULP energy -347224.771658 kJ/mol
# GULP energy per Si atom -12400.884702 kJ/mol
# Density = 1.870663 g / cm^3
# Si number density = 18.749306 Si / 1000 Ang^3
#
#
#
# Elastic Constant Matrix: (Units=GPa)
#
#
# Indices 1 2 3 4 5 6 
#
# 1 116.6746 41.5090 83.1585 0.0002 7.6566 0.0007
# 2 41.5090 57.5624 45.6565 -0.0001 4.4600 0.0003
# 3 83.1585 45.6565 148.9511 0.0000 6.6170 0.0001
# 4 0.0002 -0.0001 0.0000 23.5001 -0.0003 4.1200
# 5 7.6566 4.4600 6.6170 -0.0003 20.9457 -0.0007
# 6 0.0007 0.0003 0.0001 4.1200 -0.0007 27.4350
#
#
#
# Elastic Compliance Matrix: (Units=1/GPa)
#
#
# Indices 1 2 3 4 5 6 
#
# 1 0.015650 -0.005624 -0.006909 0.000000 -0.002341 0.000000
# 2 -0.005624 0.025125 -0.004478 0.000000 -0.001880 0.000000
# 3 -0.006909 -0.004478 0.011957 0.000000 -0.000298 0.000000
# 4 0.000000 0.000000 0.000000 0.043704 0.000000 -0.006563
# 5 -0.002341 -0.001880 -0.000298 0.000000 0.049092 0.000001
# 6 0.000000 0.000000 0.000000 -0.006563 0.000001 0.037435
#
#
# Mechanical properties :
#
#
# Convention : Reuss Voigt Hill
#
# Bulk Modulus (GPa) = 53.44885 73.75956 63.60420
# Shear Modulus (GPa) = 22.39916 24.56711 23.48314
#
# Velocity S-wave (km/s) = 3.46014 3.62373 3.54288
# Velocity P-wave (km/s) = 6.67326 7.54545 7.12272
#
# Compressibility (1/GPa) = 0.01870948
#
# Stress axis : x y z
#
# Youngs Moduli (GPa) = 63.89873 39.80043 83.63261
#
# Poissons Ratio (x) = 0.22382 0.57786
# Poissons Ratio (y) = 0.35934 0.37453
# Poissons Ratio (z) = 0.44151 0.17824
#
# Static dielectric constant tensor:
#      x y z
#    x 3.486840 0.000000 0.003360 
#    y 0.000000 3.303910 0.000000 
#    z 0.003360 0.000000 3.519050 
# 
# 
# High freq. dielectric constant tensor:
#      x y z
#    x 1.730700 0.000000 0.001110 
#    y 0.000000 1.709980 0.000000 
#    z 0.001110 0.000000 1.726430 
# 
# From -- ./inp_files/374953.got.cif
#   From: 2010.06.25/outbox.cif.g09.slc.cpg/sg12_188_cif.got.tgz:374953.got - 2010.06.28 00:19:55.
