data_PCOD8098199
_publ_section_title
;
Structure prediction by ZEFSAII (Michael W. Deem and Ramdas Pophale) SiO2 
 PCOD8098199
Probable space group: C 2/M
;
_chemical_formula_sum "Si O2"
_cell_formula_units_Z 40
_cell_length_a 29.087689
_cell_length_b 14.584597
_cell_length_c 8.662763
_cell_angle_alpha 90.000000
_cell_angle_beta 38.396356
_cell_angle_gamma 90.000000
_cell_volume 2282.549321
_symmetry_space_group_name_H-M "C 2/M"
_symmetry_group_IT_number 12
_symmetry_cell_setting 'monoclinic'
loop_
_space_group_symop_operation_xyz
x,y,z
-x,y,-z
-x,-y,-z
x,-y,z
1/2+x,1/2+y,z
1/2-x,1/2+y,-z
1/2-x,1/2-y,-z
1/2+x,1/2-y,z
loop_
_atom_site_type_symbol
_atom_site_label
_atom_site_fract_x
_atom_site_fract_y
_atom_site_fract_z
Si Si1 0.418325 0.000000 0.787664
Si Si2 0.435027 0.832541 0.950843
Si Si3 0.563631 0.350914 0.215731
Si Si4 0.361220 0.500000 0.780808
Si Si5 0.508541 0.500000 0.793952
Si Si6 0.690051 0.000000 0.205904
Si Si7 0.086179 0.396220 0.664599
O O1 0.500000 0.000000 0.500000
O O2 0.403701 0.911646 0.927479
O O3 0.352522 0.000000 0.840809
O O4 0.405535 0.739379 0.949311
O O5 0.524785 0.839831 0.727953
O O6 0.399147 0.842607 0.215023
O O7 0.500000 0.319578 0.500000
O O8 0.623393 0.409592 0.155847
O O9 0.532061 0.410455 0.159613
O O10 0.408525 0.500000 0.497338
O O11 0.276754 0.500000 0.951067
O O12 0.500000 0.500000 0.000000
O O13 0.663573 0.907529 0.368142
O O14 0.054394 0.500000 0.777233
#
# Coordination Sequence:
#
# PCOD8098199 Si02
#       7
#     4   8   8   4   4   4   8
#     4  12  17  28  50  81 108 139 191 215 259 325
#     4  11  17  31  52  83 111 135 179 233 259 316
#     4   9  20  34  59  79 103 140 181 233 272 310
#     4   9  20  44  53  73 114 143 183 224 280 319
#     4   9  19  38  59  84  95 132 197 238 265 309
#     4  10  20  34  56  74 112 161 168 221 274 320
#     4   9  18  31  49  80 114 143 172 212 274 318
#
# _framework density 17.524266999999998
#
# number of rings (size 3 to 8) (size 9 to 14) (size 15 to 20)
#    0.600    1.600    4.000    2.400    2.800    0.000 
#    0.000    6.000    0.000    0.000    0.000    0.000 
#    0.000    0.000    0.000    0.000    0.000    0.000 
#
# Total GULP energy -247766.633646 kJ/mol
# GULP energy per Si atom -12388.331682 kJ/mol
# Density = 1.748438 g / cm^3
# Si number density = 17.524267 Si / 1000 Ang^3
#
#
#
# Elastic Constant Matrix: (Units=GPa)
#
#
# Indices 1 2 3 4 5 6 
#
# 1 129.2244 49.3229 69.1556 0.0000 9.7105 0.0000
# 2 49.3229 112.6117 31.2268 0.0000 12.3194 0.0000
# 3 69.1556 31.2268 86.8387 0.0000 1.7188 0.0000
# 4 0.0000 0.0000 0.0000 23.6840 0.0000 13.1236
# 5 9.7105 12.3194 1.7188 0.0000 34.2304 0.0000
# 6 0.0000 0.0000 0.0000 13.1236 0.0000 21.8970
#
#
#
# Elastic Compliance Matrix: (Units=1/GPa)
#
#
# Indices 1 2 3 4 5 6 
#
# 1 0.014853 -0.003295 -0.010595 0.000000 -0.002496 0.000000
# 2 -0.003295 0.011000 -0.001273 0.000000 -0.002960 0.000000
# 3 -0.010595 -0.001273 0.020362 0.000000 0.002441 0.000000
# 4 0.000000 0.000000 0.000000 0.063216 0.000000 -0.037888
# 5 -0.002496 -0.002960 0.002441 0.000000 0.030865 0.000000
# 6 0.000000 0.000000 0.000000 -0.037888 0.000000 0.068375
#
#
# Mechanical properties :
#
#
# Convention : Reuss Voigt Hill
#
# Bulk Modulus (GPa) = 62.92966 69.78726 66.35846
# Shear Modulus (GPa) = 20.46713 27.89358 24.18035
#
# Velocity S-wave (km/s) = 3.42121 3.99395 3.71862
# Velocity P-wave (km/s) = 7.18291 7.82167 7.50909
#
# Compressibility (1/GPa) = 0.01589076
#
# Stress axis : x y z
#
# Youngs Moduli (GPa) = 67.32477 90.90881 49.11040
#
# Poissons Ratio (x) = 0.29952 0.52030
# Poissons Ratio (y) = 0.22182 0.06252
# Poissons Ratio (z) = 0.71328 0.11574
#
# Static dielectric constant tensor:
#      x y z
#    x 3.162700 0.000000 0.281860 
#    y 0.000000 3.175660 0.000000 
#    z 0.281860 0.000000 3.011190 
# 
# 
# High freq. dielectric constant tensor:
#      x y z
#    x 1.672460 0.000000 0.031550 
#    y 0.000000 1.669960 0.000000 
#    z 0.031550 0.000000 1.647970 
# 
# From -- ./inp_files/95621.got.cif
#   From: 2010.06.25/outbox.cif.g09.slc.cpg/sg12_48_cif.got.tgz:95621.got - 2010.06.28 00:19:55.
