data_PCOD8098042
_publ_section_title
;
Structure prediction by ZEFSAII (Michael W. Deem and Ramdas Pophale) SiO2 
 PCOD8098042
Probable space group: C 2/M
;
_chemical_formula_sum "Si O2"
_cell_formula_units_Z 64
_cell_length_a 24.315958
_cell_length_b 19.178176
_cell_length_c 20.004971
_cell_angle_alpha 90.000000
_cell_angle_beta 22.632886
_cell_angle_gamma 90.000000
_cell_volume 3590.046400
_symmetry_space_group_name_H-M "C 2/M"
_symmetry_group_IT_number 12
_symmetry_cell_setting 'monoclinic'
loop_
_space_group_symop_operation_xyz
x,y,z
-x,y,-z
-x,-y,-z
x,-y,z
1/2+x,1/2+y,z
1/2-x,1/2+y,-z
1/2-x,1/2-y,-z
1/2+x,1/2-y,z
loop_
_atom_site_type_symbol
_atom_site_label
_atom_site_fract_x
_atom_site_fract_y
_atom_site_fract_z
Si Si1 0.140921 0.782887 0.808943
Si Si2 0.165532 0.577951 0.084995
Si Si3 0.099375 0.078692 0.786437
Si Si4 0.341729 0.788479 0.700946
Si Si5 0.852496 0.576923 0.400703
Si Si6 0.872668 0.282053 0.317171
Si Si7 0.221431 0.079126 0.896169
Si Si8 0.196841 0.280788 0.989483
O O1 0.128725 0.866840 0.812702
O O2 0.261897 0.762900 0.724832
O O3 0.166891 0.742574 0.711765
O O4 0.000000 0.752637 0.000000
O O5 0.209582 0.500000 0.011268
O O6 0.242500 0.596523 0.067812
O O7 0.993972 0.582139 0.288554
O O8 0.210796 0.634936 0.978719
O O9 0.215532 0.092088 0.599297
O O10 0.109627 0.000000 0.804057
O O11 0.946141 0.093522 0.925400
O O12 0.500000 0.774844 0.500000
O O13 0.312500 0.870210 0.746765
O O14 0.297052 0.744518 0.816529
O O15 0.841887 0.500000 0.379683
O O16 0.861330 0.633904 0.332162
O O17 0.750000 0.250000 0.500000
O O18 0.032093 0.257688 0.160522
O O19 0.263401 0.000000 0.830802
O O20 0.250000 0.250000 0.000000
#
# Coordination Sequence:
#
# PCOD8098042 Si02
#       8
#     8   8   8   8   8   8   8   8
#     4  12  23  40  56  81 120 151 191 235 288 340
#     4   9  19  35  59  84 112 147 189 237 282 331
#     4  10  20  34  55  82 115 153 187 224 277 340
#     4  12  27  40  55  83 118 155 191 237 288 337
#     4   9  19  35  57  86 114 144 189 237 282 332
#     4  11  22  36  62  87 111 152 194 235 285 336
#     4  10  20  36  54  80 115 153 191 226 273 338
#     4  11  22  38  60  85 115 150 194 239 281 338
#
# _framework density 17.827067
#
# number of rings (size 3 to 8) (size 9 to 14) (size 15 to 20)
#    0.000    1.500    5.000    0.000    3.500    1.000 
#    0.000    0.000    0.000    1.500    0.000    0.000 
#    0.000    0.000    0.000    0.000    0.000    0.000 
#
# Total GULP energy -396674.075162 kJ/mol
# GULP energy per Si atom -12396.064849 kJ/mol
# Density = 1.778649 g / cm^3
# Si number density = 17.827067 Si / 1000 Ang^3
#
#
#
# Elastic Constant Matrix: (Units=GPa)
#
#
# Indices 1 2 3 4 5 6 
#
# 1 126.8934 49.8312 58.9831 0.0120 1.1916 -0.0021
# 2 49.8312 88.0442 45.8943 0.0185 7.5454 -0.0036
# 3 58.9831 45.8943 132.9205 0.0355 4.5134 -0.0125
# 4 0.0120 0.0185 0.0355 23.5682 -0.0127 4.2091
# 5 1.1916 7.5454 4.5134 -0.0127 27.6277 0.0021
# 6 -0.0021 -0.0036 -0.0125 4.2091 0.0021 30.0586
#
#
#
# Elastic Compliance Matrix: (Units=1/GPa)
#
#
# Indices 1 2 3 4 5 6 
#
# 1 0.011325 -0.004735 -0.003437 0.000004 0.001366 -0.000002
# 2 -0.004735 0.016086 -0.003329 -0.000007 -0.003645 0.000001
# 3 -0.003437 -0.003329 0.010219 -0.000012 -0.000612 0.000005
# 4 0.000004 -0.000007 -0.000012 0.043518 0.000024 -0.006094
# 5 0.001366 -0.003645 -0.000612 0.000024 0.037232 -0.000007
# 6 -0.000002 0.000001 0.000005 -0.006094 -0.000007 0.034122
#
#
# Mechanical properties :
#
#
# Convention : Reuss Voigt Hill
#
# Bulk Modulus (GPa) = 68.36655 73.03059 70.69857
# Shear Modulus (GPa) = 27.71945 29.12756 28.42350
#
# Velocity S-wave (km/s) = 3.94751 4.04653 3.99733
# Velocity P-wave (km/s) = 7.69482 7.93017 7.81338
#
# Compressibility (1/GPa) = 0.01462704
#
# Stress axis : x y z
#
# Youngs Moduli (GPa) = 88.30151 62.16730 97.86128
#
# Poissons Ratio (x) = 0.29438 0.33633
# Poissons Ratio (y) = 0.41813 0.32578
# Poissons Ratio (z) = 0.30347 0.20695
#
# Static dielectric constant tensor:
#      x y z
#    x 3.451800 -0.000060 -0.017990 
#    y -0.000060 3.615810 -0.000010 
#    z -0.017990 -0.000010 3.451410 
# 
# 
# High freq. dielectric constant tensor:
#      x y z
#    x 1.677420 0.000000 -0.018110 
#    y 0.000000 1.695440 0.000000 
#    z -0.018110 0.000000 1.691350 
# 
# From -- ./inp_files/89134.got.cif
#   From: 2010.06.25/outbox.cif.g09.slc.cpg/sg12_45_cif.got.tgz:89134.got - 2010.06.28 00:19:55.
