data_PCOD8098586
_publ_section_title
;
Structure prediction by ZEFSAII (Michael W. Deem and Ramdas Pophale) SiO2 
 PCOD8098586
Probable space group: C 2/M
;
_chemical_formula_sum "Si O2"
_cell_formula_units_Z 64
_cell_length_a 12.600818
_cell_length_b 13.438392
_cell_length_c 20.116041
_cell_angle_alpha 90.000000
_cell_angle_beta 88.468331
_cell_angle_gamma 90.000000
_cell_volume 3405.127333
_symmetry_space_group_name_H-M "C 2/M"
_symmetry_group_IT_number 12
_symmetry_cell_setting 'monoclinic'
loop_
_space_group_symop_operation_xyz
x,y,z
-x,y,-z
-x,-y,-z
x,-y,z
1/2+x,1/2+y,z
1/2-x,1/2+y,-z
1/2-x,1/2-y,-z
1/2+x,1/2-y,z
loop_
_atom_site_type_symbol
_atom_site_label
_atom_site_fract_x
_atom_site_fract_y
_atom_site_fract_z
Si Si1 0.819150 0.747763 0.780461
Si Si2 0.250533 0.611206 0.028891
Si Si3 0.777811 0.387808 0.538334
Si Si4 0.447491 0.885521 0.875874
Si Si5 0.307958 0.387787 0.316234
Si Si6 0.399543 0.696348 0.545036
Si Si7 0.552435 0.384623 0.312951
Si Si8 0.826867 0.294089 0.097240
O O1 0.901479 0.673335 0.813927
O O2 0.762724 0.688470 0.722873
O O3 0.880954 0.841363 0.749338
O O4 0.731764 0.792460 0.831384
O O5 0.294997 0.500000 0.036660
O O6 0.132927 0.622325 0.061271
O O7 0.332631 0.682824 0.066068
O O8 0.242598 0.637767 0.951316
O O9 0.821787 0.500000 0.533128
O O10 0.708225 0.369944 0.605375
O O11 0.702525 0.366269 0.476760
O O12 0.878339 0.314179 0.536196
O O13 0.556250 0.836200 0.897057
O O14 0.466754 0.000000 0.854928
O O15 0.275219 0.500000 0.296790
O O16 0.430009 0.368608 0.296960
O O17 0.500000 0.663456 0.500000
O O18 0.419314 0.674529 0.621235
O O19 0.580590 0.500000 0.322118
#
# Coordination Sequence:
#
# PCOD8098586 Si02
#       8
#     8   8   8   8   8   8   8   8
#     4  11  22  38  54  80 116 148 185 227 279 326
#     4   9  19  36  59  85 112 145 185 228 272 322
#     4  10  21  36  58  86 110 139 180 230 283 332
#     4  10  20  36  60  85 110 145 190 229 268 325
#     4  10  20  37  59  79 106 144 188 229 271 328
#     4  11  21  37  60  83 111 142 183 232 280 335
#     4  11  23  37  55  81 111 147 188 230 278 331
#     4  10  20  34  58  85 114 145 183 230 274 324
#
# _framework density 18.795186000000001
#
# number of rings (size 3 to 8) (size 9 to 14) (size 15 to 20)
#    0.000    1.750    2.500    2.250    0.000    3.250 
#    0.000    0.625    0.000   11.250    0.000    0.000 
#    0.000    0.000    0.000    0.000    0.000    0.000 
#
# Total GULP energy -396914.106553 kJ/mol
# GULP energy per Si atom -12403.565830 kJ/mol
# Density = 1.875241 g / cm^3
# Si number density = 18.795186 Si / 1000 Ang^3
#
#
#
# Elastic Constant Matrix: (Units=GPa)
#
#
# Indices 1 2 3 4 5 6 
#
# 1 40.2807 30.4681 1.2795 0.0000 10.7273 0.0000
# 2 30.4681 108.9506 22.9685 0.0000 8.2474 0.0000
# 3 1.2795 22.9685 57.3859 0.0000 3.6305 0.0000
# 4 0.0000 0.0000 0.0000 23.3739 0.0000 -3.1945
# 5 10.7273 8.2474 3.6305 0.0000 20.5691 0.0000
# 6 0.0000 0.0000 0.0000 -3.1945 0.0000 29.5922
#
#
#
# Elastic Compliance Matrix: (Units=1/GPa)
#
#
# Indices 1 2 3 4 5 6 
#
# 1 0.036323 -0.009836 0.004122 0.000000 -0.015727 0.000000
# 2 -0.009836 0.012921 -0.005005 0.000000 0.000832 0.000000
# 3 0.004122 -0.005005 0.019565 0.000000 -0.003596 0.000000
# 4 0.000000 0.000000 0.000000 0.043424 0.000000 0.004688
# 5 -0.015727 0.000832 -0.003596 0.000000 0.057120 0.000000
# 6 0.000000 0.000000 0.000000 0.004688 0.000000 0.034299
#
#
# Mechanical properties :
#
#
# Convention : Reuss Voigt Hill
#
# Bulk Modulus (GPa) = 21.11009 35.11660 28.11335
# Shear Modulus (GPa) = 20.75720 24.83376 22.79548
#
# Velocity S-wave (km/s) = 3.32684 3.63889 3.48636
# Velocity P-wave (km/s) = 5.10031 6.03156 5.58538
#
# Compressibility (1/GPa) = 0.04737071
#
# Stress axis : x y z
#
# Youngs Moduli (GPa) = 27.53055 77.39145 51.11235
#
# Poissons Ratio (x) = 0.76124 -0.21069
# Poissons Ratio (y) = 0.27080 0.25582
# Poissons Ratio (z) = -0.11348 0.38735
#
# Static dielectric constant tensor:
#      x y z
#    x 3.287170 0.000000 0.003770 
#    y 0.000000 3.601040 0.000000 
#    z 0.003770 0.000000 3.450490 
# 
# 
# High freq. dielectric constant tensor:
#      x y z
#    x 1.718260 0.000000 0.005950 
#    y 0.000000 1.738820 0.000000 
#    z 0.005950 0.000000 1.736040 
# 
# From -- ./inp_files/263353.got.cif
#   From: 2010.06.25/outbox.cif.g09.slc.cpg/sg12_132_cif.got.tgz:263353.got - 2010.06.28 00:19:55.
