data_PCOD8098156
_publ_section_title
;
Structure prediction by ZEFSAII (Michael W. Deem and Ramdas Pophale) SiO2 
 PCOD8098156
Probable space group: C 2/M
;
_chemical_formula_sum "Si O2"
_cell_formula_units_Z 64
_cell_length_a 18.975489
_cell_length_b 13.240028
_cell_length_c 12.618876
_cell_angle_alpha 90.000000
_cell_angle_beta 102.381116
_cell_angle_gamma 90.000000
_cell_volume 3096.583961
_symmetry_space_group_name_H-M "C 2/M"
_symmetry_group_IT_number 12
_symmetry_cell_setting 'monoclinic'
loop_
_space_group_symop_operation_xyz
x,y,z
-x,y,-z
-x,-y,-z
x,-y,z
1/2+x,1/2+y,z
1/2-x,1/2+y,-z
1/2-x,1/2-y,-z
1/2+x,1/2-y,z
loop_
_atom_site_type_symbol
_atom_site_label
_atom_site_fract_x
_atom_site_fract_y
_atom_site_fract_z
Si Si1 0.783071 0.886472 0.333129
Si Si2 0.674950 0.112211 0.117565
Si Si3 0.947377 0.614232 0.210775
Si Si4 0.208089 0.381633 0.515243
Si Si5 0.949410 0.380636 0.574613
Si Si6 0.922751 0.238382 0.009192
Si Si7 0.781637 0.881239 0.962482
Si Si8 0.307455 0.183117 0.263678
O O1 0.707127 0.888692 0.245658
O O2 0.767490 0.845542 0.447676
O O3 0.831100 0.801332 0.289738
O O4 0.818069 0.000000 0.340752
O O5 0.606220 0.186334 0.092037
O O6 0.648743 0.000000 0.078515
O O7 0.733108 0.149728 0.047803
O O8 0.954281 0.500000 0.168116
O O9 0.877990 0.616249 0.266329
O O10 0.018323 0.645157 0.299279
O O11 0.932713 0.695013 0.116443
O O12 0.202871 0.500000 0.495239
O O13 0.129982 0.332848 0.463371
O O14 0.232069 0.356222 0.642410
O O15 0.946926 0.500000 0.557688
O O16 0.000000 0.332248 0.500000
O O17 0.864686 0.150253 0.010733
O O18 0.000000 0.191907 0.000000
O O19 0.750919 0.824764 0.848980
O O20 0.779594 0.000000 0.942026
#
# Coordination Sequence:
#
# PCOD8098156 Si02
#       8
#     8   8   8   8   8   8   8   8
#     4  10  22  36  53  80 116 151 184 234 295 350
#     4  10  20  38  60  83 114 152 194 241 297 353
#     4  11  22  35  57  88 118 151 193 241 294 355
#     4  10  20  34  55  85 118 149 183 235 296 351
#     4   9  17  31  50  78 114 144 176 224 286 349
#     4  12  25  38  55  86 123 157 192 240 301 365
#     4  11  23  41  64  86 115 157 206 254 286 338
#     4  12  20  36  61  86 110 149 205 246 285 344
#
# _framework density 20.667935
#
# number of rings (size 3 to 8) (size 9 to 14) (size 15 to 20)
#    0.000    1.375    3.750    3.000    1.750    1.250 
#    0.000    0.000    0.000    0.000    0.000    2.625 
#    0.000    0.000    0.000    0.000    0.000    0.000 
#
# Total GULP energy -396682.098578 kJ/mol
# GULP energy per Si atom -12396.315581 kJ/mol
# Density = 2.062089 g / cm^3
# Si number density = 20.667935 Si / 1000 Ang^3
#
#
#
# Elastic Constant Matrix: (Units=GPa)
#
#
# Indices 1 2 3 4 5 6 
#
# 1 69.2332 17.1394 5.8823 0.0000 4.5772 0.0000
# 2 17.1394 42.0271 21.0396 0.0000 -4.3312 0.0000
# 3 5.8823 21.0396 99.3238 0.0000 0.7510 0.0000
# 4 0.0000 0.0000 0.0000 26.5237 0.0000 -1.3238
# 5 4.5772 -4.3312 0.7510 0.0000 20.3652 0.0000
# 6 0.0000 0.0000 0.0000 -1.3238 0.0000 23.2324
#
#
#
# Elastic Compliance Matrix: (Units=1/GPa)
#
#
# Indices 1 2 3 4 5 6 
#
# 1 0.016646 -0.007687 0.000683 0.000000 -0.005401 0.000000
# 2 -0.007687 0.030887 -0.006152 0.000000 0.008524 0.000000
# 3 0.000683 -0.006152 0.011345 0.000000 -0.001880 0.000000
# 4 0.000000 0.000000 0.000000 0.037810 0.000000 0.002154
# 5 -0.005401 0.008524 -0.001880 0.000000 0.052199 0.000000
# 6 0.000000 0.000000 0.000000 0.002154 0.000000 0.043166
#
#
# Mechanical properties :
#
#
# Convention : Reuss Voigt Hill
#
# Bulk Modulus (GPa) = 30.70630 33.18962 31.94796
# Shear Modulus (GPa) = 21.81300 25.12578 23.46939
#
# Velocity S-wave (km/s) = 3.25222 3.49046 3.37344
# Velocity P-wave (km/s) = 5.38441 5.68663 5.53758
#
# Compressibility (1/GPa) = 0.03256661
#
# Stress axis : x y z
#
# Youngs Moduli (GPa) = 60.07438 32.37564 88.14462
#
# Poissons Ratio (x) = 0.24888 -0.06024
# Poissons Ratio (y) = 0.46181 0.54227
# Poissons Ratio (z) = -0.04105 0.19918
#
# Static dielectric constant tensor:
#      x y z
#    x 3.724640 0.000000 -0.008650 
#    y 0.000000 3.722840 0.000000 
#    z -0.008650 0.000000 3.837970 
# 
# 
# High freq. dielectric constant tensor:
#      x y z
#    x 1.773480 0.000000 0.001420 
#    y 0.000000 1.798430 0.000000 
#    z 0.001420 0.000000 1.823170 
# 
# From -- ./inp_files/156658.got.cif
#   From: 2010.06.25/outbox.cif.g09.slc.cpg/sg12_79_cif.got.tgz:156658.got - 2010.06.28 00:19:55.
