data_PCOD8098835
_publ_section_title
;
Structure prediction by ZEFSAII (Michael W. Deem and Ramdas Pophale) SiO2 
 PCOD8098835
Probable space group: C 2/M
;
_chemical_formula_sum "Si O2"
_cell_formula_units_Z 48
_cell_length_a 27.501355
_cell_length_b 14.615712
_cell_length_c 6.312620
_cell_angle_alpha 90.000000
_cell_angle_beta 111.109094
_cell_angle_gamma 90.000000
_cell_volume 2367.102836
_symmetry_space_group_name_H-M "C 2/M"
_symmetry_group_IT_number 12
_symmetry_cell_setting 'monoclinic'
loop_
_space_group_symop_operation_xyz
x,y,z
-x,y,-z
-x,-y,-z
x,-y,z
1/2+x,1/2+y,z
1/2-x,1/2+y,-z
1/2-x,1/2-y,-z
1/2+x,1/2-y,z
loop_
_atom_site_type_symbol
_atom_site_label
_atom_site_fract_x
_atom_site_fract_y
_atom_site_fract_z
Si Si1 0.940522 0.606480 0.852344
Si Si2 0.624355 0.231317 0.524851
Si Si3 0.639787 0.098669 0.915894
Si Si4 0.805602 0.813997 0.717221
Si Si5 0.650636 0.396535 0.822424
Si Si6 0.254199 0.860234 0.751448
O O1 0.931146 0.500000 0.772741
O O2 0.926346 0.675889 0.637274
O O3 0.906209 0.633269 0.002652
O O4 0.000000 0.625006 0.000000
O O5 0.651078 0.169944 0.747774
O O6 0.663577 0.245861 0.393292
O O7 0.613621 0.330413 0.620749
O O8 0.623792 0.000000 0.795939
O O9 0.692918 0.083922 0.131907
O O10 0.770479 0.882628 0.520347
O O11 0.767455 0.748347 0.792703
O O12 0.847892 0.867045 0.927786
O O13 0.629330 0.500000 0.766857
O O14 0.711229 0.389856 0.853887
#
# Coordination Sequence:
#
# PCOD8098835 Si02
#       6
#     8   8   8   8   8   8
#     4  10  22  40  62  89 118 148 184 229 288 352
#     4  11  21  39  59  82 115 154 189 239 286 339
#     4  11  22  36  56  87 118 151 191 231 280 341
#     4  10  21  35  58  75 117 159 196 235 279 329
#     4  11  23  36  55  83 115 156 200 239 278 327
#     4  10  20  35  53  80 114 157 193 235 274 327
#
# _framework density 20.277951000000002
#
# number of rings (size 3 to 8) (size 9 to 14) (size 15 to 20)
#    0.000    1.500    3.333    1.500    4.667    4.000 
#    0.000    2.500    0.000    0.500    0.000    4.667 
#    0.000    0.000    0.000    0.000    0.000    0.000 
#
# Total GULP energy -297389.206195 kJ/mol
# GULP energy per Si atom -12391.216925 kJ/mol
# Density = 2.023180 g / cm^3
# Si number density = 20.277951 Si / 1000 Ang^3
#
#
#
# Elastic Constant Matrix: (Units=GPa)
#
#
# Indices 1 2 3 4 5 6 
#
# 1 74.1501 24.0305 44.1721 0.0000 9.8598 0.0000
# 2 24.0305 139.1405 68.6498 0.0000 4.2658 0.0000
# 3 44.1721 68.6498 111.7594 0.0000 7.0803 0.0000
# 4 0.0000 0.0000 0.0000 30.5428 0.0000 6.9579
# 5 9.8598 4.2658 7.0803 0.0000 26.0772 0.0000
# 6 0.0000 0.0000 0.0000 6.9579 0.0000 6.0268
#
#
#
# Elastic Compliance Matrix: (Units=1/GPa)
#
#
# Indices 1 2 3 4 5 6 
#
# 1 0.018299 0.000581 -0.007270 0.000000 -0.005040 0.000000
# 2 0.000581 0.010331 -0.006568 0.000000 -0.000127 0.000000
# 3 -0.007270 -0.006568 0.015887 0.000000 -0.000490 0.000000
# 4 0.000000 0.000000 0.000000 0.044425 0.000000 -0.051289
# 5 -0.005040 -0.000127 -0.000490 0.000000 0.040407 0.000000
# 6 0.000000 0.000000 0.000000 -0.051289 0.000000 0.225139
#
#
# Mechanical properties :
#
#
# Convention : Reuss Voigt Hill
#
# Bulk Modulus (GPa) = 55.54589 66.52831 61.03710
# Shear Modulus (GPa) = 12.91986 25.07586 18.99786
#
# Velocity S-wave (km/s) = 2.52690 3.52036 3.06416
# Velocity P-wave (km/s) = 5.99711 7.02875 6.53332
#
# Compressibility (1/GPa) = 0.01800313
#
# Stress axis : x y z
#
# Youngs Moduli (GPa) = 54.64802 96.79785 62.94626
#
# Poissons Ratio (x) = -0.05626 0.45763
# Poissons Ratio (y) = -0.03176 0.41340
# Poissons Ratio (z) = 0.39730 0.63572
#
# Static dielectric constant tensor:
#      x y z
#    x 3.246690 0.000000 -0.047820 
#    y 0.000000 3.703880 0.000000 
#    z -0.047820 0.000000 3.855890 
# 
# 
# High freq. dielectric constant tensor:
#      x y z
#    x 1.742380 0.000000 -0.010230 
#    y 0.000000 1.788110 0.000000 
#    z -0.010230 0.000000 1.801070 
# 
# From -- ./inp_files/31322.got.cif
#   From: 2010.06.25/outbox.cif.g09.slc.cpg/sg12_16_cif.got.tgz:31322.got - 2010.06.28 00:19:55.
