data_PCOD8098624
_publ_section_title
;
Structure prediction by ZEFSAII (Michael W. Deem and Ramdas Pophale) SiO2 
 PCOD8098624
Probable space group: C 2/M
;
_chemical_formula_sum "Si O2"
_cell_formula_units_Z 40
_cell_length_a 20.549024
_cell_length_b 8.774867
_cell_length_c 15.625865
_cell_angle_alpha 90.000000
_cell_angle_beta 40.817530
_cell_angle_gamma 90.000000
_cell_volume 1841.715420
_symmetry_space_group_name_H-M "C 2/M"
_symmetry_group_IT_number 12
_symmetry_cell_setting 'monoclinic'
loop_
_space_group_symop_operation_xyz
x,y,z
-x,y,-z
-x,-y,-z
x,-y,z
1/2+x,1/2+y,z
1/2-x,1/2+y,-z
1/2-x,1/2-y,-z
1/2+x,1/2-y,z
loop_
_atom_site_type_symbol
_atom_site_label
_atom_site_fract_x
_atom_site_fract_y
_atom_site_fract_z
Si Si1 0.713078 0.329310 0.923631
Si Si2 0.056273 0.321260 0.530444
Si Si3 0.897231 0.826114 0.138567
Si Si4 0.248147 0.679441 0.595371
Si Si5 0.902017 0.826157 0.799938
O O1 0.752820 0.500000 0.905327
O O2 0.684128 0.318060 0.854586
O O3 0.799451 0.207838 0.852652
O O4 0.617333 0.295646 0.079850
O O5 0.076965 0.500000 0.506327
O O6 0.161885 0.238733 0.434783
O O7 0.000000 0.266116 0.500000
O O8 0.989543 0.282165 0.679539
O O9 0.856731 0.726862 0.257508
O O10 0.914433 0.000000 0.152594
O O11 0.000000 0.756829 0.000000
O O12 0.254903 0.500000 0.580233
O O13 0.250000 0.750000 0.500000
O O14 0.933375 0.000000 0.750873
#
# Coordination Sequence:
#
# PCOD8098624 Si02
#       5
#     8   8   8   8   8
#     4   9  19  36  57  87 125 164 206 257 319 381
#     4  11  24  42  65  93 129 172 217 268 330 393
#     4  10  22  41  66  92 125 169 214 262 321 384
#     4  12  27  46  68  97 134 174 222 275 330 393
#     4  10  20  34  58  91 123 162 209 261 317 378
#
# _framework density 21.718881
#
# number of rings (size 3 to 8) (size 9 to 14) (size 15 to 20)
#    0.000    1.600    0.000    4.200    2.800    8.400 
#    0.000    0.000    0.000    0.000    0.000    0.000 
#    0.000    0.000    0.000    0.000    0.000    0.000 
#
# Total GULP energy -248063.460604 kJ/mol
# GULP energy per Si atom -12403.173030 kJ/mol
# Density = 2.166945 g / cm^3
# Si number density = 21.718881 Si / 1000 Ang^3
#
#
#
# Elastic Constant Matrix: (Units=GPa)
#
#
# Indices 1 2 3 4 5 6 
#
# 1 70.2427 40.5266 36.3042 -0.0002 3.1330 0.0001
# 2 40.5266 109.3907 53.5318 -0.0007 2.3929 0.0007
# 3 36.3042 53.5318 150.2792 -0.0001 -4.6619 0.0001
# 4 -0.0002 -0.0007 -0.0001 38.4490 0.0001 -6.5868
# 5 3.1330 2.3929 -4.6619 0.0001 30.8270 -0.0001
# 6 0.0001 0.0007 0.0001 -6.5868 -0.0001 27.8253
#
#
#
# Elastic Compliance Matrix: (Units=1/GPa)
#
#
# Indices 1 2 3 4 5 6 
#
# 1 0.018960 -0.005708 -0.002605 0.000000 -0.001878 0.000000
# 2 -0.005708 0.012856 -0.003229 0.000000 -0.000906 0.000000
# 3 -0.002605 -0.003229 0.008490 0.000000 0.001799 0.000000
# 4 0.000000 0.000000 0.000000 0.027108 0.000000 0.006417
# 5 -0.001878 -0.000906 0.001799 0.000000 0.032972 0.000000
# 6 0.000000 0.000000 0.000000 0.006417 0.000000 0.037458
#
#
# Mechanical properties :
#
#
# Convention : Reuss Voigt Hill
#
# Bulk Modulus (GPa) = 58.06726 65.62643 61.84684
# Shear Modulus (GPa) = 29.99974 32.72358 31.36166
#
# Velocity S-wave (km/s) = 3.72058 3.88582 3.80410
# Velocity P-wave (km/s) = 6.72688 7.10033 6.91612
#
# Compressibility (1/GPa) = 0.01722141
#
# Stress axis : x y z
#
# Youngs Moduli (GPa) = 52.74276 77.78395 117.79174
#
# Poissons Ratio (x) = 0.44401 0.30687
# Poissons Ratio (y) = 0.30107 0.38031
# Poissons Ratio (z) = 0.13741 0.25114
#
# Static dielectric constant tensor:
#      x y z
#    x 3.810710 0.000000 0.035510 
#    y 0.000000 3.848080 0.000000 
#    z 0.035510 0.000000 4.117640 
# 
# 
# High freq. dielectric constant tensor:
#      x y z
#    x 1.844270 0.000000 0.002710 
#    y 0.000000 1.843960 0.000000 
#    z 0.002710 0.000000 1.871260 
# 
# From -- ./inp_files/237084.got.cif
#   From: 2010.06.25/outbox.cif.g09.slc.cpg/sg12_119_cif.got.tgz:237084.got - 2010.06.28 00:19:55.
