data_PCOD8098913
_publ_section_title
;
Structure prediction by ZEFSAII (Michael W. Deem and Ramdas Pophale) SiO2 
 PCOD8098913
Probable space group: C 2/M
;
_chemical_formula_sum "Si O2"
_cell_formula_units_Z 56
_cell_length_a 26.304189
_cell_length_b 9.172572
_cell_length_c 13.187737
_cell_angle_alpha 90.000000
_cell_angle_beta 113.914313
_cell_angle_gamma 90.000000
_cell_volume 2908.741174
_symmetry_space_group_name_H-M "C 2/M"
_symmetry_group_IT_number 12
_symmetry_cell_setting 'monoclinic'
loop_
_space_group_symop_operation_xyz
x,y,z
-x,y,-z
-x,-y,-z
x,-y,z
1/2+x,1/2+y,z
1/2-x,1/2+y,-z
1/2-x,1/2-y,-z
1/2+x,1/2-y,z
loop_
_atom_site_type_symbol
_atom_site_label
_atom_site_fract_x
_atom_site_fract_y
_atom_site_fract_z
Si Si1 0.946965 0.827400 0.675033
Si Si2 0.334439 0.168585 0.886554
Si Si3 0.132905 0.828956 0.562150
Si Si4 0.659036 0.165269 0.878828
Si Si5 0.434956 0.670552 0.295640
Si Si6 0.770519 0.328858 0.257079
Si Si7 0.058726 0.828824 0.098933
O O1 0.893450 0.778193 0.566129
O O2 0.941478 0.772259 0.785407
O O3 0.003260 0.764315 0.669593
O O4 0.950817 0.000000 0.675265
O O5 0.289484 0.252916 0.781424
O O6 0.394744 0.238726 0.922066
O O7 0.335917 0.000000 0.855172
O O8 0.316615 0.186712 0.989409
O O9 0.087143 0.790517 0.610570
O O10 0.188965 0.737461 0.624614
O O11 0.147719 0.000000 0.576346
O O12 0.604711 0.263640 0.822289
O O13 0.705808 0.209295 0.835056
O O14 0.640215 0.000000 0.844290
O O15 0.435148 0.500000 0.276296
O O16 0.763619 0.500000 0.270752
O O17 0.072372 0.000000 0.103027
O O18 0.000000 0.792990 0.000000
#
# Coordination Sequence:
#
# PCOD8098913 Si02
#       7
#     8   8   8   8   8   8   8
#     4   9  17  31  52  77 105 138 174 211 252 300
#     4  11  22  36  54  76 103 136 174 213 256 303
#     4   9  17  31  52  78 107 136 169 210 255 303
#     4   9  19  33  50  76 108 137 165 206 259 311
#     4   9  16  28  51  80 106 135 171 209 251 303
#     4  10  20  35  54  77 105 134 168 210 258 310
#     4  10  21  37  56  78 105 137 173 211 251 298
#
# _framework density 19.252313999999998
#
# number of rings (size 3 to 8) (size 9 to 14) (size 15 to 20)
#    0.000    2.429    0.000    2.571    0.000    4.857 
#    0.000    2.857    0.000    3.429    0.000    0.000 
#    0.000    0.000    0.000    0.000    0.000    0.000 
#
# Total GULP energy -347215.076367 kJ/mol
# GULP energy per Si atom -12400.538442 kJ/mol
# Density = 1.920850 g / cm^3
# Si number density = 19.252314 Si / 1000 Ang^3
#
#
#
# Elastic Constant Matrix: (Units=GPa)
#
#
# Indices 1 2 3 4 5 6 
#
# 1 74.2323 39.1510 44.3138 0.0000 20.1203 0.0000
# 2 39.1510 64.5955 46.6160 0.0000 14.0320 0.0000
# 3 44.3138 46.6160 127.3188 0.0000 13.7686 0.0000
# 4 0.0000 0.0000 0.0000 23.1867 0.0000 4.1852
# 5 20.1203 14.0320 13.7686 0.0000 28.7663 0.0000
# 6 0.0000 0.0000 0.0000 4.1852 0.0000 24.4425
#
#
#
# Elastic Compliance Matrix: (Units=1/GPa)
#
#
# Indices 1 2 3 4 5 6 
#
# 1 0.023242 -0.009322 -0.003596 0.000000 -0.009988 0.000000
# 2 -0.009322 0.026178 -0.005974 0.000000 -0.003390 0.000000
# 3 -0.003596 -0.005974 0.011290 0.000000 0.000025 0.000000
# 4 0.000000 0.000000 0.000000 0.044504 0.000000 -0.007620
# 5 -0.009988 -0.003390 0.000025 0.000000 0.043390 0.000000
# 6 0.000000 0.000000 0.000000 -0.007620 0.000000 0.042217
#
#
# Mechanical properties :
#
#
# Convention : Reuss Voigt Hill
#
# Bulk Modulus (GPa) = 43.61672 58.47869 51.04771
# Shear Modulus (GPa) = 21.16429 24.35015 22.75722
#
# Velocity S-wave (km/s) = 3.31918 3.56025 3.44183
# Velocity P-wave (km/s) = 6.11505 6.88050 6.50904
#
# Compressibility (1/GPa) = 0.02292699
#
# Stress axis : x y z
#
# Youngs Moduli (GPa) = 43.02646 38.19959 88.57059
#
# Poissons Ratio (x) = 0.35609 0.31851
# Poissons Ratio (y) = 0.40108 0.52910
# Poissons Ratio (z) = 0.15473 0.22819
#
# Static dielectric constant tensor:
#      x y z
#    x 3.407440 0.000000 0.033430 
#    y 0.000000 3.315460 0.000000 
#    z 0.033430 0.000000 3.627090 
# 
# 
# High freq. dielectric constant tensor:
#      x y z
#    x 1.737610 0.000000 0.011250 
#    y 0.000000 1.729190 0.000000 
#    z 0.011250 0.000000 1.752390 
# 
# From -- ./inp_files/238285.got.cif
#   From: 2010.06.25/outbox.cif.g09.slc.cpg/sg12_120_cif.got.tgz:238285.got - 2010.06.28 00:19:55.
