data_PCOD8098765
_publ_section_title
;
Structure prediction by ZEFSAII (Michael W. Deem and Ramdas Pophale) SiO2 
 PCOD8098765
Probable space group: C 2/M
;
_chemical_formula_sum "Si O2"
_cell_formula_units_Z 48
_cell_length_a 20.500151
_cell_length_b 8.946332
_cell_length_c 16.773333
_cell_angle_alpha 90.000000
_cell_angle_beta 62.559297
_cell_angle_gamma 90.000000
_cell_volume 2730.134508
_symmetry_space_group_name_H-M "C 2/M"
_symmetry_group_IT_number 12
_symmetry_cell_setting 'monoclinic'
loop_
_space_group_symop_operation_xyz
x,y,z
-x,y,-z
-x,-y,-z
x,-y,z
1/2+x,1/2+y,z
1/2-x,1/2+y,-z
1/2-x,1/2-y,-z
1/2+x,1/2-y,z
loop_
_atom_site_type_symbol
_atom_site_label
_atom_site_fract_x
_atom_site_fract_y
_atom_site_fract_z
Si Si1 0.915811 0.324141 0.543730
Si Si2 0.078353 0.822372 0.930066
Si Si3 0.727037 0.323168 0.930743
Si Si4 0.346297 0.676676 0.267113
Si Si5 0.670883 0.676790 0.548393
Si Si6 0.701540 0.176586 0.268247
O O1 0.905741 0.500000 0.534282
O O2 0.881685 0.236484 0.489821
O O3 0.876404 0.274875 0.649102
O O4 0.000000 0.276226 0.500000
O O5 0.144549 0.772441 0.951731
O O6 0.094575 0.763601 0.830836
O O7 0.073368 0.000000 0.933969
O O8 0.000000 0.751857 0.000000
O O9 0.730343 0.500000 0.939225
O O10 0.785002 0.266857 0.829946
O O11 0.750000 0.250000 0.000000
O O12 0.343013 0.500000 0.261343
O O13 0.366187 0.723489 0.345967
O O14 0.265639 0.740422 0.289684
O O15 0.680078 0.500000 0.535835
O O16 0.750000 0.750000 0.500000
O O17 0.707446 0.000000 0.262426
#
# Coordination Sequence:
#
# PCOD8098765 Si02
#       6
#     8   8   8   8   8   8
#     4  10  20  35  53  72  99 135 171 204 245 297
#     4   8  14  27  48  71  93 121 159 196 234 286
#     4   9  17  30  50  71  93 125 160 197 239 287
#     4   8  14  26  47  70  92 123 159 196 238 286
#     4  11  20  32  53  77 102 130 166 207 247 293
#     4   8  14  29  50  68  91 128 166 193 233 293
#
# _framework density 17.581551999999999
#
# number of rings (size 3 to 8) (size 9 to 14) (size 15 to 20)
#    0.000    3.000    1.667    2.500    0.000    0.333 
#    3.000    0.833    0.000    0.500    0.000    0.000 
#    0.000    0.000    0.000    0.000    0.000    0.000 
#
# Total GULP energy -297346.459566 kJ/mol
# GULP energy per Si atom -12389.435815 kJ/mol
# Density = 1.754154 g / cm^3
# Si number density = 17.581552 Si / 1000 Ang^3
#
#
#
# Elastic Constant Matrix: (Units=GPa)
#
#
# Indices 1 2 3 4 5 6 
#
# 1 121.2725 35.8531 104.2544 0.0000 0.7376 0.0001
# 2 35.8531 29.8652 32.5296 0.0001 4.4237 0.0007
# 3 104.2544 32.5296 188.9278 0.0000 -1.8652 0.0000
# 4 0.0000 0.0001 0.0000 18.8790 0.0000 7.8751
# 5 0.7376 4.4237 -1.8652 0.0000 37.3715 0.0001
# 6 0.0001 0.0007 0.0000 7.8751 0.0001 22.7947
#
#
#
# Elastic Compliance Matrix: (Units=1/GPa)
#
#
# Indices 1 2 3 4 5 6 
#
# 1 0.019821 -0.014809 -0.008379 0.000000 0.000944 0.000000
# 2 -0.014809 0.053327 -0.001070 0.000001 -0.006074 -0.000002
# 3 -0.008379 -0.001070 0.010109 0.000000 0.000797 0.000000
# 4 0.000000 0.000001 0.000000 0.061888 0.000000 -0.021381
# 5 0.000944 -0.006074 0.000797 0.000000 0.027498 0.000000
# 6 0.000000 -0.000002 0.000000 -0.021381 0.000000 0.051256
#
#
# Mechanical properties :
#
#
# Convention : Reuss Voigt Hill
#
# Bulk Modulus (GPa) = 28.78383 76.14885 52.46634
# Shear Modulus (GPa) = 17.60599 26.97093 22.28846
#
# Velocity S-wave (km/s) = 3.16791 3.92094 3.56437
# Velocity P-wave (km/s) = 5.45784 7.99401 6.84442
#
# Compressibility (1/GPa) = 0.03474172
#
# Stress axis : x y z
#
# Youngs Moduli (GPa) = 50.45143 18.75231 98.92574
#
# Poissons Ratio (x) = 0.27770 0.82886
# Poissons Ratio (y) = 0.74712 0.10585
# Poissons Ratio (z) = 0.42271 0.02006
#
# Static dielectric constant tensor:
#      x y z
#    x 4.080080 0.000000 0.097400 
#    y 0.000000 2.804920 0.000000 
#    z 0.097400 0.000000 4.001120 
# 
# 
# High freq. dielectric constant tensor:
#      x y z
#    x 1.663470 0.000000 0.001340 
#    y 0.000000 1.630430 0.000000 
#    z 0.001340 0.000000 1.701050 
# 
# From -- ./inp_files/276726.got.cif
#   From: 2010.06.25/outbox.cif.g09.slc.cpg/sg12_139_cif.got.tgz:276726.got - 2010.06.28 00:19:55.
