data_PCOD8098197
_publ_section_title
;
Structure prediction by ZEFSAII (Michael W. Deem and Ramdas Pophale) SiO2 
 PCOD8098197
Probable space group: C 2/M
;
_chemical_formula_sum "Si O2"
_cell_formula_units_Z 64
_cell_length_a 32.101478
_cell_length_b 13.380036
_cell_length_c 13.041413
_cell_angle_alpha 90.000000
_cell_angle_beta 145.640869
_cell_angle_gamma 90.000000
_cell_volume 3161.384151
_symmetry_space_group_name_H-M "C 2/M"
_symmetry_group_IT_number 12
_symmetry_cell_setting 'monoclinic'
loop_
_space_group_symop_operation_xyz
x,y,z
-x,y,-z
-x,-y,-z
x,-y,z
1/2+x,1/2+y,z
1/2-x,1/2+y,-z
1/2-x,1/2-y,-z
1/2+x,1/2-y,z
loop_
_atom_site_type_symbol
_atom_site_label
_atom_site_fract_x
_atom_site_fract_y
_atom_site_fract_z
Si Si1 0.196933 0.114323 0.350519
Si Si2 0.286026 0.614089 0.043114
Si Si3 0.533015 0.609461 0.956627
Si Si4 0.053371 0.254839 0.353448
Si Si5 0.695299 0.197017 0.035576
Si Si6 0.066386 0.108965 0.558145
Si Si7 0.533972 0.117474 0.680644
Si Si8 0.211177 0.227999 0.583417
O O1 0.119638 0.131770 0.137303
O O2 0.191325 0.145167 0.458467
O O3 0.256805 0.176303 0.409310
O O4 0.222107 0.000000 0.398318
O O5 0.289043 0.500000 0.008779
O O6 0.275487 0.689500 0.926810
O O7 0.362453 0.655935 0.243802
O O8 0.224203 0.623072 0.005220
O O9 0.520413 0.500000 0.874716
O O10 0.500000 0.595190 0.000000
O O11 0.496552 0.709799 0.837946
O O12 0.040291 0.172562 0.411789
O O13 0.137820 0.266367 0.491913
O O14 0.023775 0.357964 0.344392
O O15 0.607295 0.181078 0.856621
O O16 0.731747 0.175548 0.220680
O O17 0.000000 0.100652 0.500000
O O18 0.090063 0.000000 0.565704
O O19 0.500000 0.148734 0.500000
O O20 0.551488 0.000000 0.718003
#
# Coordination Sequence:
#
# PCOD8098197 Si02
#       8
#     8   8   8   8   8   8   8   8
#     4  10  23  43  62  88 124 156 198 252 306 365
#     4  10  21  35  58  90 122 159 202 253 304 353
#     4  10  20  37  64  94 122 155 194 244 307 369
#     4  12  21  38  64  91 124 156 205 249 299 360
#     4  11  22  41  61  87 123 163 205 253 299 360
#     4  10  20  34  55  90 128 158 194 244 305 363
#     4  11  26  44  63  86 121 170 213 248 292 356
#     4  11  24  39  64  93 118 160 200 248 312 360
#
# _framework density 20.244297
#
# number of rings (size 3 to 8) (size 9 to 14) (size 15 to 20)
#    0.000    1.375    2.500    3.375    1.750    2.500 
#    0.000    3.125    0.000    0.375    0.000    0.000 
#    0.000    0.000    0.000    0.000    0.000    0.000 
#
# Total GULP energy -396661.607107 kJ/mol
# GULP energy per Si atom -12395.675222 kJ/mol
# Density = 2.019822 g / cm^3
# Si number density = 20.244297 Si / 1000 Ang^3
#
#
#
# Elastic Constant Matrix: (Units=GPa)
#
#
# Indices 1 2 3 4 5 6 
#
# 1 88.6409 29.6311 30.6949 0.0000 11.9233 0.0000
# 2 29.6311 82.4600 24.6607 0.0000 1.2639 0.0000
# 3 30.6949 24.6607 93.0543 0.0000 7.5501 0.0000
# 4 0.0000 0.0000 0.0000 30.9535 0.0000 4.0614
# 5 11.9233 1.2639 7.5501 0.0000 30.3555 0.0000
# 6 0.0000 0.0000 0.0000 4.0614 0.0000 56.3981
#
#
#
# Elastic Compliance Matrix: (Units=1/GPa)
#
#
# Indices 1 2 3 4 5 6 
#
# 1 0.014429 -0.004131 -0.003285 0.000000 -0.004679 0.000000
# 2 -0.004131 0.014357 -0.002577 0.000000 0.001666 0.000000
# 3 -0.003285 -0.002577 0.012655 0.000000 -0.001750 0.000000
# 4 0.000000 0.000000 0.000000 0.032615 0.000000 -0.002349
# 5 -0.004679 0.001666 -0.001750 0.000000 0.035147 0.000000
# 6 0.000000 0.000000 0.000000 -0.002349 0.000000 0.017900
#
#
# Mechanical properties :
#
#
# Convention : Reuss Voigt Hill
#
# Bulk Modulus (GPa) = 46.61074 48.23649 47.42362
# Shear Modulus (GPa) = 32.41685 35.48599 33.95142
#
# Velocity S-wave (km/s) = 4.00594 4.19129 4.09967
# Velocity P-wave (km/s) = 6.66865 6.87761 6.77394
#
# Compressibility (1/GPa) = 0.02145428
#
# Stress axis : x y z
#
# Youngs Moduli (GPa) = 69.30343 69.65401 79.01948
#
# Poissons Ratio (x) = 0.28773 0.25960
# Poissons Ratio (y) = 0.28628 0.20366
# Poissons Ratio (z) = 0.22768 0.17952
#
# Static dielectric constant tensor:
#      x y z
#    x 3.737390 0.000000 0.041260 
#    y 0.000000 3.737500 0.000000 
#    z 0.041260 0.000000 3.827820 
# 
# 
# High freq. dielectric constant tensor:
#      x y z
#    x 1.793730 0.000000 0.008600 
#    y 0.000000 1.787130 0.000000 
#    z 0.008600 0.000000 1.793210 
# 
# From -- ./inp_files/189466.got.cif
#   From: 2010.06.25/outbox.cif.g09.slc.cpg/sg12_95_cif.got.tgz:189466.got - 2010.06.28 00:19:55.
