data_PCOD8098585
_publ_section_title
;
Structure prediction by ZEFSAII (Michael W. Deem and Ramdas Pophale) SiO2 
 PCOD8098585
Probable space group: C 2/M
;
_chemical_formula_sum "Si O2"
_cell_formula_units_Z 64
_cell_length_a 12.795304
_cell_length_b 13.448190
_cell_length_c 30.606539
_cell_angle_alpha 90.000000
_cell_angle_beta 138.829667
_cell_angle_gamma 90.000000
_cell_volume 3466.988315
_symmetry_space_group_name_H-M "C 2/M"
_symmetry_group_IT_number 12
_symmetry_cell_setting 'monoclinic'
loop_
_space_group_symop_operation_xyz
x,y,z
-x,y,-z
-x,-y,-z
x,-y,z
1/2+x,1/2+y,z
1/2-x,1/2+y,-z
1/2-x,1/2-y,-z
1/2+x,1/2-y,z
loop_
_atom_site_type_symbol
_atom_site_label
_atom_site_fract_x
_atom_site_fract_y
_atom_site_fract_z
Si Si1 0.204862 0.231629 0.217485
Si Si2 0.138064 0.115715 0.437040
Si Si3 0.697862 0.611586 0.975938
Si Si4 0.839606 0.885551 0.882587
Si Si5 0.024805 0.112693 0.704526
Si Si6 0.752459 0.614010 0.318872
Si Si7 0.151475 0.714452 0.900525
Si Si8 0.525121 0.211702 0.457804
O O1 0.209527 0.149852 0.180947
O O2 0.320958 0.320652 0.242070
O O3 0.267426 0.179648 0.280600
O O4 0.031724 0.278626 0.170546
O O5 0.320533 0.144445 0.500973
O O6 0.032486 0.181816 0.436303
O O7 0.083677 0.141150 0.370937
O O8 0.113636 0.000000 0.440901
O O9 0.720389 0.500000 0.966202
O O10 0.528807 0.626478 0.947003
O O11 0.714460 0.679214 0.938041
O O12 0.830939 0.636816 0.053890
O O13 0.754347 0.817419 0.891450
O O14 0.787149 0.000000 0.872273
O O15 0.921956 0.127286 0.715762
O O16 0.084807 0.000000 0.718839
O O17 0.784329 0.500000 0.316453
O O18 0.879707 0.647748 0.394424
O O19 0.500000 0.236762 0.500000
#
# Coordination Sequence:
#
# PCOD8098585 Si02
#       8
#     8   8   8   8   8   8   8   8
#     4  11  22  38  54  80 115 149 187 226 278 330
#     4  10  21  37  56  83 113 140 178 228 282 334
#     4   9  19  36  59  85 112 144 184 231 279 323
#     4  10  20  36  59  83 111 147 187 232 277 325
#     4  10  21  37  56  77 109 148 183 225 278 333
#     4  11  22  37  58  82 108 144 190 233 276 329
#     4  10  20  34  58  85 113 145 186 231 272 331
#     4  11  21  36  61  85 109 143 186 236 282 330
#
# _framework density 18.459826
#
# number of rings (size 3 to 8) (size 9 to 14) (size 15 to 20)
#    0.000    1.750    2.500    2.250    0.000    3.250 
#    0.000    0.625    0.000   11.250    0.000    0.000 
#    0.000    0.000    0.000    0.000    0.000    0.000 
#
# Total GULP energy -396896.992196 kJ/mol
# GULP energy per Si atom -12403.031006 kJ/mol
# Density = 1.841781 g / cm^3
# Si number density = 18.459826 Si / 1000 Ang^3
#
#
#
# Elastic Constant Matrix: (Units=GPa)
#
#
# Indices 1 2 3 4 5 6 
#
# 1 77.0092 46.3195 12.6829 0.0000 -8.6845 0.0000
# 2 46.3195 105.7227 26.6332 0.0000 6.6814 0.0000
# 3 12.6829 26.6332 60.7602 0.0000 -1.8049 0.0000
# 4 0.0000 0.0000 0.0000 25.0052 0.0000 0.9787
# 5 -8.6845 6.6814 -1.8049 0.0000 20.3747 0.0000
# 6 0.0000 0.0000 0.0000 0.9787 0.0000 28.7194
#
#
#
# Elastic Compliance Matrix: (Units=1/GPa)
#
#
# Indices 1 2 3 4 5 6 
#
# 1 0.020025 -0.009610 0.000381 0.000000 0.011720 0.000000
# 2 -0.009610 0.015565 -0.005103 0.000000 -0.009652 0.000000
# 3 0.000381 -0.005103 0.018719 0.000000 0.003494 0.000000
# 4 0.000000 0.000000 0.000000 0.040045 0.000000 -0.001365
# 5 0.011720 -0.009652 0.003494 0.000000 0.057551 0.000000
# 6 0.000000 0.000000 0.000000 -0.001365 0.000000 0.034866
#
#
# Mechanical properties :
#
#
# Convention : Reuss Voigt Hill
#
# Bulk Modulus (GPa) = 38.99604 46.08480 42.54042
# Shear Modulus (GPa) = 22.32306 25.34362 23.83334
#
# Velocity S-wave (km/s) = 3.48124 3.70930 3.59708
# Velocity P-wave (km/s) = 6.10978 6.58516 6.35192
#
# Compressibility (1/GPa) = 0.02564363
#
# Stress axis : x y z
#
# Youngs Moduli (GPa) = 49.93847 64.24848 53.42041
#
# Poissons Ratio (x) = 0.61742 -0.02033
# Poissons Ratio (y) = 0.47990 0.27262
# Poissons Ratio (z) = -0.01900 0.32788
#
# Static dielectric constant tensor:
#      x y z
#    x 3.285540 0.000000 -0.020310 
#    y 0.000000 3.455230 0.000000 
#    z -0.020310 0.000000 3.420900 
# 
# 
# High freq. dielectric constant tensor:
#      x y z
#    x 1.709090 0.000000 -0.005850 
#    y 0.000000 1.722780 0.000000 
#    z -0.005850 0.000000 1.723600 
# 
# From -- ./inp_files/374131.got.cif
#   From: 2010.06.25/outbox.cif.g09.slc.cpg/sg12_188_cif.got.tgz:374131.got - 2010.06.28 00:19:55.
