data_PCOD8098433
_publ_section_title
;
Structure prediction by ZEFSAII (Michael W. Deem and Ramdas Pophale) SiO2 
 PCOD8098433
Probable space group: C 2/M
;
_chemical_formula_sum "Si O2"
_cell_formula_units_Z 56
_cell_length_a 14.705488
_cell_length_b 8.864794
_cell_length_c 26.302448
_cell_angle_alpha 90.000000
_cell_angle_beta 126.547575
_cell_angle_gamma 90.000000
_cell_volume 2754.583309
_symmetry_space_group_name_H-M "C 2/M"
_symmetry_group_IT_number 12
_symmetry_cell_setting 'monoclinic'
loop_
_space_group_symop_operation_xyz
x,y,z
-x,y,-z
-x,-y,-z
x,-y,z
1/2+x,1/2+y,z
1/2-x,1/2+y,-z
1/2-x,1/2-y,-z
1/2+x,1/2-y,z
loop_
_atom_site_type_symbol
_atom_site_label
_atom_site_fract_x
_atom_site_fract_y
_atom_site_fract_z
Si Si1 0.390953 0.171362 0.295802
Si Si2 0.888801 0.322281 0.993327
Si Si3 0.785258 0.827050 0.440500
Si Si4 0.227539 0.171915 0.325986
Si Si5 0.029373 0.823960 0.773983
Si Si6 0.153497 0.677117 0.905671
Si Si7 0.423524 0.672205 0.579767
O O1 0.268869 0.188959 0.281605
O O2 0.391165 0.277147 0.246577
O O3 0.480059 0.216700 0.368965
O O4 0.414745 0.000000 0.286604
O O5 0.878281 0.500000 0.982293
O O6 0.775183 0.249154 0.932795
O O7 0.894285 0.277138 0.054664
O O8 0.000000 0.262024 0.000000
O O9 0.802747 0.780451 0.387480
O O10 0.692088 0.711272 0.429952
O O11 0.900995 0.807870 0.511629
O O12 0.743495 0.000000 0.430364
O O13 0.097095 0.222048 0.284184
O O14 0.242204 0.000000 0.349209
O O15 0.061804 0.734986 0.835294
O O16 0.041957 0.000000 0.789246
O O17 0.168047 0.500000 0.905788
O O18 0.456723 0.500000 0.604099
#
# Coordination Sequence:
#
# PCOD8098433 Si02
#       7
#     8   8   8   8   8   8   8
#     4  11  23  39  59  85 113 149 195 244 297 354
#     4   9  19  38  63  92 125 158 194 235 279 331
#     4  10  20  34  57  83 109 146 191 239 293 357
#     4  10  23  40  58  82 115 150 191 243 299 353
#     4  11  23  41  61  82 116 159 196 240 289 342
#     4  10  21  37  60  90 122 157 195 237 283 336
#     4  10  20  35  55  82 113 146 187 239 300 355
#
# _framework density 20.329753
#
# number of rings (size 3 to 8) (size 9 to 14) (size 15 to 20)
#    0.000    1.857    1.429    2.143    0.000    6.000 
#    0.000    5.714    0.000    0.000    0.000    0.000 
#    0.000    0.000    0.000    0.000    0.000    0.000 
#
# Total GULP energy -347219.276091 kJ/mol
# GULP energy per Si atom -12400.688432 kJ/mol
# Density = 2.028348 g / cm^3
# Si number density = 20.329753 Si / 1000 Ang^3
#
#
#
# Elastic Constant Matrix: (Units=GPa)
#
#
# Indices 1 2 3 4 5 6 
#
# 1 80.7523 25.3552 19.8001 0.0000 -17.4489 0.0000
# 2 25.3552 43.7488 26.0428 0.0000 -2.3729 0.0000
# 3 19.8001 26.0428 93.1973 0.0000 -14.6223 0.0000
# 4 0.0000 0.0000 0.0000 38.5378 0.0000 -0.8785
# 5 -17.4489 -2.3729 -14.6223 0.0000 17.4178 0.0000
# 6 0.0000 0.0000 0.0000 -0.8785 0.0000 27.3294
#
#
#
# Elastic Compliance Matrix: (Units=1/GPa)
#
#
# Indices 1 2 3 4 5 6 
#
# 1 0.019895 -0.011761 0.002229 0.000000 0.020199 0.000000
# 2 -0.011761 0.034519 -0.009511 0.000000 -0.015064 0.000000
# 3 0.002229 -0.009511 0.015042 0.000000 0.013565 0.000000
# 4 0.000000 0.000000 0.000000 0.025968 0.000000 0.000835
# 5 0.020199 -0.015064 0.013565 0.000000 0.086983 0.000000
# 6 0.000000 0.000000 0.000000 0.000835 0.000000 0.036617
#
#
# Mechanical properties :
#
#
# Convention : Reuss Voigt Hill
#
# Bulk Modulus (GPa) = 31.87790 40.01051 35.94420
# Shear Modulus (GPa) = 18.68695 26.42370 22.55533
#
# Velocity S-wave (km/s) = 3.03511 3.60912 3.33449
# Velocity P-wave (km/s) = 5.29122 6.09025 5.70474
#
# Compressibility (1/GPa) = 0.03136969
#
# Stress axis : x y z
#
# Youngs Moduli (GPa) = 50.26511 28.96986 66.47912
#
# Poissons Ratio (x) = 0.34073 -0.14819
# Poissons Ratio (y) = 0.59119 0.63225
# Poissons Ratio (z) = -0.11204 0.27552
#
# Static dielectric constant tensor:
#      x y z
#    x 3.640190 0.000000 -0.111730 
#    y 0.000000 3.640960 0.000000 
#    z -0.111730 0.000000 3.702950 
# 
# 
# High freq. dielectric constant tensor:
#      x y z
#    x 1.786230 0.000000 -0.009870 
#    y 0.000000 1.798740 0.000000 
#    z -0.009870 0.000000 1.790160 
# 
# From -- ./inp_files/339059.got.cif
#   From: 2010.06.25/outbox.cif.g09.slc.cpg/sg12_170_cif.got.tgz:339059.got - 2010.06.28 00:19:55.
