data_PCOD8098571
_publ_section_title
;
Structure prediction by ZEFSAII (Michael W. Deem and Ramdas Pophale) SiO2 
 PCOD8098571
Probable space group: C 2/M
;
_chemical_formula_sum "Si O2"
_cell_formula_units_Z 56
_cell_length_a 31.803499
_cell_length_b 14.626384
_cell_length_c 12.956637
_cell_angle_alpha 90.000000
_cell_angle_beta 28.609060
_cell_angle_gamma 90.000000
_cell_volume 2885.932303
_symmetry_space_group_name_H-M "C 2/M"
_symmetry_group_IT_number 12
_symmetry_cell_setting 'monoclinic'
loop_
_space_group_symop_operation_xyz
x,y,z
-x,y,-z
-x,-y,-z
x,-y,z
1/2+x,1/2+y,z
1/2-x,1/2+y,-z
1/2-x,1/2-y,-z
1/2+x,1/2-y,z
loop_
_atom_site_type_symbol
_atom_site_label
_atom_site_fract_x
_atom_site_fract_y
_atom_site_fract_z
Si Si1 0.326993 0.104497 0.514130
Si Si2 0.416383 0.293673 0.755476
Si Si3 0.746390 0.895643 0.105741
Si Si4 0.599972 0.901124 0.253206
Si Si5 0.922629 0.224044 0.248651
Si Si6 0.321514 0.600488 0.326885
Si Si7 0.025941 0.102478 0.167600
O O1 0.275498 0.130241 0.729061
O O2 0.406758 0.174563 0.326908
O O3 0.267280 0.119997 0.542764
O O4 0.362222 0.000000 0.444627
O O5 0.500000 0.298676 0.500000
O O6 0.394507 0.187429 0.833088
O O7 0.435124 0.350378 0.816259
O O8 0.329281 0.335418 0.888901
O O9 0.660233 0.878182 0.222572
O O10 0.777072 0.000000 0.032658
O O11 0.500000 0.912924 0.500000
O O12 0.629589 0.000000 0.139897
O O13 0.836957 0.178159 0.379923
O O14 0.944951 0.160450 0.298290
O O15 0.000000 0.230377 0.000000
O O16 0.316998 0.500000 0.389700
O O17 0.400354 0.599102 0.077036
O O18 0.994278 0.000000 0.263693
#
# Coordination Sequence:
#
# PCOD8098571 Si02
#       7
#     8   8   8   8   8   8   8
#     4  10  20  34  58  82 109 148 188 227 273 334
#     4  11  22  35  59  85 113 148 188 234 283 329
#     4  10  20  37  58  82 112 150 191 232 277 335
#     4   9  20  37  57  80 109 146 193 233 272 330
#     4  10  21  34  55  83 112 145 181 228 283 328
#     4   9  17  35  59  81 106 143 185 225 273 334
#     4  10  20  36  55  82 114 143 184 230 278 336
#
# _framework density 19.404475000000001
#
# number of rings (size 3 to 8) (size 9 to 14) (size 15 to 20)
#    0.000    2.143    1.429    1.714    4.000    3.143 
#    0.000    0.000    0.000    1.714    0.000    0.000 
#    0.000    0.000    0.000    0.000    0.000    0.000 
#
# Total GULP energy -347004.711787 kJ/mol
# GULP energy per Si atom -12393.025421 kJ/mol
# Density = 1.936031 g / cm^3
# Si number density = 19.404475 Si / 1000 Ang^3
#
#
#
# Elastic Constant Matrix: (Units=GPa)
#
#
# Indices 1 2 3 4 5 6 
#
# 1 79.1707 50.2516 26.7617 0.0000 -20.4206 0.0000
# 2 50.2516 167.3003 45.5842 0.0000 -12.7380 0.0000
# 3 26.7617 45.5842 47.4019 0.0000 -15.1226 0.0000
# 4 0.0000 0.0000 0.0000 33.5608 0.0000 -3.0834
# 5 -20.4206 -12.7380 -15.1226 0.0000 17.1255 0.0000
# 6 0.0000 0.0000 0.0000 -3.0834 0.0000 10.2951
#
#
#
# Elastic Compliance Matrix: (Units=1/GPa)
#
#
# Indices 1 2 3 4 5 6 
#
# 1 0.021283 -0.004536 -0.000882 0.000000 0.021225 0.000000
# 2 -0.004536 0.009084 -0.007998 0.000000 -0.005715 0.000000
# 3 -0.000882 -0.007998 0.037662 0.000000 0.026257 0.000000
# 4 0.000000 0.000000 0.000000 0.030640 0.000000 0.009177
# 5 0.021225 -0.005715 0.026257 0.000000 0.102637 0.000000
# 6 0.000000 0.000000 0.000000 0.009177 0.000000 0.099882
#
#
# Mechanical properties :
#
#
# Convention : Reuss Voigt Hill
#
# Bulk Modulus (GPa) = 24.27364 59.89644 42.08504
# Shear Modulus (GPa) = 14.63051 23.61464 19.12257
#
# Velocity S-wave (km/s) = 2.74884 3.49229 3.14263
# Velocity P-wave (km/s) = 4.75513 6.86992 5.90792
#
# Compressibility (1/GPa) = 0.04119695
#
# Stress axis : x y z
#
# Youngs Moduli (GPa) = 46.98575 110.08549 26.55206
#
# Poissons Ratio (x) = 0.49939 0.02341
# Poissons Ratio (y) = 0.21315 0.21235
# Poissons Ratio (z) = 0.04143 0.88043
#
# Static dielectric constant tensor:
#      x y z
#    x -12.242660 0.000000 -10.915000 
#    y 0.000000 4.083350 0.000000 
#    z -10.915000 0.000000 -4.024640 
# 
# 
# High freq. dielectric constant tensor:
#      x y z
#    x 1.757360 0.000000 -0.022650 
#    y 0.000000 1.778890 0.000000 
#    z -0.022650 0.000000 1.713670 
# 
# From -- ./inp_files/143746.got.cif
#   From: 2010.06.25/outbox.cif.g09.slc.cpg/sg12_72_cif.got.tgz:143746.got - 2010.06.28 00:19:55.
