data_PCOD8098967
_publ_section_title
;
Structure prediction by ZEFSAII (Michael W. Deem and Ramdas Pophale) SiO2 
 PCOD8098967
Probable space group: C 2/M
;
_chemical_formula_sum "Si O2"
_cell_formula_units_Z 56
_cell_length_a 23.378452
_cell_length_b 9.074846
_cell_length_c 31.668726
_cell_angle_alpha 90.000000
_cell_angle_beta 154.333076
_cell_angle_gamma 90.000000
_cell_volume 2910.132281
_symmetry_space_group_name_H-M "C 2/M"
_symmetry_group_IT_number 12
_symmetry_cell_setting 'monoclinic'
loop_
_space_group_symop_operation_xyz
x,y,z
-x,y,-z
-x,-y,-z
x,-y,z
1/2+x,1/2+y,z
1/2-x,1/2+y,-z
1/2-x,1/2-y,-z
1/2+x,1/2-y,z
loop_
_atom_site_type_symbol
_atom_site_label
_atom_site_fract_x
_atom_site_fract_y
_atom_site_fract_z
Si Si1 0.799618 0.327150 0.467210
Si Si2 0.603192 0.170740 0.197855
Si Si3 0.941755 0.173252 0.633303
Si Si4 0.855488 0.171442 0.417627
Si Si5 0.881876 0.828071 0.102306
Si Si6 0.465758 0.825120 0.022902
Si Si7 0.823094 0.827940 0.155953
O O1 0.821029 0.500000 0.476720
O O2 0.917043 0.260050 0.573609
O O3 0.663137 0.287929 0.399802
O O4 0.801370 0.257645 0.422043
O O5 0.755479 0.199003 0.311820
O O6 0.511306 0.265520 0.166854
O O7 0.575652 0.219761 0.130994
O O8 0.564626 0.000000 0.178216
O O9 0.084455 0.229206 0.744527
O O10 0.938659 0.000000 0.621350
O O11 0.000000 0.229546 0.500000
O O12 0.862440 0.000000 0.434287
O O13 0.898727 0.795243 0.162954
O O14 0.869177 0.000000 0.083848
O O15 0.750000 0.750000 0.000000
O O16 0.458876 0.000000 0.015243
O O17 0.500000 0.757219 0.000000
O O18 0.323157 0.756690 0.940942
O O19 0.803697 0.000000 0.149205
#
# Coordination Sequence:
#
# PCOD8098967 Si02
#       7
#     8   8   8   8   8   8   8
#     4  10  20  35  54  79 109 142 180 229 284 334
#     4  10  20  36  56  82 112 142 183 234 280 327
#     4   9  18  33  55  79 106 141 180 226 277 333
#     4  10  22  38  57  81 110 148 192 236 280 332
#     4  11  20  33  55  83 114 147 183 225 276 331
#     4   9  17  30  50  76 105 138 177 221 265 315
#     4   9  17  30  50  77 106 137 179 221 264 322
#
# _framework density 19.243112
#
# number of rings (size 3 to 8) (size 9 to 14) (size 15 to 20)
#    0.000    2.286    1.429    1.714    0.000    3.714 
#    0.000    5.714    0.000    0.429    0.000    0.000 
#    0.000    0.000    0.000    0.000    0.000    0.000 
#
# Total GULP energy -347121.165347 kJ/mol
# GULP energy per Si atom -12397.184477 kJ/mol
# Density = 1.919931 g / cm^3
# Si number density = 19.243112 Si / 1000 Ang^3
#
#
#
# Elastic Constant Matrix: (Units=GPa)
#
#
# Indices 1 2 3 4 5 6 
#
# 1 106.3647 31.8570 60.8187 0.0007 -13.1138 -0.0006
# 2 31.8570 49.3676 30.1823 -0.0006 -4.7258 -0.0015
# 3 60.8187 30.1823 150.8311 0.0002 -17.9281 -0.0019
# 4 0.0007 -0.0006 0.0002 19.7831 -0.0002 -3.0671
# 5 -13.1138 -4.7258 -17.9281 -0.0002 32.0640 0.0000
# 6 -0.0006 -0.0015 -0.0019 -3.0671 0.0000 26.6207
#
#
#
# Elastic Compliance Matrix: (Units=1/GPa)
#
#
# Indices 1 2 3 4 5 6 
#
# 1 0.013902 -0.006251 -0.004058 -0.000001 0.002495 0.000000
# 2 -0.006251 0.025914 -0.002694 0.000001 -0.000243 0.000001
# 3 -0.004058 -0.002694 0.009170 0.000000 0.003071 0.000000
# 4 -0.000001 0.000001 0.000000 0.051467 0.000000 0.005930
# 5 0.002495 -0.000243 0.003071 0.000000 0.033889 0.000000
# 6 0.000000 0.000001 0.000000 0.005930 0.000000 0.038248
#
#
# Mechanical properties :
#
#
# Convention : Reuss Voigt Hill
#
# Bulk Modulus (GPa) = 43.51631 61.36437 52.44034
# Shear Modulus (GPa) = 24.24164 27.94057 26.09111
#
# Velocity S-wave (km/s) = 3.55316 3.81462 3.68621
# Velocity P-wave (km/s) = 6.28461 7.16659 6.74004
#
# Compressibility (1/GPa) = 0.02297989
#
# Stress axis : x y z
#
# Youngs Moduli (GPa) = 71.93257 38.58964 109.04757
#
# Poissons Ratio (x) = 0.24122 0.44253
# Poissons Ratio (y) = 0.44965 0.29376
# Poissons Ratio (z) = 0.29191 0.10396
#
# Static dielectric constant tensor:
#      x y z
#    x 3.605870 0.000000 0.073770 
#    y 0.000000 3.270080 0.000000 
#    z 0.073770 0.000000 3.923430 
# 
# 
# High freq. dielectric constant tensor:
#      x y z
#    x 1.742500 0.000000 -0.010810 
#    y 0.000000 1.713300 0.000000 
#    z -0.010810 0.000000 1.764670 
# 
# From -- ./inp_files/237476.got.cif
#   From: 2010.06.25/outbox.cif.g09.slc.cpg/sg12_119_cif.got.tgz:237476.got - 2010.06.28 00:19:55.
