data_PCOD8098285
_publ_section_title
;
Structure prediction by ZEFSAII (Michael W. Deem and Ramdas Pophale) SiO2 
 PCOD8098285
Probable space group: C 2/M
;
_chemical_formula_sum "Si O2"
_cell_formula_units_Z 48
_cell_length_a 15.035597
_cell_length_b 8.992891
_cell_length_c 19.471580
_cell_angle_alpha 90.000000
_cell_angle_beta 78.132879
_cell_angle_gamma 90.000000
_cell_volume 2576.549328
_symmetry_space_group_name_H-M "C 2/M"
_symmetry_group_IT_number 12
_symmetry_cell_setting 'monoclinic'
loop_
_space_group_symop_operation_xyz
x,y,z
-x,y,-z
-x,-y,-z
x,-y,z
1/2+x,1/2+y,z
1/2-x,1/2+y,-z
1/2-x,1/2-y,-z
1/2+x,1/2-y,z
loop_
_atom_site_type_symbol
_atom_site_label
_atom_site_fract_x
_atom_site_fract_y
_atom_site_fract_z
Si Si1 0.873686 0.326194 0.935149
Si Si2 0.952819 0.324678 0.575045
Si Si3 0.746765 0.176074 0.426362
Si Si4 0.413713 0.175213 0.329739
Si Si5 0.556328 0.826092 0.831355
Si Si6 0.825014 0.825568 0.078719
O O1 0.876222 0.500000 0.951721
O O2 0.781362 0.283166 0.909859
O O3 0.958103 0.276171 0.875148
O O4 0.880648 0.241053 0.006022
O O5 0.962489 0.500000 0.568897
O O6 0.847757 0.278413 0.594860
O O7 0.000000 0.253426 0.500000
O O8 0.004067 0.268148 0.635013
O O9 0.750000 0.250000 0.500000
O O10 0.823493 0.237622 0.364316
O O11 0.756237 0.000000 0.433949
O O12 0.440544 0.218543 0.248559
O O13 0.395985 0.000000 0.341124
O O14 0.637237 0.741382 0.856884
O O15 0.571734 0.000000 0.839933
O O16 0.840245 0.000000 0.076782
#
# Coordination Sequence:
#
# PCOD8098285 Si02
#       6
#     8   8   8   8   8   8
#     4   9  19  36  56  79 108 146 188 221 262 324
#     4   9  17  33  57  79 102 138 179 216 260 322
#     4  11  21  35  58  83 107 137 176 223 272 322
#     4  10  21  38  56  78 108 143 184 224 269 321
#     4  10  21  36  55  77 108 148 183 220 267 326
#     4  10  20  34  56  84 111 140 180 230 273 313
#
# _framework density 18.629566000000001
#
# number of rings (size 3 to 8) (size 9 to 14) (size 15 to 20)
#    0.000    2.167    1.667    1.500    0.000    5.333 
#    0.000    5.833    0.000    0.000    0.000    0.000 
#    0.000    0.000    0.000    0.000    0.000    0.000 
#
# Total GULP energy -297651.630787 kJ/mol
# GULP energy per Si atom -12402.151283 kJ/mol
# Density = 1.858716 g / cm^3
# Si number density = 18.629566 Si / 1000 Ang^3
#
#
#
# Elastic Constant Matrix: (Units=GPa)
#
#
# Indices 1 2 3 4 5 6 
#
# 1 136.9405 39.5895 77.0525 0.0000 10.8249 0.0000
# 2 39.5895 46.9883 41.3764 0.0000 3.5852 0.0000
# 3 77.0525 41.3764 142.3040 0.0000 15.2845 0.0000
# 4 0.0000 0.0000 0.0000 27.1568 0.0000 0.5204
# 5 10.8249 3.5852 15.2845 0.0000 32.9135 0.0000
# 6 0.0000 0.0000 0.0000 0.5204 0.0000 30.7192
#
#
#
# Elastic Compliance Matrix: (Units=1/GPa)
#
#
# Indices 1 2 3 4 5 6 
#
# 1 0.011562 -0.005711 -0.004482 0.000000 -0.001099 0.000000
# 2 -0.005711 0.031446 -0.006194 0.000000 0.001329 0.000000
# 3 -0.004482 -0.006194 0.011603 0.000000 -0.003239 0.000000
# 4 0.000000 0.000000 0.000000 0.036835 0.000000 -0.000624
# 5 -0.001099 0.001329 -0.003239 0.000000 0.032104 0.000000
# 6 0.000000 0.000000 0.000000 -0.000624 0.000000 0.032563
#
#
# Mechanical properties :
#
#
# Convention : Reuss Voigt Hill
#
# Bulk Modulus (GPa) = 45.79208 71.36329 58.57768
# Shear Modulus (GPa) = 25.48852 29.37220 27.43036
#
# Velocity S-wave (km/s) = 3.70290 3.97501 3.84136
# Velocity P-wave (km/s) = 6.55100 7.71085 7.15447
#
# Compressibility (1/GPa) = 0.02183784
#
# Stress axis : x y z
#
# Youngs Moduli (GPa) = 86.48825 31.80019 86.18586
#
# Poissons Ratio (x) = 0.18162 0.38628
# Poissons Ratio (y) = 0.49395 0.53381
# Poissons Ratio (z) = 0.38763 0.19696
#
# Static dielectric constant tensor:
#      x y z
#    x 3.779100 0.000000 0.042210 
#    y 0.000000 3.266070 0.000000 
#    z 0.042210 0.000000 3.512390 
# 
# 
# High freq. dielectric constant tensor:
#      x y z
#    x 1.737160 0.000000 0.004930 
#    y 0.000000 1.705510 0.000000 
#    z 0.004930 0.000000 1.722280 
# 
# From -- ./inp_files/267723.got.cif
#   From: 2010.06.25/outbox.cif.g09.slc.cpg/sg12_134_cif.got.tgz:267723.got - 2010.06.28 00:19:55.
