data_PCOD8098180
_publ_section_title
;
Structure prediction by ZEFSAII (Michael W. Deem and Ramdas Pophale) SiO2 
 PCOD8098180
Probable space group: C 2/M
;
_chemical_formula_sum "Si O2"
_cell_formula_units_Z 56
_cell_length_a 17.859323
_cell_length_b 25.588661
_cell_length_c 8.581749
_cell_angle_alpha 90.000000
_cell_angle_beta 44.906382
_cell_angle_gamma 90.000000
_cell_volume 2768.615144
_symmetry_space_group_name_H-M "C 2/M"
_symmetry_group_IT_number 12
_symmetry_cell_setting 'monoclinic'
loop_
_space_group_symop_operation_xyz
x,y,z
-x,y,-z
-x,-y,-z
x,-y,z
1/2+x,1/2+y,z
1/2-x,1/2+y,-z
1/2-x,1/2-y,-z
1/2+x,1/2-y,z
loop_
_atom_site_type_symbol
_atom_site_label
_atom_site_fract_x
_atom_site_fract_y
_atom_site_fract_z
Si Si1 0.761548 0.356727 0.676170
Si Si2 0.546700 0.176475 0.769772
Si Si3 0.065822 0.117319 0.560705
Si Si4 0.254123 0.557975 0.866255
Si Si5 0.902591 0.205748 0.250447
Si Si6 0.904124 0.629852 0.745599
Si Si7 0.615419 0.558100 0.011230
O O1 0.861645 0.364858 0.413266
O O2 0.699934 0.305738 0.705480
O O3 0.808766 0.346667 0.780164
O O4 0.683176 0.406781 0.789505
O O5 0.596330 0.233836 0.705972
O O6 0.453127 0.176427 0.778245
O O7 0.500000 0.156633 0.000000
O O8 0.176971 0.088567 0.363844
O O9 0.095618 0.172627 0.593127
O O10 0.000000 0.127535 0.500000
O O11 0.999059 0.083393 0.784189
O O12 0.228852 0.500000 0.839902
O O13 0.322239 0.553771 0.921051
O O14 0.142879 0.586128 0.069039
O O15 0.000000 0.189692 0.000000
O O16 0.000000 0.605366 0.500000
O O17 0.599646 0.500000 0.963071
#
# Coordination Sequence:
#
# PCOD8098180 Si02
#       7
#     8   8   8   8   8   8   8
#     4  10  20  39  61  84 117 152 194 236 284 349
#     4  10  23  40  60  82 114 154 194 246 294 327
#     4  10  20  34  55  86 122 153 189 237 285 347
#     4   9  18  33  58  89 116 150 195 236 287 339
#     4  11  22  39  58  86 118 153 190 236 294 352
#     4   9  20  39  62  84 114 155 198 240 280 339
#     4   9  17  34  59  86 117 154 189 233 287 349
#
# _framework density 20.226718999999999
#
# number of rings (size 3 to 8) (size 9 to 14) (size 15 to 20)
#    0.000    2.286    1.429    0.857    2.000    3.714 
#    0.000    7.143    0.000    0.857    0.000    0.000 
#    0.000    0.000    0.000    0.000    0.000    0.000 
#
# Total GULP energy -347057.742857 kJ/mol
# GULP energy per Si atom -12394.919388 kJ/mol
# Density = 2.018068 g / cm^3
# Si number density = 20.226719 Si / 1000 Ang^3
#
#
#
# Elastic Constant Matrix: (Units=GPa)
#
#
# Indices 1 2 3 4 5 6 
#
# 1 81.6039 31.7448 44.1433 0.0000 -9.7556 0.0000
# 2 31.7448 83.6928 73.0968 0.0000 6.1658 0.0000
# 3 44.1433 73.0968 158.3435 0.0000 -1.5088 0.0000
# 4 0.0000 0.0000 0.0000 123.0044 0.0000 -8.2525
# 5 -9.7556 6.1658 -1.5088 0.0000 22.6362 0.0000
# 6 0.0000 0.0000 0.0000 -8.2525 0.0000 20.5875
#
#
#
# Elastic Compliance Matrix: (Units=1/GPa)
#
#
# Indices 1 2 3 4 5 6 
#
# 1 0.016331 -0.004844 -0.002238 0.000000 0.008208 0.000000
# 2 -0.004844 0.022328 -0.009041 0.000000 -0.008772 0.000000
# 3 -0.002238 -0.009041 0.011134 0.000000 0.002240 0.000000
# 4 0.000000 0.000000 0.000000 0.008354 0.000000 0.003349
# 5 0.008208 -0.008772 0.002240 0.000000 0.050253 0.000000
# 6 0.000000 0.000000 0.000000 0.003349 0.000000 0.049916
#
#
# Mechanical properties :
#
#
# Convention : Reuss Voigt Hill
#
# Bulk Modulus (GPa) = 56.98940 69.06779 63.02859
# Shear Modulus (GPa) = 25.45678 44.88930 35.17304
#
# Velocity S-wave (km/s) = 3.55148 4.71606 4.17458
# Velocity P-wave (km/s) = 6.71222 7.99224 7.38003
#
# Compressibility (1/GPa) = 0.01754712
#
# Stress axis : x y z
#
# Youngs Moduli (GPa) = 61.23389 44.78674 89.81375
#
# Poissons Ratio (x) = 0.21695 0.20103
# Poissons Ratio (y) = 0.29662 0.81196
# Poissons Ratio (z) = 0.13706 0.40490
#
# Static dielectric constant tensor:
#      x y z
#    x 3.622290 0.000000 -0.104640 
#    y 0.000000 3.568970 0.000000 
#    z -0.104640 0.000000 3.940380 
# 
# 
# High freq. dielectric constant tensor:
#      x y z
#    x 1.783500 0.000000 -0.006920 
#    y 0.000000 1.764610 0.000000 
#    z -0.006920 0.000000 1.804620 
# 
# From -- ./inp_files/80014.got.cif
#   From: 2010.06.25/outbox.cif.g09.slc.cpg/sg12_41_cif.got.tgz:80014.got - 2010.06.28 00:19:55.
