data_PCOD8098187
_publ_section_title
;
Structure prediction by ZEFSAII (Michael W. Deem and Ramdas Pophale) SiO2 
 PCOD8098187
Probable space group: C 2/M
;
_chemical_formula_sum "Si O2"
_cell_formula_units_Z 48
_cell_length_a 10.529040
_cell_length_b 14.157272
_cell_length_c 18.300311
_cell_angle_alpha 90.000000
_cell_angle_beta 123.426289
_cell_angle_gamma 90.000000
_cell_volume 2276.683730
_symmetry_space_group_name_H-M "C 2/M"
_symmetry_group_IT_number 12
_symmetry_cell_setting 'monoclinic'
loop_
_space_group_symop_operation_xyz
x,y,z
-x,y,-z
-x,-y,-z
x,-y,z
1/2+x,1/2+y,z
1/2-x,1/2+y,-z
1/2-x,1/2-y,-z
1/2+x,1/2-y,z
loop_
_atom_site_type_symbol
_atom_site_label
_atom_site_fract_x
_atom_site_fract_y
_atom_site_fract_z
Si Si1 0.968313 0.895844 0.372366
Si Si2 0.323887 0.753849 0.944006
Si Si3 0.898285 0.306260 0.368308
Si Si4 0.309662 0.893006 0.488928
Si Si5 0.088076 0.893929 0.812954
Si Si6 0.199310 0.888703 0.183674
O O1 0.870221 0.807076 0.369931
O O2 0.982689 0.887701 0.289836
O O3 0.136213 0.886991 0.461091
O O4 0.899223 0.000000 0.371667
O O5 0.237503 0.830538 0.867293
O O6 0.303765 0.651663 0.899474
O O7 0.500000 0.783775 0.000000
O O8 0.250000 0.750000 0.000000
O O9 0.814913 0.361427 0.406173
O O10 0.837598 0.341259 0.271396
O O11 0.080491 0.326958 0.427536
O O12 0.369801 0.000000 0.513270
O O13 0.958871 0.859819 0.828273
O O14 0.138061 0.000000 0.847773
O O15 0.224587 0.000000 0.188048
#
# Coordination Sequence:
#
# PCOD8098187 Si02
#       6
#     8   8   8   8   8   8
#     4  10  20  35  57  84 119 160 201 243 305 366
#     4  12  25  42  66  94 125 158 205 264 321 377
#     4  11  19  33  59  88 119 156 205 251 295 353
#     4  10  20  34  55  87 121 159 206 250 294 353
#     4  10  21  40  63  89 120 162 204 252 311 378
#     4  11  22  39  65  91 122 162 207 255 309 372
#
# _framework density 21.083296000000001
#
# number of rings (size 3 to 8) (size 9 to 14) (size 15 to 20)
#    0.000    1.333    5.000    2.500    0.000    1.333 
#    0.000    1.667    0.000    8.000    0.000    0.000 
#    0.000    0.000    0.000    0.000    0.000    0.000 
#
# Total GULP energy -297585.057850 kJ/mol
# GULP energy per Si atom -12399.377410 kJ/mol
# Density = 2.103531 g / cm^3
# Si number density = 21.083296 Si / 1000 Ang^3
#
#
#
# Elastic Constant Matrix: (Units=GPa)
#
#
# Indices 1 2 3 4 5 6 
#
# 1 51.0861 21.1165 26.7939 0.0000 10.7242 0.0000
# 2 21.1165 147.8850 36.7319 0.0000 10.8690 0.0000
# 3 26.7939 36.7319 95.6054 0.0000 17.3665 0.0000
# 4 0.0000 0.0000 0.0000 32.6249 0.0000 -2.6685
# 5 10.7242 10.8690 17.3665 0.0000 30.1133 0.0000
# 6 0.0000 0.0000 0.0000 -2.6685 0.0000 25.4958
#
#
#
# Elastic Compliance Matrix: (Units=1/GPa)
#
#
# Indices 1 2 3 4 5 6 
#
# 1 0.024058 -0.001791 -0.005155 0.000000 -0.004948 0.000000
# 2 -0.001791 0.007645 -0.002290 0.000000 -0.000801 0.000000
# 3 -0.005155 -0.002290 0.013740 0.000000 -0.005261 0.000000
# 4 0.000000 0.000000 0.000000 0.030916 0.000000 0.003236
# 5 -0.004948 -0.000801 -0.005261 0.000000 0.038293 0.000000
# 6 0.000000 0.000000 0.000000 0.003236 0.000000 0.039561
#
#
# Mechanical properties :
#
#
# Convention : Reuss Voigt Hill
#
# Bulk Modulus (GPa) = 37.07761 51.54013 44.30887
# Shear Modulus (GPa) = 27.52144 31.64240 29.58192
#
# Velocity S-wave (km/s) = 3.61691 3.87825 3.74986
# Velocity P-wave (km/s) = 5.92175 6.67484 6.30954
#
# Compressibility (1/GPa) = 0.02697045
#
# Stress axis : x y z
#
# Youngs Moduli (GPa) = 41.56665 130.79747 72.78009
#
# Poissons Ratio (x) = 0.23426 0.37521
# Poissons Ratio (y) = 0.07445 0.16666
# Poissons Ratio (z) = 0.21429 0.29952
#
# Static dielectric constant tensor:
#      x y z
#    x 3.460650 0.000000 0.146630 
#    y 0.000000 4.045940 0.000000 
#    z 0.146630 0.000000 3.847110 
# 
# 
# High freq. dielectric constant tensor:
#      x y z
#    x 1.795810 0.000000 0.007470 
#    y 0.000000 1.841190 0.000000 
#    z 0.007470 0.000000 1.831110 
# 
# From -- ./inp_files/305024.got.cif
#   From: 2010.06.25/outbox.cif.g09.slc.cpg/sg12_153_cif.got.tgz:305024.got - 2010.06.28 00:19:55.
