data_PCOD8098613
_publ_section_title
;
Structure prediction by ZEFSAII (Michael W. Deem and Ramdas Pophale) SiO2 
 PCOD8098613
Probable space group: C 2/M
;
_chemical_formula_sum "Si O2"
_cell_formula_units_Z 44
_cell_length_a 8.896037
_cell_length_b 24.747525
_cell_length_c 10.611273
_cell_angle_alpha 90.000000
_cell_angle_beta 110.340027
_cell_angle_gamma 90.000000
_cell_volume 2190.457851
_symmetry_space_group_name_H-M "C 2/M"
_symmetry_group_IT_number 12
_symmetry_cell_setting 'monoclinic'
loop_
_space_group_symop_operation_xyz
x,y,z
-x,y,-z
-x,-y,-z
x,-y,z
1/2+x,1/2+y,z
1/2-x,1/2+y,-z
1/2-x,1/2-y,-z
1/2+x,1/2-y,z
loop_
_atom_site_type_symbol
_atom_site_label
_atom_site_fract_x
_atom_site_fract_y
_atom_site_fract_z
Si Si1 0.108720 0.835046 0.771948
Si Si2 0.500000 0.622763 0.000000
Si Si3 0.287562 0.371750 0.595139
Si Si4 0.894905 0.631302 0.714000
Si Si5 0.415300 0.777469 0.349590
Si Si6 0.704493 0.063191 0.800782
O O1 0.275150 0.867083 0.798412
O O2 0.147670 0.773203 0.747649
O O3 0.977766 0.862111 0.639846
O O4 0.046501 0.838971 0.896657
O O5 0.346454 0.585638 0.929458
O O6 0.205075 0.385079 0.439381
O O7 0.225170 0.317648 0.647692
O O8 0.245844 0.423634 0.668067
O O9 0.964535 0.690656 0.706968
O O10 0.033445 0.588992 0.787850
O O11 0.500000 0.754966 0.500000
O O12 0.690495 0.000000 0.817755
#
# Coordination Sequence:
#
# PCOD8098613 Si02
#       6
#     8   4   8   8   8   8
#     4  11  20  35  55  80 117 155 185 222 266 318
#     4  10  25  42  56  78 106 148 195 230 272 326
#     4   9  19  34  56  90 119 142 176 219 278 340
#     4  10  20  34  58  90 114 139 184 229 271 330
#     4   9  17  32  56  85 118 151 178 214 273 334
#     4  10  21  41  63  79 106 144 182 230 283 331
#
# _framework density 20.087126000000001
#
# number of rings (size 3 to 8) (size 9 to 14) (size 15 to 20)
#    0.000    2.182    0.000    4.636    0.000    5.091 
#    0.000   20.000    0.000    5.455    0.000    0.000 
#    0.000    0.000    0.000    0.000    0.000    0.000 
#
# Total GULP energy -272745.716866 kJ/mol
# GULP energy per Si atom -12397.532585 kJ/mol
# Density = 2.004141 g / cm^3
# Si number density = 20.087126 Si / 1000 Ang^3
#
#
#
# Elastic Constant Matrix: (Units=GPa)
#
#
# Indices 1 2 3 4 5 6 
#
# 1 131.3385 47.0543 34.9056 0.0000 2.8896 0.0000
# 2 47.0543 110.6549 48.0424 0.0000 2.4341 0.0000
# 3 34.9056 48.0424 84.2059 0.0000 4.0728 0.0000
# 4 0.0000 0.0000 0.0000 18.0796 0.0000 4.8350
# 5 2.8896 2.4341 4.0728 0.0000 29.0467 0.0000
# 6 0.0000 0.0000 0.0000 4.8350 0.0000 12.6785
#
#
#
# Elastic Compliance Matrix: (Units=1/GPa)
#
#
# Indices 1 2 3 4 5 6 
#
# 1 0.009261 -0.003019 -0.002099 0.000000 -0.000374 0.000000
# 2 -0.003019 0.012997 -0.006167 0.000000 0.000076 0.000000
# 3 -0.002099 -0.006167 0.016340 0.000000 -0.001566 0.000000
# 4 0.000000 0.000000 0.000000 0.061593 0.000000 -0.023488
# 5 -0.000374 0.000076 -0.001566 0.000000 0.034678 0.000000
# 6 0.000000 0.000000 0.000000 -0.023488 0.000000 0.087831
#
#
# Mechanical properties :
#
#
# Convention : Reuss Voigt Hill
#
# Bulk Modulus (GPa) = 62.38914 65.13378 63.76146
# Shear Modulus (GPa) = 19.95114 25.04076 22.49595
#
# Velocity S-wave (km/s) = 3.15497 3.53456 3.35015
# Velocity P-wave (km/s) = 6.66322 7.01096 6.83930
#
# Compressibility (1/GPa) = 0.01602843
#
# Stress axis : x y z
#
# Youngs Moduli (GPa) = 107.97412 76.94175 61.19941
#
# Poissons Ratio (x) = 0.23228 0.12844
# Poissons Ratio (y) = 0.32597 0.37744
# Poissons Ratio (z) = 0.22660 0.47453
#
# Static dielectric constant tensor:
#      x y z
#    x 3.890880 0.000000 0.133380 
#    y 0.000000 3.306740 0.000000 
#    z 0.133380 0.000000 3.563300 
# 
# 
# High freq. dielectric constant tensor:
#      x y z
#    x 1.801350 0.000000 0.009100 
#    y 0.000000 1.756960 0.000000 
#    z 0.009100 0.000000 1.770620 
# 
# From -- ./inp_files/121748.got.cif
#   From: 2010.06.25/outbox.cif.g09.slc.cpg/sg12_61_cif.got.tgz:121748.got - 2010.06.28 00:19:55.
