data_PCOD8098943
_publ_section_title
;
Structure prediction by ZEFSAII (Michael W. Deem and Ramdas Pophale) SiO2 
 PCOD8098943
Probable space group: C 2/M
;
_chemical_formula_sum "Si O2"
_cell_formula_units_Z 56
_cell_length_a 20.973750
_cell_length_b 9.648556
_cell_length_c 18.176226
_cell_angle_alpha 90.000000
_cell_angle_beta 123.340072
_cell_angle_gamma 90.000000
_cell_volume 3072.901521
_symmetry_space_group_name_H-M "C 2/M"
_symmetry_group_IT_number 12
_symmetry_cell_setting 'monoclinic'
loop_
_space_group_symop_operation_xyz
x,y,z
-x,y,-z
-x,-y,-z
x,-y,z
1/2+x,1/2+y,z
1/2-x,1/2+y,-z
1/2-x,1/2-y,-z
1/2+x,1/2-y,z
loop_
_atom_site_type_symbol
_atom_site_label
_atom_site_fract_x
_atom_site_fract_y
_atom_site_fract_z
Si Si1 0.635193 0.657821 0.260176
Si Si2 0.799496 0.658348 0.300951
Si Si3 0.913134 0.160870 0.461222
Si Si4 0.327476 0.337821 0.555002
Si Si5 0.244184 0.660579 0.887781
Si Si6 0.356249 0.157218 0.039265
Si Si7 0.479279 0.159504 0.904619
O O1 0.609321 0.500000 0.228981
O O2 0.724133 0.678046 0.300973
O O3 0.626394 0.697961 0.340605
O O4 0.587566 0.753473 0.175057
O O5 0.827689 0.500000 0.320552
O O6 0.865261 0.754262 0.372597
O O7 0.784762 0.709169 0.209142
O O8 0.886164 0.199576 0.526700
O O9 0.000000 0.202280 0.500000
O O10 0.899087 0.000000 0.436940
O O11 0.304394 0.500000 0.539433
O O12 0.250000 0.250000 0.500000
O O13 0.267108 0.500000 0.902635
O O14 0.176961 0.696254 0.902255
O O15 0.320525 0.744934 0.954512
O O16 0.446746 0.178505 0.099825
O O17 0.335472 0.000000 0.004473
O O18 0.452325 0.000000 0.891155
O O19 0.500000 0.211939 0.000000
#
# Coordination Sequence:
#
# PCOD8098943 Si02
#       7
#     8   8   8   8   8   8   8
#     4  10  21  35  54  80 106 137 180 225 268 320
#     4  10  20  35  54  78 106 136 177 223 269 324
#     4  10  22  38  56  81 112 143 177 223 277 329
#     4  10  20  37  59  81 109 143 182 228 273 326
#     4   9  18  32  52  75 101 135 174 217 265 318
#     4   9  18  33  50  72 103 137 175 218 263 316
#     4  10  21  35  51  75 108 141 176 219 265 317
#
# _framework density 18.223818000000001
#
# number of rings (size 3 to 8) (size 9 to 14) (size 15 to 20)
#    0.000    2.286    1.429    0.857    0.000    4.000 
#    0.000    0.000    0.000    0.000    0.000    0.000 
#    0.000    0.000    0.000    0.000    0.000    0.000 
#
# Total GULP energy -347224.602637 kJ/mol
# GULP energy per Si atom -12400.878666 kJ/mol
# Density = 1.818234 g / cm^3
# Si number density = 18.223818 Si / 1000 Ang^3
#
#
#
# Elastic Constant Matrix: (Units=GPa)
#
#
# Indices 1 2 3 4 5 6 
#
# 1 80.2586 26.8905 38.3678 0.0000 -8.0459 0.0000
# 2 26.8905 56.5361 54.2233 0.0000 2.2267 0.0000
# 3 38.3678 54.2233 124.7701 0.0000 -9.0022 0.0000
# 4 0.0000 0.0000 0.0000 39.6057 0.0000 6.6013
# 5 -8.0459 2.2267 -9.0022 0.0000 25.9729 0.0000
# 6 0.0000 0.0000 0.0000 6.6013 0.0000 16.7980
#
#
#
# Elastic Compliance Matrix: (Units=1/GPa)
#
#
# Indices 1 2 3 4 5 6 
#
# 1 0.015832 -0.005781 -0.002017 0.000000 0.004701 0.000000
# 2 -0.005781 0.033874 -0.013623 0.000000 -0.009417 0.000000
# 3 -0.002017 -0.013623 0.014969 0.000000 0.005731 0.000000
# 4 0.000000 0.000000 0.000000 0.027019 0.000000 -0.010618
# 5 0.004701 -0.009417 0.005731 0.000000 0.042752 0.000000
# 6 0.000000 0.000000 0.000000 -0.010618 0.000000 0.063704
#
#
# Mechanical properties :
#
#
# Convention : Reuss Voigt Hill
#
# Bulk Modulus (GPa) = 45.80176 55.61420 50.70798
# Shear Modulus (GPa) = 20.13954 25.94753 23.04353
#
# Velocity S-wave (km/s) = 3.32794 3.77745 3.55980
# Velocity P-wave (km/s) = 6.32095 7.04337 6.69192
#
# Compressibility (1/GPa) = 0.02183322
#
# Stress axis : x y z
#
# Youngs Moduli (GPa) = 63.16269 29.52129 66.80575
#
# Poissons Ratio (x) = 0.17066 0.13475
# Poissons Ratio (y) = 0.36514 0.91008
# Poissons Ratio (z) = 0.12740 0.40216
#
# Static dielectric constant tensor:
#      x y z
#    x 3.500970 0.000000 -0.219860 
#    y 0.000000 3.354340 0.000000 
#    z -0.219860 0.000000 3.296580 
# 
# 
# High freq. dielectric constant tensor:
#      x y z
#    x 1.712250 0.000000 -0.014870 
#    y 0.000000 1.703460 0.000000 
#    z -0.014870 0.000000 1.704680 
# 
# From -- ./inp_files/280856.got.cif
#   From: 2010.06.25/outbox.cif.g09.slc.cpg/sg12_141_cif.got.tgz:280856.got - 2010.06.28 00:19:55.
