data_PCOD8098143
_publ_section_title
;
Structure prediction by ZEFSAII (Michael W. Deem and Ramdas Pophale) SiO2 
 PCOD8098143
Probable space group: C 2/M
;
_chemical_formula_sum "Si O2"
_cell_formula_units_Z 56
_cell_length_a 13.903114
_cell_length_b 23.109325
_cell_length_c 15.781389
_cell_angle_alpha 90.000000
_cell_angle_beta 36.017643
_cell_angle_gamma 90.000000
_cell_volume 2981.585452
_symmetry_space_group_name_H-M "C 2/M"
_symmetry_group_IT_number 12
_symmetry_cell_setting 'monoclinic'
loop_
_space_group_symop_operation_xyz
x,y,z
-x,y,-z
-x,-y,-z
x,-y,z
1/2+x,1/2+y,z
1/2-x,1/2+y,-z
1/2-x,1/2-y,-z
1/2+x,1/2-y,z
loop_
_atom_site_type_symbol
_atom_site_label
_atom_site_fract_x
_atom_site_fract_y
_atom_site_fract_z
Si Si1 0.477070 0.763210 0.613264
Si Si2 0.728718 0.658944 0.014832
Si Si3 0.164068 0.252166 0.929248
Si Si4 0.980645 0.931610 0.258272
Si Si5 0.385022 0.932446 0.510044
Si Si6 0.581465 0.366264 0.529261
Si Si7 0.060548 0.641450 0.680327
O O1 0.500000 0.782754 0.500000
O O2 0.286190 0.771270 0.770566
O O3 0.526747 0.697538 0.594230
O O4 0.580128 0.802694 0.604835
O O5 0.630697 0.701595 0.021554
O O6 0.905043 0.642740 0.851790
O O7 0.757294 0.691609 0.082838
O O8 0.621837 0.601515 0.105785
O O9 0.000000 0.271125 0.000000
O O10 0.805440 0.915327 0.341203
O O11 0.976351 0.911734 0.358877
O O12 0.016747 0.000000 0.228334
O O13 0.500000 0.903316 0.500000
O O14 0.453532 0.913898 0.370141
O O15 0.404963 0.000000 0.499677
O O16 0.500000 0.386714 0.500000
O O17 0.777707 0.364412 0.377430
#
# Coordination Sequence:
#
# PCOD8098143 Si02
#       7
#     8   8   8   8   8   8   8
#     4  10  20  34  55  85 109 145 186 231 286 337
#     4  10  22  37  54  85 114 150 191 225 283 343
#     4  10  22  37  56  80 117 153 182 233 284 337
#     4  10  21  39  61  82 114 152 188 234 279 333
#     4   9  19  37  59  83 111 148 190 236 283 330
#     4  10  21  36  55  82 109 148 192 235 278 330
#     4  10  21  34  55  82 116 144 184 238 282 336
#
# _framework density 18.781953000000001
#
# number of rings (size 3 to 8) (size 9 to 14) (size 15 to 20)
#    0.000    2.143    1.429    0.857    4.000    5.429 
#    0.000    0.000    0.000    6.000    0.000    0.000 
#    0.000    0.000    0.000    0.000    0.000    0.000 
#
# Total GULP energy -347176.855789 kJ/mol
# GULP energy per Si atom -12399.173421 kJ/mol
# Density = 1.873920 g / cm^3
# Si number density = 18.781953 Si / 1000 Ang^3
#
#
#
# Elastic Constant Matrix: (Units=GPa)
#
#
# Indices 1 2 3 4 5 6 
#
# 1 141.9436 42.4731 55.5218 0.0034 -4.0654 0.0010
# 2 42.4731 67.1355 54.3413 0.0010 -6.4060 -0.0061
# 3 55.5218 54.3413 105.1314 0.0082 5.2696 -0.0094
# 4 0.0034 0.0010 0.0082 30.9862 -0.0050 -4.3538
# 5 -4.0654 -6.4060 5.2696 -0.0050 19.3174 0.0019
# 6 0.0010 -0.0061 -0.0094 -4.3538 0.0019 12.3898
#
#
#
# Elastic Compliance Matrix: (Units=1/GPa)
#
#
# Indices 1 2 3 4 5 6 
#
# 1 0.009347 -0.002829 -0.003575 0.000000 0.002004 -0.000005
# 2 -0.002829 0.029697 -0.014519 0.000006 0.013213 0.000004
# 3 -0.003575 -0.014519 0.019449 -0.000005 -0.010873 0.000008
# 4 0.000000 0.000006 -0.000005 0.033949 0.000011 0.011930
# 5 0.002004 0.013213 -0.010873 0.000011 0.059536 -0.000007
# 6 -0.000005 0.000004 0.000008 0.011930 -0.000007 0.084904
#
#
# Mechanical properties :
#
#
# Convention : Reuss Voigt Hill
#
# Bulk Modulus (GPa) = 60.06141 68.76476 64.41309
# Shear Modulus (GPa) = 17.58849 23.33030 20.45939
#
# Velocity S-wave (km/s) = 3.06348 3.52826 3.30405
# Velocity P-wave (km/s) = 6.67539 7.29999 6.99466
#
# Compressibility (1/GPa) = 0.01664963
#
# Stress axis : x y z
#
# Youngs Moduli (GPa) = 106.98447 33.67296 51.41576
#
# Poissons Ratio (x) = 0.09525 0.18380
# Poissons Ratio (y) = 0.30263 0.74649
# Poissons Ratio (z) = 0.38244 0.48889
#
# Static dielectric constant tensor:
#      x y z
#    x 3.568260 -0.000010 -0.028150 
#    y -0.000010 3.368680 0.000010 
#    z -0.028150 0.000010 3.409540 
# 
# 
# High freq. dielectric constant tensor:
#      x y z
#    x 1.732440 0.000000 -0.003340 
#    y 0.000000 1.722800 0.000000 
#    z -0.003340 0.000000 1.729030 
# 
# From -- ./inp_files/219096.got.cif
#   From: 2010.06.25/outbox.cif.g09.slc.cpg/sg12_110_cif.got.tgz:219096.got - 2010.06.28 00:19:55.
