data_PCOD8098814
_publ_section_title
;
Structure prediction by ZEFSAII (Michael W. Deem and Ramdas Pophale) SiO2 
 PCOD8098814
Probable space group: C 2/M
;
_chemical_formula_sum "Si O2"
_cell_formula_units_Z 56
_cell_length_a 28.755569
_cell_length_b 9.025554
_cell_length_c 14.208625
_cell_angle_alpha 90.000000
_cell_angle_beta 59.689503
_cell_angle_gamma 90.000000
_cell_volume 3183.546435
_symmetry_space_group_name_H-M "C 2/M"
_symmetry_group_IT_number 12
_symmetry_cell_setting 'monoclinic'
loop_
_space_group_symop_operation_xyz
x,y,z
-x,y,-z
-x,-y,-z
x,-y,z
1/2+x,1/2+y,z
1/2-x,1/2+y,-z
1/2-x,1/2-y,-z
1/2+x,1/2-y,z
loop_
_atom_site_type_symbol
_atom_site_label
_atom_site_fract_x
_atom_site_fract_y
_atom_site_fract_z
Si Si1 0.769151 0.831669 0.246253
Si Si2 0.196283 0.829412 0.589160
Si Si3 0.995957 0.675103 0.611351
Si Si4 0.902770 0.832169 0.427920
Si Si5 0.666659 0.666862 0.322498
Si Si6 0.701213 0.325986 0.993579
Si Si7 0.120267 0.674227 0.198921
O O1 0.810692 0.813628 0.290713
O O2 0.720757 0.719242 0.319006
O O3 0.747104 0.000000 0.265734
O O4 0.796645 0.789813 0.119468
O O5 0.250000 0.750000 0.500000
O O6 0.142320 0.762728 0.595959
O O7 0.201136 0.000000 0.552177
O O8 0.000936 0.500000 0.604295
O O9 0.042709 0.737745 0.630804
O O10 0.000000 0.736680 0.500000
O O11 0.940249 0.726358 0.716256
O O12 0.882323 0.825433 0.555562
O O13 0.916298 0.000000 0.384027
O O14 0.673383 0.500000 0.276341
O O15 0.658168 0.781918 0.247130
O O16 0.703597 0.500000 0.011577
O O17 0.643603 0.259752 0.084634
O O18 0.750000 0.250000 0.000000
O O19 0.124232 0.500000 0.177759
#
# Coordination Sequence:
#
# PCOD8098814 Si02
#       7
#     8   8   8   8   8   8   8
#     4  10  21  35  53  75 107 145 178 212 259 316
#     4  10  20  35  53  78 108 141 176 215 261 314
#     4  10  21  36  54  76 104 140 178 215 263 321
#     4  10  21  34  51  79 111 139 174 217 263 312
#     4  11  20  30  50  80 111 140 173 214 259 314
#     4  11  22  35  53  79 107 141 179 219 265 314
#     4  11  22  36  53  76 107 143 179 216 263 317
#
# _framework density 17.590444999999999
#
# number of rings (size 3 to 8) (size 9 to 14) (size 15 to 20)
#    0.000    1.571    4.286    1.286    0.000    3.143 
#    0.000    0.000    0.000    0.857    0.000    6.000 
#    0.000    0.000    0.000    0.000    0.000    0.000 
#
# Total GULP energy -347189.869467 kJ/mol
# GULP energy per Si atom -12399.638195 kJ/mol
# Density = 1.755041 g / cm^3
# Si number density = 17.590445 Si / 1000 Ang^3
#
#
#
# Elastic Constant Matrix: (Units=GPa)
#
#
# Indices 1 2 3 4 5 6 
#
# 1 115.6000 32.6902 47.7986 0.0000 -5.1456 0.0000
# 2 32.6902 56.3132 38.4487 0.0000 -8.2609 0.0000
# 3 47.7986 38.4487 95.8588 0.0000 -4.4071 0.0000
# 4 0.0000 0.0000 0.0000 25.4993 0.0000 -4.3732
# 5 -5.1456 -8.2609 -4.4071 0.0000 30.2804 0.0000
# 6 0.0000 0.0000 0.0000 -4.3732 0.0000 28.7029
#
#
#
# Elastic Compliance Matrix: (Units=1/GPa)
#
#
# Indices 1 2 3 4 5 6 
#
# 1 0.011458 -0.003738 -0.004200 0.000000 0.000316 0.000000
# 2 -0.003738 0.026542 -0.008536 0.000000 0.005364 0.000000
# 3 -0.004200 -0.008536 0.015916 0.000000 -0.000726 0.000000
# 4 0.000000 0.000000 0.000000 0.040269 0.000000 0.006135
# 5 0.000316 0.005364 -0.000726 0.000000 0.034436 0.000000
# 6 0.000000 0.000000 0.000000 0.006135 0.000000 0.035775
#
#
# Mechanical properties :
#
#
# Convention : Reuss Voigt Hill
#
# Bulk Modulus (GPa) = 47.68586 56.18300 51.93443
# Shear Modulus (GPa) = 24.46990 26.81881 25.64435
#
# Velocity S-wave (km/s) = 3.73378 3.90888 3.82233
# Velocity P-wave (km/s) = 6.76431 7.23749 7.00490
#
# Compressibility (1/GPa) = 0.02097058
#
# Stress axis : x y z
#
# Youngs Moduli (GPa) = 87.27482 37.67575 62.82830
#
# Poissons Ratio (x) = 0.14082 0.26386
# Poissons Ratio (y) = 0.32621 0.53628
# Poissons Ratio (z) = 0.36653 0.32159
#
# Static dielectric constant tensor:
#      x y z
#    x 3.264610 0.000000 0.028320 
#    y 0.000000 3.264030 0.000000 
#    z 0.028320 0.000000 3.336150 
# 
# 
# High freq. dielectric constant tensor:
#      x y z
#    x 1.667320 0.000000 0.002050 
#    y 0.000000 1.682730 0.000000 
#    z 0.002050 0.000000 1.669090 
# 
# From -- ./inp_files/243638.got.cif
#   From: 2010.06.25/outbox.cif.g09.slc.cpg/sg12_122_cif.got.tgz:243638.got - 2010.06.28 00:19:55.
