data_PCOD8098696
_publ_section_title
;
Structure prediction by ZEFSAII (Michael W. Deem and Ramdas Pophale) SiO2 
 PCOD8098696
Probable space group: C 2/M
;
_chemical_formula_sum "Si O2"
_cell_formula_units_Z 64
_cell_length_a 9.348657
_cell_length_b 25.405707
_cell_length_c 15.715219
_cell_angle_alpha 90.000000
_cell_angle_beta 70.962859
_cell_angle_gamma 90.000000
_cell_volume 3528.368819
_symmetry_space_group_name_H-M "C 2/M"
_symmetry_group_IT_number 12
_symmetry_cell_setting 'monoclinic'
loop_
_space_group_symop_operation_xyz
x,y,z
-x,y,-z
-x,-y,-z
x,-y,z
1/2+x,1/2+y,z
1/2-x,1/2+y,-z
1/2-x,1/2-y,-z
1/2+x,1/2-y,z
loop_
_atom_site_type_symbol
_atom_site_label
_atom_site_fract_x
_atom_site_fract_y
_atom_site_fract_z
Si Si1 0.847126 0.438612 0.580183
Si Si2 0.658955 0.131931 0.263404
Si Si3 0.838579 0.861809 0.488092
Si Si4 0.336465 0.285714 0.338895
Si Si5 0.935592 0.142354 0.100433
Si Si6 0.671974 0.836359 0.681249
Si Si7 0.648744 0.758073 0.938382
Si Si8 0.866069 0.172529 0.792680
O O1 0.812146 0.500000 0.586295
O O2 0.862833 0.419659 0.674558
O O3 0.701716 0.409631 0.567389
O O4 0.000000 0.424737 0.500000
O O5 0.717175 0.180605 0.308067
O O6 0.777124 0.117486 0.164057
O O7 0.497933 0.149841 0.256285
O O8 0.837039 0.806774 0.436138
O O9 0.708114 0.863329 0.584603
O O10 0.000000 0.871210 0.500000
O O11 0.291957 0.225129 0.340955
O O12 0.502441 0.290766 0.267912
O O13 0.907143 0.204108 0.093108
O O14 0.066541 0.134555 0.146839
O O15 0.000000 0.116694 0.000000
O O16 0.788104 0.859325 0.730220
O O17 0.731533 0.790699 0.850949
O O18 0.500000 0.789201 0.000000
O O19 0.750000 0.750000 0.000000
#
# Coordination Sequence:
#
# PCOD8098696 Si02
#       8
#     8   8   8   8   8   8   8   8
#     4  10  21  42  65  83 106 137 180 234 283 329
#     4  10  22  35  56  82 107 144 192 228 267 325
#     4  11  22  37  52  80 113 145 179 226 270 329
#     4  10  21  34  49  70 112 155 186 217 263 316
#     4  10  20  35  49  71 109 144 180 231 279 312
#     4  12  21  32  50  77 113 151 192 219 258 320
#     4  11  20  31  46  66  99 145 197 230 262 307
#     4  11  20  32  46  69  98 149 188 235 263 305
#
# _framework density 18.138694000000001
#
# number of rings (size 3 to 8) (size 9 to 14) (size 15 to 20)
#    0.000    1.375    5.000    3.375    1.750    0.250 
#    0.000    0.000    0.000    0.375    0.000    0.000 
#    0.000    1.000    0.000    0.000    0.000    0.000 
#
# Total GULP energy -396699.016314 kJ/mol
# GULP energy per Si atom -12396.844260 kJ/mol
# Density = 1.809741 g / cm^3
# Si number density = 18.138694 Si / 1000 Ang^3
#
#
#
# Elastic Constant Matrix: (Units=GPa)
#
#
# Indices 1 2 3 4 5 6 
#
# 1 111.9893 18.8590 34.0107 0.0000 4.6099 0.0000
# 2 18.8590 44.9237 18.8941 0.0000 4.0166 0.0000
# 3 34.0107 18.8941 121.7589 0.0000 -8.5684 0.0000
# 4 0.0000 0.0000 0.0000 12.7274 0.0000 -1.3162
# 5 4.6099 4.0166 -8.5684 0.0000 38.7568 0.0000
# 6 0.0000 0.0000 0.0000 -1.3162 0.0000 13.2063
#
#
#
# Elastic Compliance Matrix: (Units=1/GPa)
#
#
# Indices 1 2 3 4 5 6 
#
# 1 0.010272 -0.003138 -0.002484 0.000000 -0.001446 0.000000
# 2 -0.003138 0.025205 -0.003243 0.000000 -0.002956 0.000000
# 3 -0.002484 -0.003243 0.009604 0.000000 0.002755 0.000000
# 4 0.000000 0.000000 0.000000 0.079389 0.000000 0.007912
# 5 -0.001446 -0.002956 0.002755 0.000000 0.026889 0.000000
# 6 0.000000 0.000000 0.000000 0.007912 0.000000 0.076510
#
#
# Mechanical properties :
#
#
# Convention : Reuss Voigt Hill
#
# Bulk Modulus (GPa) = 36.56112 46.91103 41.73608
# Shear Modulus (GPa) = 19.62973 26.73199 23.18086
#
# Velocity S-wave (km/s) = 3.29325 3.84312 3.57876
# Velocity P-wave (km/s) = 5.88735 6.75361 6.33530
#
# Compressibility (1/GPa) = 0.02735146
#
# Stress axis : x y z
#
# Youngs Moduli (GPa) = 97.35423 39.67390 104.12503
#
# Poissons Ratio (x) = 0.12450 0.25864
# Poissons Ratio (y) = 0.30551 0.33765
# Poissons Ratio (z) = 0.24182 0.12865
#
# Static dielectric constant tensor:
#      x y z
#    x 3.431040 0.000000 -0.009880 
#    y 0.000000 2.783820 0.000000 
#    z -0.009880 0.000000 3.838060 
# 
# 
# High freq. dielectric constant tensor:
#      x y z
#    x 1.721400 0.000000 -0.002660 
#    y 0.000000 1.626600 0.000000 
#    z -0.002660 0.000000 1.722720 
# 
# From -- ./inp_files/199755.got.cif
#   From: 2010.06.25/outbox.cif.g09.slc.cpg/sg12_100_cif.got.tgz:199755.got - 2010.06.28 00:19:55.
