data_PCOD8098011
_publ_section_title
;
Structure prediction by ZEFSAII (Michael W. Deem and Ramdas Pophale) SiO2 
 PCOD8098011
Probable space group: C 2/M
;
_chemical_formula_sum "Si O2"
_cell_formula_units_Z 56
_cell_length_a 17.895916
_cell_length_b 8.806918
_cell_length_c 18.595358
_cell_angle_alpha 90.000000
_cell_angle_beta 75.949103
_cell_angle_gamma 90.000000
_cell_volume 2843.087178
_symmetry_space_group_name_H-M "C 2/M"
_symmetry_group_IT_number 12
_symmetry_cell_setting 'monoclinic'
loop_
_space_group_symop_operation_xyz
x,y,z
-x,y,-z
-x,-y,-z
x,-y,z
1/2+x,1/2+y,z
1/2-x,1/2+y,-z
1/2-x,1/2-y,-z
1/2+x,1/2-y,z
loop_
_atom_site_type_symbol
_atom_site_label
_atom_site_fract_x
_atom_site_fract_y
_atom_site_fract_z
Si Si1 0.871505 0.822005 0.358532
Si Si2 0.916155 0.319762 0.497799
Si Si3 0.203115 0.319850 0.356491
Si Si4 0.647697 0.177628 0.214206
Si Si5 0.490425 0.677226 0.205829
Si Si6 0.777117 0.176437 0.066997
Si Si7 0.563028 0.178434 0.927442
O O1 0.895344 0.736120 0.424254
O O2 0.788702 0.759034 0.352422
O O3 0.932794 0.781626 0.283334
O O4 0.868478 0.000000 0.375560
O O5 0.915470 0.500000 0.498165
O O6 0.854595 0.255294 0.569497
O O7 0.000000 0.257146 0.500000
O O8 0.203694 0.500000 0.356650
O O9 0.175741 0.262885 0.285092
O O10 0.575679 0.278571 0.209088
O O11 0.715304 0.210598 0.142715
O O12 0.624865 0.000000 0.220805
O O13 0.486531 0.500000 0.186968
O O14 0.466484 0.775864 0.143579
O O15 0.857733 0.240622 0.073779
O O16 0.787037 0.000000 0.050699
O O17 0.750000 0.250000 0.000000
O O18 0.576721 0.000000 0.927727
O O19 0.500000 0.231153 0.000000
#
# Coordination Sequence:
#
# PCOD8098011 Si02
#       7
#     8   8   8   8   8   8   8
#     4  10  21  37  56  80 112 148 185 228 281 338
#     4  10  20  34  55  82 109 142 186 232 279 334
#     4   9  18  35  57  79 108 146 186 230 281 338
#     4  10  21  39  61  83 112 151 190 231 285 343
#     4  11  23  38  58  85 115 149 191 237 285 337
#     4  11  23  39  61  88 118 153 191 234 286 341
#     4  11  24  41  61  86 116 152 193 235 283 338
#
# _framework density 19.696898999999998
#
# number of rings (size 3 to 8) (size 9 to 14) (size 15 to 20)
#    0.000    1.714    0.000    4.286    0.000   10.571 
#    0.000    1.429    0.000    0.000    0.000    0.000 
#    0.000    0.000    0.000    0.000    0.000    0.000 
#
# Total GULP energy -347332.038309 kJ/mol
# GULP energy per Si atom -12404.715654 kJ/mol
# Density = 1.965207 g / cm^3
# Si number density = 19.696899 Si / 1000 Ang^3
#
#
#
# Elastic Constant Matrix: (Units=GPa)
#
#
# Indices 1 2 3 4 5 6 
#
# 1 170.6303 38.2064 68.7876 0.0000 0.2675 0.0000
# 2 38.2064 36.7332 39.2444 0.0000 -13.7744 0.0000
# 3 68.7876 39.2444 140.3699 0.0000 0.9668 0.0000
# 4 0.0000 0.0000 0.0000 29.9638 0.0000 5.5947
# 5 0.2675 -13.7744 0.9668 0.0000 39.4312 0.0000
# 6 0.0000 0.0000 0.0000 5.5947 0.0000 27.6070
#
#
#
# Elastic Compliance Matrix: (Units=1/GPa)
#
#
# Indices 1 2 3 4 5 6 
#
# 1 0.008354 -0.007606 -0.001949 0.000000 -0.002666 0.000000
# 2 -0.007606 0.055100 -0.011812 0.000000 0.019589 0.000000
# 3 -0.001949 -0.011812 0.011412 0.000000 -0.004393 0.000000
# 4 0.000000 0.000000 0.000000 0.034686 0.000000 -0.007029
# 5 -0.002666 0.019589 -0.004393 0.000000 0.032330 0.000000
# 6 0.000000 0.000000 0.000000 -0.007029 0.000000 0.037647
#
#
# Mechanical properties :
#
#
# Convention : Reuss Voigt Hill
#
# Bulk Modulus (GPa) = 31.12278 71.13446 51.12862
# Shear Modulus (GPa) = 21.46167 32.83340 27.14754
#
# Velocity S-wave (km/s) = 3.30448 4.08724 3.71653
# Velocity P-wave (km/s) = 5.51313 7.64637 6.66564
#
# Compressibility (1/GPa) = 0.03213080
#
# Stress axis : x y z
#
# Youngs Moduli (GPa) = 119.70937 18.14872 87.62941
#
# Poissons Ratio (x) = 0.13805 0.17076
# Poissons Ratio (y) = 0.91056 1.03510
# Poissons Ratio (z) = 0.23327 0.21438
#
# Static dielectric constant tensor:
#      x y z
#    x 3.762570 0.000000 -0.132900 
#    y 0.000000 3.436190 0.000000 
#    z -0.132900 0.000000 3.795090 
# 
# 
# High freq. dielectric constant tensor:
#      x y z
#    x 1.789240 0.000000 -0.000950 
#    y 0.000000 1.751690 0.000000 
#    z -0.000950 0.000000 1.788320 
# 
# From -- ./inp_files/275062.got.cif
#   From: 2010.06.25/outbox.cif.g09.slc.cpg/sg12_138_cif.got.tgz:275062.got - 2010.06.28 00:19:55.
