data_PCOD8098083
_publ_section_title
;
Structure prediction by ZEFSAII (Michael W. Deem and Ramdas Pophale) SiO2 
 PCOD8098083
Probable space group: C 2/M
;
_chemical_formula_sum "Si O2"
_cell_formula_units_Z 64
_cell_length_a 20.293361
_cell_length_b 8.967737
_cell_length_c 29.293708
_cell_angle_alpha 90.000000
_cell_angle_beta 141.227276
_cell_angle_gamma 90.000000
_cell_volume 3338.465987
_symmetry_space_group_name_H-M "C 2/M"
_symmetry_group_IT_number 12
_symmetry_cell_setting 'monoclinic'
loop_
_space_group_symop_operation_xyz
x,y,z
-x,y,-z
-x,-y,-z
x,-y,z
1/2+x,1/2+y,z
1/2-x,1/2+y,-z
1/2-x,1/2-y,-z
1/2+x,1/2-y,z
loop_
_atom_site_type_symbol
_atom_site_label
_atom_site_fract_x
_atom_site_fract_y
_atom_site_fract_z
Si Si1 0.079376 0.667667 0.084028
Si Si2 0.116217 0.827157 0.552149
Si Si3 0.195744 0.823687 0.830883
Si Si4 0.566679 0.177502 0.684595
Si Si5 0.772984 0.323400 0.307636
Si Si6 0.171043 0.176182 0.921697
Si Si7 0.854318 0.824967 0.537642
Si Si8 0.047183 0.175510 0.156528
O O1 0.088606 0.500000 0.108027
O O2 0.192917 0.725999 0.129680
O O3 0.030986 0.772329 0.096241
O O4 0.000000 0.675074 0.000000
O O5 0.197318 0.737813 0.626955
O O6 0.143918 0.794935 0.515132
O O7 0.000000 0.766130 0.500000
O O8 0.124302 0.000000 0.569402
O O9 0.105897 0.736661 0.754695
O O10 0.195606 0.772722 0.883508
O O11 0.175815 0.000000 0.816153
O O12 0.646550 0.232253 0.688058
O O13 0.453438 0.248216 0.614837
O O14 0.557003 0.000000 0.680699
O O15 0.773141 0.500000 0.309642
O O16 0.656772 0.258386 0.234790
O O17 0.051934 0.230204 0.867413
O O18 0.183180 0.000000 0.933896
O O19 0.250000 0.250000 0.000000
O O20 0.750000 0.750000 0.500000
O O21 0.855688 0.000000 0.549691
O O22 0.054033 0.000000 0.160515
#
# Coordination Sequence:
#
# PCOD8098083 Si02
#       8
#     8   8   8   8   8   8   8   8
#     4  10  20  34  55  83 114 148 191 240 286 343
#     4  10  21  38  61  88 118 155 198 241 290 348
#     4  10  21  37  58  85 117 157 199 240 296 357
#     4  11  22  38  61  89 122 157 197 246 298 354
#     4  10  21  36  58  88 121 154 196 246 295 351
#     4  10  22  40  61  84 117 156 197 243 298 358
#     4  11  24  42  63  90 125 160 199 246 296 354
#     4  10  21  38  57  83 115 149 189 238 291 344
#
# _framework density 19.170483000000001
#
# number of rings (size 3 to 8) (size 9 to 14) (size 15 to 20)
#    0.000    1.750    2.500    1.500    0.000    5.500 
#    0.000    1.250    0.000    0.000    0.000    0.000 
#    0.000    0.000    0.000    0.000    0.000    0.000 
#
# Total GULP energy -396903.500591 kJ/mol
# GULP energy per Si atom -12403.234393 kJ/mol
# Density = 1.912685 g / cm^3
# Si number density = 19.170483 Si / 1000 Ang^3
#
#
#
# Elastic Constant Matrix: (Units=GPa)
#
#
# Indices 1 2 3 4 5 6 
#
# 1 101.6802 39.1931 46.0628 0.0000 1.8406 0.0000
# 2 39.1931 38.2599 46.6118 0.0001 3.4876 0.0000
# 3 46.0628 46.6118 130.1968 0.0000 1.3529 0.0000
# 4 0.0000 0.0001 0.0000 35.8639 0.0000 -3.8648
# 5 1.8406 3.4876 1.3529 0.0000 36.1125 0.0000
# 6 0.0000 0.0000 0.0000 -3.8648 0.0000 28.4245
#
#
#
# Elastic Compliance Matrix: (Units=1/GPa)
#
#
# Indices 1 2 3 4 5 6 
#
# 1 0.016286 -0.017253 0.000406 0.000000 0.000821 0.000000
# 2 -0.017253 0.065177 -0.017180 0.000000 -0.004771 0.000000
# 3 0.000406 -0.017180 0.013676 0.000000 0.001126 0.000000
# 4 0.000000 0.000000 0.000000 0.028298 0.000000 0.003848
# 5 0.000821 -0.004771 0.001126 0.000000 0.028068 0.000000
# 6 0.000000 0.000000 0.000000 0.003848 0.000000 0.035704
#
#
# Mechanical properties :
#
#
# Convention : Reuss Voigt Hill
#
# Bulk Modulus (GPa) = 36.92158 59.31915 48.12037
# Shear Modulus (GPa) = 18.91849 29.29812 24.10831
#
# Velocity S-wave (km/s) = 3.14483 3.91358 3.55008
# Velocity P-wave (km/s) = 5.69983 7.17158 6.47764
#
# Compressibility (1/GPa) = 0.02708443
#
# Stress axis : x y z
#
# Youngs Moduli (GPa) = 61.40166 15.34286 73.12129
#
# Poissons Ratio (x) = 0.26472 -0.02972
# Poissons Ratio (y) = 1.05939 1.25624
# Poissons Ratio (z) = -0.02496 0.26359
#
# Static dielectric constant tensor:
#      x y z
#    x 3.657000 0.000000 0.146920 
#    y 0.000000 3.433540 0.000000 
#    z 0.146920 0.000000 3.668120 
# 
# 
# High freq. dielectric constant tensor:
#      x y z
#    x 1.750090 0.000000 0.001920 
#    y 0.000000 1.737350 0.000000 
#    z 0.001920 0.000000 1.760060 
# 
# From -- ./inp_files/378315.got.cif
#   From: 2010.06.25/outbox.cif.g09.slc.cpg/sg12_190_cif.got.tgz:378315.got - 2010.06.28 00:19:55.
