data_PCOD8098100
_publ_section_title
;
Structure prediction by ZEFSAII (Michael W. Deem and Ramdas Pophale) SiO2 
 PCOD8098100
Probable space group: C 2/M
;
_chemical_formula_sum "Si O2"
_cell_formula_units_Z 64
_cell_length_a 29.610770
_cell_length_b 9.158004
_cell_length_c 15.056554
_cell_angle_alpha 90.000000
_cell_angle_beta 50.531484
_cell_angle_gamma 90.000000
_cell_volume 3151.946118
_symmetry_space_group_name_H-M "C 2/M"
_symmetry_group_IT_number 12
_symmetry_cell_setting 'monoclinic'
loop_
_space_group_symop_operation_xyz
x,y,z
-x,y,-z
-x,-y,-z
x,-y,z
1/2+x,1/2+y,z
1/2-x,1/2+y,-z
1/2-x,1/2-y,-z
1/2+x,1/2-y,z
loop_
_atom_site_type_symbol
_atom_site_label
_atom_site_fract_x
_atom_site_fract_y
_atom_site_fract_z
Si Si1 0.441543 0.830267 0.939643
Si Si2 0.094659 0.659358 0.202287
Si Si3 0.935032 0.844676 0.606954
Si Si4 0.575682 0.827622 0.721989
Si Si5 0.126882 0.828003 0.822665
Si Si6 0.629653 0.675708 0.485873
Si Si7 0.740905 0.171921 0.286659
Si Si8 0.223139 0.660194 0.111685
O O1 0.402793 0.782857 0.902046
O O2 0.508851 0.796301 0.833209
O O3 0.432640 0.000000 0.976969
O O4 0.419386 0.731182 0.047613
O O5 0.064847 0.500000 0.233520
O O6 0.055520 0.755427 0.314913
O O7 0.155419 0.651638 0.176285
O O8 0.898587 0.771157 0.572365
O O9 0.000000 0.877731 0.500000
O O10 0.903970 0.000000 0.667825
O O11 0.617607 0.756575 0.742787
O O12 0.590613 0.748549 0.611159
O O13 0.588048 0.000000 0.698831
O O14 0.193234 0.793785 0.767082
O O15 0.116178 0.000000 0.823670
O O16 0.629357 0.500000 0.497037
O O17 0.696023 0.738285 0.405291
O O18 0.733841 0.231170 0.194527
O O19 0.726051 0.000000 0.311703
O O20 0.252106 0.500000 0.074842
O O21 0.250000 0.750000 0.000000
#
# Coordination Sequence:
#
# PCOD8098100 Si02
#       8
#     8   8   8   8   8   8   8   8
#     4  10  22  40  62  92 125 158 201 250 304 365
#     4  10  20  35  57  85 116 153 194 232 279 346
#     4  10  21  36  55  84 121 156 192 238 290 345
#     4  11  24  42  64  88 120 161 202 253 312 366
#     4  11  24  41  64  91 119 157 204 256 311 363
#     4  11  23  39  62  91 122 160 206 253 301 359
#     4  10  22  41  61  86 123 162 202 249 303 362
#     4  10  20  34  55  83 116 153 192 235 284 342
#
# _framework density 20.304915999999999
#
# number of rings (size 3 to 8) (size 9 to 14) (size 15 to 20)
#    0.000    1.625    1.250    3.000    0.000    6.250 
#    0.000    0.000    0.000    0.000    0.000    0.000 
#    0.000    0.000    0.000    0.000    0.000    0.000 
#
# Total GULP energy -396690.798902 kJ/mol
# GULP energy per Si atom -12396.587466 kJ/mol
# Density = 2.025870 g / cm^3
# Si number density = 20.304916 Si / 1000 Ang^3
#
#
#
# Elastic Constant Matrix: (Units=GPa)
#
#
# Indices 1 2 3 4 5 6 
#
# 1 88.7052 25.4516 14.5677 0.0000 6.6548 0.0000
# 2 25.4516 89.0268 45.2728 0.0001 2.5258 0.0000
# 3 14.5677 45.2728 88.9484 0.0000 1.9787 0.0000
# 4 0.0000 0.0001 0.0000 64.2318 0.0000 14.2167
# 5 6.6548 2.5258 1.9787 0.0000 37.0137 0.0000
# 6 0.0000 0.0000 0.0000 14.2167 0.0000 33.7618
#
#
#
# Elastic Compliance Matrix: (Units=1/GPa)
#
#
# Indices 1 2 3 4 5 6 
#
# 1 0.012431 -0.003352 -0.000285 0.000000 -0.001991 0.000000
# 2 -0.003352 0.016074 -0.007630 0.000000 -0.000086 0.000000
# 3 -0.000285 -0.007630 0.015178 0.000000 -0.000239 0.000000
# 4 0.000000 0.000000 0.000000 0.017169 0.000000 -0.007230
# 5 -0.001991 -0.000086 -0.000239 0.000000 0.027394 0.000000
# 6 0.000000 0.000000 0.000000 -0.007230 0.000000 0.032664
#
#
# Mechanical properties :
#
#
# Convention : Reuss Voigt Hill
#
# Bulk Modulus (GPa) = 47.28739 48.58495 47.93617
# Shear Modulus (GPa) = 33.22395 39.09403 36.15899
#
# Velocity S-wave (km/s) = 4.04945 4.39264 4.22453
# Velocity P-wave (km/s) = 6.72334 7.05030 6.88876
#
# Compressibility (1/GPa) = 0.02114729
#
# Stress axis : x y z
#
# Youngs Moduli (GPa) = 80.44140 62.21403 65.88436
#
# Poissons Ratio (x) = 0.20856 0.01881
# Poissons Ratio (y) = 0.26967 0.50271
# Poissons Ratio (z) = 0.02296 0.47470
#
# Static dielectric constant tensor:
#      x y z
#    x 3.896200 0.000000 0.133490 
#    y 0.000000 4.107250 0.000000 
#    z 0.133490 0.000000 3.553290 
# 
# 
# High freq. dielectric constant tensor:
#      x y z
#    x 1.803000 0.000000 0.005590 
#    y 0.000000 1.793470 0.000000 
#    z 0.005590 0.000000 1.793810 
# 
# From -- ./inp_files/249865.got.cif
#   From: 2010.06.25/outbox.cif.g09.slc.cpg/sg12_125_cif.got.tgz:249865.got - 2010.06.28 00:19:55.
