data_PCOD8098434
_publ_section_title
;
Structure prediction by ZEFSAII (Michael W. Deem and Ramdas Pophale) SiO2 
 PCOD8098434
Probable space group: C 2/M
;
_chemical_formula_sum "Si O2"
_cell_formula_units_Z 56
_cell_length_a 31.513258
_cell_length_b 9.084910
_cell_length_c 11.933769
_cell_angle_alpha 90.000000
_cell_angle_beta 121.290285
_cell_angle_gamma 90.000000
_cell_volume 2919.627650
_symmetry_space_group_name_H-M "C 2/M"
_symmetry_group_IT_number 12
_symmetry_cell_setting 'monoclinic'
loop_
_space_group_symop_operation_xyz
x,y,z
-x,y,-z
-x,-y,-z
x,-y,z
1/2+x,1/2+y,z
1/2-x,1/2+y,-z
1/2-x,1/2-y,-z
1/2+x,1/2-y,z
loop_
_atom_site_type_symbol
_atom_site_label
_atom_site_fract_x
_atom_site_fract_y
_atom_site_fract_z
Si Si1 0.075472 0.675077 0.370227
Si Si2 0.607952 0.175017 0.882770
Si Si3 0.675098 0.173366 0.404090
Si Si4 0.713912 0.671526 0.037299
Si Si5 0.055317 0.325660 0.585768
Si Si6 0.984995 0.325378 0.101650
Si Si7 0.736058 0.668450 0.318438
O O1 0.074910 0.500000 0.364444
O O2 0.121550 0.738389 0.363128
O O3 0.082705 0.723938 0.509199
O O4 0.024496 0.735932 0.246645
O O5 0.584576 0.234029 0.733979
O O6 0.570351 0.219397 0.932788
O O7 0.617045 0.000000 0.892627
O O8 0.659884 0.256093 0.969705
O O9 0.690199 0.239358 0.305114
O O10 0.713119 0.222106 0.553909
O O11 0.672757 0.000000 0.387466
O O12 0.708547 0.500000 0.998969
O O13 0.740672 0.693557 0.192966
O O14 0.750000 0.750000 0.000000
O O15 0.051850 0.500000 0.593605
O O16 0.000000 0.259765 0.500000
O O17 0.988290 0.500000 0.101476
O O18 0.000000 0.260388 0.000000
O O19 0.725504 0.500000 0.333758
#
# Coordination Sequence:
#
# PCOD8098434 Si02
#       7
#     8   8   8   8   8   8   8
#     4   9  16  26  46  77 108 137 173 221 267 311
#     4  10  20  34  57  83 109 147 187 230 281 328
#     4   9  18  32  56  83 105 135 177 227 276 323
#     4  11  25  42  59  80 110 147 188 233 283 339
#     4   9  15  27  48  77 109 139 178 222 264 314
#     4   9  17  28  45  79 118 143 175 224 271 320
#     4   9  20  38  55  76 108 141 176 223 278 332
#
# _framework density 19.180529
#
# number of rings (size 3 to 8) (size 9 to 14) (size 15 to 20)
#    0.000    2.571    1.429    0.429    4.000    1.143 
#    0.000    0.000    0.000    1.714    0.000    0.000 
#    0.000    0.000    0.000    0.000    0.000    0.000 
#
# Total GULP energy -347071.843388 kJ/mol
# GULP energy per Si atom -12395.422978 kJ/mol
# Density = 1.913687 g / cm^3
# Si number density = 19.180529 Si / 1000 Ang^3
#
#
#
# Elastic Constant Matrix: (Units=GPa)
#
#
# Indices 1 2 3 4 5 6 
#
# 1 158.2538 40.4272 44.1974 0.0000 -7.8116 0.0000
# 2 40.4272 36.7416 25.7092 0.0000 -1.1592 0.0000
# 3 44.1974 25.7092 88.7029 0.0000 -12.6536 0.0000
# 4 0.0000 0.0000 0.0000 17.4211 0.0000 0.5982
# 5 -7.8116 -1.1592 -12.6536 0.0000 33.5951 0.0000
# 6 0.0000 0.0000 0.0000 0.5982 0.0000 19.0851
#
#
#
# Elastic Compliance Matrix: (Units=1/GPa)
#
#
# Indices 1 2 3 4 5 6 
#
# 1 0.009114 -0.008689 -0.001863 0.000000 0.001118 0.000000
# 2 -0.008689 0.042658 -0.008573 0.000000 -0.003778 0.000000
# 3 -0.001863 -0.008573 0.015411 0.000000 0.005075 0.000000
# 4 0.000000 0.000000 0.000000 0.057464 0.000000 -0.001801
# 5 0.001118 -0.003778 0.005075 0.000000 0.031807 0.000000
# 6 0.000000 0.000000 0.000000 -0.001801 0.000000 0.052453
#
#
# Mechanical properties :
#
#
# Convention : Reuss Voigt Hill
#
# Bulk Modulus (GPa) = 34.56464 56.04065 45.30265
# Shear Modulus (GPa) = 19.47018 25.57787 22.52403
#
# Velocity S-wave (km/s) = 3.18952 3.65572 3.43055
# Velocity P-wave (km/s) = 5.62351 6.86294 6.27391
#
# Compressibility (1/GPa) = 0.02893130
#
# Stress axis : x y z
#
# Youngs Moduli (GPa) = 109.71717 23.44232 64.88954
#
# Poissons Ratio (x) = 0.20370 0.12091
# Poissons Ratio (y) = 0.95339 0.55630
# Poissons Ratio (z) = 0.20445 0.20097
#
# Static dielectric constant tensor:
#      x y z
#    x 3.729240 0.000000 -0.048330 
#    y 0.000000 3.022820 0.000000 
#    z -0.048330 0.000000 3.738880 
# 
# 
# High freq. dielectric constant tensor:
#      x y z
#    x 1.759360 0.000000 -0.005120 
#    y 0.000000 1.685180 0.000000 
#    z -0.005120 0.000000 1.755680 
# 
# From -- ./inp_files/186852.got.cif
#   From: 2010.06.25/outbox.cif.g09.slc.cpg/sg12_94_cif.got.tgz:186852.got - 2010.06.28 00:19:55.
