data_PCOD8098844
_publ_section_title
;
Structure prediction by ZEFSAII (Michael W. Deem and Ramdas Pophale) SiO2 
 PCOD8098844
Probable space group: C 2/M
;
_chemical_formula_sum "Si O2"
_cell_formula_units_Z 64
_cell_length_a 18.864266
_cell_length_b 9.104704
_cell_length_c 20.868319
_cell_angle_alpha 90.000000
_cell_angle_beta 89.791551
_cell_angle_gamma 90.000000
_cell_volume 3584.184320
_symmetry_space_group_name_H-M "C 2/M"
_symmetry_group_IT_number 12
_symmetry_cell_setting 'monoclinic'
loop_
_space_group_symop_operation_xyz
x,y,z
-x,y,-z
-x,-y,-z
x,-y,z
1/2+x,1/2+y,z
1/2-x,1/2+y,-z
1/2-x,1/2-y,-z
1/2+x,1/2-y,z
loop_
_atom_site_type_symbol
_atom_site_label
_atom_site_fract_x
_atom_site_fract_y
_atom_site_fract_z
Si Si1 0.714077 0.827739 0.940572
Si Si2 0.921986 0.671550 0.989637
Si Si3 0.516021 0.331242 0.350087
Si Si4 0.228949 0.169540 0.365160
Si Si5 0.887724 0.329277 0.401305
Si Si6 0.883834 0.833714 0.531853
Si Si7 0.631870 0.171481 0.271306
Si Si8 0.672223 0.171666 0.127635
O O1 0.751369 0.755122 0.878232
O O2 0.730269 0.000000 0.941261
O O3 0.750000 0.750000 0.000000
O O4 0.628966 0.799600 0.947993
O O5 0.933310 0.500000 0.978754
O O6 0.883629 0.732230 0.925345
O O7 0.000000 0.745018 0.000000
O O8 0.507358 0.500000 0.330493
O O9 0.439805 0.255344 0.353345
O O10 0.551314 0.314670 0.419583
O O11 0.561709 0.252887 0.295410
O O12 0.310481 0.205145 0.374588
O O13 0.188697 0.207365 0.431393
O O14 0.201120 0.269268 0.307537
O O15 0.213984 0.000000 0.347458
O O16 0.906041 0.500000 0.399776
O O17 0.895139 0.276794 0.474005
O O18 0.881281 0.000000 0.505034
O O19 0.639460 0.205613 0.196542
O O20 0.624131 0.000000 0.285558
O O21 0.687331 0.000000 0.117296
#
# Coordination Sequence:
#
# PCOD8098844 Si02
#       8
#     8   8   8   8   8   8   8   8
#     4   9  16  27  47  73  99 129 164 199 235 279
#     4   8  14  27  48  74 102 129 157 191 234 280
#     4  10  21  36  52  71 100 134 166 204 249 301
#     4   9  20  36  51  71 100 130 163 207 253 299
#     4  11  21  32  50  76 101 126 162 208 254 302
#     4   9  18  33  51  71  97 130 164 201 251 305
#     4  10  20  35  54  73  95 129 172 212 250 295
#     4   9  18  32  51  74  99 127 162 204 242 286
#
# _framework density 17.856224999999998
#
# number of rings (size 3 to 8) (size 9 to 14) (size 15 to 20)
#    0.000    2.625    0.000    3.750    0.000    6.000 
#    0.000    1.250    0.000   12.375    0.000    0.000 
#    0.000    0.000    0.000    0.000    0.000    0.000 
#
# Total GULP energy -396707.309893 kJ/mol
# GULP energy per Si atom -12397.103434 kJ/mol
# Density = 1.781558 g / cm^3
# Si number density = 17.856225 Si / 1000 Ang^3
#
#
#
# Elastic Constant Matrix: (Units=GPa)
#
#
# Indices 1 2 3 4 5 6 
#
# 1 126.5104 53.2074 48.1758 0.0000 -26.3980 0.0000
# 2 53.2074 79.0514 40.0535 0.0000 -18.3691 0.0000
# 3 48.1758 40.0535 82.9670 0.0000 -17.8923 0.0000
# 4 0.0000 0.0000 0.0000 27.7735 0.0000 -6.0536
# 5 -26.3980 -18.3691 -17.8923 0.0000 17.0789 0.0000
# 6 0.0000 0.0000 0.0000 -6.0536 0.0000 28.3745
#
#
#
# Elastic Compliance Matrix: (Units=1/GPa)
#
#
# Indices 1 2 3 4 5 6 
#
# 1 0.013723 -0.004744 -0.002848 0.000000 0.013125 0.000000
# 2 -0.004744 0.020669 -0.005181 0.000000 0.009470 0.000000
# 3 -0.002848 -0.005181 0.018160 0.000000 0.009050 0.000000
# 4 0.000000 0.000000 0.000000 0.037762 0.000000 0.008056
# 5 0.013125 0.009470 0.009050 0.000000 0.098505 0.000000
# 6 0.000000 0.000000 0.000000 0.008056 0.000000 0.036962
#
#
# Mechanical properties :
#
#
# Convention : Reuss Voigt Hill
#
# Bulk Modulus (GPa) = 37.02941 63.48915 50.25928
# Shear Modulus (GPa) = 19.20662 24.45150 21.82906
#
# Velocity S-wave (km/s) = 3.28323 3.70449 3.50021
# Velocity P-wave (km/s) = 5.92920 7.34375 6.67405
#
# Compressibility (1/GPa) = 0.02700556
#
# Stress axis : x y z
#
# Youngs Moduli (GPa) = 72.87187 48.38258 55.06718
#
# Poissons Ratio (x) = 0.22951 0.15681
# Poissons Ratio (y) = 0.34568 0.28532
# Poissons Ratio (z) = 0.20751 0.25069
#
# Static dielectric constant tensor:
#      x y z
#    x 4.177390 0.000000 -1.456430 
#    y 0.000000 3.357590 0.000000 
#    z -1.456430 0.000000 5.988550 
# 
# 
# High freq. dielectric constant tensor:
#      x y z
#    x 1.693920 0.000000 -0.022160 
#    y 0.000000 1.687800 0.000000 
#    z -0.022160 0.000000 1.670280 
# 
# From -- ./inp_files/319093.got.cif
#   From: 2010.06.25/outbox.cif.g09.slc.cpg/sg12_160_cif.got.tgz:319093.got - 2010.06.28 00:19:55.
