data_PCOD8098523
_publ_section_title
;
Structure prediction by ZEFSAII (Michael W. Deem and Ramdas Pophale) SiO2 
 PCOD8098523
Probable space group: C 2/M
;
_chemical_formula_sum "Si O2"
_cell_formula_units_Z 40
_cell_length_a 12.841365
_cell_length_b 22.768346
_cell_length_c 7.357271
_cell_angle_alpha 90.000000
_cell_angle_beta 44.682631
_cell_angle_gamma 90.000000
_cell_volume 1512.604676
_symmetry_space_group_name_H-M "C 2/M"
_symmetry_group_IT_number 12
_symmetry_cell_setting 'monoclinic'
loop_
_space_group_symop_operation_xyz
x,y,z
-x,y,-z
-x,-y,-z
x,-y,z
1/2+x,1/2+y,z
1/2-x,1/2+y,-z
1/2-x,1/2-y,-z
1/2+x,1/2-y,z
loop_
_atom_site_type_symbol
_atom_site_label
_atom_site_fract_x
_atom_site_fract_y
_atom_site_fract_z
Si Si1 0.335939 0.674360 0.574257
Si Si2 0.926352 0.625137 0.909237
Si Si3 0.459496 0.000000 0.342095
Si Si4 0.840875 0.000000 0.111997
Si Si5 0.159786 0.309563 0.422199
Si Si6 0.600247 0.622678 0.056063
O O1 0.249203 0.673293 0.492433
O O2 0.353793 0.741644 0.609550
O O3 0.500341 0.646538 0.346128
O O4 0.250310 0.636270 0.837971
O O5 0.970739 0.556769 0.840095
O O6 0.993285 0.663377 0.657599
O O7 0.000000 0.651447 0.000000
O O8 0.500000 0.000000 0.500000
O O9 0.279252 0.000000 0.571727
O O10 0.829931 0.942382 0.998603
O O11 0.000000 0.000000 0.000000
O O12 0.251183 0.338629 0.144653
O O13 0.500000 0.624011 0.000000
#
# Coordination Sequence:
#
# PCOD8098523 Si02
#       6
#     8   8   4   4   8   8
#     4   9  17  26  48  84 117 147 181 249 296 338
#     4  10  20  34  57  88 118 151 203 248 292 346
#     4  12  25  42  60  85 122 164 201 247 307 360
#     4  10  20  34  58  81 105 148 204 237 285 354
#     4   9  15  28  47  80 121 149 181 236 301 352
#     4   9  16  27  46  74 111 144 184 226 287 345
#
# _framework density 26.444451999999998
#
# number of rings (size 3 to 8) (size 9 to 14) (size 15 to 20)
#    0.000    2.400    2.000    1.500    2.800    5.600 
#    0.000    0.000    0.000    3.600    0.000    0.000 
#    0.000    0.000    0.000    0.000    0.000    0.000 
#
# Total GULP energy -248005.529124 kJ/mol
# GULP energy per Si atom -12400.276456 kJ/mol
# Density = 2.638426 g / cm^3
# Si number density = 26.444452 Si / 1000 Ang^3
#
#
#
# Elastic Constant Matrix: (Units=GPa)
#
#
# Indices 1 2 3 4 5 6 
#
# 1 63.9003 -4.8852 65.5754 0.0000 -26.8601 0.0000
# 2 -4.8852 243.2867 157.3354 0.0000 -16.2070 0.0000
# 3 65.5754 157.3354 290.8495 0.0000 -38.3942 0.0000
# 4 0.0000 0.0000 0.0000 61.2130 0.0000 -1.1321
# 5 -26.8601 -16.2070 -38.3942 0.0000 63.2741 0.0000
# 6 0.0000 0.0000 0.0000 -1.1321 0.0000 0.2190
#
#
#
# Elastic Compliance Matrix: (Units=1/GPa)
#
#
# Indices 1 2 3 4 5 6 
#
# 1 0.029570 0.007294 -0.009467 0.000000 0.008676 0.000000
# 2 0.007294 0.008136 -0.005829 0.000000 0.001644 0.000000
# 3 -0.009467 -0.005829 0.008695 0.000000 -0.000236 0.000000
# 4 0.000000 0.000000 0.000000 0.018063 0.000000 0.093366
# 5 0.008676 0.001644 -0.000236 0.000000 0.019765 0.000000
# 6 0.000000 0.000000 0.000000 0.093366 0.000000 5.048394
#
#
# Mechanical properties :
#
#
# Convention : Reuss Voigt Hill
#
# Bulk Modulus (GPa) = 32.89852 114.89862 73.89857
# Shear Modulus (GPa) = 0.96923 50.27527 25.62225
#
# Velocity S-wave (km/s) = 0.60606 4.36497 3.11611
# Velocity P-wave (km/s) = 3.59963 8.30345 6.39940
#
# Compressibility (1/GPa) = 0.03039650
#
# Stress axis : x y z
#
# Youngs Moduli (GPa) = 33.81858 122.91333 115.01364
#
# Poissons Ratio (x) = -0.89658 1.08888
# Poissons Ratio (y) = -0.24669 0.67038
# Poissons Ratio (z) = 0.32017 0.71643
#
# Static dielectric constant tensor:
#      x y z
#    x 4.852310 0.000000 -0.230130 
#    y 0.000000 5.160490 0.000000 
#    z -0.230130 0.000000 4.892500 
# 
# 
# High freq. dielectric constant tensor:
#      x y z
#    x 2.111390 0.000000 -0.009270 
#    y 0.000000 2.047320 0.000000 
#    z -0.009270 0.000000 2.086510 
# 
# From -- ./inp_files/79779.got.cif
#   From: 2010.06.25/outbox.cif.g09.slc.cpg/sg12_40_cif.got.tgz:79779.got - 2010.06.28 00:19:55.
