data_PCOD8098193
_publ_section_title
;
Structure prediction by ZEFSAII (Michael W. Deem and Ramdas Pophale) SiO2 
 PCOD8098193
Probable space group: C 2/M
;
_chemical_formula_sum "Si O2"
_cell_formula_units_Z 56
_cell_length_a 13.845190
_cell_length_b 21.387748
_cell_length_c 13.558529
_cell_angle_alpha 90.000000
_cell_angle_beta 44.454548
_cell_angle_gamma 90.000000
_cell_volume 2811.819824
_symmetry_space_group_name_H-M "C 2/M"
_symmetry_group_IT_number 12
_symmetry_cell_setting 'monoclinic'
loop_
_space_group_symop_operation_xyz
x,y,z
-x,y,-z
-x,-y,-z
x,-y,z
1/2+x,1/2+y,z
1/2-x,1/2+y,-z
1/2-x,1/2-y,-z
1/2+x,1/2-y,z
loop_
_atom_site_type_symbol
_atom_site_label
_atom_site_fract_x
_atom_site_fract_y
_atom_site_fract_z
Si Si1 0.591178 0.255591 0.195557
Si Si2 0.844904 0.772823 0.633466
Si Si3 0.870015 0.340884 0.339310
Si Si4 0.338180 0.428115 0.134068
Si Si5 0.550086 0.073133 0.070710
Si Si6 0.156048 0.366569 0.424210
Si Si7 0.232217 0.854572 0.000421
O O1 0.675969 0.269800 0.233662
O O2 0.440460 0.225413 0.322581
O O3 0.586374 0.323357 0.141957
O O4 0.665392 0.204486 0.072943
O O5 0.752450 0.824893 0.646778
O O6 0.806953 0.704890 0.621977
O O7 0.000000 0.793479 0.500000
O O8 0.825658 0.376720 0.471672
O O9 0.968991 0.389742 0.213727
O O10 0.302952 0.500000 0.138835
O O11 0.272714 0.409673 0.287221
O O12 0.500000 0.416447 0.000000
O O13 0.264464 0.384140 0.109444
O O14 0.530718 0.000000 0.102716
O O15 0.500000 0.093510 0.000000
O O16 0.711144 0.093283 0.964010
O O17 0.000000 0.382658 0.500000
#
# Coordination Sequence:
#
# PCOD8098193 Si02
#       7
#     8   8   8   8   8   8   8
#     4  10  20  34  55  88 118 146 197 244 295 367
#     4  11  21  35  55  84 120 149 190 247 306 364
#     4  11  22  36  61  87 116 159 201 248 315 358
#     4  11  25  41  59  88 125 165 207 251 302 361
#     4  10  21  39  59  84 118 155 206 257 294 358
#     4  11  21  40  61  86 121 160 205 254 297 365
#     4  10  20  35  57  83 116 156 193 242 301 356
#
# _framework density 19.915928000000001
#
# number of rings (size 3 to 8) (size 9 to 14) (size 15 to 20)
#    0.000    1.429    4.286    2.571    2.000    0.857 
#    0.000    0.000    0.000    0.429    0.000    0.000 
#    0.000    0.000    0.000    0.000    0.000    0.000 
#
# Total GULP energy -346962.580125 kJ/mol
# GULP energy per Si atom -12391.520719 kJ/mol
# Density = 1.987060 g / cm^3
# Si number density = 19.915928 Si / 1000 Ang^3
#
#
#
# Elastic Constant Matrix: (Units=GPa)
#
#
# Indices 1 2 3 4 5 6 
#
# 1 93.9892 41.5967 31.7543 0.0007 18.8339 -0.0007
# 2 41.5967 86.1406 49.0723 0.0006 5.2654 -0.0004
# 3 31.7543 49.0723 99.5788 0.0018 16.1778 -0.0020
# 4 0.0007 0.0006 0.0018 24.4502 -0.0008 4.0349
# 5 18.8339 5.2654 16.1778 -0.0008 37.0807 0.0009
# 6 -0.0007 -0.0004 -0.0020 4.0349 0.0009 20.7408
#
#
#
# Elastic Compliance Matrix: (Units=1/GPa)
#
#
# Indices 1 2 3 4 5 6 
#
# 1 0.015013 -0.006570 -0.000498 -0.000001 -0.006475 0.000001
# 2 -0.006570 0.019071 -0.007970 0.000001 0.004106 -0.000001
# 3 -0.000498 -0.007970 0.014964 -0.000001 -0.005144 0.000002
# 4 -0.000001 0.000001 -0.000001 0.042256 0.000002 -0.008220
# 5 -0.006475 0.004106 -0.005144 0.000002 0.031918 -0.000002
# 6 0.000001 -0.000001 0.000002 -0.008220 -0.000002 0.049813
#
#
# Mechanical properties :
#
#
# Convention : Reuss Voigt Hill
#
# Bulk Modulus (GPa) = 52.70843 58.28391 55.49617
# Shear Modulus (GPa) = 23.87358 26.94005 25.40682
#
# Velocity S-wave (km/s) = 3.46601 3.68188 3.57557
# Velocity P-wave (km/s) = 6.52231 6.88502 6.70612
#
# Compressibility (1/GPa) = 0.01897230
#
# Stress axis : x y z
#
# Youngs Moduli (GPa) = 66.60881 52.43526 66.82535
#
# Poissons Ratio (x) = 0.34452 0.03325
# Poissons Ratio (y) = 0.43765 0.53261
# Poissons Ratio (z) = 0.03314 0.41792
#
# Static dielectric constant tensor:
#      x y z
#    x 3.646810 0.000000 0.028510 
#    y 0.000000 3.595330 0.000000 
#    z 0.028510 0.000000 3.784010 
# 
# 
# High freq. dielectric constant tensor:
#      x y z
#    x 1.773780 0.000000 0.014180 
#    y 0.000000 1.763310 0.000000 
#    z 0.014180 0.000000 1.776000 
# 
# From -- ./inp_files/217681.got.cif
#   From: 2010.06.25/outbox.cif.g09.slc.cpg/sg12_109_cif.got.tgz:217681.got - 2010.06.28 00:19:55.
