data_PCOD8098753
_publ_section_title
;
Structure prediction by ZEFSAII (Michael W. Deem and Ramdas Pophale) SiO2 
 PCOD8098753
Probable space group: C 2/M
;
_chemical_formula_sum "Si O2"
_cell_formula_units_Z 64
_cell_length_a 29.653662
_cell_length_b 9.329885
_cell_length_c 11.133412
_cell_angle_alpha 90.000000
_cell_angle_beta 95.267867
_cell_angle_gamma 90.000000
_cell_volume 3067.218464
_symmetry_space_group_name_H-M "C 2/M"
_symmetry_group_IT_number 12
_symmetry_cell_setting 'monoclinic'
loop_
_space_group_symop_operation_xyz
x,y,z
-x,y,-z
-x,-y,-z
x,-y,z
1/2+x,1/2+y,z
1/2-x,1/2+y,-z
1/2-x,1/2-y,-z
1/2+x,1/2-y,z
loop_
_atom_site_type_symbol
_atom_site_label
_atom_site_fract_x
_atom_site_fract_y
_atom_site_fract_z
Si Si1 0.050878 0.338660 0.494419
Si Si2 0.864825 0.339848 0.874073
Si Si3 0.904843 0.333831 0.131117
Si Si4 0.860332 0.660609 0.350037
Si Si5 0.990472 0.834506 0.129136
Si Si6 0.759068 0.339030 0.879758
Si Si7 0.917771 0.835537 0.709921
Si Si8 0.723798 0.672398 0.605327
O O1 0.045738 0.500000 0.441826
O O2 0.084921 0.334434 0.615143
O O3 0.079763 0.237746 0.416627
O O4 0.000000 0.276005 0.500000
O O5 0.882364 0.500000 0.848704
O O6 0.812125 0.341936 0.879398
O O7 0.876110 0.234375 0.768998
O O8 0.889326 0.278024 0.997693
O O9 0.917724 0.500000 0.131996
O O10 0.861410 0.306349 0.207572
O O11 0.949267 0.247038 0.182071
O O12 0.842085 0.500000 0.374556
O O13 0.828603 0.773542 0.412747
O O14 0.034763 0.806200 0.216070
O O15 0.977045 0.000000 0.118158
O O16 0.000000 0.770587 0.000000
O O17 0.739987 0.500000 0.895199
O O18 0.740643 0.280960 0.744579
O O19 0.750000 0.250000 0.000000
O O20 0.906058 0.000000 0.690872
O O21 0.726781 0.500000 0.588850
O O22 0.750000 0.750000 0.500000
#
# Coordination Sequence:
#
# PCOD8098753 Si02
#       8
#     8   8   8   8   8   8   8   8
#     4  10  22  41  64  88 119 160 204 251 303 362
#     4  10  21  37  59  88 120 153 193 247 304 362
#     4  10  20  35  60  90 117 153 203 250 299 362
#     4  10  22  41  65  92 124 161 204 256 310 365
#     4  10  20  35  52  77 119 161 195 242 301 359
#     4  10  23  43  67  94 125 162 207 259 318 378
#     4  11  23  37  56  84 118 156 200 246 299 360
#     4  11  25  44  67  97 131 170 216 264 320 384
#
# _framework density 20.86581
#
# number of rings (size 3 to 8) (size 9 to 14) (size 15 to 20)
#    0.000    1.750    1.250    2.250    1.750    6.000 
#    0.000    0.000    0.000    0.000    0.000    0.000 
#    0.000    0.000    0.000    0.000    0.000    0.000 
#
# Total GULP energy -396539.868917 kJ/mol
# GULP energy per Si atom -12391.870904 kJ/mol
# Density = 2.081832 g / cm^3
# Si number density = 20.865810 Si / 1000 Ang^3
#
#
#
# Elastic Constant Matrix: (Units=GPa)
#
#
# Indices 1 2 3 4 5 6 
#
# 1 80.4700 40.1490 23.1643 0.0000 -19.3395 0.0000
# 2 40.1490 70.7971 44.0954 0.0000 -6.4234 0.0000
# 3 23.1643 44.0954 99.9898 0.0000 -18.9770 0.0000
# 4 0.0000 0.0000 0.0000 19.8542 0.0000 -2.0339
# 5 -19.3395 -6.4234 -18.9770 0.0000 23.3518 0.0000
# 6 0.0000 0.0000 0.0000 -2.0339 0.0000 32.4457
#
#
#
# Elastic Compliance Matrix: (Units=1/GPa)
#
#
# Indices 1 2 3 4 5 6 
#
# 1 0.022463 -0.013789 0.004361 0.000000 0.018354 0.000000
# 2 -0.013789 0.028012 -0.011662 0.000000 -0.013192 0.000000
# 3 0.004361 -0.011662 0.016802 0.000000 0.014057 0.000000
# 4 0.000000 0.000000 0.000000 0.050693 0.000000 0.003178
# 5 0.018354 -0.013192 0.014057 0.000000 0.065819 0.000000
# 6 0.000000 0.000000 0.000000 0.003178 0.000000 0.031020
#
#
# Mechanical properties :
#
#
# Convention : Reuss Voigt Hill
#
# Bulk Modulus (GPa) = 39.85014 51.78603 45.81808
# Shear Modulus (GPa) = 18.84276 24.72021 21.78149
#
# Velocity S-wave (km/s) = 3.00833 3.44572 3.23442
# Velocity P-wave (km/s) = 5.58628 6.37990 5.99623
#
# Compressibility (1/GPa) = 0.02509401
#
# Stress axis : x y z
#
# Youngs Moduli (GPa) = 44.51843 35.69954 59.51724
#
# Poissons Ratio (x) = 0.49227 -0.25953
# Poissons Ratio (y) = 0.61387 0.69411
# Poissons Ratio (z) = -0.19412 0.41634
#
# Static dielectric constant tensor:
#      x y z
#    x 3.366160 0.000000 -0.669370 
#    y 0.000000 3.840750 0.000000 
#    z -0.669370 0.000000 2.424120 
# 
# 
# High freq. dielectric constant tensor:
#      x y z
#    x 1.818530 0.000000 -0.001000 
#    y 0.000000 1.808040 0.000000 
#    z -0.001000 0.000000 1.826390 
# 
# From -- ./inp_files/187559.got.cif
#   From: 2010.06.25/outbox.cif.g09.slc.cpg/sg12_94_cif.got.tgz:187559.got - 2010.06.28 00:19:55.
