data_PCOD8098988
_publ_section_title
;
Structure prediction by ZEFSAII (Michael W. Deem and Ramdas Pophale) SiO2 
 PCOD8098988
Probable space group: C 2/M
;
_chemical_formula_sum "Si O2"
_cell_formula_units_Z 56
_cell_length_a 15.082488
_cell_length_b 8.893904
_cell_length_c 24.132003
_cell_angle_alpha 90.000000
_cell_angle_beta 61.547626
_cell_angle_gamma 90.000000
_cell_volume 2846.119388
_symmetry_space_group_name_H-M "C 2/M"
_symmetry_group_IT_number 12
_symmetry_cell_setting 'monoclinic'
loop_
_space_group_symop_operation_xyz
x,y,z
-x,y,-z
-x,-y,-z
x,-y,z
1/2+x,1/2+y,z
1/2-x,1/2+y,-z
1/2-x,1/2-y,-z
1/2+x,1/2-y,z
loop_
_atom_site_type_symbol
_atom_site_label
_atom_site_fract_x
_atom_site_fract_y
_atom_site_fract_z
Si Si1 0.893458 0.677634 0.505240
Si Si2 0.689319 0.677507 0.799160
Si Si3 0.311861 0.174265 0.411153
Si Si4 0.024920 0.822706 0.932524
Si Si5 0.575180 0.824347 0.735047
Si Si6 0.638079 0.675552 0.196635
Si Si7 0.826199 0.826724 0.936509
O O1 0.893185 0.500000 0.512485
O O2 0.794843 0.741251 0.565927
O O3 0.877360 0.725854 0.445526
O O4 0.000000 0.739659 0.500000
O O5 0.678913 0.500000 0.791261
O O6 0.627827 0.730744 0.872462
O O7 0.655322 0.769542 0.756008
O O8 0.804978 0.724744 0.774538
O O9 0.381204 0.209855 0.338305
O O10 0.284655 0.000000 0.424443
O O11 0.938400 0.770100 0.916325
O O12 0.030000 0.000000 0.938715
O O13 0.000000 0.748233 0.000000
O O14 0.476475 0.725412 0.772161
O O15 0.551254 0.000000 0.750363
O O16 0.643073 0.500000 0.210146
O O17 0.693702 0.708321 0.121617
O O18 0.817336 0.000000 0.953025
O O19 0.750000 0.750000 0.000000
#
# Coordination Sequence:
#
# PCOD8098988 Si02
#       7
#     8   8   8   8   8   8   8
#     4   9  18  35  60  89 121 156 196 239 283 338
#     4  11  22  39  61  84 113 152 197 248 304 360
#     4   9  20  37  57  86 121 156 196 241 289 341
#     4   9  17  32  54  78 107 141 182 235 297 357
#     4  11  23  40  60  85 122 163 203 247 295 354
#     4  11  23  40  59  84 118 154 197 247 299 361
#     4  10  20  35  54  80 112 146 187 240 298 360
#
# _framework density 19.675913999999999
#
# number of rings (size 3 to 8) (size 9 to 14) (size 15 to 20)
#    0.000    2.000    1.429    2.143    0.000    4.857 
#    0.000    1.429    0.000    3.000    0.000    0.000 
#    0.000    0.000    0.000    0.000    0.000    0.000 
#
# Total GULP energy -347088.877457 kJ/mol
# GULP energy per Si atom -12396.031338 kJ/mol
# Density = 1.963113 g / cm^3
# Si number density = 19.675914 Si / 1000 Ang^3
#
#
#
# Elastic Constant Matrix: (Units=GPa)
#
#
# Indices 1 2 3 4 5 6 
#
# 1 124.5677 28.8760 24.1926 0.0000 3.9898 0.0000
# 2 28.8760 42.0173 39.9631 0.0000 -2.1148 0.0000
# 3 24.1926 39.9631 78.9329 0.0000 7.0974 0.0000
# 4 0.0000 0.0000 0.0000 29.7357 0.0000 -3.3208
# 5 3.9898 -2.1148 7.0974 0.0000 23.7715 0.0000
# 6 0.0000 0.0000 0.0000 -3.3208 0.0000 33.5975
#
#
#
# Elastic Compliance Matrix: (Units=1/GPa)
#
#
# Indices 1 2 3 4 5 6 
#
# 1 0.009737 -0.008160 0.001397 0.000000 -0.002777 0.000000
# 2 -0.008160 0.055916 -0.027107 0.000000 0.014437 0.000000
# 3 0.001397 -0.027107 0.026926 0.000000 -0.010685 0.000000
# 4 0.000000 0.000000 0.000000 0.034005 0.000000 0.003361
# 5 -0.002777 0.014437 -0.010685 0.000000 0.047008 0.000000
# 6 0.000000 0.000000 0.000000 0.003361 0.000000 0.030096
#
#
# Mechanical properties :
#
#
# Convention : Reuss Voigt Hill
#
# Bulk Modulus (GPa) = 40.26037 47.95348 44.10693
# Shear Modulus (GPa) = 17.87581 27.58669 22.73125
#
# Velocity S-wave (km/s) = 3.01742 3.74846 3.40263
# Velocity P-wave (km/s) = 5.71367 6.56957 6.15651
#
# Compressibility (1/GPa) = 0.02483832
#
# Stress axis : x y z
#
# Youngs Moduli (GPa) = 102.70115 17.88400 37.13916
#
# Poissons Ratio (x) = 0.14593 -0.05187
# Poissons Ratio (y) = 0.83802 1.00673
# Poissons Ratio (z) = -0.14343 0.48478
#
# Static dielectric constant tensor:
#      x y z
#    x 3.927240 0.000000 0.106710 
#    y 0.000000 3.393130 0.000000 
#    z 0.106710 0.000000 3.656310 
# 
# 
# High freq. dielectric constant tensor:
#      x y z
#    x 1.778420 0.000000 0.003360 
#    y 0.000000 1.751050 0.000000 
#    z 0.003360 0.000000 1.764320 
# 
# From -- ./inp_files/338564.got.cif
#   From: 2010.06.25/outbox.cif.g09.slc.cpg/sg12_170_cif.got.tgz:338564.got - 2010.06.28 00:19:55.
