data_PCOD8098337
_publ_section_title
;
Structure prediction by ZEFSAII (Michael W. Deem and Ramdas Pophale) SiO2 
 PCOD8098337
Probable space group: C 2/M
;
_chemical_formula_sum "Si O2"
_cell_formula_units_Z 56
_cell_length_a 28.158945
_cell_length_b 8.850544
_cell_length_c 17.304498
_cell_angle_alpha 90.000000
_cell_angle_beta 43.746477
_cell_angle_gamma 90.000000
_cell_volume 2982.070023
_symmetry_space_group_name_H-M "C 2/M"
_symmetry_group_IT_number 12
_symmetry_cell_setting 'monoclinic'
loop_
_space_group_symop_operation_xyz
x,y,z
-x,y,-z
-x,-y,-z
x,-y,z
1/2+x,1/2+y,z
1/2-x,1/2+y,-z
1/2-x,1/2-y,-z
1/2+x,1/2-y,z
loop_
_atom_site_type_symbol
_atom_site_label
_atom_site_fract_x
_atom_site_fract_y
_atom_site_fract_z
Si Si1 0.312340 0.823504 0.566254
Si Si2 0.138642 0.324575 0.918939
Si Si3 0.091212 0.175374 0.664891
Si Si4 0.067239 0.174483 0.136541
Si Si5 0.669258 0.177530 0.710905
Si Si6 0.222232 0.671825 0.222869
Si Si7 0.179726 0.326307 0.107651
O O1 0.373215 0.730574 0.455355
O O2 0.239892 0.768104 0.617196
O O3 0.317683 0.788101 0.651334
O O4 0.320438 0.000000 0.537940
O O5 0.126581 0.500000 0.946371
O O6 0.134223 0.280710 0.833930
O O7 0.212908 0.280729 0.865577
O O8 0.080095 0.237403 0.035153
O O9 0.117227 0.273703 0.705975
O O10 0.010892 0.204946 0.748735
O O11 0.107451 0.000000 0.660951
O O12 0.113996 0.253773 0.145333
O O13 0.086309 0.000000 0.114245
O O14 0.685336 0.000000 0.686824
O O15 0.250192 0.500000 0.194614
O O16 0.171154 0.692388 0.210538
O O17 0.182989 0.500000 0.079033
O O18 0.250000 0.250000 0.000000
#
# Coordination Sequence:
#
# PCOD8098337 Si02
#       7
#     8   8   8   8   8   8   8
#     4  10  20  37  61  85 111 146 187 232 278 327
#     4  10  20  34  56  85 113 144 183 230 281 332
#     4  11  24  40  56  78 111 153 193 232 279 330
#     4  11  24  39  55  79 115 153 189 229 279 336
#     4  10  21  37  59  86 113 144 186 233 281 334
#     4   9  19  35  57  85 114 143 180 228 279 330
#     4  11  21  35  59  88 115 145 184 227 278 335
#
# _framework density 18.778901999999999
#
# number of rings (size 3 to 8) (size 9 to 14) (size 15 to 20)
#    0.000    1.714    1.429    3.000    0.000    5.714 
#    0.000    3.571    0.000    4.286    0.000    0.000 
#    0.000    0.000    0.000    0.000    0.000    0.000 
#
# Total GULP energy -347300.462231 kJ/mol
# GULP energy per Si atom -12403.587937 kJ/mol
# Density = 1.873616 g / cm^3
# Si number density = 18.778902 Si / 1000 Ang^3
#
#
#
# Elastic Constant Matrix: (Units=GPa)
#
#
# Indices 1 2 3 4 5 6 
#
# 1 93.7042 39.9259 59.6037 0.0036 6.1485 -0.0021
# 2 39.9259 89.0304 55.3858 0.0198 -2.5789 -0.0116
# 3 59.6037 55.3858 102.9251 0.0145 1.6857 -0.0103
# 4 0.0036 0.0198 0.0145 32.4740 -0.0041 -0.1576
# 5 6.1485 -2.5789 1.6857 -0.0041 22.7974 0.0027
# 6 -0.0021 -0.0116 -0.0103 -0.1576 0.0027 29.8692
#
#
#
# Elastic Compliance Matrix: (Units=1/GPa)
#
#
# Indices 1 2 3 4 5 6 
#
# 1 0.017624 -0.002596 -0.008737 0.000003 -0.004401 -0.000002
# 2 -0.002596 0.017420 -0.007924 -0.000006 0.003257 0.000003
# 3 -0.008737 -0.007924 0.019039 -0.000003 0.000052 0.000003
# 4 0.000003 -0.000006 -0.000003 0.030795 0.000004 0.000163
# 5 -0.004401 0.003257 0.000052 0.000004 0.045416 -0.000003
# 6 -0.000002 0.000003 0.000003 0.000163 -0.000003 0.033480
#
#
# Mechanical properties :
#
#
# Convention : Reuss Voigt Hill
#
# Bulk Modulus (GPa) = 64.23097 66.16562 65.19830
# Shear Modulus (GPa) = 24.09886 25.74440 24.92163
#
# Velocity S-wave (km/s) = 3.58620 3.70661 3.64690
# Velocity P-wave (km/s) = 7.17118 7.32319 7.24758
#
# Compressibility (1/GPa) = 0.01556881
#
# Stress axis : x y z
#
# Youngs Moduli (GPa) = 56.73979 57.40462 52.52380
#
# Poissons Ratio (x) = 0.14900 0.45892
# Poissons Ratio (y) = 0.14727 0.41622
# Poissons Ratio (z) = 0.49576 0.45489
#
# Static dielectric constant tensor:
#      x y z
#    x 7.498150 -0.000080 0.017300 
#    y -0.000080 3.616370 0.000010 
#    z 0.017300 0.000010 3.493830 
# 
# 
# High freq. dielectric constant tensor:
#      x y z
#    x 1.723690 0.000000 0.020350 
#    y 0.000000 1.745500 0.000000 
#    z 0.020350 0.000000 1.724710 
# 
# From -- ./inp_files/288147.got.cif
#   From: 2010.06.25/outbox.cif.g09.slc.cpg/sg12_145_cif.got.tgz:288147.got - 2010.06.28 00:19:55.
