data_PCOD8098092
_publ_section_title
;
Structure prediction by ZEFSAII (Michael W. Deem and Ramdas Pophale) SiO2 
 PCOD8098092
Probable space group: C 2/M
;
_chemical_formula_sum "Si O2"
_cell_formula_units_Z 48
_cell_length_a 23.313138
_cell_length_b 8.756148
_cell_length_c 12.602277
_cell_angle_alpha 90.000000
_cell_angle_beta 90.339936
_cell_angle_gamma 90.000000
_cell_volume 2572.498946
_symmetry_space_group_name_H-M "C 2/M"
_symmetry_group_IT_number 12
_symmetry_cell_setting 'monoclinic'
loop_
_space_group_symop_operation_xyz
x,y,z
-x,y,-z
-x,-y,-z
x,-y,z
1/2+x,1/2+y,z
1/2-x,1/2+y,-z
1/2-x,1/2-y,-z
1/2+x,1/2-y,z
loop_
_atom_site_type_symbol
_atom_site_label
_atom_site_fract_x
_atom_site_fract_y
_atom_site_fract_z
Si Si1 0.250584 0.321642 0.616107
Si Si2 0.058541 0.680752 0.117188
Si Si3 0.934656 0.824633 0.501106
Si Si4 0.140165 0.174170 0.702185
Si Si5 0.437062 0.320362 0.104393
Si Si6 0.864672 0.678672 0.684523
O O1 0.256448 0.500000 0.599980
O O2 0.250000 0.250000 0.500000
O O3 0.193133 0.284104 0.679548
O O4 0.303954 0.263242 0.685356
O O5 0.057745 0.500000 0.101067
O O6 0.100102 0.731934 0.212298
O O7 0.994686 0.736820 0.143672
O O8 0.081892 0.760199 0.010898
O O9 0.909938 0.802879 0.383685
O O10 0.899533 0.718583 0.579608
O O11 0.000000 0.768584 0.500000
O O12 0.930118 0.000000 0.539401
O O13 0.114197 0.218795 0.815740
O O14 0.162369 0.000000 0.700963
O O15 0.449641 0.500000 0.100688
O O16 0.852799 0.500000 0.685666
#
# Coordination Sequence:
#
# PCOD8098092 Si02
#       6
#     8   8   8   8   8   8
#     4  12  24  39  60  83 112 152 193 236 285 343
#     4  10  21  37  58  85 119 154 190 237 286 336
#     4  10  20  34  55  83 115 149 183 229 288 343
#     4  10  21  37  57  84 116 149 189 236 284 338
#     4  10  20  36  61  88 116 152 192 234 283 343
#     4  11  23  38  57  83 114 151 194 237 284 337
#
# _framework density 18.658899000000002
#
# number of rings (size 3 to 8) (size 9 to 14) (size 15 to 20)
#    0.000    1.500    1.667    5.000    0.000    5.667 
#    0.000    0.833    0.000    0.000    0.000    0.000 
#    0.000    0.000    0.000    0.000    0.000    0.000 
#
# Total GULP energy -297724.140985 kJ/mol
# GULP energy per Si atom -12405.172541 kJ/mol
# Density = 1.861643 g / cm^3
# Si number density = 18.658899 Si / 1000 Ang^3
#
#
#
# Elastic Constant Matrix: (Units=GPa)
#
#
# Indices 1 2 3 4 5 6 
#
# 1 84.7101 18.7562 25.7108 0.0000 -9.4543 0.0000
# 2 18.7562 68.5213 25.4688 0.0000 -2.6353 0.0000
# 3 25.7108 25.4688 88.9478 0.0000 -9.3386 0.0000
# 4 0.0000 0.0000 0.0000 18.2705 0.0000 -4.0442
# 5 -9.4543 -2.6353 -9.3386 0.0000 30.9776 0.0000
# 6 0.0000 0.0000 0.0000 -4.0442 0.0000 34.2366
#
#
#
# Elastic Compliance Matrix: (Units=1/GPa)
#
#
# Indices 1 2 3 4 5 6 
#
# 1 0.013581 -0.002529 -0.002880 0.000000 0.003061 0.000000
# 2 -0.002529 0.016803 -0.004142 0.000000 -0.000591 0.000000
# 3 -0.002880 -0.004142 0.013561 0.000000 0.002857 0.000000
# 4 0.000000 0.000000 0.000000 0.056203 0.000000 0.006639
# 5 0.003061 -0.000591 0.002857 0.000000 0.034027 0.000000
# 6 0.000000 0.000000 0.000000 0.006639 0.000000 0.029993
#
#
# Mechanical properties :
#
#
# Convention : Reuss Voigt Hill
#
# Bulk Modulus (GPa) = 40.25439 42.45010 41.35224
# Shear Modulus (GPa) = 26.10272 28.17982 27.14127
#
# Velocity S-wave (km/s) = 3.74430 3.89042 3.81806
# Velocity P-wave (km/s) = 6.34931 6.55595 6.45346
#
# Compressibility (1/GPa) = 0.02484201
#
# Stress axis : x y z
#
# Youngs Moduli (GPa) = 73.63348 59.51228 73.74064
#
# Poissons Ratio (x) = 0.15052 0.21237
# Poissons Ratio (y) = 0.18624 0.30546
# Poissons Ratio (z) = 0.21206 0.24652
#
# Static dielectric constant tensor:
#      x y z
#    x 3.515150 0.000000 0.077330 
#    y 0.000000 3.494200 0.000000 
#    z 0.077330 0.000000 3.508640 
# 
# 
# High freq. dielectric constant tensor:
#      x y z
#    x 1.725650 0.000000 0.000830 
#    y 0.000000 1.732130 0.000000 
#    z 0.000830 0.000000 1.725420 
# 
# From -- ./inp_files/172259.got.cif
#   From: 2010.06.25/outbox.cif.g09.slc.cpg/sg12_87_cif.got.tgz:172259.got - 2010.06.28 00:19:55.
