data_PCOD8098346
_publ_section_title
;
Structure prediction by ZEFSAII (Michael W. Deem and Ramdas Pophale) SiO2 
 PCOD8098346
Probable space group: C 2/M
;
_chemical_formula_sum "Si O2"
_cell_formula_units_Z 56
_cell_length_a 20.354417
_cell_length_b 9.525489
_cell_length_c 14.490982
_cell_angle_alpha 90.000000
_cell_angle_beta 86.011025
_cell_angle_gamma 90.000000
_cell_volume 2802.788907
_symmetry_space_group_name_H-M "C 2/M"
_symmetry_group_IT_number 12
_symmetry_cell_setting 'monoclinic'
loop_
_space_group_symop_operation_xyz
x,y,z
-x,y,-z
-x,-y,-z
x,-y,z
1/2+x,1/2+y,z
1/2-x,1/2+y,-z
1/2-x,1/2-y,-z
1/2+x,1/2-y,z
loop_
_atom_site_type_symbol
_atom_site_label
_atom_site_fract_x
_atom_site_fract_y
_atom_site_fract_z
Si Si1 0.370767 0.333782 0.880371
Si Si2 0.259354 0.162022 0.211037
Si Si3 0.862459 0.161537 0.087696
Si Si4 0.899142 0.658994 0.554975
Si Si5 0.037023 0.342245 0.638779
Si Si6 0.221709 0.162920 0.417736
Si Si7 0.012705 0.839126 0.809692
O O1 0.378733 0.500000 0.883896
O O2 0.312112 0.285528 0.818457
O O3 0.441004 0.271679 0.838999
O O4 0.354823 0.278663 0.984888
O O5 0.316950 0.250482 0.160183
O O6 0.264828 0.180852 0.320943
O O7 0.268697 0.000000 0.182180
O O8 0.939217 0.176772 0.107396
O O9 0.839774 0.000000 0.096666
O O10 0.873012 0.500000 0.573582
O O11 0.907798 0.683753 0.444409
O O12 0.849676 0.774611 0.599161
O O13 0.966409 0.683897 0.601061
O O14 0.042873 0.500000 0.676376
O O15 0.048225 0.238104 0.721709
O O16 0.250000 0.250000 0.500000
O O17 0.215998 0.000000 0.446059
O O18 0.004647 0.000000 0.780996
#
# Coordination Sequence:
#
# PCOD8098346 Si02
#       7
#     8   8   8   8   8   8   8
#     4   9  18  37  61  83 112 149 190 234 282 336
#     4  10  22  39  59  82 111 151 191 232 283 338
#     4  10  21  36  58  87 116 148 186 234 287 336
#     4   9  19  37  57  79 109 147 189 232 280 335
#     4   9  19  35  56  81 112 148 184 228 285 339
#     4  11  24  39  57  82 113 150 190 234 283 336
#     4  10  20  34  56  85 115 146 188 234 280 336
#
# _framework density 19.980098999999999
#
# number of rings (size 3 to 8) (size 9 to 14) (size 15 to 20)
#    0.000    2.286    0.000    3.000    2.000    5.714 
#    0.000    2.857    0.000    1.714    0.000    0.000 
#    0.000    0.000    0.000    0.000    0.000    0.000 
#
# Total GULP energy -347205.070830 kJ/mol
# GULP energy per Si atom -12400.181101 kJ/mol
# Density = 1.993462 g / cm^3
# Si number density = 19.980099 Si / 1000 Ang^3
#
#
#
# Elastic Constant Matrix: (Units=GPa)
#
#
# Indices 1 2 3 4 5 6 
#
# 1 67.5526 26.6670 13.1613 0.0000 -4.5606 0.0000
# 2 26.6670 74.7996 39.2537 0.0000 -4.9563 0.0000
# 3 13.1613 39.2537 99.4588 0.0000 2.5280 0.0000
# 4 0.0000 0.0000 0.0000 29.9275 0.0000 -2.1517
# 5 -4.5606 -4.9563 2.5280 0.0000 27.3757 0.0000
# 6 0.0000 0.0000 0.0000 -2.1517 0.0000 31.4065
#
#
#
# Elastic Compliance Matrix: (Units=1/GPa)
#
#
# Indices 1 2 3 4 5 6 
#
# 1 0.017314 -0.006091 0.000067 0.000000 0.001776 0.000000
# 2 -0.006091 0.019381 -0.006923 0.000000 0.003134 0.000000
# 3 0.000067 -0.006923 0.012839 0.000000 -0.002428 0.000000
# 4 0.000000 0.000000 0.000000 0.033579 0.000000 0.002301
# 5 0.001776 0.003134 -0.002428 0.000000 0.037616 0.000000
# 6 0.000000 0.000000 0.000000 0.002301 0.000000 0.031998
#
#
# Mechanical properties :
#
#
# Convention : Reuss Voigt Hill
#
# Bulk Modulus (GPa) = 42.29595 44.44168 43.36882
# Shear Modulus (GPa) = 26.80948 28.59056 27.70002
#
# Velocity S-wave (km/s) = 3.66705 3.78690 3.72745
# Velocity P-wave (km/s) = 6.25657 6.43522 6.34652
#
# Compressibility (1/GPa) = 0.02364292
#
# Stress axis : x y z
#
# Youngs Moduli (GPa) = 57.75578 51.59685 77.88488
#
# Poissons Ratio (x) = 0.31425 -0.00525
# Poissons Ratio (y) = 0.35176 0.53919
# Poissons Ratio (z) = -0.00389 0.35720
#
# Static dielectric constant tensor:
#      x y z
#    x 3.676990 0.000000 -0.027170 
#    y 0.000000 3.477430 0.000000 
#    z -0.027170 0.000000 3.800860 
# 
# 
# High freq. dielectric constant tensor:
#      x y z
#    x 1.784590 0.000000 0.004230 
#    y 0.000000 1.756730 0.000000 
#    z 0.004230 0.000000 1.786470 
# 
# From -- ./inp_files/230841.got.cif
#   From: 2010.06.25/outbox.cif.g09.slc.cpg/sg12_116_cif.got.tgz:230841.got - 2010.06.28 00:19:55.
