data_PCOD8098862
_publ_section_title
;
Structure prediction by ZEFSAII (Michael W. Deem and Ramdas Pophale) SiO2 
 PCOD8098862
Probable space group: C 2/M
;
_chemical_formula_sum "Si O2"
_cell_formula_units_Z 56
_cell_length_a 19.894749
_cell_length_b 9.589121
_cell_length_c 16.192361
_cell_angle_alpha 90.000000
_cell_angle_beta 78.665699
_cell_angle_gamma 90.000000
_cell_volume 3028.822258
_symmetry_space_group_name_H-M "C 2/M"
_symmetry_group_IT_number 12
_symmetry_cell_setting 'monoclinic'
loop_
_space_group_symop_operation_xyz
x,y,z
-x,y,-z
-x,-y,-z
x,-y,z
1/2+x,1/2+y,z
1/2-x,1/2+y,-z
1/2-x,1/2-y,-z
1/2+x,1/2-y,z
loop_
_atom_site_type_symbol
_atom_site_label
_atom_site_fract_x
_atom_site_fract_y
_atom_site_fract_z
Si Si1 0.589961 0.840084 0.710511
Si Si2 0.226521 0.660378 0.761937
Si Si3 0.378382 0.662701 0.719285
Si Si4 0.883128 0.161287 0.903175
Si Si5 0.172220 0.162721 0.918330
Si Si6 0.490247 0.161870 0.595529
Si Si7 0.034123 0.842883 0.859997
O O1 0.669000 0.792700 0.708312
O O2 0.563887 0.815269 0.623209
O O3 0.538206 0.754558 0.779345
O O4 0.581956 0.000000 0.737724
O O5 0.216405 0.500000 0.790196
O O6 0.301025 0.682609 0.702876
O O7 0.222146 0.748127 0.848232
O O8 0.400508 0.500000 0.712748
O O9 0.376454 0.725649 0.813193
O O10 0.429770 0.749411 0.650754
O O11 0.960262 0.183951 0.919355
O O12 0.865526 0.000000 0.898733
O O13 0.829393 0.218729 0.985669
O O14 0.094113 0.187851 0.909217
O O15 0.192884 0.000000 0.907004
O O16 0.500000 0.214150 0.500000
O O17 0.468310 0.000000 0.603975
O O18 0.038632 0.000000 0.824960
#
# Coordination Sequence:
#
# PCOD8098862 Si02
#       7
#     8   8   8   8   8   8   8
#     4   9  17  32  52  72  98 131 162 196 246 300
#     4   9  19  34  50  71 103 138 167 198 242 292
#     4  10  20  35  54  75 101 133 166 202 245 294
#     4   9  16  27  45  70 100 131 168 209 244 278
#     4   9  17  28  45  70  99 135 174 207 238 278
#     4  10  21  37  57  79 100 123 157 204 254 301
#     4   9  15  26  46  70  97 129 168 208 243 280
#
# _framework density 18.489035999999999
#
# number of rings (size 3 to 8) (size 9 to 14) (size 15 to 20)
#    0.000    2.714    1.429    0.429    0.000    3.143 
#    0.000    2.143    0.000    3.429    0.000    0.000 
#    0.000    0.000    0.000    0.000    0.000    0.000 
#
# Total GULP energy -346920.984667 kJ/mol
# GULP energy per Si atom -12390.035167 kJ/mol
# Density = 1.844695 g / cm^3
# Si number density = 18.489036 Si / 1000 Ang^3
#
#
#
# Elastic Constant Matrix: (Units=GPa)
#
#
# Indices 1 2 3 4 5 6 
#
# 1 68.1920 25.7426 56.8698 0.0000 -5.9659 0.0000
# 2 25.7426 48.0755 46.5254 0.0000 -0.6320 0.0000
# 3 56.8698 46.5254 120.9617 0.0000 2.8472 0.0000
# 4 0.0000 0.0000 0.0000 27.2741 0.0000 -3.9274
# 5 -5.9659 -0.6320 2.8472 0.0000 17.8772 0.0000
# 6 0.0000 0.0000 0.0000 -3.9274 0.0000 19.0646
#
#
#
# Elastic Compliance Matrix: (Units=1/GPa)
#
#
# Indices 1 2 3 4 5 6 
#
# 1 0.026229 -0.002762 -0.011516 0.000000 0.010489 0.000000
# 2 -0.002762 0.033610 -0.011679 0.000000 0.002127 0.000000
# 3 -0.011516 -0.011679 0.018342 0.000000 -0.007177 0.000000
# 4 0.000000 0.000000 0.000000 0.037786 0.000000 0.007784
# 5 0.010489 0.002127 -0.007177 0.000000 0.060656 0.000000
# 6 0.000000 0.000000 0.000000 0.007784 0.000000 0.054057
#
#
# Mechanical properties :
#
#
# Convention : Reuss Voigt Hill
#
# Bulk Modulus (GPa) = 38.07019 55.05608 46.56314
# Shear Modulus (GPa) = 17.16159 20.04926 18.60542
#
# Velocity S-wave (km/s) = 3.04995 3.29657 3.17566
# Velocity P-wave (km/s) = 5.74790 6.65824 6.21975
#
# Compressibility (1/GPa) = 0.02626727
#
# Stress axis : x y z
#
# Youngs Moduli (GPa) = 38.12621 29.75324 54.51904
#
# Poissons Ratio (x) = 0.08218 0.62784
# Poissons Ratio (y) = 0.10530 0.63672
# Poissons Ratio (z) = 0.43906 0.34748
#
# Static dielectric constant tensor:
#      x y z
#    x 3.629910 0.000000 0.136630 
#    y 0.000000 3.259050 0.000000 
#    z 0.136630 0.000000 3.328710 
# 
# 
# High freq. dielectric constant tensor:
#      x y z
#    x 1.729020 0.000000 0.004400 
#    y 0.000000 1.695250 0.000000 
#    z 0.004400 0.000000 1.691510 
# 
# From -- ./inp_files/280888.got.cif
#   From: 2010.06.25/outbox.cif.g09.slc.cpg/sg12_141_cif.got.tgz:280888.got - 2010.06.28 00:19:55.
