data_PCOD8098390
_publ_section_title
;
Structure prediction by ZEFSAII (Michael W. Deem and Ramdas Pophale) SiO2 
 PCOD8098390
Probable space group: C 2/M
;
_chemical_formula_sum "Si O2"
_cell_formula_units_Z 56
_cell_length_a 24.841886
_cell_length_b 9.034897
_cell_length_c 17.144376
_cell_angle_alpha 90.000000
_cell_angle_beta 45.932014
_cell_angle_gamma 90.000000
_cell_volume 2764.810107
_symmetry_space_group_name_H-M "C 2/M"
_symmetry_group_IT_number 12
_symmetry_cell_setting 'monoclinic'
loop_
_space_group_symop_operation_xyz
x,y,z
-x,y,-z
-x,-y,-z
x,-y,z
1/2+x,1/2+y,z
1/2-x,1/2+y,-z
1/2-x,1/2-y,-z
1/2+x,1/2-y,z
loop_
_atom_site_type_symbol
_atom_site_label
_atom_site_fract_x
_atom_site_fract_y
_atom_site_fract_z
Si Si1 0.832394 0.170575 0.250501
Si Si2 0.918560 0.672082 0.852647
Si Si3 0.412534 0.833326 0.596610
Si Si4 0.328916 0.829217 0.093052
Si Si5 0.829402 0.174355 0.811926
Si Si6 0.574983 0.328274 0.695351
Si Si7 0.674109 0.172635 0.472065
O O1 0.849711 0.250158 0.152178
O O2 0.902818 0.195169 0.236624
O O3 0.757430 0.230487 0.368179
O O4 0.819473 0.000000 0.243274
O O5 0.923991 0.500000 0.825647
O O6 0.853025 0.744085 0.867270
O O7 0.998329 0.744367 0.753950
O O8 0.897162 0.696627 0.964489
O O9 0.500000 0.818538 0.500000
O O10 0.387398 0.715709 0.685915
O O11 0.376959 0.792080 0.550346
O O12 0.389315 0.000000 0.645424
O O13 0.252442 0.767932 0.131654
O O14 0.317514 0.000000 0.124386
O O15 0.830371 0.000000 0.826350
O O16 0.563501 0.500000 0.687384
O O17 0.642838 0.266094 0.575496
O O18 0.673310 0.000000 0.495665
#
# Coordination Sequence:
#
# PCOD8098390 Si02
#       7
#     8   8   8   8   8   8   8
#     4  10  22  40  63  90 121 160 202 245 299 359
#     4  11  24  42  62  86 120 162 203 245 301 363
#     4  10  20  34  56  86 121 160 197 235 289 357
#     4  10  23  41  63  91 120 156 202 249 299 356
#     4  11  22  38  61  91 121 151 196 249 301 353
#     4  11  24  40  60  90 123 157 202 254 302 347
#     4  10  20  37  60  88 122 161 201 239 295 364
#
# _framework density 20.254555
#
# number of rings (size 3 to 8) (size 9 to 14) (size 15 to 20)
#    0.000    1.571    1.429    3.000    0.000    6.000 
#    0.000    2.857    0.000    0.000    0.000    0.000 
#    0.000    0.000    0.000    0.000    0.000    0.000 
#
# Total GULP energy -347335.394705 kJ/mol
# GULP energy per Si atom -12404.835525 kJ/mol
# Density = 2.020845 g / cm^3
# Si number density = 20.254555 Si / 1000 Ang^3
#
#
#
# Elastic Constant Matrix: (Units=GPa)
#
#
# Indices 1 2 3 4 5 6 
#
# 1 59.5762 18.8658 -12.9346 -0.0065 -5.5881 0.0054
# 2 18.8658 75.4701 11.0340 -0.0035 1.3221 0.0026
# 3 -12.9346 11.0340 -5.2101 -0.0346 -31.7968 0.0197
# 4 -0.0065 -0.0035 -0.0346 38.5993 -0.0282 1.7448
# 5 -5.5881 1.3221 -31.7968 -0.0282 -1.6303 0.0143
# 6 0.0054 0.0026 0.0197 1.7448 0.0143 35.8906
#
#
#
# Elastic Compliance Matrix: (Units=1/GPa)
#
#
# Indices 1 2 3 4 5 6 
#
# 1 0.016641 -0.003634 -0.002686 -0.000006 -0.007590 0.000003
# 2 -0.003634 0.013919 0.000902 0.000006 0.006161 -0.000004
# 3 -0.002686 0.000902 0.002067 -0.000021 -0.030383 0.000012
# 4 -0.000006 0.000006 -0.000021 0.025964 -0.000021 -0.001262
# 5 -0.007590 0.006161 -0.030383 -0.000021 0.010204 0.000014
# 6 0.000003 -0.000004 0.000012 -0.001262 0.000014 0.027924
#
#
# Mechanical properties :
#
#
# Convention : Reuss Voigt Hill
#
# Bulk Modulus (GPa) = 45.89416 18.19628 32.04522
# Shear Modulus (GPa) = 43.54628 22.09664 32.82146
#
# Velocity S-wave (km/s) = 4.64179 3.30653 4.02985
# Velocity P-wave (km/s) = 7.17190 4.85601 6.12442
#
# Compressibility (1/GPa) = 0.02178927
#
# Stress axis : x y z
#
# Youngs Moduli (GPa) = 60.09312 71.84429 483.68091
#
# Poissons Ratio (x) = 0.26109 1.29938
# Poissons Ratio (y) = 0.21838 -0.43604
# Poissons Ratio (z) = 0.16144 -0.06477
#
# Static dielectric constant tensor:
#      x y z
#    x 3.696850 0.000000 -0.004040 
#    y 0.000000 3.662820 0.000000 
#    z -0.004040 0.000000 3.582000 
# 
# 
# High freq. dielectric constant tensor:
#      x y z
#    x 1.801900 0.000000 0.001520 
#    y 0.000000 1.787240 0.000000 
#    z 0.001520 0.000000 1.793470 
# 
# From -- ./inp_files/288162.got.cif
#   From: 2010.06.25/outbox.cif.g09.slc.cpg/sg12_145_cif.got.tgz:288162.got - 2010.06.28 00:19:55.
