data_PCOD8098811
_publ_section_title
;
Structure prediction by ZEFSAII (Michael W. Deem and Ramdas Pophale) SiO2 
 PCOD8098811
Probable space group: C 2/M
;
_chemical_formula_sum "Si O2"
_cell_formula_units_Z 64
_cell_length_a 18.221743
_cell_length_b 11.908694
_cell_length_c 22.073017
_cell_angle_alpha 90.000000
_cell_angle_beta 135.902440
_cell_angle_gamma 90.000000
_cell_volume 3333.124127
_symmetry_space_group_name_H-M "C 2/M"
_symmetry_group_IT_number 12
_symmetry_cell_setting 'monoclinic'
loop_
_space_group_symop_operation_xyz
x,y,z
-x,y,-z
-x,-y,-z
x,-y,z
1/2+x,1/2+y,z
1/2-x,1/2+y,-z
1/2-x,1/2-y,-z
1/2+x,1/2-y,z
loop_
_atom_site_type_symbol
_atom_site_label
_atom_site_fract_x
_atom_site_fract_y
_atom_site_fract_z
Si Si1 0.052338 0.627052 0.123710
Si Si2 0.227590 0.214929 0.200332
Si Si3 0.170935 0.127167 0.915541
Si Si4 0.454061 0.871510 0.318519
Si Si5 0.510310 0.786306 0.226839
Si Si6 0.644568 0.736745 0.022556
Si Si7 0.804757 0.128476 0.689103
Si Si8 0.412096 0.868002 0.491080
O O1 0.037373 0.500000 0.091718
O O2 0.174305 0.663256 0.182681
O O3 0.027057 0.632055 0.179986
O O4 0.974213 0.713914 0.042814
O O5 0.354977 0.212114 0.271397
O O6 0.180082 0.178969 0.106797
O O7 0.193471 0.136088 0.236383
O O8 0.286687 0.156098 0.958900
O O9 0.096049 0.215409 0.838677
O O10 0.142951 0.000000 0.881342
O O11 0.158410 0.139291 0.980733
O O12 0.501407 0.864588 0.279850
O O13 0.552568 0.838220 0.419835
O O14 0.416900 0.000000 0.309558
O O15 0.603653 0.697828 0.287927
O O16 0.699958 0.181627 0.596267
O O17 0.821562 0.000000 0.680859
O O18 0.500000 0.813998 0.500000
O O19 0.404893 0.000000 0.475534
#
# Coordination Sequence:
#
# PCOD8098811 Si02
#       8
#     8   8   8   8   8   8   8   8
#     4  10  22  39  57  77 111 150 183 232 278 323
#     4  11  21  35  55  85 109 138 188 230 273 333
#     4  10  20  35  53  77 114 149 180 230 278 322
#     4  11  21  36  59  84 112 144 185 234 272 323
#     4  10  21  37  55  84 113 145 189 222 273 340
#     4  10  21  36  52  81 108 143 195 227 271 337
#     4  10  20  36  58  84 117 146 175 229 281 326
#     4   9  17  32  56  85 111 142 181 220 278 333
#
# _framework density 19.201205000000002
#
# number of rings (size 3 to 8) (size 9 to 14) (size 15 to 20)
#    0.000    1.875    2.500    1.875    0.000    3.000 
#    0.000    0.625    0.000    6.750    0.000    8.750 
#    0.000    0.000    0.000    0.000    0.000    0.000 
#
# Total GULP energy -396595.138163 kJ/mol
# GULP energy per Si atom -12393.598068 kJ/mol
# Density = 1.915750 g / cm^3
# Si number density = 19.201205 Si / 1000 Ang^3
#
#
#
# Elastic Constant Matrix: (Units=GPa)
#
#
# Indices 1 2 3 4 5 6 
#
# 1 79.0711 16.7373 34.1859 0.0000 1.1248 0.0000
# 2 16.7373 53.7041 22.9057 0.0000 5.7924 0.0000
# 3 34.1859 22.9057 120.7424 0.0000 -3.5954 0.0000
# 4 0.0000 0.0000 0.0000 29.8166 0.0000 14.2204
# 5 1.1248 5.7924 -3.5954 0.0000 30.9712 0.0000
# 6 0.0000 0.0000 0.0000 14.2204 0.0000 36.6949
#
#
#
# Elastic Compliance Matrix: (Units=1/GPa)
#
#
# Indices 1 2 3 4 5 6 
#
# 1 0.014872 -0.003037 -0.003646 0.000000 -0.000395 0.000000
# 2 -0.003037 0.021453 -0.003338 0.000000 -0.004289 0.000000
# 3 -0.003646 -0.003338 0.010005 0.000000 0.001918 0.000000
# 4 0.000000 0.000000 0.000000 0.041142 0.000000 -0.015944
# 5 -0.000395 -0.004289 0.001918 0.000000 0.033327 0.000000
# 6 0.000000 0.000000 0.000000 -0.015944 0.000000 0.033430
#
#
# Mechanical properties :
#
#
# Convention : Reuss Voigt Hill
#
# Bulk Modulus (GPa) = 38.04046 44.57504 41.30775
# Shear Modulus (GPa) = 27.31721 31.47579 29.39650
#
# Velocity S-wave (km/s) = 3.77594 4.05317 3.91701
# Velocity P-wave (km/s) = 6.23416 6.72082 6.48206
#
# Compressibility (1/GPa) = 0.02628780
#
# Stress axis : x y z
#
# Youngs Moduli (GPa) = 67.24146 46.61291 99.95232
#
# Poissons Ratio (x) = 0.14157 0.36445
# Poissons Ratio (y) = 0.20422 0.33361
# Poissons Ratio (z) = 0.24518 0.15558
#
# Static dielectric constant tensor:
#      x y z
#    x 3.577330 0.000000 0.061570 
#    y 0.000000 3.075330 0.000000 
#    z 0.061570 0.000000 3.718140 
# 
# 
# High freq. dielectric constant tensor:
#      x y z
#    x 1.756970 0.000000 -0.001080 
#    y 0.000000 1.706740 0.000000 
#    z -0.001080 0.000000 1.751710 
# 
# From -- ./inp_files/315747.got.cif
#   From: 2010.06.25/outbox.cif.g09.slc.cpg/sg12_158_cif.got.tgz:315747.got - 2010.06.28 00:19:55.
