data_PCOD8098667
_publ_section_title
;
Structure prediction by ZEFSAII (Michael W. Deem and Ramdas Pophale) SiO2 
 PCOD8098667
Probable space group: C 2/M
;
_chemical_formula_sum "Si O2"
_cell_formula_units_Z 36
_cell_length_a 21.430478
_cell_length_b 11.679459
_cell_length_c 8.734233
_cell_angle_alpha 90.000000
_cell_angle_beta 125.575138
_cell_angle_gamma 90.000000
_cell_volume 1778.109822
_symmetry_space_group_name_H-M "C 2/M"
_symmetry_group_IT_number 12
_symmetry_cell_setting 'monoclinic'
loop_
_space_group_symop_operation_xyz
x,y,z
-x,y,-z
-x,-y,-z
x,-y,z
1/2+x,1/2+y,z
1/2-x,1/2+y,-z
1/2-x,1/2-y,-z
1/2+x,1/2-y,z
loop_
_atom_site_type_symbol
_atom_site_label
_atom_site_fract_x
_atom_site_fract_y
_atom_site_fract_z
Si Si1 0.000000 0.299341 0.000000
Si Si2 0.382667 0.000000 0.312555
Si Si3 0.372239 0.366103 0.931096
Si Si4 0.004592 0.500000 0.244276
Si Si5 0.783594 0.282943 0.207815
Si Si6 0.915289 0.129919 0.347840
O O1 0.072102 0.214359 0.087645
O O2 0.015109 0.383003 0.164589
O O3 0.328663 0.105041 0.239704
O O4 0.421296 0.000000 0.200975
O O5 0.436642 0.000000 0.534658
O O6 0.375122 0.500000 0.881952
O O7 0.287350 0.311212 0.779702
O O8 0.396688 0.358266 0.142738
O O9 0.847385 0.189110 0.352270
O O10 0.750000 0.250000 0.000000
O O11 0.000000 0.185229 0.500000
O O12 0.916982 0.000000 0.407253
#
# Coordination Sequence:
#
# PCOD8098667 Si02
#       6
#     4   4   8   4   8   8
#     4  11  23  42  60  86 129 167 204 246 318 379
#     4  11  22  40  68  91 119 152 213 257 309 354
#     4  10  20  38  59  85 119 168 205 243 307 377
#     4  10  24  40  62  94 118 160 204 260 306 375
#     4  10  20  34  61  91 121 153 199 256 306 355
#     4   9  19  34  58  92 123 152 205 259 302 351
#
# _framework density 20.246217999999999
#
# number of rings (size 3 to 8) (size 9 to 14) (size 15 to 20)
#    0.000    2.000    1.111    3.000    7.778    0.000 
#    4.000    1.111    0.000    0.000    0.000    0.000 
#    0.000    0.000    0.000    0.000    0.000    0.000 
#
# Total GULP energy -223003.430980 kJ/mol
# GULP energy per Si atom -12389.079499 kJ/mol
# Density = 2.020014 g / cm^3
# Si number density = 20.246218 Si / 1000 Ang^3
#
#
#
# Elastic Constant Matrix: (Units=GPa)
#
#
# Indices 1 2 3 4 5 6 
#
# 1 182.6280 96.3802 39.3435 0.0000 30.8025 0.0000
# 2 96.3802 134.1013 18.6815 0.0000 16.5925 0.0000
# 3 39.3435 18.6815 32.0870 0.0000 12.4903 0.0000
# 4 0.0000 0.0000 0.0000 27.4293 0.0000 7.3625
# 5 30.8025 16.5925 12.4903 0.0000 37.3528 0.0000
# 6 0.0000 0.0000 0.0000 7.3625 0.0000 60.6954
#
#
#
# Elastic Compliance Matrix: (Units=1/GPa)
#
#
# Indices 1 2 3 4 5 6 
#
# 1 0.011432 -0.006546 -0.008816 0.000000 -0.003571 0.000000
# 2 -0.006546 0.012044 0.001145 0.000000 -0.000335 0.000000
# 3 -0.008816 0.001145 0.044464 0.000000 -0.008107 0.000000
# 4 0.000000 0.000000 0.000000 0.037684 0.000000 -0.004571
# 5 -0.003571 -0.000335 -0.008107 0.000000 0.032576 0.000000
# 6 0.000000 0.000000 0.000000 -0.004571 0.000000 0.017030
#
#
# Mechanical properties :
#
#
# Convention : Reuss Voigt Hill
#
# Bulk Modulus (GPa) = 25.31305 73.06964 49.19135
# Shear Modulus (GPa) = 25.40225 38.05623 31.72924
#
# Velocity S-wave (km/s) = 3.54597 4.34022 3.96304
# Velocity P-wave (km/s) = 5.41248 7.82851 6.72980
#
# Compressibility (1/GPa) = 0.03950531
#
# Stress axis : x y z
#
# Youngs Moduli (GPa) = 87.47517 83.03035 22.49021
#
# Poissons Ratio (x) = 0.54353 0.19827
# Poissons Ratio (y) = 0.57263 -0.02575
# Poissons Ratio (z) = 0.77115 -0.09505
#
# Static dielectric constant tensor:
#      x y z
#    x 4.172560 0.000000 0.445600 
#    y 0.000000 4.023270 0.000000 
#    z 0.445600 0.000000 3.474600 
# 
# 
# High freq. dielectric constant tensor:
#      x y z
#    x 1.794640 0.000000 0.031960 
#    y 0.000000 1.813210 0.000000 
#    z 0.031960 0.000000 1.764280 
# 
# From -- ./inp_files/83846.got.cif
#   From: 2010.06.25/outbox.cif.g09.slc.cpg/sg12_42_cif.got.tgz:83846.got - 2010.06.28 00:19:55.
