data_PCOD8098111
_publ_section_title
;
Structure prediction by ZEFSAII (Michael W. Deem and Ramdas Pophale) SiO2 
 PCOD8098111
Probable space group: C 2/M
;
_chemical_formula_sum "Si O2"
_cell_formula_units_Z 56
_cell_length_a 15.090233
_cell_length_b 8.921236
_cell_length_c 22.455277
_cell_angle_alpha 90.000000
_cell_angle_beta 107.964307
_cell_angle_gamma 90.000000
_cell_volume 2875.633467
_symmetry_space_group_name_H-M "C 2/M"
_symmetry_group_IT_number 12
_symmetry_cell_setting 'monoclinic'
loop_
_space_group_symop_operation_xyz
x,y,z
-x,y,-z
-x,-y,-z
x,-y,z
1/2+x,1/2+y,z
1/2-x,1/2+y,-z
1/2-x,1/2-y,-z
1/2+x,1/2-y,z
loop_
_atom_site_type_symbol
_atom_site_label
_atom_site_fract_x
_atom_site_fract_y
_atom_site_fract_z
Si Si1 0.657499 0.828349 0.130272
Si Si2 0.839256 0.676674 0.208098
Si Si3 0.878075 0.175813 0.570880
Si Si4 0.843057 0.822703 0.995071
Si Si5 0.329286 0.175398 0.441830
Si Si6 0.440615 0.823543 0.348617
Si Si7 0.546257 0.829158 0.883675
O O1 0.740719 0.759885 0.186050
O O2 0.638732 0.734938 0.067080
O O3 0.564220 0.817143 0.150786
O O4 0.680488 0.000000 0.118332
O O5 0.821014 0.500000 0.205227
O O6 0.892197 0.730511 0.278013
O O7 0.900505 0.725844 0.164139
O O8 0.779756 0.219243 0.580984
O O9 0.883691 0.239859 0.505370
O O10 0.959310 0.245615 0.627503
O O11 0.892427 0.000000 0.570575
O O12 0.833086 0.000000 0.991652
O O13 0.750000 0.750000 0.000000
O O14 0.927577 0.775529 0.055319
O O15 0.373980 0.226527 0.388941
O O16 0.342690 0.000000 0.456149
O O17 0.457086 0.000000 0.352243
O O18 0.574697 0.000000 0.904974
#
# Coordination Sequence:
#
# PCOD8098111 Si02
#       7
#     8   8   8   8   8   8   8
#     4  11  23  39  60  86 115 149 188 234 287 336
#     4  10  22  40  59  80 111 153 193 231 276 336
#     4  10  20  34  55  84 113 143 183 233 285 331
#     4  12  23  37  61  89 116 147 186 234 287 339
#     4   9  19  36  56  80 113 148 183 228 280 336
#     4  10  21  37  57  80 110 151 192 226 277 335
#     4  10  22  40  60  84 116 150 186 233 287 337
#
# _framework density 19.473970999999999
#
# number of rings (size 3 to 8) (size 9 to 14) (size 15 to 20)
#    0.000    1.714    1.429    3.000    0.000    7.429 
#    0.000    0.000    0.000    0.000    0.000    0.000 
#    0.000    0.000    0.000    0.000    0.000    0.000 
#
# Total GULP energy -347330.937510 kJ/mol
# GULP energy per Si atom -12404.676340 kJ/mol
# Density = 1.942965 g / cm^3
# Si number density = 19.473971 Si / 1000 Ang^3
#
#
#
# Elastic Constant Matrix: (Units=GPa)
#
#
# Indices 1 2 3 4 5 6 
#
# 1 87.3767 31.3314 46.4080 0.0000 24.8153 0.0000
# 2 31.3314 76.3719 46.7673 0.0000 13.7439 0.0000
# 3 46.4080 46.7673 140.1149 0.0000 24.6683 0.0000
# 4 0.0000 0.0000 0.0000 31.6449 0.0000 8.6285
# 5 24.8153 13.7439 24.6683 0.0000 26.3914 0.0000
# 6 0.0000 0.0000 0.0000 8.6285 0.0000 29.1514
#
#
#
# Elastic Compliance Matrix: (Units=1/GPa)
#
#
# Indices 1 2 3 4 5 6 
#
# 1 0.017500 -0.003442 -0.002473 0.000000 -0.012351 0.000000
# 2 -0.003442 0.017516 -0.004393 0.000000 -0.001779 0.000000
# 3 -0.002473 -0.004393 0.010306 0.000000 -0.005020 0.000000
# 4 0.000000 0.000000 0.000000 0.034375 0.000000 -0.010175
# 5 -0.012351 -0.001779 -0.005020 0.000000 0.055123 0.000000
# 6 0.000000 0.000000 0.000000 -0.010175 0.000000 0.037315
#
#
# Mechanical properties :
#
#
# Convention : Reuss Voigt Hill
#
# Bulk Modulus (GPa) = 40.47625 61.43077 50.95351
# Shear Modulus (GPa) = 24.87703 29.39467 27.13585
#
# Velocity S-wave (km/s) = 3.57802 3.88936 3.73693
# Velocity P-wave (km/s) = 6.15626 7.19604 6.69636
#
# Compressibility (1/GPa) = 0.02470585
#
# Stress axis : x y z
#
# Youngs Moduli (GPa) = 57.14233 57.08917 97.02827
#
# Poissons Ratio (x) = 0.19653 0.23993
# Poissons Ratio (y) = 0.19671 0.42627
# Poissons Ratio (z) = 0.14130 0.25081
#
# Static dielectric constant tensor:
#      x y z
#    x 3.726780 0.000000 0.037580 
#    y 0.000000 3.552860 0.000000 
#    z 0.037580 0.000000 3.576140 
# 
# 
# High freq. dielectric constant tensor:
#      x y z
#    x 1.770680 0.000000 0.007210 
#    y 0.000000 1.756560 0.000000 
#    z 0.007210 0.000000 1.752150 
# 
# From -- ./inp_files/339094.got.cif
#   From: 2010.06.25/outbox.cif.g09.slc.cpg/sg12_170_cif.got.tgz:339094.got - 2010.06.28 00:19:55.
