data_PCOD8098323
_publ_section_title
;
Structure prediction by ZEFSAII (Michael W. Deem and Ramdas Pophale) SiO2 
 PCOD8098323
Probable space group: C 2/M
;
_chemical_formula_sum "Si O2"
_cell_formula_units_Z 56
_cell_length_a 33.105561
_cell_length_b 8.497117
_cell_length_c 12.418726
_cell_angle_alpha 90.000000
_cell_angle_beta 120.104382
_cell_angle_gamma 90.000000
_cell_volume 3022.194874
_symmetry_space_group_name_H-M "C 2/M"
_symmetry_group_IT_number 12
_symmetry_cell_setting 'monoclinic'
loop_
_space_group_symop_operation_xyz
x,y,z
-x,y,-z
-x,-y,-z
x,-y,z
1/2+x,1/2+y,z
1/2-x,1/2+y,-z
1/2-x,1/2-y,-z
1/2+x,1/2-y,z
loop_
_atom_site_type_symbol
_atom_site_label
_atom_site_fract_x
_atom_site_fract_y
_atom_site_fract_z
Si Si1 0.548861 0.815226 0.621427
Si Si2 0.393387 0.683751 0.488112
Si Si3 0.557010 0.182094 0.239788
Si Si4 0.887077 0.181161 0.879576
Si Si5 0.295067 0.818418 0.683083
Si Si6 0.198261 0.682108 0.555304
Si Si7 0.540440 0.682935 0.843753
O O1 0.500000 0.774115 0.500000
O O2 0.591037 0.750504 0.606007
O O3 0.552239 0.724807 0.737833
O O4 0.554310 0.000000 0.648758
O O5 0.404615 0.500000 0.512014
O O6 0.422007 0.777004 0.616473
O O7 0.338247 0.714479 0.426077
O O8 0.580860 0.285265 0.180283
O O9 0.501996 0.214147 0.167381
O O10 0.566595 0.000000 0.227662
O O11 0.839636 0.281900 0.816405
O O12 0.872572 0.000000 0.856765
O O13 0.914475 0.224487 0.024679
O O14 0.250545 0.720171 0.665038
O O15 0.307503 0.770437 0.577452
O O16 0.281541 0.000000 0.672305
O O17 0.187064 0.500000 0.559412
O O18 0.526982 0.500000 0.835706
#
# Coordination Sequence:
#
# PCOD8098323 Si02
#       7
#     8   8   8   8   8   8   8
#     4  11  23  39  60  84 112 148 192 239 284 333
#     4  12  23  36  59  85 116 151 188 235 286 337
#     4  12  23  36  55  83 116 153 192 232 283 338
#     4  11  23  38  57  83 117 154 191 233 283 339
#     4  10  20  34  56  84 116 151 188 230 281 339
#     4  10  20  35  56  84 117 149 186 233 283 337
#     4  11  24  40  58  82 113 153 196 235 281 338
#
# _framework density 18.529579999999999
#
# number of rings (size 3 to 8) (size 9 to 14) (size 15 to 20)
#    0.000    1.000    2.857    5.143    0.000    5.714 
#    0.000    0.000    0.000    0.857    0.000    0.000 
#    0.000    0.000    0.000    0.000    0.000    0.000 
#
# Total GULP energy -347411.758474 kJ/mol
# GULP energy per Si atom -12407.562803 kJ/mol
# Density = 1.848741 g / cm^3
# Si number density = 18.529580 Si / 1000 Ang^3
#
#
#
# Elastic Constant Matrix: (Units=GPa)
#
#
# Indices 1 2 3 4 5 6 
#
# 1 83.8350 11.5569 34.8505 0.0000 18.3088 0.0000
# 2 11.5569 41.5939 17.2590 0.0000 8.5401 0.0000
# 3 34.8505 17.2590 93.8874 0.0000 12.6944 0.0000
# 4 0.0000 0.0000 0.0000 26.9334 0.0000 4.0256
# 5 18.3088 8.5401 12.6944 0.0000 19.1540 0.0000
# 6 0.0000 0.0000 0.0000 4.0256 0.0000 31.5692
#
#
#
# Elastic Compliance Matrix: (Units=1/GPa)
#
#
# Indices 1 2 3 4 5 6 
#
# 1 0.016585 -0.000142 -0.004389 0.000000 -0.012881 0.000000
# 2 -0.000142 0.027616 -0.003710 0.000000 -0.009718 0.000000
# 3 -0.004389 -0.003710 0.013369 0.000000 -0.003012 0.000000
# 4 0.000000 0.000000 0.000000 0.037850 0.000000 -0.004826
# 5 -0.012881 -0.009718 -0.003012 0.000000 0.070851 0.000000
# 6 0.000000 0.000000 0.000000 -0.004826 0.000000 0.032292
#
#
# Mechanical properties :
#
#
# Convention : Reuss Voigt Hill
#
# Bulk Modulus (GPa) = 24.33714 38.51656 31.42685
# Shear Modulus (GPa) = 21.85878 25.90798 23.88338
#
# Velocity S-wave (km/s) = 3.43836 3.74330 3.59407
# Velocity P-wave (km/s) = 5.37827 6.28607 5.84981
#
# Compressibility (1/GPa) = 0.04108946
#
# Stress axis : x y z
#
# Youngs Moduli (GPa) = 60.29429 36.21052 74.79887
#
# Poissons Ratio (x) = 0.00516 0.32826
# Poissons Ratio (y) = 0.00859 0.27748
# Poissons Ratio (z) = 0.26460 0.13433
#
# Static dielectric constant tensor:
#      x y z
#    x 3.426370 0.000000 0.077870 
#    y 0.000000 3.489450 0.000000 
#    z 0.077870 0.000000 3.327200 
# 
# 
# High freq. dielectric constant tensor:
#      x y z
#    x 1.717500 0.000000 0.011380 
#    y 0.000000 1.735520 0.000000 
#    z 0.011380 0.000000 1.699680 
# 
# From -- ./inp_files/180849.got.cif
#   From: 2010.06.25/outbox.cif.g09.slc.cpg/sg12_91_cif.got.tgz:180849.got - 2010.06.28 00:19:55.
