data_PCOD8098581
_publ_section_title
;
Structure prediction by ZEFSAII (Michael W. Deem and Ramdas Pophale) SiO2 
 PCOD8098581
Probable space group: C 2/M
;
_chemical_formula_sum "Si O2"
_cell_formula_units_Z 56
_cell_length_a 17.428128
_cell_length_b 18.274424
_cell_length_c 8.595010
_cell_angle_alpha 90.000000
_cell_angle_beta 64.968058
_cell_angle_gamma 90.000000
_cell_volume 2480.296229
_symmetry_space_group_name_H-M "C 2/M"
_symmetry_group_IT_number 12
_symmetry_cell_setting 'monoclinic'
loop_
_space_group_symop_operation_xyz
x,y,z
-x,y,-z
-x,-y,-z
x,-y,z
1/2+x,1/2+y,z
1/2-x,1/2+y,-z
1/2-x,1/2-y,-z
1/2+x,1/2-y,z
loop_
_atom_site_type_symbol
_atom_site_label
_atom_site_fract_x
_atom_site_fract_y
_atom_site_fract_z
Si Si1 0.879817 0.332382 0.329666
Si Si2 0.803948 0.417219 0.145521
Si Si3 0.086837 0.182086 0.843048
Si Si4 0.404820 0.214693 0.631423
Si Si5 0.346209 0.653478 0.900874
Si Si6 0.987682 0.915952 0.334264
Si Si7 0.049780 0.417266 0.208929
O O1 0.801314 0.371703 0.309699
O O2 0.915467 0.266435 0.197428
O O3 0.849917 0.298377 0.521025
O O4 0.953050 0.392788 0.278015
O O5 0.774325 0.500000 0.203144
O O6 0.741839 0.380709 0.074631
O O7 0.899891 0.414117 0.997888
O O8 0.087143 0.130616 0.687812
O O9 0.161716 0.170395 0.906472
O O10 0.000000 0.162040 0.000000
O O11 0.500000 0.238641 0.500000
O O12 0.365838 0.273921 0.782320
O O13 0.403300 0.135536 0.711519
O O14 0.420548 0.594197 0.821336
O O15 0.000000 0.888459 0.500000
O O16 0.959355 0.000000 0.350579
O O17 0.051991 0.500000 0.272237
#
# Coordination Sequence:
#
# PCOD8098581 Si02
#       7
#     8   8   8   8   8   8   8
#     4  11  21  37  61  86 114 149 195 242 292 347
#     4  11  24  39  58  85 117 154 194 240 295 348
#     4  10  20  34  58  85 110 146 194 237 283 345
#     4  10  21  37  61  88 115 150 195 241 291 349
#     4  11  22  38  58  83 119 154 195 241 287 345
#     4  10  20  36  59  85 115 151 192 242 295 343
#     4  10  21  38  59  85 117 152 193 241 291 346
#
# _framework density 22.577949
#
# number of rings (size 3 to 8) (size 9 to 14) (size 15 to 20)
#    0.000    1.571    0.000    7.714    0.000   10.286 
#    0.000    1.429    0.000    1.714    0.000    0.000 
#    0.000    0.000    0.000    0.000    0.000    0.000 
#
# Total GULP energy -347073.290161 kJ/mol
# GULP energy per Si atom -12395.474649 kJ/mol
# Density = 2.252656 g / cm^3
# Si number density = 22.577949 Si / 1000 Ang^3
#
#
#
# Elastic Constant Matrix: (Units=GPa)
#
#
# Indices 1 2 3 4 5 6 
#
# 1 87.9066 48.7013 36.1512 0.0000 41.6375 0.0000
# 2 48.7013 153.8487 43.9455 0.0000 26.8614 0.0000
# 3 36.1512 43.9455 88.4970 0.0000 40.6465 0.0000
# 4 0.0000 0.0000 0.0000 31.4207 0.0000 7.7661
# 5 41.6375 26.8614 40.6465 0.0000 45.5307 0.0000
# 6 0.0000 0.0000 0.0000 7.7661 0.0000 33.1167
#
#
#
# Elastic Compliance Matrix: (Units=1/GPa)
#
#
# Indices 1 2 3 4 5 6 
#
# 1 0.022126 -0.004163 0.002024 0.000000 -0.019585 0.000000
# 2 -0.004163 0.008454 -0.003314 0.000000 0.001778 0.000000
# 3 0.002024 -0.003314 0.020460 0.000000 -0.018161 0.000000
# 4 0.000000 0.000000 0.000000 0.033784 0.000000 -0.007923
# 5 -0.019585 0.001778 -0.018161 0.000000 0.055038 0.000000
# 6 0.000000 0.000000 0.000000 -0.007923 0.000000 0.032054
#
#
# Mechanical properties :
#
#
# Convention : Reuss Voigt Hill
#
# Bulk Modulus (GPa) = 24.91630 65.31647 45.11639
# Shear Modulus (GPa) = 25.48420 35.44390 30.46405
#
# Velocity S-wave (km/s) = 3.36329 3.96643 3.67724
# Velocity P-wave (km/s) = 5.11292 7.06886 6.16890
#
# Compressibility (1/GPa) = 0.04013437
#
# Stress axis : x y z
#
# Youngs Moduli (GPa) = 45.19515 118.28945 48.87598
#
# Poissons Ratio (x) = 0.49241 -0.09892
# Poissons Ratio (y) = 0.18814 0.16198
# Poissons Ratio (z) = -0.09147 0.39202
#
# Static dielectric constant tensor:
#      x y z
#    x 4.028400 0.000000 0.552710 
#    y 0.000000 4.056290 0.000000 
#    z 0.552710 0.000000 4.278590 
# 
# 
# High freq. dielectric constant tensor:
#      x y z
#    x 1.869620 0.000000 0.032680 
#    y 0.000000 1.903010 0.000000 
#    z 0.032680 0.000000 1.882070 
# 
# From -- ./inp_files/75849.got.cif
#   From: 2010.06.25/outbox.cif.g09.slc.cpg/sg12_38_cif.got.tgz:75849.got - 2010.06.28 00:19:55.
