data_PCOD8098443
_publ_section_title
;
Structure prediction by ZEFSAII (Michael W. Deem and Ramdas Pophale) SiO2 
 PCOD8098443
Probable space group: C 2/M
;
_chemical_formula_sum "Si O2"
_cell_formula_units_Z 56
_cell_length_a 19.806031
_cell_length_b 17.363378
_cell_length_c 22.968400
_cell_angle_alpha 90.000000
_cell_angle_beta 157.574538
_cell_angle_gamma 90.000000
_cell_volume 3013.252745
_symmetry_space_group_name_H-M "C 2/M"
_symmetry_group_IT_number 12
_symmetry_cell_setting 'monoclinic'
loop_
_space_group_symop_operation_xyz
x,y,z
-x,y,-z
-x,-y,-z
x,-y,z
1/2+x,1/2+y,z
1/2-x,1/2+y,-z
1/2-x,1/2-y,-z
1/2+x,1/2-y,z
loop_
_atom_site_type_symbol
_atom_site_label
_atom_site_fract_x
_atom_site_fract_y
_atom_site_fract_z
Si Si1 0.298812 0.315992 0.084234
Si Si2 0.648493 0.213828 0.569139
Si Si3 0.429964 0.312971 0.312442
Si Si4 0.355034 0.589835 0.671871
Si Si5 0.589721 0.850340 0.225796
Si Si6 0.173109 0.913829 0.673433
Si Si7 0.255517 0.587410 0.465315
O O1 0.350497 0.281588 0.188682
O O2 0.451901 0.370803 0.180800
O O3 0.250000 0.250000 0.000000
O O4 0.117002 0.359883 0.950766
O O5 0.500000 0.204107 0.500000
O O6 0.546958 0.243489 0.430773
O O7 0.740279 0.131189 0.630450
O O8 0.811792 0.270905 0.715065
O O9 0.289382 0.349045 0.246669
O O10 0.547194 0.388940 0.395087
O O11 0.382816 0.500000 0.709593
O O12 0.236902 0.600094 0.519486
O O13 0.670156 0.916265 0.248814
O O14 0.617776 0.862451 0.317665
O O15 0.000000 0.885528 0.500000
O O16 0.151042 0.000000 0.681401
O O17 0.224892 0.500000 0.423093
#
# Coordination Sequence:
#
# PCOD8098443 Si02
#       7
#     8   8   8   8   8   8   8
#     4  11  24  38  58  85 118 154 193 234 292 347
#     4  11  20  38  62  86 110 144 199 243 288 339
#     4  10  20  34  57  84 115 153 192 235 281 341
#     4  10  23  40  59  84 114 146 190 250 298 337
#     4  11  20  34  56  88 116 154 192 228 278 348
#     4  11  19  33  56  87 122 156 191 233 280 340
#     4   9  18  33  55  82 113 150 191 236 287 337
#
# _framework density 18.584568000000001
#
# number of rings (size 3 to 8) (size 9 to 14) (size 15 to 20)
#    0.000    1.571    5.714    0.857    2.000    4.286 
#    0.000    0.714    0.000    0.000    0.000    1.000 
#    0.000    0.000    0.000    0.000    0.000    0.000 
#
# Total GULP energy -346939.001297 kJ/mol
# GULP energy per Si atom -12390.678618 kJ/mol
# Density = 1.854227 g / cm^3
# Si number density = 18.584568 Si / 1000 Ang^3
#
#
#
# Elastic Constant Matrix: (Units=GPa)
#
#
# Indices 1 2 3 4 5 6 
#
# 1 90.0867 49.9865 46.5465 -0.0092 4.1650 0.0059
# 2 49.9865 97.2964 32.4786 -0.0091 2.4880 -0.0066
# 3 46.5465 32.4786 97.3985 -0.0736 4.4040 -0.0139
# 4 -0.0092 -0.0091 -0.0736 17.8199 -0.0190 0.1747
# 5 4.1650 2.4880 4.4040 -0.0190 33.3651 -0.0097
# 6 0.0059 -0.0066 -0.0139 0.1747 -0.0097 29.2688
#
#
#
# Elastic Compliance Matrix: (Units=1/GPa)
#
#
# Indices 1 2 3 4 5 6 
#
# 1 0.018511 -0.007368 -0.006348 -0.000021 -0.000924 -0.000009
# 2 -0.007368 0.014502 -0.001315 -0.000002 0.000012 0.000004
# 3 -0.006348 -0.001315 0.013781 0.000052 -0.000929 0.000007
# 4 -0.000021 -0.000002 0.000052 0.056121 0.000028 -0.000335
# 5 -0.000924 0.000012 -0.000929 0.000028 0.030208 0.000010
# 6 -0.000009 0.000004 0.000007 -0.000335 0.000010 0.034168
#
#
# Mechanical properties :
#
#
# Convention : Reuss Voigt Hill
#
# Bulk Modulus (GPa) = 59.76350 60.31164 60.03757
# Shear Modulus (GPa) = 24.63901 26.47541 25.55721
#
# Velocity S-wave (km/s) = 3.64507 3.77847 3.71237
# Velocity P-wave (km/s) = 7.06702 7.18044 7.12396
#
# Compressibility (1/GPa) = 0.01673262
#
# Stress axis : x y z
#
# Youngs Moduli (GPa) = 54.02206 68.95715 72.56174
#
# Poissons Ratio (x) = 0.50804 0.46061
# Poissons Ratio (y) = 0.39801 0.09545
# Poissons Ratio (z) = 0.34292 0.09071
#
# Static dielectric constant tensor:
#      x y z
#    x 3.571620 0.000000 -0.036360 
#    y 0.000000 3.241910 -0.000210 
#    z -0.036360 -0.000210 3.514140 
# 
# 
# High freq. dielectric constant tensor:
#      x y z
#    x 1.721980 0.000000 -0.001250 
#    y 0.000000 1.706220 -0.000010 
#    z -0.001250 -0.000010 1.700800 
# 
# From -- ./inp_files/98089.got.cif
#   From: 2010.06.25/outbox.cif.g09.slc.cpg/sg12_50_cif.got.tgz:98089.got - 2010.06.28 00:19:55.
