data_PCOD8098310
_publ_section_title
;
Structure prediction by ZEFSAII (Michael W. Deem and Ramdas Pophale) SiO2 
 PCOD8098310
Probable space group: C 2/M
;
_chemical_formula_sum "Si O2"
_cell_formula_units_Z 48
_cell_length_a 20.994391
_cell_length_b 9.157405
_cell_length_c 20.183463
_cell_angle_alpha 90.000000
_cell_angle_beta 37.840387
_cell_angle_gamma 90.000000
_cell_volume 2380.457195
_symmetry_space_group_name_H-M "C 2/M"
_symmetry_group_IT_number 12
_symmetry_cell_setting 'monoclinic'
loop_
_space_group_symop_operation_xyz
x,y,z
-x,y,-z
-x,-y,-z
x,-y,z
1/2+x,1/2+y,z
1/2-x,1/2+y,-z
1/2-x,1/2-y,-z
1/2+x,1/2-y,z
loop_
_atom_site_type_symbol
_atom_site_label
_atom_site_fract_x
_atom_site_fract_y
_atom_site_fract_z
Si Si1 0.731877 0.171064 0.706502
Si Si2 0.357613 0.673084 0.931124
Si Si3 0.803677 0.842508 0.509410
Si Si4 0.459258 0.340512 0.710921
Si Si5 0.502798 0.828452 0.075079
Si Si6 0.090186 0.671839 0.375387
O O1 0.787000 0.229102 0.594555
O O2 0.610813 0.212067 0.803847
O O3 0.796227 0.258753 0.708191
O O4 0.747645 0.000000 0.707431
O O5 0.340924 0.500000 0.956597
O O6 0.432154 0.706207 0.807786
O O7 0.409737 0.741346 0.954823
O O8 0.250000 0.750000 0.000000
O O9 0.750000 0.750000 0.500000
O O10 0.919745 0.860810 0.392374
O O11 0.747917 0.000000 0.558121
O O12 0.407760 0.500000 0.736428
O O13 0.431237 0.214016 0.682694
O O14 0.527935 0.000000 0.061413
O O15 0.500000 0.782404 0.000000
O O16 0.097791 0.500000 0.376150
O O17 0.000000 0.731636 0.500000
#
# Coordination Sequence:
#
# PCOD8098310 Si02
#       6
#     8   8   8   8   8   8
#     4  10  21  38  61  86 120 165 203 246 307 371
#     4  11  25  44  67  94 126 166 211 262 318 375
#     4  10  20  34  56  84 113 151 197 243 299 365
#     4  10  22  40  61  85 120 163 204 249 307 372
#     4  10  23  43  66  94 127 164 210 261 315 378
#     4  11  23  37  58  93 128 161 202 253 308 362
#
# _framework density 20.164193999999998
#
# number of rings (size 3 to 8) (size 9 to 14) (size 15 to 20)
#    0.000    1.667    1.667    2.000    2.333    4.333 
#    0.000    0.000    0.000    0.000    0.000    0.000 
#    0.000    0.000    0.000    0.000    0.000    0.000 
#
# Total GULP energy -297453.158166 kJ/mol
# GULP energy per Si atom -12393.881590 kJ/mol
# Density = 2.011830 g / cm^3
# Si number density = 20.164194 Si / 1000 Ang^3
#
#
#
# Elastic Constant Matrix: (Units=GPa)
#
#
# Indices 1 2 3 4 5 6 
#
# 1 144.5669 67.6273 47.4204 -0.0001 -0.6726 0.0001
# 2 67.6273 86.7801 34.8189 -0.0003 -4.4604 0.0003
# 3 47.4204 34.8189 109.7711 -0.0001 7.2073 0.0001
# 4 -0.0001 -0.0003 -0.0001 26.7865 0.0001 0.2815
# 5 -0.6726 -4.4604 7.2073 0.0001 35.1678 -0.0001
# 6 0.0001 0.0003 0.0001 0.2815 -0.0001 44.0765
#
#
#
# Elastic Compliance Matrix: (Units=1/GPa)
#
#
# Indices 1 2 3 4 5 6 
#
# 1 0.011423 -0.007958 -0.002391 0.000000 -0.000301 0.000000
# 2 -0.007958 0.018981 -0.002768 0.000000 0.002822 0.000000
# 3 -0.002391 -0.002768 0.011197 0.000000 -0.002692 0.000000
# 4 0.000000 0.000000 0.000000 0.037335 0.000000 -0.000238
# 5 -0.000301 0.002822 -0.002692 0.000000 0.029339 0.000000
# 6 0.000000 0.000000 0.000000 -0.000238 0.000000 0.022689
#
#
# Mechanical properties :
#
#
# Convention : Reuss Voigt Hill
#
# Bulk Modulus (GPa) = 65.07249 71.20569 68.13909
# Shear Modulus (GPa) = 30.80351 33.95626 32.37988
#
# Velocity S-wave (km/s) = 3.91274 4.10809 4.01160
# Velocity P-wave (km/s) = 7.26320 7.60865 7.43793
#
# Compressibility (1/GPa) = 0.01536748
#
# Stress axis : x y z
#
# Youngs Moduli (GPa) = 87.54593 52.68526 89.30705
#
# Poissons Ratio (x) = 0.41926 0.21349
# Poissons Ratio (y) = 0.69668 0.24721
# Poissons Ratio (z) = 0.20928 0.14584
#
# Static dielectric constant tensor:
#      x y z
#    x 3.677610 0.000000 0.113940 
#    y 0.000000 3.592230 0.000000 
#    z 0.113940 0.000000 3.775200 
# 
# 
# High freq. dielectric constant tensor:
#      x y z
#    x 1.790560 0.000000 0.003400 
#    y 0.000000 1.781920 0.000000 
#    z 0.003400 0.000000 1.795480 
# 
# From -- ./inp_files/319564.got.cif
#   From: 2010.06.25/outbox.cif.g09.slc.cpg/sg12_160_cif.got.tgz:319564.got - 2010.06.28 00:19:55.
