data_PCOD8098036
_publ_section_title
;
Structure prediction by ZEFSAII (Michael W. Deem and Ramdas Pophale) SiO2 
 PCOD8098036
Probable space group: C 2/M
;
_chemical_formula_sum "Si O2"
_cell_formula_units_Z 56
_cell_length_a 18.147185
_cell_length_b 17.715181
_cell_length_c 14.198088
_cell_angle_alpha 90.000000
_cell_angle_beta 41.538148
_cell_angle_gamma 90.000000
_cell_volume 3026.745526
_symmetry_space_group_name_H-M "C 2/M"
_symmetry_group_IT_number 12
_symmetry_cell_setting 'monoclinic'
loop_
_space_group_symop_operation_xyz
x,y,z
-x,y,-z
-x,-y,-z
x,-y,z
1/2+x,1/2+y,z
1/2-x,1/2+y,-z
1/2-x,1/2-y,-z
1/2+x,1/2-y,z
loop_
_atom_site_type_symbol
_atom_site_label
_atom_site_fract_x
_atom_site_fract_y
_atom_site_fract_z
Si Si1 0.455722 0.145547 0.437977
Si Si2 0.546787 0.583567 0.761094
Si Si3 0.322428 0.344669 0.033386
Si Si4 0.760949 0.916209 0.279219
Si Si5 0.120690 0.766595 0.624180
Si Si6 0.879843 0.412241 0.868965
Si Si7 0.467970 0.796861 0.921682
O O1 0.500000 0.158356 0.500000
O O2 0.335299 0.106620 0.555610
O O3 0.443895 0.226653 0.399352
O O4 0.538132 0.092967 0.299277
O O5 0.552607 0.500000 0.709607
O O6 0.621839 0.587973 0.781715
O O7 0.591455 0.644452 0.642327
O O8 0.423091 0.599016 0.915332
O O9 0.263645 0.360729 0.188751
O O10 0.229629 0.360879 0.043065
O O11 0.364159 0.258564 0.998921
O O12 0.736631 0.000000 0.264234
O O13 0.250000 0.750000 0.500000
O O14 0.076290 0.736894 0.767008
O O15 0.850077 0.500000 0.914484
O O16 0.938046 0.378778 0.907221
O O17 0.500000 0.804962 0.000000
#
# Coordination Sequence:
#
# PCOD8098036 Si02
#       7
#     8   8   8   8   8   8   8
#     4  11  22  35  56  84 116 151 187 232 292 355
#     4  10  20  34  55  82 113 150 191 235 286 338
#     4  11  20  35  57  83 117 152 189 237 288 345
#     4  11  20  31  54  85 117 148 182 231 291 347
#     4  10  20  38  57  82 112 152 193 237 284 340
#     4  11  23  38  58  87 121 154 193 241 294 348
#     4  10  23  39  60  85 117 157 200 240 282 349
#
# _framework density 18.501722000000001
#
# number of rings (size 3 to 8) (size 9 to 14) (size 15 to 20)
#    0.000    1.429    2.857    4.286    0.000    2.000 
#    0.000    0.000    0.000    0.429    0.000    0.000 
#    0.000    0.000    0.000    0.000    0.000    0.000 
#
# Total GULP energy -347189.068581 kJ/mol
# GULP energy per Si atom -12399.609592 kJ/mol
# Density = 1.845961 g / cm^3
# Si number density = 18.501722 Si / 1000 Ang^3
#
#
#
# Elastic Constant Matrix: (Units=GPa)
#
#
# Indices 1 2 3 4 5 6 
#
# 1 90.5220 43.5265 41.5900 0.0000 5.0476 0.0000
# 2 43.5265 111.0772 32.1786 0.0000 9.3753 0.0000
# 3 41.5900 32.1786 104.5687 0.0000 -8.7226 0.0000
# 4 0.0000 0.0000 0.0000 22.4504 0.0000 -0.9957
# 5 5.0476 9.3753 -8.7226 0.0000 30.7196 0.0000
# 6 0.0000 0.0000 0.0000 -0.9957 0.0000 21.4225
#
#
#
# Elastic Compliance Matrix: (Units=1/GPa)
#
#
# Indices 1 2 3 4 5 6 
#
# 1 0.015668 -0.004441 -0.005087 0.000000 -0.002664 0.000000
# 2 -0.004441 0.011640 -0.002101 0.000000 -0.003419 0.000000
# 3 -0.005087 -0.002101 0.012656 0.000000 0.005071 0.000000
# 4 0.000000 0.000000 0.000000 0.044635 0.000000 0.002075
# 5 -0.002664 -0.003419 0.005071 0.000000 0.035473 0.000000
# 6 0.000000 0.000000 0.000000 0.002075 0.000000 0.046776
#
#
# Mechanical properties :
#
#
# Convention : Reuss Voigt Hill
#
# Bulk Modulus (GPa) = 59.85907 60.08423 59.97165
# Shear Modulus (GPa) = 25.55241 27.51002 26.53121
#
# Velocity S-wave (km/s) = 3.72032 3.86020 3.79091
# Velocity P-wave (km/s) = 7.13287 7.23973 7.18650
#
# Compressibility (1/GPa) = 0.01670591
#
# Stress axis : x y z
#
# Youngs Moduli (GPa) = 63.82274 85.90863 79.01454
#
# Poissons Ratio (x) = 0.38154 0.40197
# Poissons Ratio (y) = 0.28345 0.16600
# Poissons Ratio (z) = 0.32468 0.18048
#
# Static dielectric constant tensor:
#      x y z
#    x 3.294540 0.000000 -0.182810 
#    y 0.000000 3.562360 0.000000 
#    z -0.182810 0.000000 3.497680 
# 
# 
# High freq. dielectric constant tensor:
#      x y z
#    x 1.708100 0.000000 -0.021470 
#    y 0.000000 1.717530 0.000000 
#    z -0.021470 0.000000 1.719840 
# 
# From -- ./inp_files/158203.got.cif
#   From: 2010.06.25/outbox.cif.g09.slc.cpg/sg12_80_cif.got.tgz:158203.got - 2010.06.28 00:19:55.
