data_PCOD8098751
_publ_section_title
;
Structure prediction by ZEFSAII (Michael W. Deem and Ramdas Pophale) SiO2 
 PCOD8098751
Probable space group: C 2/M
;
_chemical_formula_sum "Si O2"
_cell_formula_units_Z 64
_cell_length_a 18.519315
_cell_length_b 14.179993
_cell_length_c 16.489305
_cell_angle_alpha 90.000000
_cell_angle_beta 55.836815
_cell_angle_gamma 90.000000
_cell_volume 3582.948948
_symmetry_space_group_name_H-M "C 2/M"
_symmetry_group_IT_number 12
_symmetry_cell_setting 'monoclinic'
loop_
_space_group_symop_operation_xyz
x,y,z
-x,y,-z
-x,-y,-z
x,-y,z
1/2+x,1/2+y,z
1/2-x,1/2+y,-z
1/2-x,1/2-y,-z
1/2+x,1/2-y,z
loop_
_atom_site_type_symbol
_atom_site_label
_atom_site_fract_x
_atom_site_fract_y
_atom_site_fract_z
Si Si1 0.904937 0.608172 0.356435
Si Si2 0.799272 0.730379 0.735330
Si Si3 0.974521 0.892109 0.885856
Si Si4 0.139622 0.107891 0.885854
Si Si5 0.965396 0.230381 0.735333
Si Si6 0.402062 0.108397 0.545058
Si Si7 0.052879 0.891603 0.545060
Si Si8 0.761376 0.891828 0.643562
O O1 0.932049 0.500000 0.324586
O O2 0.878901 0.624097 0.466184
O O3 0.822294 0.637976 0.355410
O O4 0.987512 0.670191 0.278078
O O5 0.720870 0.677096 0.828297
O O6 0.871617 0.749995 0.756767
O O7 0.834473 0.668478 0.639000
O O8 0.765596 0.829810 0.721918
O O9 0.950828 0.822905 0.828300
O O10 0.072976 0.873433 0.854045
O O11 0.965328 0.000000 0.862389
O O12 0.907365 0.870710 0.000001
O O13 0.172283 0.000000 0.862386
O O14 0.026524 0.168479 0.639002
O O15 0.500000 0.144793 0.500000
O O16 0.393127 0.000000 0.577602
O O17 0.154914 0.875903 0.466188
O O18 0.000000 0.855209 0.500000
O O19 0.029270 0.000000 0.577605
O O20 0.756640 0.000000 0.675410
#
# Coordination Sequence:
#
# PCOD8098751 Si02
#       8
#     8   8   8   8   8   8   8   8
#     4  10  22  37  52  75 111 152 189 227 268 315
#     4  12  22  32  57  85 110 143 184 222 274 331
#     4   9  20  40  62  83 108 137 176 232 288 330
#     4   9  20  40  62  83 108 137 176 232 288 330
#     4  12  22  32  57  85 110 143 184 222 274 331
#     4  10  20  35  52  76 113 149 182 220 267 320
#     4  10  20  35  52  76 113 149 182 220 267 320
#     4  10  22  37  52  75 111 152 189 227 268 315
#
# _framework density 17.862380999999999
#
# number of rings (size 3 to 8) (size 9 to 14) (size 15 to 20)
#    0.000    1.750    2.500    3.000    0.000    4.500 
#    0.000    2.500    0.000    0.750    0.000    3.500 
#    0.000    0.000    0.000    0.000    0.000    0.000 
#
# Total GULP energy -396950.048820 kJ/mol
# GULP energy per Si atom -12404.689026 kJ/mol
# Density = 1.782173 g / cm^3
# Si number density = 17.862381 Si / 1000 Ang^3
#
#
#
# Elastic Constant Matrix: (Units=GPa)
#
#
# Indices 1 2 3 4 5 6 
#
# 1 146.6738 67.2053 53.5001 0.0000 -1.7616 0.0000
# 2 67.2053 99.9709 55.7415 0.0000 -0.3056 0.0000
# 3 53.5001 55.7415 75.1154 0.0000 -0.1165 0.0000
# 4 0.0000 0.0000 0.0000 16.9377 0.0000 -0.2378
# 5 -1.7616 -0.3056 -0.1165 0.0000 12.9581 0.0000
# 6 0.0000 0.0000 0.0000 -0.2378 0.0000 26.0894
#
#
#
# Elastic Compliance Matrix: (Units=1/GPa)
#
#
# Indices 1 2 3 4 5 6 
#
# 1 0.010475 -0.004911 -0.003814 0.000000 0.001274 0.000000
# 2 -0.004911 0.019367 -0.010874 0.000000 -0.000309 0.000000
# 3 -0.003814 -0.010874 0.024098 0.000000 -0.000558 0.000000
# 4 0.000000 0.000000 0.000000 0.059047 0.000000 0.000538
# 5 0.001274 -0.000309 -0.000558 0.000000 0.077333 0.000000
# 6 0.000000 0.000000 0.000000 0.000538 0.000000 0.038335
#
#
# Mechanical properties :
#
#
# Convention : Reuss Voigt Hill
#
# Bulk Modulus (GPa) = 67.83965 74.96156 71.40060
# Shear Modulus (GPa) = 18.33072 20.88457 19.60765
#
# Velocity S-wave (km/s) = 3.20694 3.42306 3.31676
# Velocity P-wave (km/s) = 7.19542 7.59476 7.39779
#
# Compressibility (1/GPa) = 0.01474064
#
# Stress axis : x y z
#
# Youngs Moduli (GPa) = 95.46957 51.63536 41.49713
#
# Poissons Ratio (x) = 0.25358 0.15827
# Poissons Ratio (y) = 0.46885 0.45125
# Poissons Ratio (z) = 0.36413 0.56149
#
# Static dielectric constant tensor:
#      x y z
#    x 3.375050 0.000000 -0.008260 
#    y 0.000000 3.504490 0.000000 
#    z -0.008260 0.000000 3.056690 
# 
# 
# High freq. dielectric constant tensor:
#      x y z
#    x 1.699230 0.000000 -0.000850 
#    y 0.000000 1.705160 0.000000 
#    z -0.000850 0.000000 1.666620 
# 
# From -- ./inp_files/225696.got.cif
#   From: 2010.06.25/outbox.cif.g09.slc.cpg/sg12_113_cif.got.tgz:225696.got - 2010.06.28 00:19:55.
