data_PCOD8098809
_publ_section_title
;
Structure prediction by ZEFSAII (Michael W. Deem and Ramdas Pophale) SiO2 
 PCOD8098809
Probable space group: C 2/M
;
_chemical_formula_sum "Si O2"
_cell_formula_units_Z 48
_cell_length_a 22.565642
_cell_length_b 9.089207
_cell_length_c 12.465977
_cell_angle_alpha 90.000000
_cell_angle_beta 109.265845
_cell_angle_gamma 90.000000
_cell_volume 2413.631670
_symmetry_space_group_name_H-M "C 2/M"
_symmetry_group_IT_number 12
_symmetry_cell_setting 'monoclinic'
loop_
_space_group_symop_operation_xyz
x,y,z
-x,y,-z
-x,-y,-z
x,-y,z
1/2+x,1/2+y,z
1/2-x,1/2+y,-z
1/2-x,1/2-y,-z
1/2+x,1/2-y,z
loop_
_atom_site_type_symbol
_atom_site_label
_atom_site_fract_x
_atom_site_fract_y
_atom_site_fract_z
Si Si1 0.159027 0.831062 0.454580
Si Si2 0.740969 0.828641 0.659013
Si Si3 0.953337 0.169114 0.749108
Si Si4 0.095032 0.826511 0.865858
Si Si5 0.784454 0.674120 0.119784
Si Si6 0.073309 0.663889 0.063135
O O1 0.199092 0.777187 0.374559
O O2 0.177906 0.743822 0.572405
O O3 0.085008 0.807118 0.384489
O O4 0.173849 0.000000 0.486565
O O5 0.750744 0.785190 0.789724
O O6 0.729301 0.000000 0.643736
O O7 0.916600 0.265447 0.814753
O O8 0.026127 0.213542 0.777942
O O9 0.949534 0.000000 0.785345
O O10 0.145463 0.739425 0.825020
O O11 0.108384 0.000000 0.871118
O O12 0.103954 0.769828 0.992851
O O13 0.787087 0.500000 0.101604
O O14 0.750000 0.750000 0.000000
O O15 0.103342 0.500000 0.076040
O O16 0.000000 0.653630 0.000000
#
# Coordination Sequence:
#
# PCOD8098809 Si02
#       6
#     8   8   8   8   8   8
#     4   9  18  35  60  85 109 140 182 231 279 330
#     4   9  20  38  57  81 112 143 181 230 278 329
#     4   9  18  32  54  82 110 144 185 230 281 331
#     4  10  20  35  53  77 111 149 187 228 276 331
#     4  11  24  40  58  82 112 149 189 228 276 335
#     4   9  17  29  47  75 110 144 180 226 274 323
#
# _framework density 19.887043999999999
#
# number of rings (size 3 to 8) (size 9 to 14) (size 15 to 20)
#    0.000    2.500    0.000    1.500    2.333    4.667 
#    0.000    0.833    0.000    5.000    0.000    0.000 
#    0.000    0.000    0.000    0.000    0.000    0.000 
#
# Total GULP energy -297519.417654 kJ/mol
# GULP energy per Si atom -12396.642402 kJ/mol
# Density = 1.984178 g / cm^3
# Si number density = 19.887044 Si / 1000 Ang^3
#
#
#
# Elastic Constant Matrix: (Units=GPa)
#
#
# Indices 1 2 3 4 5 6 
#
# 1 65.7736 28.4020 36.8547 0.0000 5.8851 0.0000
# 2 28.4020 74.7893 43.4047 0.0000 -0.4271 0.0000
# 3 36.8547 43.4047 116.7986 0.0000 8.6310 0.0000
# 4 0.0000 0.0000 0.0000 31.8732 0.0000 -0.2926
# 5 5.8851 -0.4271 8.6310 0.0000 28.4042 0.0000
# 6 0.0000 0.0000 0.0000 -0.2926 0.0000 28.6514
#
#
#
# Elastic Compliance Matrix: (Units=1/GPa)
#
#
# Indices 1 2 3 4 5 6 
#
# 1 0.020058 -0.005212 -0.004173 0.000000 -0.002966 0.000000
# 2 -0.005212 0.018542 -0.005469 0.000000 0.003021 0.000000
# 3 -0.004173 -0.005469 0.012125 0.000000 -0.002902 0.000000
# 4 0.000000 0.000000 0.000000 0.031377 0.000000 0.000320
# 5 -0.002966 0.003021 -0.002902 0.000000 0.036748 0.000000
# 6 0.000000 0.000000 0.000000 0.000320 0.000000 0.034906
#
#
# Mechanical properties :
#
#
# Convention : Reuss Voigt Hill
#
# Bulk Modulus (GPa) = 47.58174 52.74271 50.16222
# Shear Modulus (GPa) = 26.25094 27.69911 26.97502
#
# Velocity S-wave (km/s) = 3.63712 3.73610 3.68695
# Velocity P-wave (km/s) = 6.45106 6.72235 6.58810
#
# Compressibility (1/GPa) = 0.02101647
#
# Stress axis : x y z
#
# Youngs Moduli (GPa) = 49.85532 53.93301 82.47241
#
# Poissons Ratio (x) = 0.28112 0.34415
# Poissons Ratio (y) = 0.25986 0.45103
# Poissons Ratio (z) = 0.20804 0.29495
#
# Static dielectric constant tensor:
#      x y z
#    x 3.704520 0.000000 0.031360 
#    y 0.000000 3.700040 0.000000 
#    z 0.031360 0.000000 3.566750 
# 
# 
# High freq. dielectric constant tensor:
#      x y z
#    x 1.762320 0.000000 0.012920 
#    y 0.000000 1.777300 0.000000 
#    z 0.012920 0.000000 1.762540 
# 
# From -- ./inp_files/172336.got.cif
#   From: 2010.06.25/outbox.cif.g09.slc.cpg/sg12_87_cif.got.tgz:172336.got - 2010.06.28 00:19:55.
