data_PCOD8098658
_publ_section_title
;
Structure prediction by ZEFSAII (Michael W. Deem and Ramdas Pophale) SiO2 
 PCOD8098658
Probable space group: C 2/M
;
_chemical_formula_sum "Si O2"
_cell_formula_units_Z 24
_cell_length_a 8.944563
_cell_length_b 24.824002
_cell_length_c 5.004837
_cell_angle_alpha 90.000000
_cell_angle_beta 98.623191
_cell_angle_gamma 90.000000
_cell_volume 1098.711172
_symmetry_space_group_name_H-M "C 2/M"
_symmetry_group_IT_number 12
_symmetry_cell_setting 'monoclinic'
loop_
_space_group_symop_operation_xyz
x,y,z
-x,y,-z
-x,-y,-z
x,-y,z
1/2+x,1/2+y,z
1/2-x,1/2+y,-z
1/2-x,1/2-y,-z
1/2+x,1/2-y,z
loop_
_atom_site_type_symbol
_atom_site_label
_atom_site_fract_x
_atom_site_fract_y
_atom_site_fract_z
Si Si1 0.829403 0.886836 0.853928
Si Si2 0.000000 0.256166 0.500000
Si Si3 0.250260 0.178231 0.683819
Si Si4 0.609444 0.500000 0.272993
O O1 0.806373 0.846512 0.607880
O O2 0.786126 0.946496 0.728578
O O3 0.729639 0.866552 0.078550
O O4 0.000000 0.886490 0.000000
O O5 0.119077 0.222020 0.712350
O O6 0.088553 0.293473 0.311881
O O7 0.500000 0.500000 0.500000
O O8 0.500000 0.500000 0.000000
#
# Coordination Sequence:
#
# PCOD8098658 Si02
#       4
#     8   4   8   4
#     4  11  20  37  59  89 116 150 191 247 293 342
#     4  10  24  40  58  86 116 168 194 238 284 348
#     4  11  23  38  60  84 122 152 201 235 290 344
#     4  10  20  34  60  89 118 147 192 241 300 341
#
# _framework density 21.843775000000001
#
# number of rings (size 3 to 8) (size 9 to 14) (size 15 to 20)
#    0.000    1.333    3.333    4.000    0.000    9.333 
#    0.000    0.000    0.000    6.000    0.000    0.000 
#    0.000    0.000    0.000    0.000    0.000    0.000 
#
# Total GULP energy -148727.078827 kJ/mol
# GULP energy per Si atom -12393.923236 kJ/mol
# Density = 2.179406 g / cm^3
# Si number density = 21.843775 Si / 1000 Ang^3
#
#
#
# Elastic Constant Matrix: (Units=GPa)
#
#
# Indices 1 2 3 4 5 6 
#
# 1 100.6968 65.3337 30.0735 0.0000 -26.7236 0.0000
# 2 65.3337 131.0920 56.5307 0.0000 -14.7852 0.0000
# 3 30.0735 56.5307 136.4483 0.0000 -25.7631 0.0000
# 4 0.0000 0.0000 0.0000 34.2203 0.0000 -22.2639
# 5 -26.7236 -14.7852 -25.7631 0.0000 21.2557 0.0000
# 6 0.0000 0.0000 0.0000 -22.2639 0.0000 24.1670
#
#
#
# Elastic Compliance Matrix: (Units=1/GPa)
#
#
# Indices 1 2 3 4 5 6 
#
# 1 0.021832 -0.009744 0.004056 0.000000 0.025586 0.000000
# 2 -0.009744 0.013726 -0.005251 0.000000 -0.009067 0.000000
# 3 0.004056 -0.005251 0.011520 0.000000 0.015410 0.000000
# 4 0.000000 0.000000 0.000000 0.072941 0.000000 0.067197
# 5 0.025586 -0.009067 0.015410 0.000000 0.091585 0.000000
# 6 0.000000 0.000000 0.000000 0.067197 0.000000 0.103284
#
#
# Mechanical properties :
#
#
# Convention : Reuss Voigt Hill
#
# Bulk Modulus (GPa) = 39.68275 74.67920 57.18098
# Shear Modulus (GPa) = 14.48580 30.34856 22.41718
#
# Velocity S-wave (km/s) = 2.57797 3.73144 3.20699
# Velocity P-wave (km/s) = 5.20263 7.26821 6.32037
#
# Compressibility (1/GPa) = 0.02519987
#
# Stress axis : x y z
#
# Youngs Moduli (GPa) = 45.80512 72.85351 86.80617
#
# Poissons Ratio (x) = 0.70987 -0.35210
# Poissons Ratio (y) = 0.44632 0.45584
# Poissons Ratio (z) = -0.18579 0.38257
#
# Static dielectric constant tensor:
#      x y z
#    x 3.459510 0.000000 -0.199290 
#    y 0.000000 7.320620 0.000000 
#    z -0.199290 0.000000 3.859510 
# 
# 
# High freq. dielectric constant tensor:
#      x y z
#    x 1.815000 0.000000 -0.013400 
#    y 0.000000 1.874860 0.000000 
#    z -0.013400 0.000000 1.864890 
# 
# From -- ./inp_files/2771.got.cif
#   From: 2010.06.25/outbox.cif.g09.slc.cpg/sg12_2_cif.got.tgz:2771.got - 2010.06.28 00:19:55.
