data_PCOD8098438
_publ_section_title
;
Structure prediction by ZEFSAII (Michael W. Deem and Ramdas Pophale) SiO2 
 PCOD8098438
Probable space group: C 2/M
;
_chemical_formula_sum "Si O2"
_cell_formula_units_Z 48
_cell_length_a 26.912966
_cell_length_b 9.451888
_cell_length_c 11.212557
_cell_angle_alpha 90.000000
_cell_angle_beta 59.369496
_cell_angle_gamma 90.000000
_cell_volume 2454.262310
_symmetry_space_group_name_H-M "C 2/M"
_symmetry_group_IT_number 12
_symmetry_cell_setting 'monoclinic'
loop_
_space_group_symop_operation_xyz
x,y,z
-x,y,-z
-x,-y,-z
x,-y,z
1/2+x,1/2+y,z
1/2-x,1/2+y,-z
1/2-x,1/2-y,-z
1/2+x,1/2-y,z
loop_
_atom_site_type_symbol
_atom_site_label
_atom_site_fract_x
_atom_site_fract_y
_atom_site_fract_z
Si Si1 0.435760 0.336401 0.054295
Si Si2 0.326207 0.660936 0.331722
Si Si3 0.858032 0.664043 0.684004
Si Si4 0.030654 0.666108 0.575246
Si Si5 0.773734 0.835920 0.648388
Si Si6 0.426313 0.835157 0.842597
O O1 0.439895 0.500000 0.013791
O O2 0.393914 0.312816 0.219668
O O3 0.500000 0.275606 0.000000
O O4 0.405926 0.254541 0.980656
O O5 0.308465 0.500000 0.321234
O O6 0.288331 0.766520 0.298245
O O7 0.315291 0.689567 0.484135
O O8 0.839930 0.500000 0.701526
O O9 0.901497 0.700263 0.519220
O O10 0.802359 0.761446 0.728923
O O11 0.886514 0.700258 0.776615
O O12 0.020690 0.500000 0.576418
O O13 0.000000 0.740022 0.500000
O O14 0.993767 0.712879 0.736429
O O15 0.764549 0.000000 0.688697
O O16 0.421540 0.000000 0.880233
#
# Coordination Sequence:
#
# PCOD8098438 Si02
#       6
#     8   8   8   8   8   8
#     4  10  22  38  56  77 108 147 178 211 265 325
#     4   9  20  39  56  75 107 144 179 217 264 317
#     4   9  17  31  53  79 109 142 174 215 270 319
#     4   7  12  25  45  70 102 137 170 206 250 302
#     4  10  20  34  57  84 106 133 178 229 268 309
#     4   9  18  33  52  78 109 141 180 220 257 310
#
# _framework density 19.557811999999998
#
# number of rings (size 3 to 8) (size 9 to 14) (size 15 to 20)
#    0.000    3.000    0.000    2.500    2.333    2.333 
#    0.000    0.833    0.000    3.000    0.000    0.000 
#    0.000    0.000    0.000    0.000    0.000    0.000 
#
# Total GULP energy -297326.540764 kJ/mol
# GULP energy per Si atom -12388.605865 kJ/mol
# Density = 1.951330 g / cm^3
# Si number density = 19.557812 Si / 1000 Ang^3
#
#
#
# Elastic Constant Matrix: (Units=GPa)
#
#
# Indices 1 2 3 4 5 6 
#
# 1 92.8191 54.4440 26.8792 0.0000 -3.1768 0.0000
# 2 54.4440 70.5668 19.2127 0.0000 0.5387 0.0000
# 3 26.8792 19.2127 60.6639 0.0000 -7.4455 0.0000
# 4 0.0000 0.0000 0.0000 25.1468 0.0000 4.5448
# 5 -3.1768 0.5387 -7.4455 0.0000 22.1321 0.0000
# 6 0.0000 0.0000 0.0000 4.5448 0.0000 29.2955
#
#
#
# Elastic Compliance Matrix: (Units=1/GPa)
#
#
# Indices 1 2 3 4 5 6 
#
# 1 0.020827 -0.014922 -0.004267 0.000000 0.001917 0.000000
# 2 -0.014922 0.026294 -0.002146 0.000000 -0.003504 0.000000
# 3 -0.004267 -0.002146 0.019804 0.000000 0.006102 0.000000
# 4 0.000000 0.000000 0.000000 0.040914 0.000000 -0.006347
# 5 0.001917 -0.003504 0.006102 0.000000 0.047596 0.000000
# 6 0.000000 0.000000 0.000000 -0.006347 0.000000 0.035120
#
#
# Mechanical properties :
#
#
# Convention : Reuss Voigt Hill
#
# Bulk Modulus (GPa) = 41.22777 47.23573 44.23175
# Shear Modulus (GPa) = 20.72019 23.54914 22.13467
#
# Velocity S-wave (km/s) = 3.25842 3.47375 3.36781
# Velocity P-wave (km/s) = 5.93988 6.34772 6.14718
#
# Compressibility (1/GPa) = 0.02425549
#
# Stress axis : x y z
#
# Youngs Moduli (GPa) = 48.01349 38.03078 50.49590
#
# Poissons Ratio (x) = 0.56749 0.21548
# Poissons Ratio (y) = 0.71644 0.10837
# Poissons Ratio (z) = 0.20488 0.08162
#
# Static dielectric constant tensor:
#      x y z
#    x 3.362320 0.000000 -0.167430 
#    y 0.000000 3.299060 0.000000 
#    z -0.167430 0.000000 3.528530 
# 
# 
# High freq. dielectric constant tensor:
#      x y z
#    x 1.750480 0.000000 -0.006730 
#    y 0.000000 1.741490 0.000000 
#    z -0.006730 0.000000 1.748920 
# 
# From -- ./inp_files/179729.got.cif
#   From: 2010.06.25/outbox.cif.g09.slc.cpg/sg12_90_cif.got.tgz:179729.got - 2010.06.28 00:19:55.
