data_PCOD8098582
_publ_section_title
;
Structure prediction by ZEFSAII (Michael W. Deem and Ramdas Pophale) SiO2 
 PCOD8098582
Probable space group: C 2/M
;
_chemical_formula_sum "Si O2"
_cell_formula_units_Z 56
_cell_length_a 21.062360
_cell_length_b 9.028273
_cell_length_c 14.936299
_cell_angle_alpha 90.000000
_cell_angle_beta 87.464279
_cell_angle_gamma 90.000000
_cell_volume 2837.456800
_symmetry_space_group_name_H-M "C 2/M"
_symmetry_group_IT_number 12
_symmetry_cell_setting 'monoclinic'
loop_
_space_group_symop_operation_xyz
x,y,z
-x,y,-z
-x,-y,-z
x,-y,z
1/2+x,1/2+y,z
1/2-x,1/2+y,-z
1/2-x,1/2-y,-z
1/2+x,1/2-y,z
loop_
_atom_site_type_symbol
_atom_site_label
_atom_site_fract_x
_atom_site_fract_y
_atom_site_fract_z
Si Si1 0.791915 0.172918 0.875129
Si Si2 0.172067 0.171426 0.931506
Si Si3 0.142525 0.664755 0.282543
Si Si4 0.559495 0.324373 0.558972
Si Si5 0.685207 0.827427 0.475224
Si Si6 0.501153 0.170224 0.725386
Si Si7 0.528555 0.672817 0.903679
O O1 0.722591 0.244527 0.866270
O O2 0.838093 0.217024 0.792510
O O3 0.782804 0.000000 0.873749
O O4 0.823263 0.227390 0.966202
O O5 0.103171 0.205573 0.897478
O O6 0.188756 0.000000 0.925681
O O7 0.154815 0.500000 0.243502
O O8 0.182964 0.691450 0.368824
O O9 0.068869 0.684973 0.311789
O O10 0.500000 0.278264 0.500000
O O11 0.568427 0.500000 0.560596
O O12 0.624454 0.251364 0.522123
O O13 0.547773 0.266021 0.660329
O O14 0.750000 0.750000 0.500000
O O15 0.685183 0.000000 0.503251
O O16 0.498099 0.233253 0.826100
O O17 0.524061 0.000000 0.725616
O O18 0.512749 0.500000 0.890163
O O19 0.500000 0.726549 0.000000
#
# Coordination Sequence:
#
# PCOD8098582 Si02
#       7
#     8   8   8   8   8   8   8
#     4  10  20  34  58  85 110 148 198 244 288 350
#     4   9  19  36  55  79 115 155 191 238 298 352
#     4  10  22  39  59  84 117 154 191 240 303 364
#     4  11  23  41  67  95 123 160 208 259 311 374
#     4  11  24  43  65  91 126 163 203 253 314 373
#     4  11  23  39  62  91 121 159 204 250 307 369
#     4  10  21  38  59  85 121 160 199 248 303 357
#
# _framework density 19.735983999999998
#
# number of rings (size 3 to 8) (size 9 to 14) (size 15 to 20)
#    0.000    1.714    1.429    2.571    0.000    6.571 
#    0.000    1.429    0.000    0.000    0.000    0.000 
#    0.000    0.000    0.000    0.000    0.000    0.000 
#
# Total GULP energy -347303.161741 kJ/mol
# GULP energy per Si atom -12403.684348 kJ/mol
# Density = 1.969106 g / cm^3
# Si number density = 19.735984 Si / 1000 Ang^3
#
#
#
# Elastic Constant Matrix: (Units=GPa)
#
#
# Indices 1 2 3 4 5 6 
#
# 1 102.4543 57.9236 38.2357 0.0000 -0.4459 0.0000
# 2 57.9236 89.7950 42.6969 0.0000 0.5293 0.0000
# 3 38.2357 42.6969 87.1859 0.0000 -4.0461 0.0000
# 4 0.0000 0.0000 0.0000 34.7868 0.0000 -6.5351
# 5 -0.4459 0.5293 -4.0461 0.0000 33.3522 0.0000
# 6 0.0000 0.0000 0.0000 -6.5351 0.0000 33.2187
#
#
#
# Elastic Compliance Matrix: (Units=1/GPa)
#
#
# Indices 1 2 3 4 5 6 
#
# 1 0.015778 -0.008980 -0.002520 0.000000 0.000048 0.000000
# 2 -0.008980 0.019668 -0.005746 0.000000 -0.001129 0.000000
# 3 -0.002520 -0.005746 0.015478 0.000000 0.001935 0.000000
# 4 0.000000 0.000000 0.000000 0.029850 0.000000 0.005872
# 5 0.000048 -0.001129 0.001935 0.000000 0.030236 0.000000
# 6 0.000000 0.000000 0.000000 0.005872 0.000000 0.031259
#
#
# Mechanical properties :
#
#
# Convention : Reuss Voigt Hill
#
# Bulk Modulus (GPa) = 60.85241 61.90526 61.37883
# Shear Modulus (GPa) = 27.43661 29.64347 28.54004
#
# Velocity S-wave (km/s) = 3.73256 3.87977 3.80688
# Velocity P-wave (km/s) = 7.03393 7.17669 7.10567
#
# Compressibility (1/GPa) = 0.01643320
#
# Stress axis : x y z
#
# Youngs Moduli (GPa) = 63.37985 50.84389 64.60584
#
# Poissons Ratio (x) = 0.45658 0.16277
# Poissons Ratio (y) = 0.56915 0.37123
# Poissons Ratio (z) = 0.15969 0.29215
#
# Static dielectric constant tensor:
#      x y z
#    x 3.618400 0.000000 0.036980 
#    y 0.000000 3.604760 0.000000 
#    z 0.036980 0.000000 3.529020 
# 
# 
# High freq. dielectric constant tensor:
#      x y z
#    x 1.774260 0.000000 -0.003400 
#    y 0.000000 1.773660 0.000000 
#    z -0.003400 0.000000 1.768560 
# 
# From -- ./inp_files/230994.got.cif
#   From: 2010.06.25/outbox.cif.g09.slc.cpg/sg12_116_cif.got.tgz:230994.got - 2010.06.28 00:19:55.
