data_PCOD8098780
_publ_section_title
;
Structure prediction by ZEFSAII (Michael W. Deem and Ramdas Pophale) SiO2 
 PCOD8098780
Probable space group: C 2/M
;
_chemical_formula_sum "Si O2"
_cell_formula_units_Z 56
_cell_length_a 14.935778
_cell_length_b 9.157972
_cell_length_c 22.474777
_cell_angle_alpha 90.000000
_cell_angle_beta 106.570801
_cell_angle_gamma 90.000000
_cell_volume 2946.457555
_symmetry_space_group_name_H-M "C 2/M"
_symmetry_group_IT_number 12
_symmetry_cell_setting 'monoclinic'
loop_
_space_group_symop_operation_xyz
x,y,z
-x,y,-z
-x,-y,-z
x,-y,z
1/2+x,1/2+y,z
1/2-x,1/2+y,-z
1/2-x,1/2-y,-z
1/2+x,1/2-y,z
loop_
_atom_site_type_symbol
_atom_site_label
_atom_site_fract_x
_atom_site_fract_y
_atom_site_fract_z
Si Si1 0.795044 0.167920 0.927257
Si Si2 0.116820 0.826722 0.724147
Si Si3 0.298921 0.331144 0.791110
Si Si4 0.117859 0.829571 0.940208
Si Si5 0.000501 0.173035 0.813199
Si Si6 0.153502 0.329407 0.500509
Si Si7 0.040978 0.328742 0.595808
O O1 0.820793 0.198638 0.864446
O O2 0.712063 0.272005 0.929257
O O3 0.764625 0.000000 0.930785
O O4 0.883167 0.203899 0.988693
O O5 0.222135 0.770189 0.746850
O O6 0.063569 0.764986 0.657531
O O7 0.066402 0.765333 0.773692
O O8 0.116469 0.000000 0.720325
O O9 0.272236 0.500000 0.774925
O O10 0.394812 0.282367 0.777707
O O11 0.032734 0.764218 0.884389
O O12 0.117900 0.000000 0.929264
O O13 0.005961 0.000000 0.815442
O O14 0.175461 0.500000 0.501031
O O15 0.250000 0.250000 0.500000
O O16 0.117470 0.287005 0.559782
O O17 0.065912 0.288913 0.441546
O O18 0.048661 0.500000 0.610956
#
# Coordination Sequence:
#
# PCOD8098780 Si02
#       7
#     8   8   8   8   8   8   8
#     4   9  17  28  49  76  97 127 173 220 272 328
#     4  11  22  37  55  78 108 144 183 223 265 312
#     4  10  20  35  53  75 103 138 180 224 272 329
#     4   9  16  30  50  71  99 132 168 219 275 326
#     4   9  19  34  52  73 102 139 177 220 272 322
#     4   9  19  37  62  89 118 147 179 216 260 307
#     4   9  20  39  59  82 114 152 181 212 261 313
#
# _framework density 19.005873999999999
#
# number of rings (size 3 to 8) (size 9 to 14) (size 15 to 20)
#    0.000    2.571    1.429    1.286    0.000    2.857 
#    0.000   10.714    0.000    0.000    0.000    5.000 
#    0.000    0.000    0.000    0.000    0.000    0.000 
#
# Total GULP energy -346903.574100 kJ/mol
# GULP energy per Si atom -12389.413361 kJ/mol
# Density = 1.896262 g / cm^3
# Si number density = 19.005874 Si / 1000 Ang^3
#
#
#
# Elastic Constant Matrix: (Units=GPa)
#
#
# Indices 1 2 3 4 5 6 
#
# 1 99.8320 26.5284 40.0552 0.0000 24.7416 0.0000
# 2 26.5284 38.9551 42.4460 0.0000 7.6942 0.0000
# 3 40.0552 42.4460 116.9254 0.0000 25.5117 0.0000
# 4 0.0000 0.0000 0.0000 28.3614 0.0000 1.9713
# 5 24.7416 7.6942 25.5117 0.0000 15.6626 0.0000
# 6 0.0000 0.0000 0.0000 1.9713 0.0000 27.7622
#
#
#
# Elastic Compliance Matrix: (Units=1/GPa)
#
#
# Indices 1 2 3 4 5 6 
#
# 1 0.019319 -0.011997 0.004824 0.000000 -0.032482 0.000000
# 2 -0.011997 0.050363 -0.020027 0.000000 0.026832 0.000000
# 3 0.004824 -0.020027 0.021232 0.000000 -0.032365 0.000000
# 4 0.000000 0.000000 0.000000 0.035434 0.000000 -0.002516
# 5 -0.032482 0.026832 -0.032365 0.000000 0.154694 0.000000
# 6 0.000000 0.000000 0.000000 -0.002516 0.000000 0.036199
#
#
# Mechanical properties :
#
#
# Convention : Reuss Voigt Hill
#
# Bulk Modulus (GPa) = 27.38692 52.64129 40.01410
# Shear Modulus (GPa) = 13.02719 24.13609 18.58164
#
# Velocity S-wave (km/s) = 2.62091 3.56747 3.13018
# Velocity P-wave (km/s) = 4.85797 6.68780 5.84494
#
# Compressibility (1/GPa) = 0.03651378
#
# Stress axis : x y z
#
# Youngs Moduli (GPa) = 51.76128 19.85593 47.09942
#
# Poissons Ratio (x) = 0.23822 -0.22722
# Poissons Ratio (y) = 0.62100 0.94326
# Poissons Ratio (z) = -0.24971 0.39765
#
# Static dielectric constant tensor:
#      x y z
#    x 3.658930 0.000000 0.037130 
#    y 0.000000 3.251210 0.000000 
#    z 0.037130 0.000000 3.718910 
# 
# 
# High freq. dielectric constant tensor:
#      x y z
#    x 1.734260 0.000000 0.008150 
#    y 0.000000 1.714670 0.000000 
#    z 0.008150 0.000000 1.749540 
# 
# From -- ./inp_files/337879.got.cif
#   From: 2010.06.25/outbox.cif.g09.slc.cpg/sg12_169_cif.got.tgz:337879.got - 2010.06.28 00:19:55.
