data_PCOD8098361
_publ_section_title
;
Structure prediction by ZEFSAII (Michael W. Deem and Ramdas Pophale) SiO2 
 PCOD8098361
Probable space group: C 2/M
;
_chemical_formula_sum "Si O2"
_cell_formula_units_Z 56
_cell_length_a 28.177735
_cell_length_b 8.990206
_cell_length_c 17.365741
_cell_angle_alpha 90.000000
_cell_angle_beta 136.383690
_cell_angle_gamma 90.000000
_cell_volume 3034.648460
_symmetry_space_group_name_H-M "C 2/M"
_symmetry_group_IT_number 12
_symmetry_cell_setting 'monoclinic'
loop_
_space_group_symop_operation_xyz
x,y,z
-x,y,-z
-x,-y,-z
x,-y,z
1/2+x,1/2+y,z
1/2-x,1/2+y,-z
1/2-x,1/2-y,-z
1/2+x,1/2-y,z
loop_
_atom_site_type_symbol
_atom_site_label
_atom_site_fract_x
_atom_site_fract_y
_atom_site_fract_z
Si Si1 0.779255 0.170800 0.731182
Si Si2 0.567337 0.174107 0.355876
Si Si3 0.410194 0.827519 0.166055
Si Si4 0.807819 0.675878 0.915942
Si Si5 0.818645 0.171209 0.608931
Si Si6 0.847223 0.171214 0.235283
Si Si7 0.136057 0.174238 0.571632
O O1 0.821789 0.241565 0.851692
O O2 0.825610 0.183212 0.709338
O O3 0.709669 0.261247 0.634024
O O4 0.760676 0.000000 0.727915
O O5 0.489183 0.205493 0.239132
O O6 0.615096 0.249930 0.348646
O O7 0.578270 0.244908 0.453071
O O8 0.584210 0.000000 0.379696
O O9 0.390584 0.760292 0.224677
O O10 0.394711 0.000000 0.155179
O O11 0.363528 0.762977 0.042185
O O12 0.813157 0.500000 0.907393
O O13 0.732557 0.719940 0.859129
O O14 0.750000 0.250000 0.500000
O O15 0.816543 0.000000 0.579645
O O16 0.879607 0.204251 0.357131
O O17 0.853661 0.000000 0.221027
O O18 0.136444 0.000000 0.553766
#
# Coordination Sequence:
#
# PCOD8098361 Si02
#       7
#     8   8   8   8   8   8   8
#     4  10  20  34  56  86 111 136 178 229 276 324
#     4  11  23  37  54  80 113 148 187 226 272 329
#     4  10  22  38  55  78 111 150 188 228 272 324
#     4   9  19  37  58  81 110 145 186 227 272 326
#     4  11  22  36  58  85 112 142 180 224 276 331
#     4   9  19  34  56  83 107 139 186 233 277 327
#     4  10  20  35  55  81 112 145 181 225 278 330
#
# _framework density 18.453538000000002
#
# number of rings (size 3 to 8) (size 9 to 14) (size 15 to 20)
#    0.000    2.000    1.429    3.000    0.000    6.857 
#    0.000    3.571    0.000    4.286    0.000    0.000 
#    0.000    0.000    0.000    0.000    0.000    0.000 
#
# Total GULP energy -347266.814602 kJ/mol
# GULP energy per Si atom -12402.386236 kJ/mol
# Density = 1.841154 g / cm^3
# Si number density = 18.453538 Si / 1000 Ang^3
#
#
#
# Elastic Constant Matrix: (Units=GPa)
#
#
# Indices 1 2 3 4 5 6 
#
# 1 108.5855 56.3996 44.1747 0.0000 -6.7600 0.0000
# 2 56.3996 98.3448 45.2009 0.0000 -0.5308 0.0000
# 3 44.1747 45.2009 66.3130 0.0000 -5.9095 0.0000
# 4 0.0000 0.0000 0.0000 27.7773 0.0000 -3.9787
# 5 -6.7600 -0.5308 -5.9095 0.0000 22.7081 0.0000
# 6 0.0000 0.0000 0.0000 -3.9787 0.0000 33.9926
#
#
#
# Elastic Compliance Matrix: (Units=1/GPa)
#
#
# Indices 1 2 3 4 5 6 
#
# 1 0.014678 -0.005858 -0.005536 0.000000 0.002792 0.000000
# 2 -0.005858 0.017267 -0.008176 0.000000 -0.003468 0.000000
# 3 -0.005536 -0.008176 0.024751 0.000000 0.004602 0.000000
# 4 0.000000 0.000000 0.000000 0.036614 0.000000 0.004286
# 5 0.002792 -0.003468 0.004602 0.000000 0.045985 0.000000
# 6 0.000000 0.000000 0.000000 0.004286 0.000000 0.029920
#
#
# Mechanical properties :
#
#
# Convention : Reuss Voigt Hill
#
# Bulk Modulus (GPa) = 56.96273 62.75484 59.85879
# Shear Modulus (GPa) = 23.34175 25.39347 24.36761
#
# Velocity S-wave (km/s) = 3.56039 3.71357 3.63779
# Velocity P-wave (km/s) = 6.91643 7.24350 7.08185
#
# Compressibility (1/GPa) = 0.01755534
#
# Stress axis : x y z
#
# Youngs Moduli (GPa) = 68.12903 57.91311 40.40213
#
# Poissons Ratio (x) = 0.33927 0.22366
# Poissons Ratio (y) = 0.39912 0.33035
# Poissons Ratio (z) = 0.37715 0.47352
#
# Static dielectric constant tensor:
#      x y z
#    x 3.367360 0.000000 -0.196370 
#    y 0.000000 3.500940 0.000000 
#    z -0.196370 0.000000 3.527570 
# 
# 
# High freq. dielectric constant tensor:
#      x y z
#    x 1.710870 0.000000 -0.015340 
#    y 0.000000 1.724180 0.000000 
#    z -0.015340 0.000000 1.711160 
# 
# From -- ./inp_files/292554.got.cif
#   From: 2010.06.25/outbox.cif.g09.slc.cpg/sg12_147_cif.got.tgz:292554.got - 2010.06.28 00:19:55.
