data_PCOD8098074
_publ_section_title
;
Structure prediction by ZEFSAII (Michael W. Deem and Ramdas Pophale) SiO2 
 PCOD8098074
Probable space group: C 2/M
;
_chemical_formula_sum "Si O2"
_cell_formula_units_Z 56
_cell_length_a 18.536239
_cell_length_b 13.421575
_cell_length_c 13.056748
_cell_angle_alpha 90.000000
_cell_angle_beta 118.015242
_cell_angle_gamma 90.000000
_cell_volume 2867.699250
_symmetry_space_group_name_H-M "C 2/M"
_symmetry_group_IT_number 12
_symmetry_cell_setting 'monoclinic'
loop_
_space_group_symop_operation_xyz
x,y,z
-x,y,-z
-x,-y,-z
x,-y,z
1/2+x,1/2+y,z
1/2-x,1/2+y,-z
1/2-x,1/2-y,-z
1/2+x,1/2-y,z
loop_
_atom_site_type_symbol
_atom_site_label
_atom_site_fract_x
_atom_site_fract_y
_atom_site_fract_z
Si Si1 0.341005 0.209135 0.763400
Si Si2 0.215340 0.886806 0.530789
Si Si3 0.068365 0.614032 0.616382
Si Si4 0.028994 0.884257 0.403624
Si Si5 0.743026 0.885885 0.671307
Si Si6 0.414583 0.888126 0.999490
Si Si7 0.512722 0.212949 0.769726
O O1 0.262263 0.172850 0.648845
O O2 0.320154 0.325473 0.770126
O O3 0.346778 0.150816 0.874417
O O4 0.421896 0.196238 0.750467
O O5 0.261447 0.873208 0.454227
O O6 0.122615 0.848775 0.457824
O O7 0.214240 0.000000 0.566958
O O8 0.075543 0.500000 0.587234
O O9 0.158566 0.659473 0.660081
O O10 0.036331 0.623220 0.710072
O O11 0.000000 0.668401 0.500000
O O12 0.978107 0.817605 0.286522
O O13 0.000000 0.865935 0.500000
O O14 0.017714 0.000000 0.364552
O O15 0.757837 0.000000 0.713183
O O16 0.390172 0.000000 0.022183
O O17 0.500000 0.896307 0.000000
O O18 0.422964 0.804122 0.094389
#
# Coordination Sequence:
#
# PCOD8098074 Si02
#       7
#     8   8   8   8   8   8   8
#     4  11  21  34  58  85 111 149 192 234 286 338
#     4  10  20  34  55  83 113 148 183 231 289 342
#     4  10  21  34  53  83 115 148 184 229 287 345
#     4  10  22  37  55  83 118 150 185 233 285 342
#     4  10  21  36  54  82 120 150 185 233 286 346
#     4   9  20  38  57  83 114 147 192 242 282 330
#     4  11  21  35  60  80 110 149 192 234 283 334
#
# _framework density 19.527849
#
# number of rings (size 3 to 8) (size 9 to 14) (size 15 to 20)
#    0.000    1.857    1.429    2.571    4.000    2.857 
#    0.000    1.429    0.000    2.571    0.000    0.000 
#    0.000    0.000    0.000    0.000    0.000    0.000 
#
# Total GULP energy -347047.602508 kJ/mol
# GULP energy per Si atom -12394.557232 kJ/mol
# Density = 1.948340 g / cm^3
# Si number density = 19.527849 Si / 1000 Ang^3
#
#
#
# Elastic Constant Matrix: (Units=GPa)
#
#
# Indices 1 2 3 4 5 6 
#
# 1 103.7922 26.6574 26.1507 0.0000 -3.8429 0.0000
# 2 26.6574 99.0490 64.9032 0.0000 0.5808 0.0000
# 3 26.1507 64.9032 99.2437 0.0000 -8.8783 0.0000
# 4 0.0000 0.0000 0.0000 27.6815 0.0000 -2.1936
# 5 -3.8429 0.5808 -8.8783 0.0000 20.5465 0.0000
# 6 0.0000 0.0000 0.0000 -2.1936 0.0000 25.9277
#
#
#
# Elastic Compliance Matrix: (Units=1/GPa)
#
#
# Indices 1 2 3 4 5 6 
#
# 1 0.010533 -0.001939 -0.001379 0.000000 0.001429 0.000000
# 2 -0.001939 0.018693 -0.012268 0.000000 -0.006192 0.000000
# 3 -0.001379 -0.012268 0.019213 0.000000 0.008391 0.000000
# 4 0.000000 0.000000 0.000000 0.036369 0.000000 0.003077
# 5 0.001429 -0.006192 0.008391 0.000000 0.052738 0.000000
# 6 0.000000 0.000000 0.000000 0.003077 0.000000 0.038829
#
#
# Mechanical properties :
#
#
# Convention : Reuss Voigt Hill
#
# Bulk Modulus (GPa) = 57.91603 59.72305 58.81954
# Shear Modulus (GPa) = 23.44080 27.12272 25.28176
#
# Velocity S-wave (km/s) = 3.46841 3.73087 3.60203
# Velocity P-wave (km/s) = 6.76479 7.01492 6.89099
#
# Compressibility (1/GPa) = 0.01726638
#
# Stress axis : x y z
#
# Youngs Moduli (GPa) = 94.93822 53.49665 52.04793
#
# Poissons Ratio (x) = 0.10375 0.07179
# Poissons Ratio (y) = 0.18412 0.63850
# Poissons Ratio (z) = 0.13096 0.65627
#
# Static dielectric constant tensor:
#      x y z
#    x 3.525090 0.000000 -0.047820 
#    y 0.000000 3.807210 0.000000 
#    z -0.047820 0.000000 3.585600 
# 
# 
# High freq. dielectric constant tensor:
#      x y z
#    x 1.754590 0.000000 -0.005370 
#    y 0.000000 1.769210 0.000000 
#    z -0.005370 0.000000 1.735140 
# 
# From -- ./inp_files/224887.got.cif
#   From: 2010.06.25/outbox.cif.g09.slc.cpg/sg12_113_cif.got.tgz:224887.got - 2010.06.28 00:19:55.
