data_PCOD8098335
_publ_section_title
;
Structure prediction by ZEFSAII (Michael W. Deem and Ramdas Pophale) SiO2 
 PCOD8098335
Probable space group: C 2/M
;
_chemical_formula_sum "Si O2"
_cell_formula_units_Z 64
_cell_length_a 20.287649
_cell_length_b 8.965956
_cell_length_c 31.682446
_cell_angle_alpha 90.000000
_cell_angle_beta 36.635925
_cell_angle_gamma 90.000000
_cell_volume 3438.931630
_symmetry_space_group_name_H-M "C 2/M"
_symmetry_group_IT_number 12
_symmetry_cell_setting 'monoclinic'
loop_
_space_group_symop_operation_xyz
x,y,z
-x,y,-z
-x,-y,-z
x,-y,z
1/2+x,1/2+y,z
1/2-x,1/2+y,-z
1/2-x,1/2-y,-z
1/2+x,1/2-y,z
loop_
_atom_site_type_symbol
_atom_site_label
_atom_site_fract_x
_atom_site_fract_y
_atom_site_fract_z
Si Si1 0.070521 0.328576 0.791600
Si Si2 0.496475 0.675437 0.049963
Si Si3 0.365847 0.823622 0.950275
Si Si4 0.053971 0.327869 0.346929
Si Si5 0.659935 0.675697 0.576072
Si Si6 0.894992 0.330116 0.582945
Si Si7 0.308237 0.172472 0.352100
Si Si8 0.704426 0.672480 0.790858
O O1 0.083537 0.500000 0.796677
O O2 0.086928 0.301307 0.733131
O O3 0.168860 0.248292 0.765696
O O4 0.950212 0.274245 0.869468
O O5 0.520926 0.500000 0.041566
O O6 0.589442 0.763683 0.028034
O O7 0.374725 0.718402 0.129763
O O8 0.500000 0.728901 0.000000
O O9 0.350974 0.000000 0.960562
O O10 0.250000 0.750000 0.000000
O O11 0.019702 0.500000 0.357093
O O12 0.068103 0.292862 0.388775
O O13 0.168478 0.288501 0.263854
O O14 0.961922 0.220913 0.375427
O O15 0.674576 0.500000 0.565315
O O16 0.750000 0.750000 0.500000
O O17 0.678166 0.724142 0.614610
O O18 0.850812 0.500000 0.602283
O O19 0.802113 0.215239 0.616073
O O20 0.000000 0.304785 0.500000
O O21 0.301430 0.000000 0.369516
O O22 0.693969 0.500000 0.786119
#
# Coordination Sequence:
#
# PCOD8098335 Si02
#       8
#     8   8   8   8   8   8   8   8
#     4   9  19  35  57  84 114 148 185 232 283 332
#     4   9  18  34  56  83 115 150 189 229 275 332
#     4  10  20  36  57  83 115 151 190 234 284 333
#     4  10  20  36  57  83 115 148 186 228 278 335
#     4  12  26  43  61  81 112 151 190 233 285 339
#     4  10  20  34  56  85 113 142 178 224 274 326
#     4  11  22  38  60  85 113 146 187 231 279 336
#     4   9  17  32  57  84 111 148 186 227 277 331
#
# _framework density 18.610431999999999
#
# number of rings (size 3 to 8) (size 9 to 14) (size 15 to 20)
#    0.000    2.000    1.250    2.625    0.000    3.500 
#    2.250    0.000    0.000    0.000    0.000    0.000 
#    0.000    0.000    0.000    0.000    0.000    0.000 
#
# Total GULP energy -396819.445168 kJ/mol
# GULP energy per Si atom -12400.607661 kJ/mol
# Density = 1.856807 g / cm^3
# Si number density = 18.610432 Si / 1000 Ang^3
#
#
#
# Elastic Constant Matrix: (Units=GPa)
#
#
# Indices 1 2 3 4 5 6 
#
# 1 89.6019 45.9866 62.2752 -0.0015 -2.9852 0.0437
# 2 45.9866 83.9025 41.9563 -0.0008 -1.7943 0.0250
# 3 62.2752 41.9563 107.6216 0.0006 3.9240 0.0122
# 4 -0.0015 -0.0008 0.0006 26.0509 -0.0014 -4.0965
# 5 -2.9852 -1.7943 3.9240 -0.0014 30.4903 0.0013
# 6 0.0437 0.0250 0.0122 -4.0965 0.0013 33.0561
#
#
#
# Elastic Compliance Matrix: (Units=1/GPa)
#
#
# Indices 1 2 3 4 5 6 
#
# 1 0.021735 -0.006837 -0.010022 -0.000002 0.003015 -0.000020
# 2 -0.006837 0.017036 -0.002710 0.000000 0.000682 -0.000003
# 3 -0.010022 -0.002710 0.016265 0.000000 -0.003234 0.000009
# 4 -0.000002 0.000000 0.000000 0.039149 0.000001 0.004852
# 5 0.003015 0.000682 -0.003234 0.000001 0.033549 -0.000004
# 6 -0.000020 -0.000003 0.000009 0.004852 -0.000004 0.030853
#
#
# Mechanical properties :
#
#
# Convention : Reuss Voigt Hill
#
# Bulk Modulus (GPa) = 62.89762 64.61802 63.75782
# Shear Modulus (GPa) = 24.62768 26.64668 25.63718
#
# Velocity S-wave (km/s) = 3.64170 3.78804 3.71559
# Velocity P-wave (km/s) = 7.18004 7.34364 7.26230
#
# Compressibility (1/GPa) = 0.01589885
#
# Stress axis : x y z
#
# Youngs Moduli (GPa) = 46.00848 58.70038 61.48111
#
# Poissons Ratio (x) = 0.40134 0.61614
# Poissons Ratio (y) = 0.31456 0.16661
# Poissons Ratio (z) = 0.46108 0.15908
#
# Static dielectric constant tensor:
#      x y z
#    x 3.352010 -0.000020 0.011450 
#    y -0.000020 3.423200 -0.000030 
#    z 0.011450 -0.000030 3.877300 
# 
# 
# High freq. dielectric constant tensor:
#      x y z
#    x 1.709070 0.000000 0.002090 
#    y 0.000000 1.721980 0.000000 
#    z 0.002090 0.000000 1.738880 
# 
# From -- ./inp_files/378200.got.cif
#   From: 2010.06.25/outbox.cif.g09.slc.cpg/sg12_190_cif.got.tgz:378200.got - 2010.06.28 00:19:55.
