data_PCOD8098778
_publ_section_title
;
Structure prediction by ZEFSAII (Michael W. Deem and Ramdas Pophale) SiO2 
 PCOD8098778
Probable space group: C 2/M
;
_chemical_formula_sum "Si O2"
_cell_formula_units_Z 64
_cell_length_a 14.856878
_cell_length_b 8.731750
_cell_length_c 29.365245
_cell_angle_alpha 90.000000
_cell_angle_beta 118.470566
_cell_angle_gamma 90.000000
_cell_volume 3348.744752
_symmetry_space_group_name_H-M "C 2/M"
_symmetry_group_IT_number 12
_symmetry_cell_setting 'monoclinic'
loop_
_space_group_symop_operation_xyz
x,y,z
-x,y,-z
-x,-y,-z
x,-y,z
1/2+x,1/2+y,z
1/2-x,1/2+y,-z
1/2-x,1/2-y,-z
1/2+x,1/2-y,z
loop_
_atom_site_type_symbol
_atom_site_label
_atom_site_fract_x
_atom_site_fract_y
_atom_site_fract_z
Si Si1 0.081336 0.319020 0.250119
Si Si2 0.793623 0.318959 0.305342
Si Si3 0.798282 0.823721 0.120160
Si Si4 0.149750 0.681294 0.499640
Si Si5 0.383903 0.677190 0.238214
Si Si6 0.506231 0.179808 0.865812
Si Si7 0.930777 0.318134 0.942760
Si Si8 0.425909 0.818669 0.421794
O O1 0.100947 0.500000 0.256335
O O2 0.179325 0.228257 0.292191
O O3 0.986811 0.277463 0.260034
O O4 0.055999 0.257872 0.192954
O O5 0.801989 0.500000 0.300251
O O6 0.819431 0.230694 0.265613
O O7 0.869801 0.259187 0.363044
O O8 0.811310 0.795248 0.177179
O O9 0.874883 0.720911 0.109590
O O10 0.686249 0.771630 0.077167
O O11 0.819377 0.000000 0.113492
O O12 0.161603 0.500000 0.500289
O O13 0.250000 0.750000 0.500000
O O14 0.136725 0.739677 0.548762
O O15 0.044725 0.735679 0.449131
O O16 0.414165 0.500000 0.250292
O O17 0.464716 0.253278 0.902504
O O18 0.492982 0.000000 0.863814
O O19 0.943558 0.500000 0.943995
O O20 0.000000 0.248752 0.000000
O O21 0.424845 0.000000 0.423994
#
# Coordination Sequence:
#
# PCOD8098778 Si02
#       8
#     8   8   8   8   8   8   8   8
#     4  10  20  35  53  75 103 137 175 212 253 304
#     4  11  21  34  53  79 109 139 170 210 257 302
#     4   9  18  33  52  72  96 128 166 205 246 296
#     4   9  17  35  58  76  98 133 171 207 248 294
#     4  10  20  35  53  75 103 137 175 212 253 304
#     4   9  18  33  52  72  96 128 166 205 246 296
#     4   9  17  30  49  72  97 127 161 198 247 304
#     4   8  18  35  53  74 104 137 167 201 249 304
#
# _framework density 19.111637999999999
#
# number of rings (size 3 to 8) (size 9 to 14) (size 15 to 20)
#    0.000    2.625    0.000    2.625    0.000    4.500 
#    0.000    6.875    0.000    0.750    0.000    0.000 
#    0.000    0.000    0.000    0.000    0.000    0.000 
#
# Total GULP energy -396740.050688 kJ/mol
# GULP energy per Si atom -12398.126584 kJ/mol
# Density = 1.906814 g / cm^3
# Si number density = 19.111638 Si / 1000 Ang^3
#
#
#
# Elastic Constant Matrix: (Units=GPa)
#
#
# Indices 1 2 3 4 5 6 
#
# 1 91.4233 11.7190 34.1401 0.0000 17.6355 0.0000
# 2 11.7190 29.5861 19.7464 0.0000 2.0119 0.0000
# 3 34.1401 19.7464 80.6058 0.0000 25.1732 0.0000
# 4 0.0000 0.0000 0.0000 18.0812 0.0000 2.4800
# 5 17.6355 2.0119 25.1732 0.0000 27.0775 0.0000
# 6 0.0000 0.0000 0.0000 2.4800 0.0000 35.1583
#
#
#
# Elastic Compliance Matrix: (Units=1/GPa)
#
#
# Indices 1 2 3 4 5 6 
#
# 1 0.013616 -0.002776 -0.003356 0.000000 -0.005542 0.000000
# 2 -0.002776 0.042494 -0.012418 0.000000 0.010196 0.000000
# 3 -0.003356 -0.012418 0.022404 0.000000 -0.017719 0.000000
# 4 0.000000 0.000000 0.000000 0.055847 0.000000 -0.003939
# 5 -0.005542 0.010196 -0.017719 0.000000 0.056256 0.000000
# 6 0.000000 0.000000 0.000000 -0.003939 0.000000 0.028721
#
#
# Mechanical properties :
#
#
# Convention : Reuss Voigt Hill
#
# Bulk Modulus (GPa) = 24.14749 36.98068 30.56409
# Shear Modulus (GPa) = 18.50183 25.13069 21.81626
#
# Velocity S-wave (km/s) = 3.11479 3.63015 3.38230
# Velocity P-wave (km/s) = 5.05948 6.07968 5.59289
#
# Compressibility (1/GPa) = 0.04141217
#
# Stress axis : x y z
#
# Youngs Moduli (GPa) = 73.44113 23.53256 44.63584
#
# Poissons Ratio (x) = 0.06534 0.14981
# Poissons Ratio (y) = 0.20391 0.55430
# Poissons Ratio (z) = 0.24649 0.29223
#
# Static dielectric constant tensor:
#      x y z
#    x 3.547210 0.000000 0.019710 
#    y 0.000000 3.165960 0.000000 
#    z 0.019710 0.000000 3.775120 
# 
# 
# High freq. dielectric constant tensor:
#      x y z
#    x 1.751510 0.000000 0.005230 
#    y 0.000000 1.714720 0.000000 
#    z 0.005230 0.000000 1.741470 
# 
# From -- ./inp_files/375120.got.cif
#   From: 2010.06.25/outbox.cif.g09.slc.cpg/sg12_188_cif.got.tgz:375120.got - 2010.06.28 00:19:55.
