data_PCOD8098487
_publ_section_title
;
Structure prediction by ZEFSAII (Michael W. Deem and Ramdas Pophale) SiO2 
 PCOD8098487
Probable space group: C 2/M
;
_chemical_formula_sum "Si O2"
_cell_formula_units_Z 56
_cell_length_a 17.203779
_cell_length_b 23.438765
_cell_length_c 9.476594
_cell_angle_alpha 90.000000
_cell_angle_beta 47.197481
_cell_angle_gamma 90.000000
_cell_volume 2803.685974
_symmetry_space_group_name_H-M "C 2/M"
_symmetry_group_IT_number 12
_symmetry_cell_setting 'monoclinic'
loop_
_space_group_symop_operation_xyz
x,y,z
-x,y,-z
-x,-y,-z
x,-y,z
1/2+x,1/2+y,z
1/2-x,1/2+y,-z
1/2-x,1/2-y,-z
1/2+x,1/2-y,z
loop_
_atom_site_type_symbol
_atom_site_label
_atom_site_fract_x
_atom_site_fract_y
_atom_site_fract_z
Si Si1 0.057002 0.841415 0.578286
Si Si2 0.784659 0.434892 0.845842
Si Si3 0.917464 0.376333 0.903141
Si Si4 0.204340 0.351722 0.674747
Si Si5 0.538663 0.234143 0.799503
Si Si6 0.372531 0.064561 0.437885
Si Si7 0.040516 0.066322 0.103243
O O1 0.182358 0.843217 0.393899
O O2 0.034175 0.787624 0.703779
O O3 0.000000 0.833894 0.500000
O O4 0.018113 0.898793 0.701931
O O5 0.794406 0.500000 0.888990
O O6 0.818889 0.390297 0.923623
O O7 0.861618 0.425110 0.618029
O O8 0.664912 0.420618 0.952471
O O9 0.961560 0.312737 0.823028
O O10 0.008603 0.422260 0.759273
O O11 0.878565 0.379376 0.112488
O O12 0.156535 0.292419 0.672995
O O13 0.213588 0.396227 0.534828
O O14 0.500000 0.254796 0.000000
O O15 0.343910 0.000000 0.434990
O O16 0.015520 0.000000 0.162083
O O17 0.000000 0.085568 0.000000
#
# Coordination Sequence:
#
# PCOD8098487 Si02
#       7
#     8   8   8   8   8   8   8
#     4  12  24  39  60  87 115 148 191 236 282 330
#     4  10  20  35  57  86 118 150 188 236 286 332
#     4  10  20  37  58  86 118 146 181 236 293 339
#     4  10  22  39  58  81 116 153 188 231 282 340
#     4   9  21  41  61  82 112 148 189 234 283 342
#     4  10  20  34  57  87 115 149 191 232 281 343
#     4  10  22  41  61  82 114 156 197 232 271 329
#
# _framework density 19.973706
#
# number of rings (size 3 to 8) (size 9 to 14) (size 15 to 20)
#    0.000    1.857    0.000    4.714    0.000    7.143 
#    0.000    9.286    0.000    0.000    0.000    0.000 
#    0.000    0.000    0.000    0.000    0.000    0.000 
#
# Total GULP energy -347247.636934 kJ/mol
# GULP energy per Si atom -12401.701319 kJ/mol
# Density = 1.992824 g / cm^3
# Si number density = 19.973706 Si / 1000 Ang^3
#
#
#
# Elastic Constant Matrix: (Units=GPa)
#
#
# Indices 1 2 3 4 5 6 
#
# 1 141.1078 48.5419 35.5965 0.0000 1.3163 0.0000
# 2 48.5419 91.2339 48.3080 0.0000 9.5904 0.0000
# 3 35.5965 48.3080 82.6919 0.0000 2.7759 0.0000
# 4 0.0000 0.0000 0.0000 29.4809 0.0000 9.5833
# 5 1.3163 9.5904 2.7759 0.0000 30.8317 0.0000
# 6 0.0000 0.0000 0.0000 9.5833 0.0000 28.5961
#
#
#
# Elastic Compliance Matrix: (Units=1/GPa)
#
#
# Indices 1 2 3 4 5 6 
#
# 1 0.008835 -0.004018 -0.001490 0.000000 0.001007 0.000000
# 2 -0.004018 0.018235 -0.008765 0.000000 -0.004711 0.000000
# 3 -0.001490 -0.008765 0.017815 0.000000 0.001186 0.000000
# 4 0.000000 0.000000 0.000000 0.038067 0.000000 -0.012757
# 5 0.001007 -0.004711 0.001186 0.000000 0.033750 0.000000
# 6 0.000000 0.000000 0.000000 -0.012757 0.000000 0.039245
#
#
# Mechanical properties :
#
#
# Convention : Reuss Voigt Hill
#
# Bulk Modulus (GPa) = 61.20032 64.43627 62.81830
# Shear Modulus (GPa) = 26.32412 29.95420 28.13916
#
# Velocity S-wave (km/s) = 3.63428 3.87677 3.75748
# Velocity P-wave (km/s) = 6.95109 7.23669 7.09533
#
# Compressibility (1/GPa) = 0.01633978
#
# Stress axis : x y z
#
# Youngs Moduli (GPa) = 113.18071 54.84014 56.13224
#
# Poissons Ratio (x) = 0.22034 0.08364
# Poissons Ratio (y) = 0.45474 0.49199
# Poissons Ratio (z) = 0.16864 0.48067
#
# Static dielectric constant tensor:
#      x y z
#    x 3.709270 0.000000 -0.016880 
#    y 0.000000 3.574320 0.000000 
#    z -0.016880 0.000000 3.615520 
# 
# 
# High freq. dielectric constant tensor:
#      x y z
#    x 1.785570 0.000000 -0.002130 
#    y 0.000000 1.775250 0.000000 
#    z -0.002130 0.000000 1.781320 
# 
# From -- ./inp_files/79080.got.cif
#   From: 2010.06.25/outbox.cif.g09.slc.cpg/sg12_40_cif.got.tgz:79080.got - 2010.06.28 00:19:55.
