data_PCOD8098010
_publ_section_title
;
Structure prediction by ZEFSAII (Michael W. Deem and Ramdas Pophale) SiO2 
 PCOD8098010
Probable space group: C 2/M
;
_chemical_formula_sum "Si O2"
_cell_formula_units_Z 64
_cell_length_a 18.950045
_cell_length_b 8.878509
_cell_length_c 20.264190
_cell_angle_alpha 90.000000
_cell_angle_beta 90.703466
_cell_angle_gamma 90.000000
_cell_volume 3409.155408
_symmetry_space_group_name_H-M "C 2/M"
_symmetry_group_IT_number 12
_symmetry_cell_setting 'monoclinic'
loop_
_space_group_symop_operation_xyz
x,y,z
-x,y,-z
-x,-y,-z
x,-y,z
1/2+x,1/2+y,z
1/2-x,1/2+y,-z
1/2-x,1/2-y,-z
1/2+x,1/2-y,z
loop_
_atom_site_type_symbol
_atom_site_label
_atom_site_fract_x
_atom_site_fract_y
_atom_site_fract_z
Si Si1 0.665440 0.321691 0.747616
Si Si2 0.583739 0.329909 0.505973
Si Si3 0.667334 0.672772 0.116574
Si Si4 0.420968 0.178043 0.993474
Si Si5 0.907527 0.327018 0.626427
Si Si6 0.074297 0.326845 0.638420
Si Si7 0.687086 0.323612 0.266617
Si Si8 0.172116 0.323027 0.886209
O O1 0.667797 0.500000 0.747329
O O2 0.602435 0.264675 0.700993
O O3 0.739052 0.259204 0.720648
O O4 0.648695 0.264559 0.820767
O O5 0.500000 0.330887 0.500000
O O6 0.613483 0.500000 0.507913
O O7 0.616077 0.242415 0.443856
O O8 0.607326 0.243516 0.572281
O O9 0.649923 0.500000 0.101562
O O10 0.612472 0.772768 0.075866
O O11 0.657797 0.711419 0.193367
O O12 0.746807 0.712284 0.095138
O O13 0.422005 0.000000 0.995116
O O14 0.500000 0.243624 0.000000
O O15 0.375151 0.238778 0.054346
O O16 0.883370 0.500000 0.628289
O O17 0.870456 0.234348 0.683345
O O18 0.990501 0.310628 0.637854
O O19 0.097953 0.500000 0.642952
O O20 0.700492 0.500000 0.276153
O O21 0.161675 0.500000 0.872588
#
# Coordination Sequence:
#
# PCOD8098010 Si02
#       8
#     8   8   8   8   8   8   8   8
#     4  11  22  36  56  81 107 139 183 226 267 320
#     4   9  17  31  52  78 108 142 181 223 266 316
#     4   9  19  35  55  76 100 136 177 215 258 313
#     4  10  21  35  53  79 109 138 170 214 265 314
#     4  10  20  34  55  82 109 142 183 222 265 320
#     4  10  20  35  55  79 110 145 180 222 270 318
#     4  10  21  38  57  79 110 143 176 220 274 323
#     4   9  19  37  56  75 103 139 177 215 263 319
#
# _framework density 18.772978999999999
#
# number of rings (size 3 to 8) (size 9 to 14) (size 15 to 20)
#    0.000    2.250    0.000    3.750    0.000    7.250 
#    0.000    4.375    0.000    0.000    0.000    0.000 
#    0.000    0.000    0.000    0.000    0.000    0.000 
#
# Total GULP energy -396899.759239 kJ/mol
# GULP energy per Si atom -12403.117476 kJ/mol
# Density = 1.873025 g / cm^3
# Si number density = 18.772979 Si / 1000 Ang^3
#
#
#
# Elastic Constant Matrix: (Units=GPa)
#
#
# Indices 1 2 3 4 5 6 
#
# 1 40.3362 9.7868 21.0504 0.0000 -3.3471 0.0000
# 2 9.7868 81.5435 22.9234 0.0000 3.6892 0.0000
# 3 21.0504 22.9234 75.5185 0.0000 -6.9490 0.0000
# 4 0.0000 0.0000 0.0000 37.8330 0.0000 1.3217
# 5 -3.3471 3.6892 -6.9490 0.0000 26.9919 0.0000
# 6 0.0000 0.0000 0.0000 1.3217 0.0000 26.1922
#
#
#
# Elastic Compliance Matrix: (Units=1/GPa)
#
#
# Indices 1 2 3 4 5 6 
#
# 1 0.029235 -0.001478 -0.007526 0.000000 0.001890 0.000000
# 2 -0.001478 0.013716 -0.004036 0.000000 -0.003097 0.000000
# 3 -0.007526 -0.004036 0.016931 0.000000 0.003977 0.000000
# 4 0.000000 0.000000 0.000000 0.026479 0.000000 -0.001336
# 5 0.001890 -0.003097 0.003977 0.000000 0.038730 0.000000
# 6 0.000000 0.000000 0.000000 -0.001336 0.000000 0.038247
#
#
# Mechanical properties :
#
#
# Convention : Reuss Voigt Hill
#
# Bulk Modulus (GPa) = 29.58642 33.87994 31.73318
# Shear Modulus (GPa) = 24.91466 27.77927 26.34696
#
# Velocity S-wave (km/s) = 3.64697 3.85092 3.75033
# Velocity P-wave (km/s) = 5.79035 6.15298 5.97442
#
# Compressibility (1/GPa) = 0.03379929
#
# Stress axis : x y z
#
# Youngs Moduli (GPa) = 34.20562 72.90969 59.06363
#
# Poissons Ratio (x) = 0.10779 0.44454
# Poissons Ratio (y) = 0.05057 0.23839
# Poissons Ratio (z) = 0.25745 0.29428
#
# Static dielectric constant tensor:
#      x y z
#    x 3.310340 0.000000 -0.086970 
#    y 0.000000 3.489160 0.000000 
#    z -0.086970 0.000000 3.554810 
# 
# 
# High freq. dielectric constant tensor:
#      x y z
#    x 1.710290 0.000000 -0.001690 
#    y 0.000000 1.735720 0.000000 
#    z -0.001690 0.000000 1.739960 
# 
# From -- ./inp_files/314101.got.cif
#   From: 2010.06.25/outbox.cif.g09.slc.cpg/sg12_158_cif.got.tgz:314101.got - 2010.06.28 00:19:55.
