data_PCOD8098866
_publ_section_title
;
Structure prediction by ZEFSAII (Michael W. Deem and Ramdas Pophale) SiO2 
 PCOD8098866
Probable space group: C 2/M
;
_chemical_formula_sum "Si O2"
_cell_formula_units_Z 64
_cell_length_a 13.785118
_cell_length_b 13.710315
_cell_length_c 18.852263
_cell_angle_alpha 90.000000
_cell_angle_beta 85.158497
_cell_angle_gamma 90.000000
_cell_volume 3550.332846
_symmetry_space_group_name_H-M "C 2/M"
_symmetry_group_IT_number 12
_symmetry_cell_setting 'monoclinic'
loop_
_space_group_symop_operation_xyz
x,y,z
-x,y,-z
-x,-y,-z
x,-y,z
1/2+x,1/2+y,z
1/2-x,1/2+y,-z
1/2-x,1/2-y,-z
1/2+x,1/2-y,z
loop_
_atom_site_type_symbol
_atom_site_label
_atom_site_fract_x
_atom_site_fract_y
_atom_site_fract_z
Si Si1 0.913257 0.217854 0.294145
Si Si2 0.761851 0.113593 0.214420
Si Si3 0.594247 0.712240 0.540336
Si Si4 0.619166 0.614532 0.926371
Si Si5 0.098315 0.884626 0.083109
Si Si6 0.374182 0.713259 0.776942
Si Si7 0.774081 0.389900 0.308390
Si Si8 0.275883 0.109812 0.472257
O O1 0.840945 0.132716 0.271440
O O2 0.935484 0.206677 0.375793
O O3 0.864106 0.322012 0.280281
O O4 0.011641 0.211232 0.244055
O O5 0.803750 0.151548 0.136296
O O6 0.665114 0.177126 0.233301
O O7 0.733158 0.000000 0.216446
O O8 0.500000 0.686317 0.500000
O O9 0.634511 0.818674 0.514231
O O10 0.679580 0.633774 0.523079
O O11 0.609910 0.500000 0.919698
O O12 0.512085 0.654954 0.915759
O O13 0.651476 0.640937 0.004909
O O14 0.149621 0.824334 0.142394
O O15 0.103974 0.000000 0.099045
O O16 0.323362 0.638432 0.726667
O O17 0.804689 0.500000 0.288404
O O18 0.748251 0.376379 0.392159
O O19 0.309580 0.000000 0.487965
#
# Coordination Sequence:
#
# PCOD8098866 Si02
#       8
#     8   8   8   8   8   8   8   8
#     4  10  21  35  51  74 103 135 166 202 254 302
#     4  10  21  36  52  74 104 135 168 209 252 296
#     4  10  20  35  54  75 102 131 165 210 250 297
#     4   8  15  30  50  73 102 133 165 206 253 293
#     4   9  16  28  51  78 102 131 167 208 250 295
#     4  11  20  31  53  80 101 131 173 209 247 297
#     4   9  19  35  53  73 101 133 167 208 250 297
#     4   9  19  36  54  74 101 133 167 205 251 298
#
# _framework density 18.026478999999998
#
# number of rings (size 3 to 8) (size 9 to 14) (size 15 to 20)
#    0.000    2.500    1.250    1.875    0.000    3.500 
#    0.000    0.000    0.000    0.000    0.000    1.750 
#    0.000    0.000    0.000    0.000    0.000    0.000 
#
# Total GULP energy -396739.432168 kJ/mol
# GULP energy per Si atom -12398.107255 kJ/mol
# Density = 1.798545 g / cm^3
# Si number density = 18.026479 Si / 1000 Ang^3
#
#
#
# Elastic Constant Matrix: (Units=GPa)
#
#
# Indices 1 2 3 4 5 6 
#
# 1 48.5951 5.7049 20.5713 0.0000 9.1555 0.0000
# 2 5.7049 61.7656 26.5263 0.0000 10.4617 0.0000
# 3 20.5713 26.5263 67.8435 0.0000 0.1200 0.0000
# 4 0.0000 0.0000 0.0000 25.6561 0.0000 0.1542
# 5 9.1555 10.4617 0.1200 0.0000 14.8824 0.0000
# 6 0.0000 0.0000 0.0000 0.1542 0.0000 11.9571
#
#
#
# Elastic Compliance Matrix: (Units=1/GPa)
#
#
# Indices 1 2 3 4 5 6 
#
# 1 0.028534 0.005641 -0.010820 0.000000 -0.021432 0.000000
# 2 0.005641 0.023788 -0.010976 0.000000 -0.020104 0.000000
# 3 -0.010820 -0.010976 0.022287 0.000000 0.014192 0.000000
# 4 0.000000 0.000000 0.000000 0.038980 0.000000 -0.000503
# 5 -0.021432 -0.020104 0.014192 0.000000 0.094396 0.000000
# 6 0.000000 0.000000 0.000000 -0.000503 0.000000 0.083638
#
#
# Mechanical properties :
#
#
# Convention : Reuss Voigt Hill
#
# Bulk Modulus (GPa) = 23.64040 31.53436 27.58738
# Shear Modulus (GPa) = 14.79143 18.85924 16.82533
#
# Velocity S-wave (km/s) = 2.86761 3.23801 3.05842
# Velocity P-wave (km/s) = 4.90989 5.61346 5.27342
#
# Compressibility (1/GPa) = 0.04230047
#
# Stress axis : x y z
#
# Youngs Moduli (GPa) = 35.04570 42.03759 44.86917
#
# Poissons Ratio (x) = -0.23715 0.48548
# Poissons Ratio (y) = -0.19771 0.49249
# Poissons Ratio (z) = 0.37919 0.46141
#
# Static dielectric constant tensor:
#      x y z
#    x 3.158280 0.000000 -0.123980 
#    y 0.000000 3.228860 0.000000 
#    z -0.123980 0.000000 3.623960 
# 
# 
# High freq. dielectric constant tensor:
#      x y z
#    x 1.679630 0.000000 0.000610 
#    y 0.000000 1.684590 0.000000 
#    z 0.000610 0.000000 1.709360 
# 
# From -- ./inp_files/263340.got.cif
#   From: 2010.06.25/outbox.cif.g09.slc.cpg/sg12_132_cif.got.tgz:263340.got - 2010.06.28 00:19:55.
