data_PCOD8098532
_publ_section_title
;
Structure prediction by ZEFSAII (Michael W. Deem and Ramdas Pophale) SiO2 
 PCOD8098532
Probable space group: C 2/M
;
_chemical_formula_sum "Si O2"
_cell_formula_units_Z 56
_cell_length_a 34.070991
_cell_length_b 8.768242
_cell_length_c 22.012629
_cell_angle_alpha 90.000000
_cell_angle_beta 26.525989
_cell_angle_gamma 90.000000
_cell_volume 2936.916018
_symmetry_space_group_name_H-M "C 2/M"
_symmetry_group_IT_number 12
_symmetry_cell_setting 'monoclinic'
loop_
_space_group_symop_operation_xyz
x,y,z
-x,y,-z
-x,-y,-z
x,-y,z
1/2+x,1/2+y,z
1/2-x,1/2+y,-z
1/2-x,1/2-y,-z
1/2+x,1/2-y,z
loop_
_atom_site_type_symbol
_atom_site_label
_atom_site_fract_x
_atom_site_fract_y
_atom_site_fract_z
Si Si1 0.560558 0.321123 0.611630
Si Si2 0.823089 0.176444 0.102245
Si Si3 0.758265 0.177613 0.896957
Si Si4 0.682699 0.179267 0.640509
Si Si5 0.111001 0.677921 0.197502
Si Si6 0.479084 0.321176 0.195285
Si Si7 0.743880 0.823367 0.342351
O O1 0.576434 0.500000 0.582675
O O2 0.478381 0.271956 0.684691
O O3 0.544334 0.274810 0.703756
O O4 0.644613 0.231774 0.470673
O O5 0.759079 0.274039 0.148068
O O6 0.796410 0.206134 0.208018
O O7 0.814141 0.000000 0.095955
O O8 0.922672 0.232776 0.955596
O O9 0.841770 0.271075 0.805882
O O10 0.780569 0.000000 0.870194
O O11 0.672655 0.219607 0.055092
O O12 0.750000 0.250000 0.500000
O O13 0.584187 0.232352 0.762916
O O14 0.706984 0.227576 0.674557
O O15 0.690295 0.000000 0.624347
O O16 0.089097 0.500000 0.230627
O O17 0.466863 0.500000 0.201063
O O18 0.744131 0.000000 0.360516
#
# Coordination Sequence:
#
# PCOD8098532 Si02
#       7
#     8   8   8   8   8   8   8
#     4  11  21  36  61  89 119 153 195 245 293 345
#     4  10  22  41  62  86 119 159 195 237 292 354
#     4  10  20  34  57  88 121 155 193 243 294 343
#     4  12  24  39  61  88 119 153 196 246 293 344
#     4  10  20  34  57  88 121 155 197 243 289 345
#     4  10  21  38  62  88 117 153 196 241 291 347
#     4  11  24  41  62  86 119 158 196 237 293 356
#
# _framework density 19.067620999999999
#
# number of rings (size 3 to 8) (size 9 to 14) (size 15 to 20)
#    0.000    1.429    2.857    3.000    0.000    4.000 
#    0.000    3.571    0.000    4.286    0.000    0.000 
#    0.000    0.000    0.000    0.000    0.000    0.000 
#
# Total GULP energy -347397.112892 kJ/mol
# GULP energy per Si atom -12407.039746 kJ/mol
# Density = 1.902422 g / cm^3
# Si number density = 19.067621 Si / 1000 Ang^3
#
#
#
# Elastic Constant Matrix: (Units=GPa)
#
#
# Indices 1 2 3 4 5 6 
#
# 1 105.0880 37.4036 32.9152 -0.0044 -16.4239 -0.0008
# 2 37.4036 72.8231 30.1170 -0.0071 -0.3663 0.0022
# 3 32.9152 30.1170 80.4725 -0.0111 -7.6927 0.0008
# 4 -0.0044 -0.0071 -0.0111 27.8424 0.0036 -4.7221
# 5 -16.4239 -0.3663 -7.6927 0.0036 29.0945 0.0001
# 6 -0.0008 0.0022 0.0008 -4.7221 0.0001 37.6283
#
#
#
# Elastic Compliance Matrix: (Units=1/GPa)
#
#
# Indices 1 2 3 4 5 6 
#
# 1 0.013484 -0.005774 -0.002702 -0.000001 0.006825 0.000001
# 2 -0.005774 0.018778 -0.005083 0.000002 -0.004367 -0.000001
# 3 -0.002702 -0.005083 0.015679 0.000004 0.002556 0.000000
# 4 -0.000001 0.000002 0.000004 0.036697 -0.000004 0.004605
# 5 0.006825 -0.004367 0.002556 -0.000004 0.038844 0.000000
# 6 0.000001 -0.000001 0.000000 0.004605 0.000000 0.027154
#
#
# Mechanical properties :
#
#
# Convention : Reuss Voigt Hill
#
# Bulk Modulus (GPa) = 48.02664 51.02834 49.52749
# Shear Modulus (GPa) = 27.07173 29.44290 28.25731
#
# Velocity S-wave (km/s) = 3.77208 3.93381 3.85379
# Velocity P-wave (km/s) = 6.64933 6.88861 6.77003
#
# Compressibility (1/GPa) = 0.02082178
#
# Stress axis : x y z
#
# Youngs Moduli (GPa) = 74.16330 53.25423 63.78107
#
# Poissons Ratio (x) = 0.30748 0.17233
# Poissons Ratio (y) = 0.42821 0.32423
# Poissons Ratio (z) = 0.20038 0.27072
#
# Static dielectric constant tensor:
#      x y z
#    x 3.500180 -0.000010 -0.127510 
#    y -0.000010 3.529420 0.000010 
#    z -0.127510 0.000010 3.468200 
# 
# 
# High freq. dielectric constant tensor:
#      x y z
#    x 1.746350 0.000000 -0.015170 
#    y 0.000000 1.749440 0.000000 
#    z -0.015170 0.000000 1.732650 
# 
# From -- ./inp_files/281592.got.cif
#   From: 2010.06.25/outbox.cif.g09.slc.cpg/sg12_141_cif.got.tgz:281592.got - 2010.06.28 00:19:55.
