data_PCOD8098803
_publ_section_title
;
Structure prediction by ZEFSAII (Michael W. Deem and Ramdas Pophale) SiO2 
 PCOD8098803
Probable space group: C 2/M
;
_chemical_formula_sum "Si O2"
_cell_formula_units_Z 64
_cell_length_a 30.974902
_cell_length_b 8.767309
_cell_length_c 25.560900
_cell_angle_alpha 90.000000
_cell_angle_beta 149.963356
_cell_angle_gamma 90.000000
_cell_volume 3474.586546
_symmetry_space_group_name_H-M "C 2/M"
_symmetry_group_IT_number 12
_symmetry_cell_setting 'monoclinic'
loop_
_space_group_symop_operation_xyz
x,y,z
-x,y,-z
-x,-y,-z
x,-y,z
1/2+x,1/2+y,z
1/2-x,1/2+y,-z
1/2-x,1/2-y,-z
1/2+x,1/2-y,z
loop_
_atom_site_type_symbol
_atom_site_label
_atom_site_fract_x
_atom_site_fract_y
_atom_site_fract_z
Si Si1 0.220219 0.675642 0.384546
Si Si2 0.620390 0.827245 0.175499
Si Si3 0.593493 0.179172 0.412339
Si Si4 0.059601 0.819744 0.271611
Si Si5 0.136957 0.174975 0.661571
Si Si6 0.959045 0.678202 0.075217
Si Si7 0.530343 0.675153 0.448673
Si Si8 0.182832 0.823157 0.138398
O O1 0.224767 0.500000 0.406900
O O2 0.193649 0.689195 0.296199
O O3 0.311346 0.753134 0.487107
O O4 0.152007 0.759300 0.349704
O O5 0.527774 0.781989 0.101897
O O6 0.642265 0.713294 0.152073
O O7 0.618281 0.000000 0.151305
O O8 0.540388 0.252891 0.308844
O O9 0.543524 0.216721 0.413161
O O10 0.598648 0.000000 0.410118
O O11 0.983072 0.766411 0.153263
O O12 0.061627 0.000000 0.275891
O O13 0.096539 0.223561 0.563672
O O14 0.216906 0.282125 0.758301
O O15 0.067039 0.196555 0.633751
O O16 0.168098 0.000000 0.691405
O O17 0.960992 0.500000 0.090147
O O18 0.865335 0.730002 0.957749
O O19 0.547396 0.500000 0.450534
O O20 0.170820 0.000000 0.114210
#
# Coordination Sequence:
#
# PCOD8098803 Si02
#       8
#     8   8   8   8   8   8   8   8
#     4  10  20  35  53  76 108 144 181 219 261 311
#     4   9  19  34  52  74 104 142 179 216 261 312
#     4  12  23  34  52  79 109 142 178 216 262 314
#     4  11  22  37  55  76 105 139 178 223 266 310
#     4   9  19  37  59  80 107 140 173 213 263 318
#     4  10  21  38  56  74 102 141 182 221 263 311
#     4   9  19  37  59  82 106 137 176 216 262 314
#     4  12  23  32  50  80 110 140 177 218 260 311
#
# _framework density 18.419457000000001
#
# number of rings (size 3 to 8) (size 9 to 14) (size 15 to 20)
#    0.000    1.750    0.000    7.125    0.000    8.500 
#    0.000    1.250    0.000    0.750    0.000    0.000 
#    0.000    0.000    0.000    0.000    0.000    0.000 
#
# Total GULP energy -396954.552264 kJ/mol
# GULP energy per Si atom -12404.829758 kJ/mol
# Density = 1.837753 g / cm^3
# Si number density = 18.419457 Si / 1000 Ang^3
#
#
#
# Elastic Constant Matrix: (Units=GPa)
#
#
# Indices 1 2 3 4 5 6 
#
# 1 79.7339 41.9675 43.2566 0.0000 -15.7750 0.0000
# 2 41.9675 126.9522 45.2433 0.0000 -9.0148 0.0000
# 3 43.2566 45.2433 101.0657 0.0000 -0.4529 0.0000
# 4 0.0000 0.0000 0.0000 30.7624 0.0000 -2.6538
# 5 -15.7750 -9.0148 -0.4529 0.0000 18.7278 0.0000
# 6 0.0000 0.0000 0.0000 -2.6538 0.0000 30.9774
#
#
#
# Elastic Compliance Matrix: (Units=1/GPa)
#
#
# Indices 1 2 3 4 5 6 
#
# 1 0.021748 -0.003238 -0.007784 0.000000 0.016572 0.000000
# 2 -0.003238 0.010233 -0.003186 0.000000 0.002121 0.000000
# 3 -0.007784 -0.003186 0.014618 0.000000 -0.007737 0.000000
# 4 0.000000 0.000000 0.000000 0.032749 0.000000 0.002806
# 5 0.016572 0.002121 -0.007737 0.000000 0.068189 0.000000
# 6 0.000000 0.000000 0.000000 0.002806 0.000000 0.032522
#
#
# Mechanical properties :
#
#
# Convention : Reuss Voigt Hill
#
# Bulk Modulus (GPa) = 54.99777 63.18739 59.09258
# Shear Modulus (GPa) = 23.30602 27.91249 25.60925
#
# Velocity S-wave (km/s) = 3.56096 3.89701 3.73277
# Velocity P-wave (km/s) = 6.84328 7.39108 7.12245
#
# Compressibility (1/GPa) = 0.01818256
#
# Stress axis : x y z
#
# Youngs Moduli (GPa) = 45.98126 97.71893 68.41069
#
# Poissons Ratio (x) = 0.31646 0.53252
# Poissons Ratio (y) = 0.14891 0.21792
# Poissons Ratio (z) = 0.35793 0.31129
#
# Static dielectric constant tensor:
#      x y z
#    x 3.309170 0.000000 -0.132130 
#    y 0.000000 3.381370 0.000000 
#    z -0.132130 0.000000 3.448820 
# 
# 
# High freq. dielectric constant tensor:
#      x y z
#    x 1.697340 0.000000 -0.010370 
#    y 0.000000 1.719630 0.000000 
#    z -0.010370 0.000000 1.715240 
# 
# From -- ./inp_files/353472.got.cif
#   From: 2010.06.25/outbox.cif.g09.slc.cpg/sg12_177_cif.got.tgz:353472.got - 2010.06.28 00:19:55.
