data_PCOD8098354
_publ_section_title
;
Structure prediction by ZEFSAII (Michael W. Deem and Ramdas Pophale) SiO2 
 PCOD8098354
Probable space group: C 2/M
;
_chemical_formula_sum "Si O2"
_cell_formula_units_Z 64
_cell_length_a 23.589049
_cell_length_b 9.172397
_cell_length_c 26.999610
_cell_angle_alpha 90.000000
_cell_angle_beta 147.079145
_cell_angle_gamma 90.000000
_cell_volume 3174.931462
_symmetry_space_group_name_H-M "C 2/M"
_symmetry_group_IT_number 12
_symmetry_cell_setting 'monoclinic'
loop_
_space_group_symop_operation_xyz
x,y,z
-x,y,-z
-x,-y,-z
x,-y,z
1/2+x,1/2+y,z
1/2-x,1/2+y,-z
1/2-x,1/2-y,-z
1/2+x,1/2-y,z
loop_
_atom_site_type_symbol
_atom_site_label
_atom_site_fract_x
_atom_site_fract_y
_atom_site_fract_z
Si Si1 0.685533 0.827055 0.996251
Si Si2 0.301879 0.167677 0.786571
Si Si3 0.466657 0.330862 0.844204
Si Si4 0.788016 0.166833 0.175993
Si Si5 0.883180 0.170628 0.420452
Si Si6 0.097234 0.837172 0.311795
Si Si7 0.670795 0.167594 0.522255
Si Si8 0.005477 0.328625 0.681597
O O1 0.570869 0.761827 0.914985
O O2 0.681093 0.000000 0.983051
O O3 0.750000 0.750000 0.000000
O O4 0.738244 0.790235 0.087274
O O5 0.395065 0.269111 0.835690
O O6 0.294292 0.193322 0.840050
O O7 0.189819 0.208359 0.680116
O O8 0.330010 0.000000 0.794933
O O9 0.492977 0.500000 0.874330
O O10 0.402528 0.311197 0.746684
O O11 0.886819 0.267012 0.259597
O O12 0.825641 0.000000 0.203646
O O13 0.830727 0.239877 0.429479
O O14 0.000000 0.235554 0.500000
O O15 0.890269 0.000000 0.434874
O O16 0.214712 0.813534 0.417577
O O17 0.017815 0.728104 0.280219
O O18 0.057746 0.000000 0.295026
O O19 0.586163 0.227373 0.421516
O O20 0.648293 0.000000 0.519218
O O21 0.012504 0.500000 0.688965
#
# Coordination Sequence:
#
# PCOD8098354 Si02
#       8
#     8   8   8   8   8   8   8   8
#     4  11  24  43  67  94 123 157 199 247 302 363
#     4  10  21  39  62  88 119 157 204 250 295 355
#     4  11  23  40  64  91 122 161 200 247 306 360
#     4  10  23  43  64  86 119 160 197 240 301 362
#     4  10  20  34  56  85 116 155 204 253 295 344
#     4  10  21  38  58  81 117 160 199 240 297 363
#     4  10  21  37  54  81 118 156 198 243 297 356
#     4  11  23  36  57  88 119 154 200 252 300 349
#
# _framework density 20.157914999999999
#
# number of rings (size 3 to 8) (size 9 to 14) (size 15 to 20)
#    0.000    1.625    1.250    3.000    0.000    8.750 
#    0.000    2.500    0.000    0.000    0.000    0.000 
#    0.000    0.000    0.000    0.000    0.000    0.000 
#
# Total GULP energy -396905.480600 kJ/mol
# GULP energy per Si atom -12403.296269 kJ/mol
# Density = 2.011203 g / cm^3
# Si number density = 20.157915 Si / 1000 Ang^3
#
#
#
# Elastic Constant Matrix: (Units=GPa)
#
#
# Indices 1 2 3 4 5 6 
#
# 1 121.5613 51.8883 44.6554 0.0000 -1.0890 0.0001
# 2 51.8883 82.0551 52.0779 0.0000 3.0424 0.0004
# 3 44.6554 52.0779 105.0528 0.0001 9.4535 0.0001
# 4 0.0000 0.0000 0.0001 30.6998 0.0000 5.6286
# 5 -1.0890 3.0424 9.4535 0.0000 32.8000 0.0000
# 6 0.0001 0.0004 0.0001 5.6286 0.0000 38.7872
#
#
#
# Elastic Compliance Matrix: (Units=1/GPa)
#
#
# Indices 1 2 3 4 5 6 
#
# 1 0.011591 -0.006087 -0.002048 0.000000 0.001540 0.000000
# 2 -0.006087 0.021005 -0.007835 0.000000 0.000108 0.000000
# 3 -0.002048 -0.007835 0.014593 0.000000 -0.003547 0.000000
# 4 0.000000 0.000000 0.000000 0.033464 0.000000 -0.004856
# 5 0.001540 0.000108 -0.003547 0.000000 0.031551 0.000000
# 6 0.000000 0.000000 0.000000 -0.004856 0.000000 0.026486
#
#
# Mechanical properties :
#
#
# Convention : Reuss Voigt Hill
#
# Bulk Modulus (GPa) = 65.58023 67.32359 66.45191
# Shear Modulus (GPa) = 28.45573 31.12725 29.79149
#
# Velocity S-wave (km/s) = 3.76126 3.93386 3.84852
# Velocity P-wave (km/s) = 7.17402 7.35556 7.26536
#
# Compressibility (1/GPa) = 0.01524850
#
# Stress axis : x y z
#
# Youngs Moduli (GPa) = 86.27749 47.60882 68.52660
#
# Poissons Ratio (x) = 0.28978 0.14035
# Poissons Ratio (y) = 0.52514 0.53691
# Poissons Ratio (z) = 0.17670 0.37302
#
# Static dielectric constant tensor:
#      x y z
#    x 3.664620 0.000000 -0.070000 
#    y 0.000000 3.647720 0.000000 
#    z -0.070000 0.000000 3.798770 
# 
# 
# High freq. dielectric constant tensor:
#      x y z
#    x 1.792030 0.000000 0.001990 
#    y 0.000000 1.785220 0.000000 
#    z 0.001990 0.000000 1.791600 
# 
# From -- ./inp_files/382505.got.cif
#   From: 2010.06.25/outbox.cif.g09.slc.cpg/sg12_192_cif.got.tgz:382505.got - 2010.06.28 00:19:55.
