data_PCOD8098779
_publ_section_title
;
Structure prediction by ZEFSAII (Michael W. Deem and Ramdas Pophale) SiO2 
 PCOD8098779
Probable space group: C 2/M
;
_chemical_formula_sum "Si O2"
_cell_formula_units_Z 40
_cell_length_a 14.550427
_cell_length_b 8.834702
_cell_length_c 27.554011
_cell_angle_alpha 90.000000
_cell_angle_beta 36.969645
_cell_angle_gamma 90.000000
_cell_volume 2130.149045
_symmetry_space_group_name_H-M "C 2/M"
_symmetry_group_IT_number 12
_symmetry_cell_setting 'monoclinic'
loop_
_space_group_symop_operation_xyz
x,y,z
-x,y,-z
-x,-y,-z
x,-y,z
1/2+x,1/2+y,z
1/2-x,1/2+y,-z
1/2-x,1/2-y,-z
1/2+x,1/2-y,z
loop_
_atom_site_type_symbol
_atom_site_label
_atom_site_fract_x
_atom_site_fract_y
_atom_site_fract_z
Si Si1 0.350671 0.820915 0.999708
Si Si2 0.811568 0.321449 0.124519
Si Si3 0.440442 0.824058 0.591951
Si Si4 0.718751 0.679001 0.428588
Si Si5 0.436125 0.174261 0.703901
O O1 0.526897 0.764732 0.921312
O O2 0.339920 0.000000 0.999210
O O3 0.250000 0.750000 0.000000
O O4 0.289340 0.766346 0.078298
O O5 0.813856 0.500000 0.123590
O O6 0.672308 0.266219 0.215287
O O7 0.614481 0.766913 0.511675
O O8 0.330093 0.724540 0.605056
O O9 0.385219 0.799387 0.670060
O O10 0.432026 0.000000 0.580805
O O11 0.699569 0.500000 0.444315
O O12 0.891581 0.732986 0.362819
O O13 0.424892 0.000000 0.723550
#
# Coordination Sequence:
#
# PCOD8098779 Si02
#       5
#     8   8   8   8   8
#     4   9  19  37  58  80 104 135 171 209 254 306
#     4   9  20  37  55  77 107 137 170 209 254 309
#     4  10  20  35  53  75 103 137 176 217 257 304
#     4  10  20  35  53  75 103 137 176 217 257 304
#     4  10  22  36  52  77 108 137 171 214 259 304
#
# _framework density 18.778029
#
# number of rings (size 3 to 8) (size 9 to 14) (size 15 to 20)
#    0.000    2.400    0.000    4.200    0.000    6.400 
#    0.000   10.000    0.000    0.000    0.000    0.000 
#    0.000    0.000    0.000    0.000    0.000    0.000 
#
# Total GULP energy -247972.013488 kJ/mol
# GULP energy per Si atom -12398.600674 kJ/mol
# Density = 1.873529 g / cm^3
# Si number density = 18.778029 Si / 1000 Ang^3
#
#
#
# Elastic Constant Matrix: (Units=GPa)
#
#
# Indices 1 2 3 4 5 6 
#
# 1 96.6000 18.5811 36.8219 0.0000 6.6823 0.0000
# 2 18.5811 38.3293 23.4149 0.0000 1.7594 0.0000
# 3 36.8219 23.4149 91.3854 0.0000 12.4866 0.0000
# 4 0.0000 0.0000 0.0000 34.6983 0.0000 -0.8743
# 5 6.6823 1.7594 12.4866 0.0000 20.9342 0.0000
# 6 0.0000 0.0000 0.0000 -0.8743 0.0000 30.7505
#
#
#
# Elastic Compliance Matrix: (Units=1/GPa)
#
#
# Indices 1 2 3 4 5 6 
#
# 1 0.012665 -0.003644 -0.003984 0.000000 -0.001360 0.000000
# 2 -0.003644 0.032083 -0.007123 0.000000 0.002715 0.000000
# 3 -0.003984 -0.007123 0.015370 0.000000 -0.007297 0.000000
# 4 0.000000 0.000000 0.000000 0.028841 0.000000 0.000820
# 5 -0.001360 0.002715 -0.007297 0.000000 0.052328 0.000000
# 6 0.000000 0.000000 0.000000 0.000820 0.000000 0.032543
#
#
# Mechanical properties :
#
#
# Convention : Reuss Voigt Hill
#
# Bulk Modulus (GPa) = 32.66168 42.66118 37.66143
# Shear Modulus (GPa) = 23.41516 27.10971 25.26243
#
# Velocity S-wave (km/s) = 3.53504 3.80372 3.67184
# Velocity P-wave (km/s) = 5.83895 6.48529 6.17059
#
# Compressibility (1/GPa) = 0.03061692
#
# Stress axis : x y z
#
# Youngs Moduli (GPa) = 78.95466 31.16924 65.06152
#
# Poissons Ratio (x) = 0.11357 0.25919
# Poissons Ratio (y) = 0.28770 0.46344
# Poissons Ratio (z) = 0.31454 0.22202
#
# Static dielectric constant tensor:
#      x y z
#    x 3.593890 0.000000 -0.066090 
#    y 0.000000 3.330280 0.000000 
#    z -0.066090 0.000000 3.564250 
# 
# 
# High freq. dielectric constant tensor:
#      x y z
#    x 1.737480 0.000000 0.003430 
#    y 0.000000 1.725350 0.000000 
#    z 0.003430 0.000000 1.727890 
# 
# From -- ./inp_files/308032.got.cif
#   From: 2010.06.25/outbox.cif.g09.slc.cpg/sg12_155_cif.got.tgz:308032.got - 2010.06.28 00:19:55.
