data_PCOD8098117
_publ_section_title
;
Structure prediction by ZEFSAII (Michael W. Deem and Ramdas Pophale) SiO2 
 PCOD8098117
Probable space group: C 2/M
;
_chemical_formula_sum "Si O2"
_cell_formula_units_Z 64
_cell_length_a 24.700422
_cell_length_b 9.292939
_cell_length_c 16.424795
_cell_angle_alpha 90.000000
_cell_angle_beta 118.137219
_cell_angle_gamma 90.000000
_cell_volume 3324.587083
_symmetry_space_group_name_H-M "C 2/M"
_symmetry_group_IT_number 12
_symmetry_cell_setting 'monoclinic'
loop_
_space_group_symop_operation_xyz
x,y,z
-x,y,-z
-x,-y,-z
x,-y,z
1/2+x,1/2+y,z
1/2-x,1/2+y,-z
1/2-x,1/2-y,-z
1/2+x,1/2-y,z
loop_
_atom_site_type_symbol
_atom_site_label
_atom_site_fract_x
_atom_site_fract_y
_atom_site_fract_z
Si Si1 0.694070 0.335558 0.997378
Si Si2 0.700666 0.151180 0.428433
Si Si3 0.102350 0.342353 0.494907
Si Si4 0.883745 0.163556 0.209192
Si Si5 0.396856 0.827903 0.760778
Si Si6 0.025609 0.170488 0.318766
Si Si7 0.322915 0.669414 0.830868
Si Si8 0.684551 0.169884 0.702782
O O1 0.715583 0.500000 0.017539
O O2 0.634275 0.316131 0.898080
O O3 0.750000 0.250000 0.000000
O O4 0.677738 0.280935 0.075743
O O5 0.750000 0.250000 0.500000
O O6 0.646880 0.126356 0.453047
O O7 0.669309 0.210448 0.325471
O O8 0.733749 0.000000 0.433439
O O9 0.073444 0.500000 0.498267
O O10 0.051694 0.231252 0.423658
O O11 0.142039 0.274498 0.597460
O O12 0.840388 0.263439 0.232067
O O13 0.954145 0.206803 0.270048
O O14 0.872925 0.000000 0.229808
O O15 0.448977 0.749825 0.744282
O O16 0.382824 0.754697 0.837851
O O17 0.409990 0.000000 0.775577
O O18 0.039513 0.000000 0.322779
O O19 0.335560 0.500000 0.829761
O O20 0.256543 0.710912 0.743483
O O21 0.678302 0.000000 0.705128
#
# Coordination Sequence:
#
# PCOD8098117 Si02
#       8
#     8   8   8   8   8   8   8   8
#     4  10  20  37  60  85 113 142 177 222 276 332
#     4   9  17  29  46  69 100 137 177 219 265 316
#     4   9  19  34  50  74 109 145 184 228 270 317
#     4  10  22  38  57  82 111 144 183 230 278 325
#     4  10  21  36  54  78 108 144 183 226 274 322
#     4  10  21  38  57  77 107 149 192 228 269 323
#     4  10  20  35  57  85 113 142 178 222 275 334
#     4  10  20  34  55  84 114 146 185 227 274 328
#
# _framework density 19.250510999999999
#
# number of rings (size 3 to 8) (size 9 to 14) (size 15 to 20)
#    0.000    2.250    1.250    2.250    0.000    6.500 
#    0.000    3.125    0.000    3.750    0.000    0.000 
#    0.000    0.000    0.000    0.000    0.000    0.000 
#
# Total GULP energy -396474.893276 kJ/mol
# GULP energy per Si atom -12389.840415 kJ/mol
# Density = 1.920670 g / cm^3
# Si number density = 19.250511 Si / 1000 Ang^3
#
#
#
# Elastic Constant Matrix: (Units=GPa)
#
#
# Indices 1 2 3 4 5 6 
#
# 1 49.5527 26.1438 9.1266 0.0000 0.1766 0.0000
# 2 26.1438 54.6481 11.2931 0.0000 -1.1907 0.0000
# 3 9.1266 11.2931 81.6962 0.0000 -2.1357 0.0000
# 4 0.0000 0.0000 0.0000 57.2180 0.0000 8.4458
# 5 0.1766 -1.1907 -2.1357 0.0000 31.7795 0.0000
# 6 0.0000 0.0000 0.0000 8.4458 0.0000 32.0717
#
#
#
# Elastic Compliance Matrix: (Units=1/GPa)
#
#
# Indices 1 2 3 4 5 6 
#
# 1 0.027138 -0.012732 -0.001290 0.000000 -0.000715 0.000000
# 2 -0.012732 0.024819 -0.001986 0.000000 0.000867 0.000000
# 3 -0.001290 -0.001986 0.012680 0.000000 0.000785 0.000000
# 4 0.000000 0.000000 0.000000 0.018184 0.000000 -0.004789
# 5 -0.000715 0.000867 0.000785 0.000000 0.031556 0.000000
# 6 0.000000 0.000000 0.000000 -0.004789 0.000000 0.032441
#
#
# Mechanical properties :
#
#
# Convention : Reuss Voigt Hill
#
# Bulk Modulus (GPa) = 30.65542 31.00267 30.82904
# Shear Modulus (GPa) = 26.35637 33.50273 29.92955
#
# Velocity S-wave (km/s) = 3.70418 4.17628 3.94730
# Velocity P-wave (km/s) = 5.85266 6.27654 6.06830
#
# Compressibility (1/GPa) = 0.03262066
#
# Stress axis : x y z
#
# Youngs Moduli (GPa) = 36.84868 40.29155 78.86653
#
# Poissons Ratio (x) = 0.51298 0.10177
# Poissons Ratio (y) = 0.46915 0.15661
# Poissons Ratio (z) = 0.04755 0.08001
#
# Static dielectric constant tensor:
#      x y z
#    x 3.254990 0.000000 -0.016090 
#    y 0.000000 3.746010 0.000000 
#    z -0.016090 0.000000 3.765590 
# 
# 
# High freq. dielectric constant tensor:
#      x y z
#    x 1.733330 0.000000 -0.004770 
#    y 0.000000 1.749420 0.000000 
#    z -0.004770 0.000000 1.752370 
# 
# From -- ./inp_files/244165.got.cif
#   From: 2010.06.25/outbox.cif.g09.slc.cpg/sg12_123_cif.got.tgz:244165.got - 2010.06.28 00:19:55.
