data_PCOD8098057
_publ_section_title
;
Structure prediction by ZEFSAII (Michael W. Deem and Ramdas Pophale) SiO2 
 PCOD8098057
Probable space group: C 2/M
;
_chemical_formula_sum "Si O2"
_cell_formula_units_Z 48
_cell_length_a 14.859396
_cell_length_b 9.346094
_cell_length_c 19.315558
_cell_angle_alpha 90.000000
_cell_angle_beta 78.928299
_cell_angle_gamma 90.000000
_cell_volume 2632.565231
_symmetry_space_group_name_H-M "C 2/M"
_symmetry_group_IT_number 12
_symmetry_cell_setting 'monoclinic'
loop_
_space_group_symop_operation_xyz
x,y,z
-x,y,-z
-x,-y,-z
x,-y,z
1/2+x,1/2+y,z
1/2-x,1/2+y,-z
1/2-x,1/2-y,-z
1/2+x,1/2-y,z
loop_
_atom_site_type_symbol
_atom_site_label
_atom_site_fract_x
_atom_site_fract_y
_atom_site_fract_z
Si Si1 0.056272 0.833330 0.831503
Si Si2 0.871839 0.164102 0.937615
Si Si3 0.254657 0.164546 0.569570
Si Si4 0.330972 0.166931 0.076674
Si Si5 0.957162 0.334067 0.578404
Si Si6 0.571258 0.332565 0.671206
O O1 0.132484 0.741560 0.859762
O O2 0.058806 0.783975 0.751861
O O3 0.954959 0.799353 0.874484
O O4 0.081224 0.000000 0.835941
O O5 0.777906 0.194882 0.910533
O O6 0.875440 0.000000 0.962713
O O7 0.881092 0.264039 0.003139
O O8 0.250000 0.250000 0.500000
O O9 0.348915 0.194898 0.595411
O O10 0.173158 0.211446 0.632444
O O11 0.246558 0.000000 0.549498
O O12 0.354928 0.000000 0.074691
O O13 0.981968 0.500000 0.584401
O O14 0.000000 0.277477 0.500000
O O15 0.996812 0.248042 0.636592
O O16 0.553302 0.500000 0.665049
#
# Coordination Sequence:
#
# PCOD8098057 Si02
#       6
#     8   8   8   8   8   8
#     4  10  21  37  54  75 109 146 177 213 265 320
#     4   9  19  36  56  77 107 145 178 213 263 317
#     4  10  20  35  55  78 104 134 171 216 264 312
#     4  10  20  34  55  83 108 136 180 224 259 305
#     4  10  20  35  55  78 105 136 171 216 269 318
#     4  10  22  37  54  79 107 139 180 220 260 315
#
# _framework density 18.233165
#
# number of rings (size 3 to 8) (size 9 to 14) (size 15 to 20)
#    0.000    2.167    1.667    1.000    0.000    6.333 
#    0.000    0.000    0.000    0.000    0.000    0.000 
#    0.000    0.000    0.000    0.000    0.000    0.000 
#
# Total GULP energy -297706.490515 kJ/mol
# GULP energy per Si atom -12404.437105 kJ/mol
# Density = 1.819167 g / cm^3
# Si number density = 18.233165 Si / 1000 Ang^3
#
#
#
# Elastic Constant Matrix: (Units=GPa)
#
#
# Indices 1 2 3 4 5 6 
#
# 1 104.3105 48.0482 70.2452 0.0000 5.8018 0.0000
# 2 48.0482 69.9981 66.5763 0.0000 12.7883 0.0000
# 3 70.2452 66.5763 157.9786 0.0000 13.3514 0.0000
# 4 0.0000 0.0000 0.0000 32.2627 0.0000 10.1635
# 5 5.8018 12.7883 13.3514 0.0000 28.8207 0.0000
# 6 0.0000 0.0000 0.0000 10.1635 0.0000 29.3599
#
#
#
# Elastic Compliance Matrix: (Units=1/GPa)
#
#
# Indices 1 2 3 4 5 6 
#
# 1 0.015490 -0.007141 -0.004041 0.000000 0.001922 0.000000
# 2 -0.007141 0.028236 -0.008104 0.000000 -0.007337 0.000000
# 3 -0.004041 -0.008104 0.011625 0.000000 -0.000976 0.000000
# 4 0.000000 0.000000 0.000000 0.034789 0.000000 -0.012043
# 5 0.001922 -0.007337 -0.000976 0.000000 0.038018 0.000000
# 6 0.000000 0.000000 0.000000 -0.012043 0.000000 0.038229
#
#
# Mechanical properties :
#
#
# Convention : Reuss Voigt Hill
#
# Bulk Modulus (GPa) = 59.59717 78.00294 68.80006
# Shear Modulus (GPa) = 23.74707 27.91649 25.83178
#
# Velocity S-wave (km/s) = 3.61281 3.91715 3.76805
# Velocity P-wave (km/s) = 7.08239 7.95817 7.53302
#
# Compressibility (1/GPa) = 0.01677932
#
# Stress axis : x y z
#
# Youngs Moduli (GPa) = 64.55655 35.41561 86.02442
#
# Poissons Ratio (x) = 0.25289 0.34762
# Poissons Ratio (y) = 0.46097 0.69717
# Poissons Ratio (z) = 0.26087 0.28702
#
# Static dielectric constant tensor:
#      x y z
#    x 3.518450 0.000000 -0.064850 
#    y 0.000000 3.354330 0.000000 
#    z -0.064850 0.000000 3.322920 
# 
# 
# High freq. dielectric constant tensor:
#      x y z
#    x 1.719650 0.000000 -0.000560 
#    y 0.000000 1.704030 0.000000 
#    z -0.000560 0.000000 1.701480 
# 
# From -- ./inp_files/267615.got.cif
#   From: 2010.06.25/outbox.cif.g09.slc.cpg/sg12_134_cif.got.tgz:267615.got - 2010.06.28 00:19:55.
