data_PCOD8098332
_publ_section_title
;
Structure prediction by ZEFSAII (Michael W. Deem and Ramdas Pophale) SiO2 
 PCOD8098332
Probable space group: C 2/M
;
_chemical_formula_sum "Si O2"
_cell_formula_units_Z 64
_cell_length_a 14.805016
_cell_length_b 9.068126
_cell_length_c 24.445683
_cell_angle_alpha 90.000000
_cell_angle_beta 91.127726
_cell_angle_gamma 90.000000
_cell_volume 3281.288935
_symmetry_space_group_name_H-M "C 2/M"
_symmetry_group_IT_number 12
_symmetry_cell_setting 'monoclinic'
loop_
_space_group_symop_operation_xyz
x,y,z
-x,y,-z
-x,-y,-z
x,-y,z
1/2+x,1/2+y,z
1/2-x,1/2+y,-z
1/2-x,1/2-y,-z
1/2+x,1/2-y,z
loop_
_atom_site_type_symbol
_atom_site_label
_atom_site_fract_x
_atom_site_fract_y
_atom_site_fract_z
Si Si1 0.376595 0.669789 0.835399
Si Si2 0.982943 0.828634 0.367856
Si Si3 0.171655 0.325628 0.824614
Si Si4 0.160597 0.168871 0.930516
Si Si5 0.157896 0.830826 0.047839
Si Si6 0.972506 0.826587 0.242665
Si Si7 0.153753 0.327218 0.560344
Si Si8 0.140625 0.828260 0.450110
O O1 0.373757 0.500000 0.819012
O O2 0.275284 0.732196 0.824787
O O3 0.406763 0.691915 0.899682
O O4 0.449396 0.742908 0.795577
O O5 0.999488 0.789939 0.304922
O O6 0.897154 0.738282 0.388078
O O7 0.073133 0.781306 0.401122
O O8 0.961609 0.000000 0.376038
O O9 0.164580 0.500000 0.821925
O O10 0.123967 0.269224 0.880452
O O11 0.120988 0.255129 0.772386
O O12 0.263301 0.211374 0.945704
O O13 0.154360 0.000000 0.910983
O O14 0.107502 0.191234 0.988359
O O15 0.196582 0.000000 0.051216
O O16 0.958771 0.000000 0.232969
O O17 0.137904 0.500000 0.558042
O O18 0.113178 0.258572 0.504423
O O19 0.258936 0.285446 0.568038
O O20 0.133444 0.000000 0.464107
#
# Coordination Sequence:
#
# PCOD8098332 Si02
#       8
#     8   8   8   8   8   8   8   8
#     4   8  16  33  55  74  97 133 173 211 254 309
#     4  10  21  36  54  76 105 141 176 212 256 306
#     4  10  20  35  54  75 102 135 170 214 267 315
#     4   9  15  25  46  74 101 130 166 209 259 317
#     4   8  14  26  46  73 101 130 167 211 260 312
#     4  10  21  37  55  75  99 133 180 221 252 299
#     4  10  20  34  56  85 112 138 172 213 255 302
#     4   9  19  36  56  79 110 145 176 208 253 307
#
# _framework density 19.504531
#
# number of rings (size 3 to 8) (size 9 to 14) (size 15 to 20)
#    0.000    2.750    0.000    2.250    0.000    4.500 
#    0.000    6.250    0.000    3.750    0.000    0.000 
#    0.000    0.000    0.000    0.000    0.000    0.000 
#
# Total GULP energy -396612.326360 kJ/mol
# GULP energy per Si atom -12394.135199 kJ/mol
# Density = 1.946014 g / cm^3
# Si number density = 19.504531 Si / 1000 Ang^3
#
#
#
# Elastic Constant Matrix: (Units=GPa)
#
#
# Indices 1 2 3 4 5 6 
#
# 1 58.1373 22.8809 41.5995 0.0000 -8.2192 0.0000
# 2 22.8809 51.9301 37.0087 0.0000 -2.8369 0.0000
# 3 41.5995 37.0087 122.6420 0.0000 -8.6709 0.0000
# 4 0.0000 0.0000 0.0000 28.9323 0.0000 1.3987
# 5 -8.2192 -2.8369 -8.6709 0.0000 30.7906 0.0000
# 6 0.0000 0.0000 0.0000 1.3987 0.0000 22.9483
#
#
#
# Elastic Compliance Matrix: (Units=1/GPa)
#
#
# Indices 1 2 3 4 5 6 
#
# 1 0.024687 -0.006232 -0.006191 0.000000 0.004272 0.000000
# 2 -0.006232 0.026107 -0.005828 0.000000 -0.000899 0.000000
# 3 -0.006191 -0.005828 0.012099 0.000000 0.001217 0.000000
# 4 0.000000 0.000000 0.000000 0.034666 0.000000 -0.002113
# 5 0.004272 -0.000899 0.001217 0.000000 0.033878 0.000000
# 6 0.000000 0.000000 0.000000 -0.002113 0.000000 0.043705
#
#
# Mechanical properties :
#
#
# Convention : Reuss Voigt Hill
#
# Bulk Modulus (GPa) = 37.89199 48.40973 43.15086
# Shear Modulus (GPa) = 22.68195 25.28225 23.98210
#
# Velocity S-wave (km/s) = 3.41384 3.60422 3.51032
# Velocity P-wave (km/s) = 5.91680 6.49570 6.21300
#
# Compressibility (1/GPa) = 0.02639080
#
# Stress axis : x y z
#
# Youngs Moduli (GPa) = 40.50650 38.30454 82.65475
#
# Poissons Ratio (x) = 0.23871 0.51174
# Poissons Ratio (y) = 0.25243 0.48169
# Poissons Ratio (z) = 0.25079 0.22323
#
# Static dielectric constant tensor:
#      x y z
#    x 3.452150 0.000000 -0.089690 
#    y 0.000000 3.385890 0.000000 
#    z -0.089690 0.000000 3.793000 
# 
# 
# High freq. dielectric constant tensor:
#      x y z
#    x 1.738370 0.000000 -0.001360 
#    y 0.000000 1.742830 0.000000 
#    z -0.001360 0.000000 1.767610 
# 
# From -- ./inp_files/341988.got.cif
#   From: 2010.06.25/outbox.cif.g09.slc.cpg/sg12_171_cif.got.tgz:341988.got - 2010.06.28 00:19:55.
