data_PCOD8098366
_publ_section_title
;
Structure prediction by ZEFSAII (Michael W. Deem and Ramdas Pophale) SiO2 
 PCOD8098366
Probable space group: C 2/M
;
_chemical_formula_sum "Si O2"
_cell_formula_units_Z 64
_cell_length_a 29.178893
_cell_length_b 20.725973
_cell_length_c 14.582360
_cell_angle_alpha 90.000000
_cell_angle_beta 19.935647
_cell_angle_gamma 90.000000
_cell_volume 3006.911933
_symmetry_space_group_name_H-M "C 2/M"
_symmetry_group_IT_number 12
_symmetry_cell_setting 'monoclinic'
loop_
_space_group_symop_operation_xyz
x,y,z
-x,y,-z
-x,-y,-z
x,-y,z
1/2+x,1/2+y,z
1/2-x,1/2+y,-z
1/2-x,1/2-y,-z
1/2+x,1/2-y,z
loop_
_atom_site_type_symbol
_atom_site_label
_atom_site_fract_x
_atom_site_fract_y
_atom_site_fract_z
Si Si1 0.028845 0.574598 0.049824
Si Si2 0.286161 0.381850 0.682134
Si Si3 0.146119 0.923906 0.245913
Si Si4 0.373634 0.927816 0.694180
Si Si5 0.028288 0.072686 0.107434
Si Si6 0.326397 0.897300 0.588224
Si Si7 0.051860 0.789702 0.995659
Si Si8 0.668328 0.757278 0.458433
O O1 0.064694 0.500000 0.973324
O O2 0.894827 0.584702 0.362708
O O3 0.154421 0.606847 0.866386
O O4 0.000000 0.601825 0.000000
O O5 0.278828 0.404421 0.800598
O O6 0.412793 0.418779 0.400243
O O7 0.304244 0.304936 0.654441
O O8 0.000000 0.892336 0.500000
O O9 0.128758 0.000000 0.279838
O O10 0.235986 0.897080 0.991959
O O11 0.500000 0.889929 0.500000
O O12 0.394230 0.931608 0.546413
O O13 0.373231 0.000000 0.735348
O O14 0.013073 0.000000 0.092323
O O15 0.173823 0.078380 0.879513
O O16 0.019826 0.132921 0.053138
O O17 0.342642 0.821452 0.581808
O O18 0.208757 0.773092 0.704003
O O19 0.000000 0.759136 0.000000
O O20 0.971839 0.753204 0.225808
#
# Coordination Sequence:
#
# PCOD8098366 Si02
#       8
#     8   8   8   8   8   8   8   8
#     4  11  24  40  61  89 118 155 200 244 298 352
#     4  11  22  40  61  86 123 158 193 245 288 339
#     4  10  20  35  59  89 116 147 190 237 292 353
#     4  10  20  34  56  86 114 145 188 236 294 354
#     4  10  21  36  58  85 113 151 189 234 304 355
#     4  11  22  40  60  83 120 157 192 244 292 344
#     4  10  21  37  57  80 109 147 196 248 285 332
#     4  10  23  38  56  80 110 155 199 229 283 347
#
# _framework density 21.284293999999999
#
# number of rings (size 3 to 8) (size 9 to 14) (size 15 to 20)
#    0.000    1.625    0.000    4.875    0.000    8.250 
#    0.000    1.250    0.000    0.000    0.000    0.000 
#    0.000    0.000    0.000    0.000    0.000    0.000 
#
# Total GULP energy -396462.934581 kJ/mol
# GULP energy per Si atom -12389.466706 kJ/mol
# Density = 2.123585 g / cm^3
# Si number density = 21.284294 Si / 1000 Ang^3
#
#
#
# Elastic Constant Matrix: (Units=GPa)
#
#
# Indices 1 2 3 4 5 6 
#
# 1 123.2756 -3.5636 48.0364 -0.0035 6.2409 -0.0007
# 2 -3.5636 87.8242 16.6731 -0.0019 -2.0602 -0.0007
# 3 48.0364 16.6731 122.1583 -0.0026 -6.4899 -0.0030
# 4 -0.0035 -0.0019 -0.0026 18.7455 0.0025 -7.4408
# 5 6.2409 -2.0602 -6.4899 0.0025 23.9060 0.0010
# 6 -0.0007 -0.0007 -0.0030 -7.4408 0.0010 4.6271
#
#
#
# Elastic Compliance Matrix: (Units=1/GPa)
#
#
# Indices 1 2 3 4 5 6 
#
# 1 0.009999 0.001132 -0.004282 0.000005 -0.003675 0.000007
# 2 0.001132 0.011826 -0.002050 0.000004 0.000167 0.000006
# 3 -0.004282 -0.002050 0.010349 0.000005 0.003751 0.000013
# 4 0.000005 0.000004 0.000005 0.147490 -0.000025 0.237175
# 5 -0.003675 0.000167 0.003751 -0.000025 0.043823 -0.000048
# 6 0.000007 0.000006 0.000013 0.237175 -0.000048 0.597513
#
#
# Mechanical properties :
#
#
# Convention : Reuss Voigt Hill
#
# Bulk Modulus (GPa) = 45.92653 50.61668 48.27161
# Shear Modulus (GPa) = 5.96192 27.59655 16.77924
#
# Velocity S-wave (km/s) = 1.67546 3.60470 2.81078
# Velocity P-wave (km/s) = 5.03661 6.41545 5.76738
#
# Compressibility (1/GPa) = 0.02177391
#
# Stress axis : x y z
#
# Youngs Moduli (GPa) = 100.00832 84.56289 96.62813
#
# Poissons Ratio (x) = -0.09576 0.41374
# Poissons Ratio (y) = -0.11325 0.19813
# Poissons Ratio (z) = 0.42821 0.17339
#
# Static dielectric constant tensor:
#      x y z
#    x 3.580710 0.000000 -0.127990 
#    y 0.000000 3.928330 0.000010 
#    z -0.127990 0.000010 4.136700 
# 
# 
# High freq. dielectric constant tensor:
#      x y z
#    x 1.815980 0.000000 -0.008540 
#    y 0.000000 1.826750 0.000000 
#    z -0.008540 0.000000 1.852550 
# 
# From -- ./inp_files/251923.got.cif
#   From: 2010.06.25/outbox.cif.g09.slc.cpg/sg12_126_cif.got.tgz:251923.got - 2010.06.28 00:19:55.
