data_PCOD8098566
_publ_section_title
;
Structure prediction by ZEFSAII (Michael W. Deem and Ramdas Pophale) SiO2 
 PCOD8098566
Probable space group: C 2/M
;
_chemical_formula_sum "Si O2"
_cell_formula_units_Z 52
_cell_length_a 20.029405
_cell_length_b 18.360267
_cell_length_c 9.503429
_cell_angle_alpha 90.000000
_cell_angle_beta 48.748973
_cell_angle_gamma 90.000000
_cell_volume 2627.518997
_symmetry_space_group_name_H-M "C 2/M"
_symmetry_group_IT_number 12
_symmetry_cell_setting 'monoclinic'
loop_
_space_group_symop_operation_xyz
x,y,z
-x,y,-z
-x,-y,-z
x,-y,z
1/2+x,1/2+y,z
1/2-x,1/2+y,-z
1/2-x,1/2-y,-z
1/2+x,1/2-y,z
loop_
_atom_site_type_symbol
_atom_site_label
_atom_site_fract_x
_atom_site_fract_y
_atom_site_fract_z
Si Si1 0.000000 0.673732 0.500000
Si Si2 0.895741 0.220011 0.149798
Si Si3 0.605405 0.719010 0.544124
Si Si4 0.002139 0.918390 0.332644
Si Si5 0.833683 0.415470 0.838144
Si Si6 0.839426 0.918922 0.087171
Si Si7 0.269726 0.203849 0.112215
O O1 0.035789 0.724300 0.575675
O O2 0.075761 0.622045 0.334166
O O3 0.859980 0.247830 0.352108
O O4 0.870702 0.135138 0.165383
O O5 0.852064 0.263815 0.083000
O O6 0.000000 0.233369 0.000000
O O7 0.558549 0.643011 0.653653
O O8 0.683640 0.703720 0.328019
O O9 0.000000 0.901614 0.500000
O O10 0.965991 0.000000 0.351292
O O11 0.102084 0.909380 0.135960
O O12 0.849956 0.500000 0.849290
O O13 0.762873 0.404301 0.810977
O O14 0.796134 0.378013 0.031936
O O15 0.851083 0.000000 0.132559
O O16 0.250000 0.250000 0.000000
#
# Coordination Sequence:
#
# PCOD8098566 Si02
#       7
#     4   8   8   8   8   8   8
#     4  12  23  42  67  96 130 172 226 272 325 392
#     4  12  24  39  62 100 135 170 217 271 325 389
#     4  12  24  38  67  95 134 174 222 263 336 383
#     4  10  20  34  57  94 135 171 214 262 321 394
#     4  11  24  42  68  94 127 172 223 272 325 390
#     4  10  21  39  60  91 134 177 211 259 326 393
#     4  12  24  44  67  94 131 169 217 272 330 386
#
# _framework density 19.790531999999999
#
# number of rings (size 3 to 8) (size 9 to 14) (size 15 to 20)
#    0.000    0.769    5.385    2.538    0.000    2.769 
#    0.000    0.000    0.000    5.077    0.000    0.000 
#    0.000    0.000    0.000    0.000    0.000    0.000 
#
# Total GULP energy -322427.594831 kJ/mol
# GULP energy per Si atom -12401.061340 kJ/mol
# Density = 1.974549 g / cm^3
# Si number density = 19.790532 Si / 1000 Ang^3
#
#
#
# Elastic Constant Matrix: (Units=GPa)
#
#
# Indices 1 2 3 4 5 6 
#
# 1 124.6094 62.5326 55.8179 0.0000 2.2191 0.0000
# 2 62.5326 127.9722 48.4289 0.0000 -0.9422 0.0000
# 3 55.8179 48.4289 124.7612 0.0000 -0.7125 0.0000
# 4 0.0000 0.0000 0.0000 25.8258 0.0000 -0.7588
# 5 2.2191 -0.9422 -0.7125 0.0000 43.6753 0.0000
# 6 0.0000 0.0000 0.0000 -0.7588 0.0000 25.2590
#
#
#
# Elastic Compliance Matrix: (Units=1/GPa)
#
#
# Indices 1 2 3 4 5 6 
#
# 1 0.011882 -0.004452 -0.003592 0.000000 -0.000758 0.000000
# 2 -0.004452 0.010829 -0.002209 0.000000 0.000424 0.000000
# 3 -0.003592 -0.002209 0.010482 0.000000 0.000306 0.000000
# 4 0.000000 0.000000 0.000000 0.038755 0.000000 0.001164
# 5 -0.000758 0.000424 0.000306 0.000000 0.022949 0.000000
# 6 0.000000 0.000000 0.000000 0.001164 0.000000 0.039625
#
#
# Mechanical properties :
#
#
# Convention : Reuss Voigt Hill
#
# Bulk Modulus (GPa) = 78.82940 78.98906 78.90923
# Shear Modulus (GPa) = 31.39587 32.98958 32.19273
#
# Velocity S-wave (km/s) = 3.98730 4.08724 4.03758
# Velocity P-wave (km/s) = 7.81770 7.89134 7.85461
#
# Compressibility (1/GPa) = 0.01268562
#
# Stress axis : x y z
#
# Youngs Moduli (GPa) = 84.16205 92.34582 95.40488
#
# Poissons Ratio (x) = 0.41114 0.34270
# Poissons Ratio (y) = 0.37471 0.21076
# Poissons Ratio (z) = 0.30231 0.20400
#
# Static dielectric constant tensor:
#      x y z
#    x 3.730580 0.000000 0.093230 
#    y 0.000000 3.808640 0.000000 
#    z 0.093230 0.000000 3.807460 
# 
# 
# High freq. dielectric constant tensor:
#      x y z
#    x 1.769380 0.000000 -0.006480 
#    y 0.000000 1.774590 0.000000 
#    z -0.006480 0.000000 1.777360 
# 
# From -- ./inp_files/88375.got.cif
#   From: 2010.06.25/outbox.cif.g09.slc.cpg/sg12_45_cif.got.tgz:88375.got - 2010.06.28 00:19:55.
