data_PCOD8098817
_publ_section_title
;
Structure prediction by ZEFSAII (Michael W. Deem and Ramdas Pophale) SiO2 
 PCOD8098817
Probable space group: C 2/M
;
_chemical_formula_sum "Si O2"
_cell_formula_units_Z 56
_cell_length_a 29.495123
_cell_length_b 9.714439
_cell_length_c 10.765762
_cell_angle_alpha 90.000000
_cell_angle_beta 69.447211
_cell_angle_gamma 90.000000
_cell_volume 2888.354690
_symmetry_space_group_name_H-M "C 2/M"
_symmetry_group_IT_number 12
_symmetry_cell_setting 'monoclinic'
loop_
_space_group_symop_operation_xyz
x,y,z
-x,y,-z
-x,-y,-z
x,-y,z
1/2+x,1/2+y,z
1/2-x,1/2+y,-z
1/2-x,1/2-y,-z
1/2+x,1/2-y,z
loop_
_atom_site_type_symbol
_atom_site_label
_atom_site_fract_x
_atom_site_fract_y
_atom_site_fract_z
Si Si1 0.288867 0.850059 0.408105
Si Si2 0.280715 0.847221 0.125696
Si Si3 0.974553 0.837012 0.893579
Si Si4 0.134136 0.152092 0.035971
Si Si5 0.326429 0.654037 0.746728
Si Si6 0.982472 0.662894 0.377166
Si Si7 0.872545 0.341876 0.497029
O O1 0.250000 0.750000 0.500000
O O2 0.287740 0.847073 0.264196
O O3 0.343680 0.815285 0.397223
O O4 0.275104 0.000000 0.474107
O O5 0.322100 0.750740 0.036080
O O6 0.225953 0.795300 0.148469
O O7 0.288368 0.000000 0.062410
O O8 0.992490 0.749590 0.757346
O O9 0.981634 0.000000 0.859216
O O10 0.917849 0.799273 0.964913
O O11 0.000000 0.795483 0.000000
O O12 0.145735 0.000000 0.971785
O O13 0.132592 0.148851 0.187062
O O14 0.318766 0.500000 0.697527
O O15 0.344497 0.757229 0.626991
O O16 0.990494 0.500000 0.343903
O O17 0.926800 0.708814 0.423869
O O18 0.000000 0.701392 0.500000
O O19 0.873036 0.500000 0.540089
#
# Coordination Sequence:
#
# PCOD8098817 Si02
#       7
#     8   8   8   8   8   8   8
#     4  10  20  35  53  78 111 144 180 224 269 323
#     4  10  21  35  54  81 112 144 182 224 270 329
#     4  10  23  42  60  84 117 152 195 243 288 340
#     4  10  22  38  57  80 109 145 186 229 274 327
#     4  10  20  36  56  82 113 145 182 224 271 329
#     4  10  22  40  62  89 117 147 191 243 292 345
#     4  10  21  35  56  84 113 144 181 226 276 330
#
# _framework density 19.388200000000001
#
# number of rings (size 3 to 8) (size 9 to 14) (size 15 to 20)
#    0.000    2.000    1.429    1.286    2.000    3.429 
#    0.000    0.000    0.000    0.000    0.000    0.000 
#    0.000    0.000    0.000    0.000    0.000    0.000 
#
# Total GULP energy -347013.992393 kJ/mol
# GULP energy per Si atom -12393.356871 kJ/mol
# Density = 1.934407 g / cm^3
# Si number density = 19.388200 Si / 1000 Ang^3
#
#
#
# Elastic Constant Matrix: (Units=GPa)
#
#
# Indices 1 2 3 4 5 6 
#
# 1 151.9203 43.0331 42.9931 0.0000 4.4835 0.0000
# 2 43.0331 73.2906 42.8333 0.0000 -14.9244 0.0000
# 3 42.9931 42.8333 69.1602 0.0000 -8.2418 0.0000
# 4 0.0000 0.0000 0.0000 37.1545 0.0000 -4.9034
# 5 4.4835 -14.9244 -8.2418 0.0000 31.6119 0.0000
# 6 0.0000 0.0000 0.0000 -4.9034 0.0000 25.4496
#
#
#
# Elastic Compliance Matrix: (Units=1/GPa)
#
#
# Indices 1 2 3 4 5 6 
#
# 1 0.008813 -0.003937 -0.003520 0.000000 -0.004026 0.000000
# 2 -0.003937 0.024687 -0.011752 0.000000 0.009150 0.000000
# 3 -0.003520 -0.011752 0.024072 0.000000 0.001227 0.000000
# 4 0.000000 0.000000 0.000000 0.027617 0.000000 0.005321
# 5 -0.004026 0.009150 0.001227 0.000000 0.036844 0.000000
# 6 0.000000 0.000000 0.000000 0.005321 0.000000 0.040319
#
#
# Mechanical properties :
#
#
# Convention : Reuss Voigt Hill
#
# Bulk Modulus (GPa) = 52.20777 61.34333 56.77555
# Shear Modulus (GPa) = 24.13667 29.87730 27.00698
#
# Velocity S-wave (km/s) = 3.53216 3.92982 3.73629
# Velocity P-wave (km/s) = 6.60462 7.23184 6.92533
#
# Compressibility (1/GPa) = 0.01915424
#
# Stress axis : x y z
#
# Youngs Moduli (GPa) = 113.47462 40.50637 41.54261
#
# Poissons Ratio (x) = 0.15948 0.14621
# Poissons Ratio (y) = 0.44678 0.48820
# Poissons Ratio (z) = 0.39939 0.47602
#
# Static dielectric constant tensor:
#      x y z
#    x 4.186640 0.000000 0.385930 
#    y 0.000000 3.347640 0.000000 
#    z 0.385930 0.000000 3.518380 
# 
# 
# High freq. dielectric constant tensor:
#      x y z
#    x 1.781370 0.000000 0.010610 
#    y 0.000000 1.753670 0.000000 
#    z 0.010610 0.000000 1.737580 
# 
# From -- ./inp_files/180658.got.cif
#   From: 2010.06.25/outbox.cif.g09.slc.cpg/sg12_91_cif.got.tgz:180658.got - 2010.06.28 00:19:55.
