data_PCOD8098927
_publ_section_title
;
Structure prediction by ZEFSAII (Michael W. Deem and Ramdas Pophale) SiO2 
 PCOD8098927
Probable space group: C 2/M
;
_chemical_formula_sum "Si O2"
_cell_formula_units_Z 64
_cell_length_a 30.149381
_cell_length_b 11.039957
_cell_length_c 16.206966
_cell_angle_alpha 90.000000
_cell_angle_beta 37.171910
_cell_angle_gamma 90.000000
_cell_volume 3259.375204
_symmetry_space_group_name_H-M "C 2/M"
_symmetry_group_IT_number 12
_symmetry_cell_setting 'monoclinic'
loop_
_space_group_symop_operation_xyz
x,y,z
-x,y,-z
-x,-y,-z
x,-y,z
1/2+x,1/2+y,z
1/2-x,1/2+y,-z
1/2-x,1/2-y,-z
1/2+x,1/2-y,z
loop_
_atom_site_type_symbol
_atom_site_label
_atom_site_fract_x
_atom_site_fract_y
_atom_site_fract_z
Si Si1 0.104976 0.140540 0.697730
Si Si2 0.175754 0.236677 0.431217
Si Si3 0.857604 0.639017 0.951473
Si Si4 0.443365 0.868552 0.479879
Si Si5 0.198382 0.135596 0.225231
Si Si6 0.062792 0.857216 0.079740
Si Si7 0.096729 0.697308 0.287477
Si Si8 0.829625 0.139871 0.231558
O O1 0.156736 0.169422 0.543599
O O2 0.140001 0.199015 0.728426
O O3 0.021325 0.180662 0.810228
O O4 0.105803 0.000000 0.713044
O O5 0.113450 0.337803 0.508493
O O6 0.169756 0.147881 0.361423
O O7 0.256682 0.290304 0.313820
O O8 0.873405 0.500000 0.963145
O O9 0.912020 0.749333 0.896176
O O10 0.860788 0.627226 0.847688
O O11 0.779070 0.693340 0.095800
O O12 0.401649 0.878932 0.629684
O O13 0.512225 0.776219 0.384408
O O14 0.477044 0.000000 0.408579
O O15 0.139464 0.180245 0.245684
O O16 0.209985 0.000000 0.182581
O O17 0.069734 0.000000 0.101109
O O18 0.107169 0.842925 0.929520
O O19 0.807940 0.000000 0.273825
#
# Coordination Sequence:
#
# PCOD8098927 Si02
#       8
#     8   8   8   8   8   8   8   8
#     4  10  21  36  59  86 117 154 195 244 294 353
#     4  11  20  36  57  84 114 149 190 236 296 351
#     4  11  21  37  59  85 117 154 194 242 297 349
#     4  10  20  35  54  79 109 143 183 237 294 343
#     4  10  22  37  54  78 114 151 190 236 290 348
#     4  10  21  39  61  89 120 156 200 245 294 350
#     4  10  20  35  54  77 107 146 190 230 282 344
#     4  10  20  37  60  87 115 151 198 246 295 347
#
# _framework density 19.635664999999999
#
# number of rings (size 3 to 8) (size 9 to 14) (size 15 to 20)
#    0.000    1.750    1.250    4.125    0.000    2.000 
#    0.000    7.500    0.000    3.750    0.000    0.000 
#    0.000    0.000    0.000    0.000    0.000    0.000 
#
# Total GULP energy -396455.425080 kJ/mol
# GULP energy per Si atom -12389.232034 kJ/mol
# Density = 1.959097 g / cm^3
# Si number density = 19.635665 Si / 1000 Ang^3
#
#
#
# Elastic Constant Matrix: (Units=GPa)
#
#
# Indices 1 2 3 4 5 6 
#
# 1 93.6747 39.4079 28.6617 0.0000 -8.7776 0.0000
# 2 39.4079 60.6455 12.7927 0.0006 -13.6457 -0.0002
# 3 28.6617 12.7927 92.7209 0.0001 -4.8657 -0.0001
# 4 0.0000 0.0006 0.0001 13.9739 -0.0001 -3.7984
# 5 -8.7776 -13.6457 -4.8657 -0.0001 33.5833 0.0000
# 6 0.0000 -0.0002 -0.0001 -3.7984 0.0000 19.7933
#
#
#
# Elastic Compliance Matrix: (Units=1/GPa)
#
#
# Indices 1 2 3 4 5 6 
#
# 1 0.015758 -0.009550 -0.003568 0.000000 -0.000279 0.000000
# 2 -0.009550 0.024365 -0.000021 -0.000001 0.007401 0.000000
# 3 -0.003568 -0.000021 0.011932 0.000000 0.000788 0.000000
# 4 0.000000 -0.000001 0.000000 0.075500 0.000000 0.014489
# 5 -0.000279 0.007401 0.000788 0.000000 0.032825 0.000000
# 6 0.000000 0.000000 0.000000 0.014489 0.000000 0.053303
#
#
# Mechanical properties :
#
#
# Convention : Reuss Voigt Hill
#
# Bulk Modulus (GPa) = 38.79473 45.41841 42.10657
# Shear Modulus (GPa) = 20.11634 24.54869 22.33251
#
# Velocity S-wave (km/s) = 3.20422 3.53967 3.37611
# Velocity P-wave (km/s) = 5.78702 6.31557 6.05706
#
# Compressibility (1/GPa) = 0.02577670
#
# Stress axis : x y z
#
# Youngs Moduli (GPa) = 63.45791 41.04315 83.80606
#
# Poissons Ratio (x) = 0.39196 0.29904
# Poissons Ratio (y) = 0.60602 0.00177
# Poissons Ratio (z) = 0.22643 0.00087
#
# Static dielectric constant tensor:
#      x y z
#    x 3.686610 0.000000 -0.059070 
#    y 0.000000 3.465290 0.000000 
#    z -0.059070 0.000000 3.694210 
# 
# 
# High freq. dielectric constant tensor:
#      x y z
#    x 1.762280 0.000000 -0.004000 
#    y 0.000000 1.743090 0.000000 
#    z -0.004000 0.000000 1.782760 
# 
# From -- ./inp_files/245934.got.cif
#   From: 2010.06.25/outbox.cif.g09.slc.cpg/sg12_123_cif.got.tgz:245934.got - 2010.06.28 00:19:55.
