data_PCOD8098384
_publ_section_title
;
Structure prediction by ZEFSAII (Michael W. Deem and Ramdas Pophale) SiO2 
 PCOD8098384
Probable space group: C 2/M
;
_chemical_formula_sum "Si O2"
_cell_formula_units_Z 64
_cell_length_a 15.346223
_cell_length_b 8.872693
_cell_length_c 31.096270
_cell_angle_alpha 90.000000
_cell_angle_beta 129.077001
_cell_angle_gamma 90.000000
_cell_volume 3286.961115
_symmetry_space_group_name_H-M "C 2/M"
_symmetry_group_IT_number 12
_symmetry_cell_setting 'monoclinic'
loop_
_space_group_symop_operation_xyz
x,y,z
-x,y,-z
-x,-y,-z
x,-y,z
1/2+x,1/2+y,z
1/2-x,1/2+y,-z
1/2-x,1/2-y,-z
1/2+x,1/2-y,z
loop_
_atom_site_type_symbol
_atom_site_label
_atom_site_fract_x
_atom_site_fract_y
_atom_site_fract_z
Si Si1 0.155908 0.328301 0.442533
Si Si2 0.753565 0.823813 0.672523
Si Si3 0.734907 0.176508 0.062829
Si Si4 0.420537 0.323530 0.052935
Si Si5 0.683637 0.820974 0.742506
Si Si6 0.322409 0.321683 0.866988
Si Si7 0.951761 0.329172 0.442031
Si Si8 0.057453 0.824488 0.331412
O O1 0.191190 0.500000 0.443441
O O2 0.250000 0.250000 0.500000
O O3 0.140284 0.236394 0.393896
O O4 0.039243 0.323111 0.430870
O O5 0.740884 0.757126 0.716646
O O6 0.661387 0.750049 0.611294
O O7 0.878722 0.796175 0.693993
O O8 0.724746 0.000000 0.665985
O O9 0.850956 0.217170 0.074393
O O10 0.737089 0.252177 0.109979
O O11 0.721009 0.000000 0.064582
O O12 0.628979 0.236411 0.003197
O O13 0.411607 0.500000 0.039999
O O14 0.548516 0.270471 0.098283
O O15 0.756037 0.759620 0.804916
O O16 0.557294 0.764801 0.706739
O O17 0.681770 0.000000 0.742339
O O18 0.314458 0.500000 0.868340
O O19 0.922483 0.500000 0.446665
O O20 0.000000 0.246037 0.500000
O O21 0.033851 0.000000 0.332083
#
# Coordination Sequence:
#
# PCOD8098384 Si02
#       8
#     8   8   8   8   8   8   8   8
#     4  11  21  35  57  83 115 148 182 226 278 338
#     4   9  18  35  58  80 105 146 190 224 269 340
#     4  10  20  34  56  86 118 149 185 236 290 334
#     4   9  19  36  56  81 115 154 193 231 276 337
#     4  10  21  40  60  79 108 150 196 235 277 334
#     4  10  21  36  57  81 109 150 196 236 276 334
#     4   9  16  29  53  80 104 137 181 221 260 323
#     4  11  22  37  60  86 112 143 184 234 287 337
#
# _framework density 19.470873000000001
#
# number of rings (size 3 to 8) (size 9 to 14) (size 15 to 20)
#    0.000    2.125    1.250    2.250    0.000    6.000 
#    0.000    3.750    0.000    1.500    0.000    0.000 
#    0.000    0.000    0.000    0.000    0.000    0.000 
#
# Total GULP energy -396784.823235 kJ/mol
# GULP energy per Si atom -12399.525726 kJ/mol
# Density = 1.942656 g / cm^3
# Si number density = 19.470873 Si / 1000 Ang^3
#
#
#
# Elastic Constant Matrix: (Units=GPa)
#
#
# Indices 1 2 3 4 5 6 
#
# 1 103.3353 13.1803 59.1320 0.0000 -15.8902 0.0000
# 2 13.1803 20.7453 18.6708 0.0000 -6.4444 0.0000
# 3 59.1320 18.6708 141.4360 0.0000 -19.9400 0.0000
# 4 0.0000 0.0000 0.0000 24.2293 0.0000 -1.1916
# 5 -15.8902 -6.4444 -19.9400 0.0000 31.7657 0.0000
# 6 0.0000 0.0000 0.0000 -1.1916 0.0000 26.7812
#
#
#
# Elastic Compliance Matrix: (Units=1/GPa)
#
#
# Indices 1 2 3 4 5 6 
#
# 1 0.013234 -0.003260 -0.004676 0.000000 0.003023 0.000000
# 2 -0.003260 0.057050 -0.005229 0.000000 0.006661 0.000000
# 3 -0.004676 -0.005229 0.010133 0.000000 0.002961 0.000000
# 4 0.000000 0.000000 0.000000 0.041363 0.000000 0.001840
# 5 0.003023 0.006661 0.002961 0.000000 0.036202 0.000000
# 6 0.000000 0.000000 0.000000 0.001840 0.000000 0.037421
#
#
# Mechanical properties :
#
#
# Convention : Reuss Voigt Hill
#
# Bulk Modulus (GPa) = 18.48904 49.72031 34.10467
# Shear Modulus (GPa) = 20.85385 28.19082 24.52233
#
# Velocity S-wave (km/s) = 3.27621 3.80918 3.55270
# Velocity P-wave (km/s) = 4.88137 6.70356 5.86368
#
# Compressibility (1/GPa) = 0.05408609
#
# Stress axis : x y z
#
# Youngs Moduli (GPa) = 75.56362 17.52841 98.68665
#
# Poissons Ratio (x) = 0.05715 0.46148
# Poissons Ratio (y) = 0.24636 0.51604
# Poissons Ratio (z) = 0.35336 0.09166
#
# Static dielectric constant tensor:
#      x y z
#    x 3.746400 0.000000 -0.135940 
#    y 0.000000 3.377030 0.000000 
#    z -0.135940 0.000000 3.770210 
# 
# 
# High freq. dielectric constant tensor:
#      x y z
#    x 1.770500 0.000000 -0.003610 
#    y 0.000000 1.728710 0.000000 
#    z -0.003610 0.000000 1.761470 
# 
# From -- ./inp_files/375605.got.cif
#   From: 2010.06.25/outbox.cif.g09.slc.cpg/sg12_188_cif.got.tgz:375605.got - 2010.06.28 00:19:55.
