data_PCOD8098374
_publ_section_title
;
Structure prediction by ZEFSAII (Michael W. Deem and Ramdas Pophale) SiO2 
 PCOD8098374
Probable space group: C 2/M
;
_chemical_formula_sum "Si O2"
_cell_formula_units_Z 56
_cell_length_a 31.791860
_cell_length_b 10.601515
_cell_length_c 9.503113
_cell_angle_alpha 90.000000
_cell_angle_beta 63.295834
_cell_angle_gamma 90.000000
_cell_volume 2861.316629
_symmetry_space_group_name_H-M "C 2/M"
_symmetry_group_IT_number 12
_symmetry_cell_setting 'monoclinic'
loop_
_space_group_symop_operation_xyz
x,y,z
-x,y,-z
-x,-y,-z
x,-y,z
1/2+x,1/2+y,z
1/2-x,1/2+y,-z
1/2-x,1/2-y,-z
1/2+x,1/2-y,z
loop_
_atom_site_type_symbol
_atom_site_label
_atom_site_fract_x
_atom_site_fract_y
_atom_site_fract_z
Si Si1 0.720043 0.859059 0.620124
Si Si2 0.703577 0.863380 0.189854
Si Si3 0.093708 0.854247 0.007665
Si Si4 0.138767 0.357941 0.542688
Si Si5 0.517284 0.356677 0.326001
Si Si6 0.927527 0.855345 0.273276
Si Si7 0.802532 0.776093 0.079293
O O1 0.750000 0.750000 0.500000
O O2 0.666285 0.854364 0.648484
O O3 0.715918 0.836901 0.793226
O O4 0.741653 0.000000 0.560347
O O5 0.677420 0.821119 0.369308
O O6 0.759443 0.874048 0.137397
O O7 0.685935 0.000000 0.168533
O O8 0.688402 0.768482 0.091872
O O9 0.074492 0.806701 0.885186
O O10 0.149594 0.835840 0.934831
O O11 0.081390 0.000000 0.033270
O O12 0.064111 0.792496 0.183733
O O13 0.117302 0.500000 0.551936
O O14 0.100873 0.246599 0.591808
O O15 0.500000 0.290502 0.500000
O O16 0.529304 0.500000 0.350007
O O17 0.479515 0.350310 0.257518
O O18 0.907532 0.000000 0.316344
#
# Coordination Sequence:
#
# PCOD8098374 Si02
#       7
#     8   8   8   8   8   8   8
#     4  11  22  37  58  83 114 153 196 239 285 335
#     4  10  22  38  53  76 115 157 190 233 288 337
#     4  10  20  34  56  86 115 149 191 241 292 342
#     4  10  21  38  57  81 116 153 188 231 285 338
#     4   9  19  35  56  85 119 149 184 238 296 343
#     4  10  20  36  60  88 117 149 191 237 285 342
#     4  11  21  36  56  82 112 150 196 239 281 342
#
# _framework density 19.571408000000002
#
# number of rings (size 3 to 8) (size 9 to 14) (size 15 to 20)
#    0.000    1.857    2.857    1.286    2.000    2.857 
#    0.000    0.714    0.000    3.857    0.000    0.000 
#    0.000    0.000    0.000    0.000    0.000    0.000 
#
# Total GULP energy -346893.705191 kJ/mol
# GULP energy per Si atom -12389.060900 kJ/mol
# Density = 1.952686 g / cm^3
# Si number density = 19.571408 Si / 1000 Ang^3
#
#
#
# Elastic Constant Matrix: (Units=GPa)
#
#
# Indices 1 2 3 4 5 6 
#
# 1 64.3656 8.0282 29.3864 0.0000 4.0264 0.0000
# 2 8.0282 75.8228 26.0259 0.0000 -8.8174 0.0000
# 3 29.3864 26.0259 111.2330 0.0000 0.9724 0.0000
# 4 0.0000 0.0000 0.0000 3.8603 0.0000 -6.2779
# 5 4.0264 -8.8174 0.9724 0.0000 30.9804 0.0000
# 6 0.0000 0.0000 0.0000 -6.2779 0.0000 19.8379
#
#
#
# Elastic Compliance Matrix: (Units=1/GPa)
#
#
# Indices 1 2 3 4 5 6 
#
# 1 0.017836 -0.000599 -0.004551 0.000000 -0.002346 0.000000
# 2 -0.000599 0.014925 -0.003373 0.000000 0.004432 0.000000
# 3 -0.004551 -0.003373 0.010988 0.000000 -0.000713 0.000000
# 4 0.000000 0.000000 0.000000 0.533742 0.000000 0.168907
# 5 -0.002346 0.004432 -0.000713 0.000000 0.033867 0.000000
# 6 0.000000 0.000000 0.000000 0.168907 0.000000 0.103861
#
#
# Mechanical properties :
#
#
# Convention : Reuss Voigt Hill
#
# Bulk Modulus (GPa) = 37.44936 42.03361 39.74148
# Shear Modulus (GPa) = 6.74613 23.46775 15.10694
#
# Velocity S-wave (km/s) = 1.85861 3.46654 2.78130
# Velocity P-wave (km/s) = 4.87670 6.12749 5.53752
#
# Compressibility (1/GPa) = 0.02670273
#
# Stress axis : x y z
#
# Youngs Moduli (GPa) = 56.06763 67.00143 91.00938
#
# Poissons Ratio (x) = 0.04013 0.41421
# Poissons Ratio (y) = 0.03359 0.30694
# Poissons Ratio (z) = 0.25518 0.22597
#
# Static dielectric constant tensor:
#      x y z
#    x 3.424990 0.000000 0.059330 
#    y 0.000000 3.339100 0.000000 
#    z 0.059330 0.000000 3.792750 
# 
# 
# High freq. dielectric constant tensor:
#      x y z
#    x 1.752960 0.000000 0.010560 
#    y 0.000000 1.730160 0.000000 
#    z 0.010560 0.000000 1.775510 
# 
# From -- ./inp_files/110352.got.cif
#   From: 2010.06.25/outbox.cif.g09.slc.cpg/sg12_56_cif.got.tgz:110352.got - 2010.06.28 00:19:55.
