data_PCOD8098054
_publ_section_title
;
Structure prediction by ZEFSAII (Michael W. Deem and Ramdas Pophale) SiO2 
 PCOD8098054
Probable space group: C 2/M
;
_chemical_formula_sum "Si O2"
_cell_formula_units_Z 56
_cell_length_a 9.463309
_cell_length_b 24.946164
_cell_length_c 14.155827
_cell_angle_alpha 90.000000
_cell_angle_beta 60.733464
_cell_angle_gamma 90.000000
_cell_volume 2915.246421
_symmetry_space_group_name_H-M "C 2/M"
_symmetry_group_IT_number 12
_symmetry_cell_setting 'monoclinic'
loop_
_space_group_symop_operation_xyz
x,y,z
-x,y,-z
-x,-y,-z
x,-y,z
1/2+x,1/2+y,z
1/2-x,1/2+y,-z
1/2-x,1/2-y,-z
1/2+x,1/2-y,z
loop_
_atom_site_type_symbol
_atom_site_label
_atom_site_fract_x
_atom_site_fract_y
_atom_site_fract_z
Si Si1 0.699787 0.368242 0.101829
Si Si2 0.181741 0.696557 0.474742
Si Si3 0.118913 0.368960 0.146765
Si Si4 0.656731 0.668768 0.770820
Si Si5 0.814625 0.437273 0.229560
Si Si6 0.178558 0.148582 0.402039
Si Si7 0.654134 0.210798 0.808800
O O1 0.507377 0.364809 0.172265
O O2 0.761867 0.418995 0.142131
O O3 0.784578 0.314085 0.112657
O O4 0.748510 0.376969 0.977920
O O5 0.250000 0.750000 0.500000
O O6 0.294792 0.677321 0.352872
O O7 0.193454 0.651539 0.552975
O O8 0.000000 0.705026 0.500000
O O9 0.208348 0.365145 0.217848
O O10 0.000097 0.420097 0.187409
O O11 0.017469 0.314619 0.163994
O O12 0.633737 0.726109 0.829335
O O13 0.793830 0.500000 0.247807
O O14 0.699151 0.408500 0.344145
O O15 0.213948 0.196690 0.315819
O O16 0.000000 0.156500 0.500000
#
# Coordination Sequence:
#
# PCOD8098054 Si02
#       7
#     8   8   8   8   8   8   8
#     4  10  22  37  58  86 118 150 197 248 294 352
#     4  12  23  34  57  83 119 166 198 232 276 338
#     4  10  22  38  56  86 117 154 197 244 296 355
#     4  12  23  34  56  85 128 159 193 237 287 351
#     4  10  22  43  67  84 108 149 201 258 306 359
#     4  10  20  38  58  89 124 152 200 248 286 346
#     4  10  20  34  55  82 123 164 200 226 274 360
#
# _framework density 19.209354000000001
#
# number of rings (size 3 to 8) (size 9 to 14) (size 15 to 20)
#    0.000    1.714    1.429    6.857    2.000    4.857 
#    0.000    0.714    0.000    5.571    0.000    0.000 
#    0.000    0.000    0.000    0.000    0.000    0.000 
#
# Total GULP energy -347247.157646 kJ/mol
# GULP energy per Si atom -12401.684202 kJ/mol
# Density = 1.916563 g / cm^3
# Si number density = 19.209354 Si / 1000 Ang^3
#
#
#
# Elastic Constant Matrix: (Units=GPa)
#
#
# Indices 1 2 3 4 5 6 
#
# 1 112.6038 28.1798 28.0753 0.0000 -3.5559 0.0000
# 2 28.1798 88.9083 18.1103 0.0000 2.3365 0.0000
# 3 28.0753 18.1103 113.2710 0.0000 -2.2990 0.0000
# 4 0.0000 0.0000 0.0000 13.3877 0.0000 -1.3859
# 5 -3.5559 2.3365 -2.2990 0.0000 39.2990 0.0000
# 6 0.0000 0.0000 0.0000 -1.3859 0.0000 10.0889
#
#
#
# Elastic Compliance Matrix: (Units=1/GPa)
#
#
# Indices 1 2 3 4 5 6 
#
# 1 0.010125 -0.002819 -0.002039 0.000000 0.000964 0.000000
# 2 -0.002819 0.012436 -0.001311 0.000000 -0.001071 0.000000
# 3 -0.002039 -0.001311 0.009553 0.000000 0.000452 0.000000
# 4 0.000000 0.000000 0.000000 0.075773 0.000000 0.010408
# 5 0.000964 -0.001071 0.000452 0.000000 0.025623 0.000000
# 6 0.000000 0.000000 0.000000 0.010408 0.000000 0.100548
#
#
# Mechanical properties :
#
#
# Convention : Reuss Voigt Hill
#
# Bulk Modulus (GPa) = 50.57005 51.50153 51.03579
# Shear Modulus (GPa) = 19.76364 28.58298 24.17331
#
# Velocity S-wave (km/s) = 3.21106 3.86161 3.55126
# Velocity P-wave (km/s) = 6.33488 6.83751 6.59099
#
# Compressibility (1/GPa) = 0.01977455
#
# Stress axis : x y z
#
# Youngs Moduli (GPa) = 98.76429 80.40938 104.68257
#
# Poissons Ratio (x) = 0.22669 0.21348
# Poissons Ratio (y) = 0.27843 0.13728
# Poissons Ratio (z) = 0.20141 0.10545
#
# Static dielectric constant tensor:
#      x y z
#    x 3.698670 0.000000 0.135620 
#    y 0.000000 3.167720 0.000000 
#    z 0.135620 0.000000 3.706280 
# 
# 
# High freq. dielectric constant tensor:
#      x y z
#    x 1.757490 0.000000 0.001600 
#    y 0.000000 1.700840 0.000000 
#    z 0.001600 0.000000 1.763310 
# 
# From -- ./inp_files/199710.got.cif
#   From: 2010.06.25/outbox.cif.g09.slc.cpg/sg12_100_cif.got.tgz:199710.got - 2010.06.28 00:19:55.
