data_PCOD8098723
_publ_section_title
;
Structure prediction by ZEFSAII (Michael W. Deem and Ramdas Pophale) SiO2 
 PCOD8098723
Probable space group: C 2/M
;
_chemical_formula_sum "Si O2"
_cell_formula_units_Z 56
_cell_length_a 15.981086
_cell_length_b 19.479094
_cell_length_c 11.170401
_cell_angle_alpha 90.000000
_cell_angle_beta 123.616740
_cell_angle_gamma 90.000000
_cell_volume 2895.765656
_symmetry_space_group_name_H-M "C 2/M"
_symmetry_group_IT_number 12
_symmetry_cell_setting 'monoclinic'
loop_
_space_group_symop_operation_xyz
x,y,z
-x,y,-z
-x,-y,-z
x,-y,z
1/2+x,1/2+y,z
1/2-x,1/2+y,-z
1/2-x,1/2-y,-z
1/2+x,1/2-y,z
loop_
_atom_site_type_symbol
_atom_site_label
_atom_site_fract_x
_atom_site_fract_y
_atom_site_fract_z
Si Si1 0.920286 0.754415 0.636008
Si Si2 0.754121 0.686204 0.644112
Si Si3 0.230659 0.079575 0.818107
Si Si4 0.540888 0.864349 0.651266
Si Si5 0.266257 0.202758 0.174034
Si Si6 0.448805 0.078750 0.079870
Si Si7 0.613894 0.314199 0.869469
O O1 0.854322 0.694992 0.646435
O O2 0.848196 0.808634 0.513037
O O3 0.990440 0.711649 0.600884
O O4 0.994078 0.799913 0.780180
O O5 0.754772 0.611958 0.707376
O O6 0.762275 0.749800 0.739419
O O7 0.137686 0.120831 0.802550
O O8 0.201677 0.000000 0.779240
O O9 0.328699 0.089378 0.978808
O O10 0.500000 0.905621 0.500000
O O11 0.661594 0.859972 0.729063
O O12 0.513365 0.893730 0.761452
O O13 0.331665 0.244716 0.129455
O O14 0.162128 0.171981 0.038309
O O15 0.480247 0.000000 0.102377
O O16 0.500000 0.113163 0.000000
#
# Coordination Sequence:
#
# PCOD8098723 Si02
#       7
#     8   8   8   8   8   8   8
#     4  10  21  33  52  78 114 148 182 248 301 339
#     4  10  20  35  51  81 113 146 190 240 301 352
#     4  10  20  35  56  80 114 154 191 238 287 351
#     4  11  19  33  55  81 110 150 185 235 297 349
#     4   9  17  31  50  76 105 141 186 239 280 346
#     4  10  21  36  54  81 115 153 195 239 288 354
#     4   9  18  32  51  77 105 142 192 231 285 340
#
# _framework density 19.338581999999999
#
# number of rings (size 3 to 8) (size 9 to 14) (size 15 to 20)
#    0.000    2.143    2.857    0.857    2.000    0.857 
#    0.000    1.429    0.000    0.000    0.000    4.000 
#    0.000    0.000    0.000    0.000    0.000    0.000 
#
# Total GULP energy -346884.773241 kJ/mol
# GULP energy per Si atom -12388.741901 kJ/mol
# Density = 1.929457 g / cm^3
# Si number density = 19.338582 Si / 1000 Ang^3
#
#
#
# Elastic Constant Matrix: (Units=GPa)
#
#
# Indices 1 2 3 4 5 6 
#
# 1 47.1870 19.4876 48.8257 0.0000 11.9015 0.0000
# 2 19.4876 72.8308 39.3509 0.0000 6.7658 0.0000
# 3 48.8257 39.3509 157.3193 0.0000 9.8451 0.0000
# 4 0.0000 0.0000 0.0000 17.5150 0.0000 -3.1442
# 5 11.9015 6.7658 9.8451 0.0000 32.9625 0.0000
# 6 0.0000 0.0000 0.0000 -3.1442 0.0000 16.9060
#
#
#
# Elastic Compliance Matrix: (Units=1/GPa)
#
#
# Indices 1 2 3 4 5 6 
#
# 1 0.034461 -0.003367 -0.009291 0.000000 -0.008976 0.000000
# 2 -0.003367 0.016351 -0.002966 0.000000 -0.001254 0.000000
# 3 -0.009291 -0.002966 0.009920 0.000000 0.001001 0.000000
# 4 0.000000 0.000000 0.000000 0.059066 0.000000 0.010985
# 5 -0.008976 -0.001254 0.001001 0.000000 0.033537 0.000000
# 6 0.000000 0.000000 0.000000 0.010985 0.000000 0.061194
#
#
# Mechanical properties :
#
#
# Convention : Reuss Voigt Hill
#
# Bulk Modulus (GPa) = 33.91920 54.74062 44.32991
# Shear Modulus (GPa) = 19.56152 24.78823 22.17487
#
# Velocity S-wave (km/s) = 3.18390 3.58411 3.38992
# Velocity P-wave (km/s) = 5.57620 6.74505 6.18828
#
# Compressibility (1/GPa) = 0.02948183
#
# Stress axis : x y z
#
# Youngs Moduli (GPa) = 29.01853 61.15971 100.81109
#
# Poissons Ratio (x) = 0.20591 0.93667
# Poissons Ratio (y) = 0.09770 0.29905
# Poissons Ratio (z) = 0.26962 0.18143
#
# Static dielectric constant tensor:
#      x y z
#    x 3.412310 0.000000 0.068850 
#    y 0.000000 3.151550 0.000000 
#    z 0.068850 0.000000 3.888770 
# 
# 
# High freq. dielectric constant tensor:
#      x y z
#    x 1.736280 0.000000 0.006690 
#    y 0.000000 1.705050 0.000000 
#    z 0.006690 0.000000 1.768540 
# 
# From -- ./inp_files/158315.got.cif
#   From: 2010.06.25/outbox.cif.g09.slc.cpg/sg12_80_cif.got.tgz:158315.got - 2010.06.28 00:19:55.
