data_PCOD8098204
_publ_section_title
;
Structure prediction by ZEFSAII (Michael W. Deem and Ramdas Pophale) SiO2 
 PCOD8098204
Probable space group: C 2/M
;
_chemical_formula_sum "Si O2"
_cell_formula_units_Z 36
_cell_length_a 9.446302
_cell_length_b 20.026864
_cell_length_c 17.714765
_cell_angle_alpha 90.000000
_cell_angle_beta 36.898267
_cell_angle_gamma 90.000000
_cell_volume 2012.092708
_symmetry_space_group_name_H-M "C 2/M"
_symmetry_group_IT_number 12
_symmetry_cell_setting 'monoclinic'
loop_
_space_group_symop_operation_xyz
x,y,z
-x,y,-z
-x,-y,-z
x,-y,z
1/2+x,1/2+y,z
1/2-x,1/2+y,-z
1/2-x,1/2-y,-z
1/2+x,1/2-y,z
loop_
_atom_site_type_symbol
_atom_site_label
_atom_site_fract_x
_atom_site_fract_y
_atom_site_fract_z
Si Si1 0.556808 0.422973 0.854311
Si Si2 0.880090 0.422973 0.854511
Si Si3 0.771061 0.690055 0.258731
Si Si4 0.500000 0.749925 0.500000
Si Si5 0.547554 0.309908 0.741169
O O1 0.574169 0.500000 0.823226
O O2 0.767904 0.404369 0.821451
O O3 0.579544 0.380189 0.769021
O O4 0.307541 0.408169 0.999882
O O5 0.955933 0.500000 0.823474
O O6 0.113146 0.380210 0.769335
O O7 0.540148 0.702381 0.409863
O O8 0.692308 0.689848 0.205053
O O9 0.959767 0.750003 0.193413
O O10 0.269811 0.797473 0.590071
#
# Coordination Sequence:
#
# PCOD8098204 Si02
#       5
#     8   8   8   4   8
#     4   9  19  36  56  79 109 141 172 212 263 315
#     4   9  19  36  56  79 109 141 172 212 263 315
#     4  10  20  34  56  79 105 139 177 219 261 308
#     4   8  22  36  54  76 106 140 172 222 266 308
#     4  10  20  34  56  79 105 139 177 219 261 308
#
# _framework density 17.891819999999999
#
# number of rings (size 3 to 8) (size 9 to 14) (size 15 to 20)
#    1.333    1.333    0.000    3.333    0.000    2.667 
#    0.000    3.333    0.000    0.000    0.000    0.000 
#    0.000    0.000    0.000    0.000    0.000    0.000 
#
# Total GULP energy -223052.208045 kJ/mol
# GULP energy per Si atom -12391.789336 kJ/mol
# Density = 1.785110 g / cm^3
# Si number density = 17.891820 Si / 1000 Ang^3
#
#
#
# Elastic Constant Matrix: (Units=GPa)
#
#
# Indices 1 2 3 4 5 6 
#
# 1 150.3697 81.2581 42.7963 -0.0027 -11.4284 -0.0037
# 2 81.2581 114.5163 49.0354 -0.0007 -3.7428 0.0011
# 3 42.7963 49.0354 60.2420 0.0155 1.0819 -0.0003
# 4 -0.0027 -0.0007 0.0155 31.7514 0.0034 -0.1673
# 5 -11.4284 -3.7428 1.0819 0.0034 4.5936 -0.0030
# 6 -0.0037 0.0011 -0.0003 -0.1673 -0.0030 33.1754
#
#
#
# Elastic Compliance Matrix: (Units=1/GPa)
#
#
# Indices 1 2 3 4 5 6 
#
# 1 0.014120 -0.006884 -0.004979 0.000000 0.030693 0.000004
# 2 -0.006884 0.017657 -0.009472 0.000004 -0.000510 -0.000001
# 3 -0.004979 -0.009472 0.028328 -0.000012 -0.026776 -0.000002
# 4 0.000000 0.000004 -0.000012 0.031496 -0.000016 0.000159
# 5 0.030693 -0.000510 -0.026776 -0.000016 0.299949 0.000030
# 6 0.000004 -0.000001 -0.000002 0.000159 0.000030 0.030144
#
#
# Mechanical properties :
#
#
# Convention : Reuss Voigt Hill
#
# Bulk Modulus (GPa) = 57.35902 74.58977 65.97439
# Shear Modulus (GPa) = 10.63435 24.03994 17.33714
#
# Velocity S-wave (km/s) = 2.44061 3.66953 3.11625
# Velocity P-wave (km/s) = 6.33013 7.72876 7.06414
#
# Compressibility (1/GPa) = 0.01743405
#
# Stress axis : x y z
#
# Youngs Moduli (GPa) = 70.82044 56.63590 35.30137
#
# Poissons Ratio (x) = 0.38990 0.17575
# Poissons Ratio (y) = 0.48756 0.33438
# Poissons Ratio (z) = 0.35259 0.53646
#
# Static dielectric constant tensor:
#      x y z
#    x 3.149610 0.000000 -0.019630 
#    y 0.000000 3.162610 0.000000 
#    z -0.019630 0.000000 2.974050 
# 
# 
# High freq. dielectric constant tensor:
#      x y z
#    x 1.692660 0.000000 -0.003090 
#    y 0.000000 1.689270 0.000000 
#    z -0.003090 0.000000 1.665020 
# 
# From -- ./inp_files/300357.got.cif
#   From: 2010.06.25/outbox.cif.g09.slc.cpg/sg12_151_cif.got.tgz:300357.got - 2010.06.28 00:19:55.
