data_PCOD8098126
_publ_section_title
;
Structure prediction by ZEFSAII (Michael W. Deem and Ramdas Pophale) SiO2 
 PCOD8098126
Probable space group: C 2/M
;
_chemical_formula_sum "Si O2"
_cell_formula_units_Z 64
_cell_length_a 30.245620
_cell_length_b 9.049168
_cell_length_c 16.237873
_cell_angle_alpha 90.000000
_cell_angle_beta 132.884951
_cell_angle_gamma 90.000000
_cell_volume 3256.411783
_symmetry_space_group_name_H-M "C 2/M"
_symmetry_group_IT_number 12
_symmetry_cell_setting 'monoclinic'
loop_
_space_group_symop_operation_xyz
x,y,z
-x,y,-z
-x,-y,-z
x,-y,z
1/2+x,1/2+y,z
1/2-x,1/2+y,-z
1/2-x,1/2-y,-z
1/2+x,1/2-y,z
loop_
_atom_site_type_symbol
_atom_site_label
_atom_site_fract_x
_atom_site_fract_y
_atom_site_fract_z
Si Si1 0.867937 0.325550 0.001143
Si Si2 0.960100 0.829808 0.593425
Si Si3 0.757952 0.324870 0.755215
Si Si4 0.593295 0.667425 0.304926
Si Si5 0.975285 0.169519 0.055118
Si Si6 0.705728 0.824819 0.379547
Si Si7 0.868555 0.826566 0.337037
Si Si8 0.913153 0.675199 0.234124
O O1 0.871563 0.500000 0.003874
O O2 0.880108 0.268078 0.109089
O O3 0.918111 0.267129 0.003002
O O4 0.803633 0.269418 0.884659
O O5 0.910574 0.801792 0.602267
O O6 0.927156 0.791629 0.466323
O O7 0.017848 0.727188 0.676794
O O8 0.981895 0.000000 0.622758
O O9 0.758248 0.500000 0.751405
O O10 0.778043 0.264944 0.691067
O O11 0.691364 0.266689 0.693340
O O12 0.615583 0.500000 0.315869
O O13 0.525775 0.692076 0.187918
O O14 0.637635 0.779959 0.315809
O O15 0.954506 0.000000 0.022430
O O16 0.000000 0.227448 0.000000
O O17 0.750000 0.750000 0.500000
O O18 0.712556 0.000000 0.394048
O O19 0.874771 0.742195 0.259452
O O20 0.863112 0.000000 0.312188
O O21 0.912678 0.500000 0.240083
#
# Coordination Sequence:
#
# PCOD8098126 Si02
#       8
#     8   8   8   8   8   8   8   8
#     4  10  21  38  59  82 114 153 191 232 281 345
#     4  10  20  37  60  84 112 151 194 234 283 349
#     4   9  20  40  61  82 111 152 198 237 276 339
#     4  10  20  35  56  83 116 149 187 232 279 335
#     4  10  20  34  55  84 115 147 185 233 283 330
#     4  11  22  37  59  85 116 152 193 237 284 336
#     4  10  21  38  61  82 105 147 200 240 282 344
#     4  11  23  37  56  86 119 146 183 239 297 342
#
# _framework density 19.653534000000001
#
# number of rings (size 3 to 8) (size 9 to 14) (size 15 to 20)
#    0.000    1.875    1.250    2.625    0.000    6.250 
#    0.000    3.750    0.000    0.000    0.000    0.000 
#    0.000    0.000    0.000    0.000    0.000    0.000 
#
# Total GULP energy -396873.572185 kJ/mol
# GULP energy per Si atom -12402.299131 kJ/mol
# Density = 1.960880 g / cm^3
# Si number density = 19.653534 Si / 1000 Ang^3
#
#
#
# Elastic Constant Matrix: (Units=GPa)
#
#
# Indices 1 2 3 4 5 6 
#
# 1 113.0243 30.3495 53.1618 0.0000 -7.0320 0.0000
# 2 30.3495 41.7340 36.4022 0.0000 -2.0019 0.0000
# 3 53.1618 36.4022 124.2348 0.0000 -10.7928 0.0000
# 4 0.0000 0.0000 0.0000 26.2348 0.0000 -0.4729
# 5 -7.0320 -2.0019 -10.7928 0.0000 34.0638 0.0000
# 6 0.0000 0.0000 0.0000 -0.4729 0.0000 36.0256
#
#
#
# Elastic Compliance Matrix: (Units=1/GPa)
#
#
# Indices 1 2 3 4 5 6 
#
# 1 0.012050 -0.005770 -0.003372 0.000000 0.001080 0.000000
# 2 -0.005770 0.034993 -0.007927 0.000000 -0.001646 0.000000
# 3 -0.003372 -0.007927 0.012046 0.000000 0.002655 0.000000
# 4 0.000000 0.000000 0.000000 0.038126 0.000000 0.000500
# 5 0.001080 -0.001646 0.002655 0.000000 0.030324 0.000000
# 6 0.000000 0.000000 0.000000 0.000500 0.000000 0.027765
#
#
# Mechanical properties :
#
#
# Convention : Reuss Voigt Hill
#
# Bulk Modulus (GPa) = 40.07994 57.64668 48.86331
# Shear Modulus (GPa) = 25.28331 29.87015 27.57673
#
# Velocity S-wave (km/s) = 3.59060 3.90274 3.74992
# Velocity P-wave (km/s) = 6.13412 7.05008 6.60799
#
# Compressibility (1/GPa) = 0.02495014
#
# Stress axis : x y z
#
# Youngs Moduli (GPa) = 82.98560 28.57722 83.01830
#
# Poissons Ratio (x) = 0.16490 0.27993
# Poissons Ratio (y) = 0.47884 0.65810
# Poissons Ratio (z) = 0.27982 0.22654
#
# Static dielectric constant tensor:
#      x y z
#    x 3.670600 0.000000 -0.106100 
#    y 0.000000 3.387970 0.000000 
#    z -0.106100 0.000000 3.902490 
# 
# 
# High freq. dielectric constant tensor:
#      x y z
#    x 1.772650 0.000000 -0.007170 
#    y 0.000000 1.742920 0.000000 
#    z -0.007170 0.000000 1.780670 
# 
# From -- ./inp_files/250125.got.cif
#   From: 2010.06.25/outbox.cif.g09.slc.cpg/sg12_126_cif.got.tgz:250125.got - 2010.06.28 00:19:55.
