data_PCOD8098533
_publ_section_title
;
Structure prediction by ZEFSAII (Michael W. Deem and Ramdas Pophale) SiO2 
 PCOD8098533
Probable space group: C 2/M
;
_chemical_formula_sum "Si O2"
_cell_formula_units_Z 56
_cell_length_a 24.881319
_cell_length_b 9.151829
_cell_length_c 13.368381
_cell_angle_alpha 90.000000
_cell_angle_beta 112.252972
_cell_angle_gamma 90.000000
_cell_volume 2817.385811
_symmetry_space_group_name_H-M "C 2/M"
_symmetry_group_IT_number 12
_symmetry_cell_setting 'monoclinic'
loop_
_space_group_symop_operation_xyz
x,y,z
-x,y,-z
-x,-y,-z
x,-y,z
1/2+x,1/2+y,z
1/2-x,1/2+y,-z
1/2-x,1/2-y,-z
1/2+x,1/2-y,z
loop_
_atom_site_type_symbol
_atom_site_label
_atom_site_fract_x
_atom_site_fract_y
_atom_site_fract_z
Si Si1 0.414500 0.828169 0.688821
Si Si2 0.521617 0.830289 0.626065
Si Si3 0.248376 0.669328 0.777472
Si Si4 0.360621 0.673139 0.234568
Si Si5 0.844821 0.828197 0.996884
Si Si6 0.298383 0.670374 0.597469
Si Si7 0.933233 0.336005 0.927631
O O1 0.470990 0.783167 0.666026
O O2 0.359722 0.739252 0.608541
O O3 0.424752 0.778616 0.809537
O O4 0.401945 0.000000 0.669016
O O5 0.500000 0.795607 0.500000
O O6 0.577715 0.734883 0.689043
O O7 0.537970 0.000000 0.650565
O O8 0.231045 0.500000 0.774402
O O9 0.189479 0.762719 0.729338
O O10 0.286248 0.723310 0.899331
O O11 0.286692 0.698362 0.706289
O O12 0.362046 0.500000 0.246164
O O13 0.344696 0.724831 0.111114
O O14 0.901042 0.764462 0.983509
O O15 0.850738 0.000000 0.993063
O O16 0.298509 0.500000 0.571069
O O17 0.250000 0.750000 0.500000
O O18 0.908717 0.500000 0.920517
O O19 0.000000 0.330260 0.000000
#
# Coordination Sequence:
#
# PCOD8098533 Si02
#       7
#     8   8   8   8   8   8   8
#     4  10  21  39  62  90 122 156 201 250 297 354
#     4  10  23  43  65  87 118 162 205 245 296 362
#     4  10  22  41  63  87 121 163 203 242 296 364
#     4  11  24  39  61  92 124 157 199 253 303 351
#     4  10  21  39  59  87 122 157 199 243 298 361
#     4  11  24  41  64  91 122 160 200 248 303 357
#     4  10  20  34  57  88 121 157 198 245 294 349
#
# _framework density 19.876581999999999
#
# number of rings (size 3 to 8) (size 9 to 14) (size 15 to 20)
#    0.000    1.714    1.429    2.143    2.000    5.143 
#    0.000    0.000    0.000    0.000    0.000    0.000 
#    0.000    0.000    0.000    0.000    0.000    0.000 
#
# Total GULP energy -347334.454488 kJ/mol
# GULP energy per Si atom -12404.801946 kJ/mol
# Density = 1.983134 g / cm^3
# Si number density = 19.876582 Si / 1000 Ang^3
#
#
#
# Elastic Constant Matrix: (Units=GPa)
#
#
# Indices 1 2 3 4 5 6 
#
# 1 111.6622 46.9187 22.2512 0.0000 13.9601 0.0000
# 2 46.9187 61.5755 37.6449 0.0000 9.1326 0.0000
# 3 22.2512 37.6449 82.4313 0.0000 17.2097 0.0000
# 4 0.0000 0.0000 0.0000 27.8713 0.0000 8.1432
# 5 13.9601 9.1326 17.2097 0.0000 31.6653 0.0000
# 6 0.0000 0.0000 0.0000 8.1432 0.0000 29.8847
#
#
#
# Elastic Compliance Matrix: (Units=1/GPa)
#
#
# Indices 1 2 3 4 5 6 
#
# 1 0.013740 -0.011263 0.002280 0.000000 -0.004048 0.000000
# 2 -0.011263 0.031792 -0.011958 0.000000 0.002295 0.000000
# 3 0.002280 -0.011958 0.018574 0.000000 -0.007651 0.000000
# 4 0.000000 0.000000 0.000000 0.038983 0.000000 -0.010622
# 5 -0.004048 0.002295 -0.007651 0.000000 0.036861 0.000000
# 6 0.000000 0.000000 0.000000 -0.010622 0.000000 0.036356
#
#
# Mechanical properties :
#
#
# Convention : Reuss Voigt Hill
#
# Bulk Modulus (GPa) = 44.99506 52.14431 48.56969
# Shear Modulus (GPa) = 22.16345 27.80787 24.98566
#
# Velocity S-wave (km/s) = 3.34286 3.74441 3.54932
# Velocity P-wave (km/s) = 6.13074 6.70710 6.42539
#
# Compressibility (1/GPa) = 0.02222466
#
# Stress axis : x y z
#
# Youngs Moduli (GPa) = 72.78141 31.45423 53.83788
#
# Poissons Ratio (x) = 0.35426 -0.12274
# Poissons Ratio (y) = 0.81971 0.64379
# Poissons Ratio (z) = -0.16592 0.37613
#
# Static dielectric constant tensor:
#      x y z
#    x 3.619810 0.000000 -0.062600 
#    y 0.000000 3.585600 0.000000 
#    z -0.062600 0.000000 3.826680 
# 
# 
# High freq. dielectric constant tensor:
#      x y z
#    x 1.784640 0.000000 0.002370 
#    y 0.000000 1.769240 0.000000 
#    z 0.002370 0.000000 1.785940 
# 
# From -- ./inp_files/238888.got.cif
#   From: 2010.06.25/outbox.cif.g09.slc.cpg/sg12_120_cif.got.tgz:238888.got - 2010.06.28 00:19:55.
