data_PCOD8098129
_publ_section_title
;
Structure prediction by ZEFSAII (Michael W. Deem and Ramdas Pophale) SiO2 
 PCOD8098129
Probable space group: C 2/M
;
_chemical_formula_sum "Si O2"
_cell_formula_units_Z 64
_cell_length_a 30.534920
_cell_length_b 9.342737
_cell_length_c 13.923744
_cell_angle_alpha 90.000000
_cell_angle_beta 121.958857
_cell_angle_gamma 90.000000
_cell_volume 3370.094962
_symmetry_space_group_name_H-M "C 2/M"
_symmetry_group_IT_number 12
_symmetry_cell_setting 'monoclinic'
loop_
_space_group_symop_operation_xyz
x,y,z
-x,y,-z
-x,-y,-z
x,-y,z
1/2+x,1/2+y,z
1/2-x,1/2+y,-z
1/2-x,1/2-y,-z
1/2+x,1/2-y,z
loop_
_atom_site_type_symbol
_atom_site_label
_atom_site_fract_x
_atom_site_fract_y
_atom_site_fract_z
Si Si1 0.423722 0.167921 0.489871
Si Si2 0.282376 0.332574 0.116099
Si Si3 0.676378 0.833674 0.503096
Si Si4 0.747179 0.164398 0.283627
Si Si5 0.857930 0.335603 0.745529
Si Si6 0.498649 0.336163 0.709010
Si Si7 0.600635 0.337256 0.726128
Si Si8 0.039283 0.831227 0.127134
O O1 0.372669 0.204252 0.489515
O O2 0.472201 0.239326 0.597980
O O3 0.417813 0.231281 0.377708
O O4 0.434335 0.000000 0.494408
O O5 0.271004 0.500000 0.091332
O O6 0.264463 0.277174 0.199971
O O7 0.342577 0.295341 0.170667
O O8 0.250000 0.250000 0.000000
O O9 0.725439 0.749806 0.599522
O O10 0.664706 0.781280 0.382061
O O11 0.690243 0.000000 0.521774
O O12 0.685656 0.183110 0.223546
O O13 0.763823 0.000000 0.314357
O O14 0.875750 0.500000 0.756365
O O15 0.906409 0.241777 0.832256
O O16 0.480608 0.500000 0.673706
O O17 0.560582 0.323200 0.768088
O O18 0.483368 0.280817 0.796790
O O19 0.601417 0.500000 0.686732
O O20 0.047607 0.000000 0.133330
O O21 0.000000 0.779531 0.000000
#
# Coordination Sequence:
#
# PCOD8098129 Si02
#       8
#     8   8   8   8   8   8   8   8
#     4  11  21  34  56  86 116 145 181 227 277 330
#     4  10  22  39  58  81 109 145 187 231 275 322
#     4  10  20  34  55  84 116 147 181 223 275 331
#     4  10  21  37  59  85 113 146 186 226 271 333
#     4  10  21  38  58  84 116 147 181 225 278 335
#     4  10  21  37  58  82 111 148 187 226 273 331
#     4  10  21  38  58  81 111 149 187 224 274 333
#     4  10  22  39  58  82 110 144 191 237 274 322
#
# _framework density 18.990562000000001
#
# number of rings (size 3 to 8) (size 9 to 14) (size 15 to 20)
#    0.000    1.875    2.500    1.125    0.000    5.750 
#    0.000    1.250    0.000    0.000    0.000    0.000 
#    0.000    0.000    0.000    0.000    0.000    0.000 
#
# Total GULP energy -396932.645663 kJ/mol
# GULP energy per Si atom -12404.145177 kJ/mol
# Density = 1.894734 g / cm^3
# Si number density = 18.990562 Si / 1000 Ang^3
#
#
#
# Elastic Constant Matrix: (Units=GPa)
#
#
# Indices 1 2 3 4 5 6 
#
# 1 93.8507 32.5081 39.3559 0.0000 20.6783 0.0000
# 2 32.5081 53.1861 45.6481 0.0000 11.1500 0.0000
# 3 39.3559 45.6481 122.2611 0.0000 19.5447 0.0000
# 4 0.0000 0.0000 0.0000 31.7002 0.0000 6.1184
# 5 20.6783 11.1500 19.5447 0.0000 21.4767 0.0000
# 6 0.0000 0.0000 0.0000 6.1184 0.0000 26.8570
#
#
#
# Elastic Compliance Matrix: (Units=1/GPa)
#
#
# Indices 1 2 3 4 5 6 
#
# 1 0.015696 -0.006572 -0.000852 0.000000 -0.010925 0.000000
# 2 -0.006572 0.031053 -0.009260 0.000000 -0.001367 0.000000
# 3 -0.000852 -0.009260 0.012886 0.000000 -0.006098 0.000000
# 4 0.000000 0.000000 0.000000 0.032996 0.000000 -0.007517
# 5 -0.010925 -0.001367 -0.006098 0.000000 0.063341 0.000000
# 6 0.000000 0.000000 0.000000 -0.007517 0.000000 0.038947
#
#
# Mechanical properties :
#
#
# Convention : Reuss Voigt Hill
#
# Bulk Modulus (GPa) = 38.07140 56.03579 47.05359
# Shear Modulus (GPa) = 21.09322 26.12582 23.60952
#
# Velocity S-wave (km/s) = 3.33636 3.71310 3.52976
# Velocity P-wave (km/s) = 5.91040 6.92489 6.43766
#
# Compressibility (1/GPa) = 0.02626644
#
# Stress axis : x y z
#
# Youngs Moduli (GPa) = 63.70978 32.20310 77.60408
#
# Poissons Ratio (x) = 0.21163 0.06615
# Poissons Ratio (y) = 0.41868 0.71862
# Poissons Ratio (z) = 0.05431 0.29820
#
# Static dielectric constant tensor:
#      x y z
#    x 3.697880 0.000000 -0.012500 
#    y 0.000000 3.381860 0.000000 
#    z -0.012500 0.000000 3.336230 
# 
# 
# High freq. dielectric constant tensor:
#      x y z
#    x 1.754740 0.000000 0.003680 
#    y 0.000000 1.731350 0.000000 
#    z 0.003680 0.000000 1.726960 
# 
# From -- ./inp_files/249743.got.cif
#   From: 2010.06.25/outbox.cif.g09.slc.cpg/sg12_125_cif.got.tgz:249743.got - 2010.06.28 00:19:55.
