data_PCOD8098314
_publ_section_title
;
Structure prediction by ZEFSAII (Michael W. Deem and Ramdas Pophale) SiO2 
 PCOD8098314
Probable space group: C 2/M
;
_chemical_formula_sum "Si O2"
_cell_formula_units_Z 40
_cell_length_a 5.277743
_cell_length_b 29.266436
_cell_length_c 14.495649
_cell_angle_alpha 90.000000
_cell_angle_beta 93.863814
_cell_angle_gamma 90.000000
_cell_volume 2233.919308
_symmetry_space_group_name_H-M "C 2/M"
_symmetry_group_IT_number 12
_symmetry_cell_setting 'monoclinic'
loop_
_space_group_symop_operation_xyz
x,y,z
-x,y,-z
-x,-y,-z
x,-y,z
1/2+x,1/2+y,z
1/2-x,1/2+y,-z
1/2-x,1/2-y,-z
1/2+x,1/2-y,z
loop_
_atom_site_type_symbol
_atom_site_label
_atom_site_fract_x
_atom_site_fract_y
_atom_site_fract_z
Si Si1 0.668326 0.366135 0.173332
Si Si2 0.174298 0.603868 0.251644
Si Si3 0.760733 0.230960 0.896422
Si Si4 0.737716 0.052762 0.442129
Si Si5 0.903197 0.551391 0.100100
O O1 0.411516 0.364861 0.226435
O O2 0.685396 0.323062 0.105060
O O3 0.674230 0.412622 0.112016
O O4 0.916287 0.365546 0.246949
O O5 0.232004 0.584008 0.352613
O O6 0.132262 0.562584 0.177190
O O7 0.486462 0.243328 0.845737
O O8 0.750000 0.250000 0.000000
O O9 0.500000 0.065948 0.500000
O O10 0.000000 0.063027 0.500000
O O11 0.720816 0.000000 0.411667
O O12 0.802985 0.500000 0.114585
O O13 0.000000 0.558027 0.000000
#
# Coordination Sequence:
#
# PCOD8098314 Si02
#       5
#     8   8   8   8   8
#     4  10  22  36  56  79 113 152 191 236 284 343
#     4  10  21  37  55  78 118 148 196 232 282 331
#     4  10  21  34  55  79 107 144 189 239 298 340
#     4  10  20  34  56  84 114 152 197 241 291 339
#     4   9  21  35  52  75 111 160 199 226 263 326
#
# _framework density 17.905747999999999
#
# number of rings (size 3 to 8) (size 9 to 14) (size 15 to 20)
#    1.200    1.000    0.000    3.000    2.800    4.000 
#    0.000    2.000    0.000    0.000    0.000    0.000 
#    0.000   56.000    0.000    0.000    0.000    0.000 
#
# Total GULP energy -247788.723546 kJ/mol
# GULP energy per Si atom -12389.436177 kJ/mol
# Density = 1.786499 g / cm^3
# Si number density = 17.905748 Si / 1000 Ang^3
#
#
#
# Elastic Constant Matrix: (Units=GPa)
#
#
# Indices 1 2 3 4 5 6 
#
# 1 139.7127 36.1204 27.7364 0.0000 -13.7728 0.0000
# 2 36.1204 109.1469 38.7250 0.0000 -10.1431 0.0000
# 3 27.7364 38.7250 84.2298 0.0000 0.0155 0.0000
# 4 0.0000 0.0000 0.0000 23.7626 0.0000 -56.1407
# 5 -13.7728 -10.1431 0.0155 0.0000 16.9336 0.0000
# 6 0.0000 0.0000 0.0000 -56.1407 0.0000 786.9235
#
#
#
# Elastic Compliance Matrix: (Units=1/GPa)
#
#
# Indices 1 2 3 4 5 6 
#
# 1 0.008570 -0.001519 -0.002125 0.000000 0.006062 0.000000
# 2 -0.001519 0.011998 -0.005017 0.000000 0.005956 0.000000
# 3 -0.002125 -0.005017 0.014880 0.000000 -0.004747 0.000000
# 4 0.000000 0.000000 0.000000 0.050614 0.000000 0.003611
# 5 0.006062 0.005956 -0.004747 0.000000 0.067557 0.000000
# 6 0.000000 0.000000 0.000000 0.003611 0.000000 0.001528
#
#
# Mechanical properties :
#
#
# Convention : Reuss Voigt Hill
#
# Bulk Modulus (GPa) = 55.16987 59.80592 57.48790
# Shear Modulus (GPa) = 28.00967 180.89113 104.45040
#
# Velocity S-wave (km/s) = 3.95939 10.06198 7.64592
# Velocity P-wave (km/s) = 7.19587 12.97937 10.49392
#
# Compressibility (1/GPa) = 0.01812584
#
# Stress axis : x y z
#
# Youngs Moduli (GPa) = 116.69119 83.34610 67.20645
#
# Poissons Ratio (x) = 0.12658 0.14280
# Poissons Ratio (y) = 0.17722 0.33719
# Poissons Ratio (z) = 0.24795 0.41816
#
# Static dielectric constant tensor:
#      x y z
#    x -9.231250 0.000000 -0.050510 
#    y 0.000000 3.157870 0.000000 
#    z -0.050510 0.000000 2.944670 
# 
# 
# High freq. dielectric constant tensor:
#      x y z
#    x 1.713790 0.000000 -0.001590 
#    y 0.000000 1.675960 0.000000 
#    z -0.001590 0.000000 1.656030 
# 
# From -- ./inp_files/192162.got.cif
#   From: 2010.06.25/outbox.cif.g09.slc.cpg/sg12_97_cif.got.tgz:192162.got - 2010.06.28 00:19:55.
