data_PCOD8098902
_publ_section_title
;
Structure prediction by ZEFSAII (Michael W. Deem and Ramdas Pophale) SiO2 
 PCOD8098902
Probable space group: C 2/M
;
_chemical_formula_sum "Si O2"
_cell_formula_units_Z 64
_cell_length_a 23.302260
_cell_length_b 25.469329
_cell_length_c 13.455166
_cell_angle_alpha 90.000000
_cell_angle_beta 155.685265
_cell_angle_gamma 90.000000
_cell_volume 3288.038395
_symmetry_space_group_name_H-M "C 2/M"
_symmetry_group_IT_number 12
_symmetry_cell_setting 'monoclinic'
loop_
_space_group_symop_operation_xyz
x,y,z
-x,y,-z
-x,-y,-z
x,-y,z
1/2+x,1/2+y,z
1/2-x,1/2+y,-z
1/2-x,1/2-y,-z
1/2+x,1/2-y,z
loop_
_atom_site_type_symbol
_atom_site_label
_atom_site_fract_x
_atom_site_fract_y
_atom_site_fract_z
Si Si1 0.177885 0.559226 0.407115
Si Si2 0.681881 0.728995 0.493133
Si Si3 0.584253 0.717809 0.033358
Si Si4 0.881815 0.439743 0.013651
Si Si5 0.627462 0.401242 0.133392
Si Si6 0.688164 0.610298 0.565225
Si Si7 0.614561 0.938163 0.755483
Si Si8 0.101994 0.059385 0.886866
O O1 0.216345 0.500000 0.499093
O O2 0.236775 0.598817 0.583185
O O3 0.243942 0.569341 0.404221
O O4 0.012191 0.566805 0.145204
O O5 0.750000 0.750000 0.500000
O O6 0.759610 0.756951 0.710130
O O7 0.709367 0.667458 0.552206
O O8 0.512962 0.738425 0.213250
O O9 0.600479 0.655933 0.045515
O O10 0.500000 0.731464 0.000000
O O11 0.826783 0.500000 0.925508
O O12 0.923255 0.423429 0.191140
O O13 0.765514 0.398964 0.792064
O O14 0.500000 0.420545 0.000000
O O15 0.646327 0.441276 0.072512
O O16 0.527522 0.598035 0.332802
O O17 0.500000 0.912706 0.500000
O O18 0.615963 0.000000 0.739725
O O19 0.769590 0.917367 0.974490
O O20 0.063957 0.000000 0.794344
#
# Coordination Sequence:
#
# PCOD8098902 Si02
#       8
#     8   8   8   8   8   8   8   8
#     4  11  21  32  49  76 117 160 192 229 280 346
#     4  10  20  35  54  76 113 154 190 240 293 353
#     4   9  18  33  50  73 105 144 188 237 284 341
#     4  10  22  37  53  77 118 164 205 243 283 346
#     4  11  19  32  51  79 114 144 190 237 287 353
#     4  12  22  35  52  84 122 150 193 238 297 368
#     4   9  19  38  58  79 112 158 209 248 280 338
#     4  11  21  33  56  84 119 158 190 235 294 345
#
# _framework density 19.464493999999998
#
# number of rings (size 3 to 8) (size 9 to 14) (size 15 to 20)
#    0.000    1.625    2.500    4.125    0.000    8.000 
#    0.000    1.875    0.000    0.000    0.000    0.875 
#    7.500    0.000    0.000    0.000    0.000    0.000 
#
# Total GULP energy -396603.771316 kJ/mol
# GULP energy per Si atom -12393.867854 kJ/mol
# Density = 1.942019 g / cm^3
# Si number density = 19.464494 Si / 1000 Ang^3
#
#
#
# Elastic Constant Matrix: (Units=GPa)
#
#
# Indices 1 2 3 4 5 6 
#
# 1 64.9549 15.7177 31.9334 0.0000 10.6870 0.0000
# 2 15.7177 47.6899 34.9382 0.0000 1.9526 0.0000
# 3 31.9334 34.9382 142.5469 0.0000 -10.1180 0.0000
# 4 0.0000 0.0000 0.0000 28.5937 0.0000 -3.6347
# 5 10.6870 1.9526 -10.1180 0.0000 28.5593 0.0000
# 6 0.0000 0.0000 0.0000 -3.6347 0.0000 14.2156
#
#
#
# Elastic Compliance Matrix: (Units=1/GPa)
#
#
# Indices 1 2 3 4 5 6 
#
# 1 0.019650 -0.002981 -0.004287 0.000000 -0.008668 0.000000
# 2 -0.002981 0.026480 -0.006023 0.000000 -0.002829 0.000000
# 3 -0.004287 -0.006023 0.009842 0.000000 0.005503 0.000000
# 4 0.000000 0.000000 0.000000 0.036148 0.000000 0.009242
# 5 -0.008668 -0.002829 0.005503 0.000000 0.040402 0.000000
# 6 0.000000 0.000000 0.000000 0.009242 0.000000 0.072708
#
#
# Mechanical properties :
#
#
# Convention : Reuss Voigt Hill
#
# Bulk Modulus (GPa) = 34.02430 46.70778 40.36604
# Shear Modulus (GPa) = 20.69464 25.78054 23.23759
#
# Velocity S-wave (km/s) = 3.26421 3.64330 3.45895
# Velocity P-wave (km/s) = 5.63249 6.46117 6.06101
#
# Compressibility (1/GPa) = 0.02939076
#
# Stress axis : x y z
#
# Youngs Moduli (GPa) = 50.88997 37.76474 101.60116
#
# Poissons Ratio (x) = 0.11258 0.43553
# Poissons Ratio (y) = 0.15170 0.61196
# Poissons Ratio (z) = 0.21815 0.22746
#
# Static dielectric constant tensor:
#      x y z
#    x 3.250260 0.000000 -0.004870 
#    y 0.000000 3.286750 0.000000 
#    z -0.004870 0.000000 4.046610 
# 
# 
# High freq. dielectric constant tensor:
#      x y z
#    x 1.715450 0.000000 -0.002990 
#    y 0.000000 1.725850 0.000000 
#    z -0.002990 0.000000 1.781590 
# 
# From -- ./inp_files/135918.got.cif
#   From: 2010.06.25/outbox.cif.g09.slc.cpg/sg12_68_cif.got.tgz:135918.got - 2010.06.28 00:19:55.
