data_PCOD8098758
_publ_section_title
;
Structure prediction by ZEFSAII (Michael W. Deem and Ramdas Pophale) SiO2 
 PCOD8098758
Probable space group: C 2/M
;
_chemical_formula_sum "Si O2"
_cell_formula_units_Z 48
_cell_length_a 22.957523
_cell_length_b 9.121776
_cell_length_c 24.302228
_cell_angle_alpha 90.000000
_cell_angle_beta 33.482544
_cell_angle_gamma 90.000000
_cell_volume 2807.631125
_symmetry_space_group_name_H-M "C 2/M"
_symmetry_group_IT_number 12
_symmetry_cell_setting 'monoclinic'
loop_
_space_group_symop_operation_xyz
x,y,z
-x,y,-z
-x,-y,-z
x,-y,z
1/2+x,1/2+y,z
1/2-x,1/2+y,-z
1/2-x,1/2-y,-z
1/2+x,1/2-y,z
loop_
_atom_site_type_symbol
_atom_site_label
_atom_site_fract_x
_atom_site_fract_y
_atom_site_fract_z
Si Si1 0.616538 0.671175 0.059731
Si Si2 0.268271 0.673529 0.718317
Si Si3 0.418772 0.172604 0.685155
Si Si4 0.144558 0.328434 0.145130
Si Si5 0.950635 0.170174 0.098014
Si Si6 0.094070 0.661563 0.469172
O O1 0.611789 0.500000 0.074639
O O2 0.585678 0.749847 0.141042
O O3 0.535706 0.718519 0.076301
O O4 0.733021 0.719884 0.948454
O O5 0.273050 0.500000 0.717742
O O6 0.331746 0.740115 0.719319
O O7 0.149163 0.727220 0.814897
O O8 0.317829 0.724360 0.620628
O O9 0.411218 0.220896 0.754452
O O10 0.538170 0.209845 0.570591
O O11 0.393933 0.000000 0.697204
O O12 0.133432 0.500000 0.144402
O O13 0.918085 0.000000 0.129583
O O14 0.000000 0.201347 0.000000
O O15 0.146236 0.500000 0.433855
O O16 0.000000 0.654034 0.500000
#
# Coordination Sequence:
#
# PCOD8098758 Si02
#       6
#     8   8   8   8   8   8
#     4   9  18  31  48  71  96 124 156 190 233 280
#     4  11  21  30  45  72 103 128 152 194 246 284
#     4   9  17  31  51  72  94 126 165 196 229 280
#     4   9  17  31  51  72  95 122 154 194 235 277
#     4  10  20  35  53  69  92 129 166 194 225 279
#     4   8  15  29  48  68  92 124 161 196 231 279
#
# _framework density 17.096263
#
# number of rings (size 3 to 8) (size 9 to 14) (size 15 to 20)
#    0.000    2.667    0.000    3.500    0.000    7.333 
#    0.000    3.333    0.000    1.000    0.000    0.000 
#    0.000    0.000    0.000    0.000    0.000    0.000 
#
# Total GULP energy -297551.807808 kJ/mol
# GULP energy per Si atom -12397.991992 kJ/mol
# Density = 1.705735 g / cm^3
# Si number density = 17.096263 Si / 1000 Ang^3
#
#
#
# Elastic Constant Matrix: (Units=GPa)
#
#
# Indices 1 2 3 4 5 6 
#
# 1 115.3991 49.6069 64.5029 0.0000 19.5968 0.0001
# 2 49.6069 73.7359 52.1622 0.0001 5.3041 0.0000
# 3 64.5029 52.1622 113.2395 -0.0001 24.9567 0.0001
# 4 0.0000 0.0001 -0.0001 18.9483 0.0000 1.4528
# 5 19.5968 5.3041 24.9567 0.0000 30.4500 -0.0001
# 6 0.0001 0.0000 0.0001 1.4528 -0.0001 13.5478
#
#
#
# Elastic Compliance Matrix: (Units=1/GPa)
#
#
# Indices 1 2 3 4 5 6 
#
# 1 0.014676 -0.006468 -0.004329 0.000000 -0.004770 0.000000
# 2 -0.006468 0.023610 -0.008790 0.000000 0.007254 0.000000
# 3 -0.004329 -0.008790 0.017567 0.000000 -0.010081 0.000000
# 4 0.000000 0.000000 0.000000 0.053213 0.000000 -0.005706
# 5 -0.004770 0.007254 -0.010081 0.000000 0.042910 0.000000
# 6 0.000000 0.000000 0.000000 -0.005706 0.000000 0.074425
#
#
# Mechanical properties :
#
#
# Convention : Reuss Voigt Hill
#
# Bulk Modulus (GPa) = 59.95456 70.54650 65.25053
# Shear Modulus (GPa) = 18.44116 21.66272 20.05194
#
# Velocity S-wave (km/s) = 3.28787 3.56350 3.42846
# Velocity P-wave (km/s) = 7.03977 7.63448 7.34315
#
# Compressibility (1/GPa) = 0.01667930
#
# Stress axis : x y z
#
# Youngs Moduli (GPa) = 68.14026 42.35556 56.92369
#
# Poissons Ratio (x) = 0.27395 0.24641
# Poissons Ratio (y) = 0.44072 0.50036
# Poissons Ratio (z) = 0.29497 0.37231
#
# Static dielectric constant tensor:
#      x y z
#    x 3.111980 0.000000 0.307620 
#    y 0.000000 3.089430 0.000000 
#    z 0.307620 0.000000 3.533190 
# 
# 
# High freq. dielectric constant tensor:
#      x y z
#    x 1.635590 0.000000 0.019430 
#    y 0.000000 1.650830 0.000000 
#    z 0.019430 0.000000 1.663260 
# 
# From -- ./inp_files/367110.got.cif
#   From: 2010.06.25/outbox.cif.g09.slc.cpg/sg12_184_cif.got.tgz:367110.got - 2010.06.28 00:19:55.
