data_PCOD8098103
_publ_section_title
;
Structure prediction by ZEFSAII (Michael W. Deem and Ramdas Pophale) SiO2 
 PCOD8098103
Probable space group: C 2/M
;
_chemical_formula_sum "Si O2"
_cell_formula_units_Z 56
_cell_length_a 29.201604
_cell_length_b 8.500907
_cell_length_c 21.676208
_cell_angle_alpha 90.000000
_cell_angle_beta 149.069573
_cell_angle_gamma 90.000000
_cell_volume 2765.767982
_symmetry_space_group_name_H-M "C 2/M"
_symmetry_group_IT_number 12
_symmetry_cell_setting 'monoclinic'
loop_
_space_group_symop_operation_xyz
x,y,z
-x,y,-z
-x,-y,-z
x,-y,z
1/2+x,1/2+y,z
1/2-x,1/2+y,-z
1/2-x,1/2-y,-z
1/2+x,1/2-y,z
loop_
_atom_site_type_symbol
_atom_site_label
_atom_site_fract_x
_atom_site_fract_y
_atom_site_fract_z
Si Si1 0.012546 0.686249 0.292351
Si Si2 0.176675 0.682202 0.144996
Si Si3 0.538322 0.315191 0.896212
Si Si4 0.786240 0.315061 0.478835
Si Si5 0.372902 0.314701 0.788605
Si Si6 0.984543 0.815110 0.387601
Si Si7 0.131175 0.316621 0.641973
O O1 0.005644 0.500000 0.276608
O O2 0.114163 0.746212 0.417534
O O3 0.968742 0.768927 0.183116
O O4 0.960698 0.743923 0.293208
O O5 0.201519 0.500000 0.173468
O O6 0.115191 0.726097 0.132728
O O7 0.266065 0.783861 0.252055
O O8 0.123160 0.724904 0.021541
O O9 0.553839 0.500000 0.920547
O O10 0.449799 0.261069 0.830324
O O11 0.784522 0.500000 0.482106
O O12 0.750000 0.250000 0.500000
O O13 0.722038 0.260950 0.349171
O O14 0.377934 0.500000 0.806642
O O15 0.901290 0.779925 0.335881
O O16 0.074017 0.733167 0.516371
O O17 0.000333 0.000000 0.401587
O O18 0.116308 0.500000 0.637086
#
# Coordination Sequence:
#
# PCOD8098103 Si02
#       7
#     8   8   8   8   8   8   8
#     4  11  22  37  59  89 124 163 202 243 297 357
#     4  12  25  40  60  87 118 156 203 252 300 355
#     4  11  23  40  60  83 118 163 206 250 298 353
#     4  10  20  34  55  83 117 153 192 239 289 343
#     4  10  21  38  59  85 118 160 203 246 298 356
#     4  11  22  39  65  96 125 155 193 241 298 356
#     4  11  22  41  66  92 122 155 195 245 300 354
#
# _framework density 20.247540999999998
#
# number of rings (size 3 to 8) (size 9 to 14) (size 15 to 20)
#    0.000    1.143    1.429    6.857    0.000    5.143 
#    0.000    0.714    0.000    0.000    0.000    0.000 
#    0.000    0.000    0.000    0.000    0.000    0.000 
#
# Total GULP energy -347375.376793 kJ/mol
# GULP energy per Si atom -12406.263457 kJ/mol
# Density = 2.020146 g / cm^3
# Si number density = 20.247541 Si / 1000 Ang^3
#
#
#
# Elastic Constant Matrix: (Units=GPa)
#
#
# Indices 1 2 3 4 5 6 
#
# 1 96.1414 8.9418 36.5727 0.0000 -21.7544 0.0000
# 2 8.9418 64.1218 23.3271 0.0000 -0.1383 0.0000
# 3 36.5727 23.3271 88.2839 0.0000 -17.4829 0.0000
# 4 0.0000 0.0000 0.0000 31.6576 0.0000 -5.6630
# 5 -21.7544 -0.1383 -17.4829 0.0000 30.9220 0.0000
# 6 0.0000 0.0000 0.0000 -5.6630 0.0000 35.3580
#
#
#
# Elastic Compliance Matrix: (Units=1/GPa)
#
#
# Indices 1 2 3 4 5 6 
#
# 1 0.013647 -0.000393 -0.004109 0.000000 0.007276 0.000000
# 2 -0.000393 0.017486 -0.005064 0.000000 -0.003061 0.000000
# 3 -0.004109 -0.005064 0.015529 0.000000 0.005867 0.000000
# 4 0.000000 0.000000 0.000000 0.032520 0.000000 0.005208
# 5 0.007276 -0.003061 0.005867 0.000000 0.040762 0.000000
# 6 0.000000 0.000000 0.000000 0.005208 0.000000 0.029116
#
#
# Mechanical properties :
#
#
# Convention : Reuss Voigt Hill
#
# Bulk Modulus (GPa) = 36.32205 42.91446 39.61826
# Shear Modulus (GPa) = 28.19006 31.56788 29.87897
#
# Velocity S-wave (km/s) = 3.73536 3.95282 3.84563
# Velocity P-wave (km/s) = 6.04829 6.48645 6.27120
#
# Compressibility (1/GPa) = 0.02753149
#
# Stress axis : x y z
#
# Youngs Moduli (GPa) = 73.27408 57.18988 64.39578
#
# Poissons Ratio (x) = 0.02246 0.26459
# Poissons Ratio (y) = 0.02877 0.32608
# Poissons Ratio (z) = 0.30107 0.28959
#
# Static dielectric constant tensor:
#      x y z
#    x 3.688860 0.000000 -0.029970 
#    y 0.000000 3.662830 0.000000 
#    z -0.029970 0.000000 3.730730 
# 
# 
# High freq. dielectric constant tensor:
#      x y z
#    x 1.792760 0.000000 -0.010120 
#    y 0.000000 1.795630 0.000000 
#    z -0.010120 0.000000 1.787190 
# 
# From -- ./inp_files/329693.got.cif
#   From: 2010.06.25/outbox.cif.g09.slc.cpg/sg12_165_cif.got.tgz:329693.got - 2010.06.28 00:19:55.
