data_PCOD8098210
_publ_section_title
;
Structure prediction by ZEFSAII (Michael W. Deem and Ramdas Pophale) SiO2 
 PCOD8098210
Probable space group: C 2/M
;
_chemical_formula_sum "Si O2"
_cell_formula_units_Z 56
_cell_length_a 14.871585
_cell_length_b 8.856418
_cell_length_c 22.597018
_cell_angle_alpha 90.000000
_cell_angle_beta 107.330587
_cell_angle_gamma 90.000000
_cell_volume 2841.114882
_symmetry_space_group_name_H-M "C 2/M"
_symmetry_group_IT_number 12
_symmetry_cell_setting 'monoclinic'
loop_
_space_group_symop_operation_xyz
x,y,z
-x,y,-z
-x,-y,-z
x,-y,z
1/2+x,1/2+y,z
1/2-x,1/2+y,-z
1/2-x,1/2-y,-z
1/2+x,1/2-y,z
loop_
_atom_site_type_symbol
_atom_site_label
_atom_site_fract_x
_atom_site_fract_y
_atom_site_fract_z
Si Si1 0.622806 0.321611 0.731602
Si Si2 0.191025 0.672943 0.075006
Si Si3 0.957286 0.179368 0.406207
Si Si4 0.127113 0.325894 0.937755
Si Si5 0.849425 0.821299 0.500558
Si Si6 0.693200 0.329718 0.195973
Si Si7 0.012630 0.172644 0.823844
O O1 0.615473 0.500000 0.727579
O O2 0.576041 0.252535 0.663217
O O3 0.731348 0.274746 0.756923
O O4 0.569380 0.260110 0.779105
O O5 0.192183 0.500000 0.096937
O O6 0.294022 0.714403 0.071767
O O7 0.166009 0.779260 0.124515
O O8 0.116653 0.696268 0.006625
O O9 0.882413 0.232956 0.441560
O O10 0.064990 0.232059 0.439527
O O11 0.956371 0.000000 0.405990
O O12 0.151926 0.500000 0.928742
O O13 0.032083 0.276209 0.885521
O O14 0.750000 0.750000 0.500000
O O15 0.836277 0.000000 0.500435
O O16 0.732078 0.500000 0.201558
O O17 0.597235 0.318248 0.214517
O O18 0.041975 0.000000 0.843067
#
# Coordination Sequence:
#
# PCOD8098210 Si02
#       7
#     8   8   8   8   8   8   8
#     4  10  20  38  59  77 105 149 190 225 268 328
#     4  10  20  35  55  79 106 140 178 223 283 341
#     4   8  17  34  56  80 110 150 188 217 265 326
#     4  10  20  34  56  81 105 135 179 231 280 331
#     4   9  17  33  57  85 115 146 182 225 265 316
#     4  11  23  37  54  81 111 142 182 232 279 325
#     4  10  22  37  54  77 108 143 182 226 280 334
#
# _framework density 19.710571000000002
#
# number of rings (size 3 to 8) (size 9 to 14) (size 15 to 20)
#    0.000    2.286    1.429    2.143    0.000    4.571 
#    0.000    7.143    0.000    0.000    0.000    0.000 
#    0.000    0.000    0.000    0.000    0.000    0.000 
#
# Total GULP energy -347101.072367 kJ/mol
# GULP energy per Si atom -12396.466870 kJ/mol
# Density = 1.966571 g / cm^3
# Si number density = 19.710571 Si / 1000 Ang^3
#
#
#
# Elastic Constant Matrix: (Units=GPa)
#
#
# Indices 1 2 3 4 5 6 
#
# 1 106.5970 18.2841 47.9600 0.0000 18.0672 0.0000
# 2 18.2841 29.2777 24.9579 0.0000 0.6055 0.0000
# 3 47.9600 24.9579 144.0618 0.0000 16.4708 0.0000
# 4 0.0000 0.0000 0.0000 19.7227 0.0000 4.5989
# 5 18.0672 0.6055 16.4708 0.0000 14.7820 0.0000
# 6 0.0000 0.0000 0.0000 4.5989 0.0000 29.8743
#
#
#
# Elastic Compliance Matrix: (Units=1/GPa)
#
#
# Indices 1 2 3 4 5 6 
#
# 1 0.013826 -0.006850 -0.001738 0.000000 -0.014682 0.000000
# 2 -0.006850 0.044106 -0.007004 0.000000 0.014369 0.000000
# 3 -0.001738 -0.007004 0.009692 0.000000 -0.008389 0.000000
# 4 0.000000 0.000000 0.000000 0.052591 0.000000 -0.008096
# 5 -0.014682 0.014369 -0.008389 0.000000 0.094355 0.000000
# 6 0.000000 0.000000 0.000000 -0.008096 0.000000 0.034720
#
#
# Mechanical properties :
#
#
# Convention : Reuss Voigt Hill
#
# Bulk Modulus (GPa) = 27.43998 51.37117 39.40558
# Shear Modulus (GPa) = 17.08700 25.45809 21.27254
#
# Velocity S-wave (km/s) = 2.94750 3.59778 3.28875
# Velocity P-wave (km/s) = 5.05325 6.58620 5.86998
#
# Compressibility (1/GPa) = 0.03644318
#
# Stress axis : x y z
#
# Youngs Moduli (GPa) = 72.32560 22.67243 103.17334
#
# Poissons Ratio (x) = 0.15530 0.17928
# Poissons Ratio (y) = 0.49541 0.72259
# Poissons Ratio (z) = 0.12568 0.15879
#
# Static dielectric constant tensor:
#      x y z
#    x 3.481660 0.000000 -0.000550 
#    y 0.000000 3.341040 0.000000 
#    z -0.000550 0.000000 3.936890 
# 
# 
# High freq. dielectric constant tensor:
#      x y z
#    x 1.764180 0.000000 0.005360 
#    y 0.000000 1.748320 0.000000 
#    z 0.005360 0.000000 1.767400 
# 
# From -- ./inp_files/338202.got.cif
#   From: 2010.06.25/outbox.cif.g09.slc.cpg/sg12_170_cif.got.tgz:338202.got - 2010.06.28 00:19:55.
