data_PCOD8098174
_publ_section_title
;
Structure prediction by ZEFSAII (Michael W. Deem and Ramdas Pophale) SiO2 
 PCOD8098174
Probable space group: C 2/M
;
_chemical_formula_sum "Si O2"
_cell_formula_units_Z 56
_cell_length_a 28.339691
_cell_length_b 8.828561
_cell_length_c 19.411129
_cell_angle_alpha 90.000000
_cell_angle_beta 34.113593
_cell_angle_gamma 90.000000
_cell_volume 2723.775256
_symmetry_space_group_name_H-M "C 2/M"
_symmetry_group_IT_number 12
_symmetry_cell_setting 'monoclinic'
loop_
_space_group_symop_operation_xyz
x,y,z
-x,y,-z
-x,-y,-z
x,-y,z
1/2+x,1/2+y,z
1/2-x,1/2+y,-z
1/2-x,1/2-y,-z
1/2+x,1/2-y,z
loop_
_atom_site_type_symbol
_atom_site_label
_atom_site_fract_x
_atom_site_fract_y
_atom_site_fract_z
Si Si1 0.360534 0.820493 0.055808
Si Si2 0.234359 0.320411 0.307619
Si Si3 0.540223 0.826657 0.791671
Si Si4 0.996725 0.826381 0.299391
Si Si5 0.934607 0.819881 0.520866
Si Si6 0.184615 0.823813 0.028293
Si Si7 0.775653 0.676119 0.397434
O O1 0.320840 0.740421 0.170195
O O2 0.352209 0.000000 0.074545
O O3 0.458103 0.765402 0.931852
O O4 0.309868 0.765403 0.050068
O O5 0.234275 0.500000 0.308405
O O6 0.155798 0.258254 0.357943
O O7 0.227102 0.258253 0.394231
O O8 0.554628 0.748535 0.700596
O O9 0.623837 0.802895 0.735767
O O10 0.522985 0.000000 0.795151
O O11 0.969969 0.759284 0.405287
O O12 0.095171 0.799208 0.171756
O O13 0.971728 0.000000 0.327240
O O14 0.000000 0.765613 0.500000
O O15 0.923023 0.000000 0.537593
O O16 0.204512 0.000000 0.991268
O O17 0.250000 0.750000 0.000000
O O18 0.750573 0.500000 0.428123
O O19 0.750000 0.750000 0.500000
#
# Coordination Sequence:
#
# PCOD8098174 Si02
#       7
#     8   8   8   8   8   8   8
#     4  10  21  40  62  85 118 160 202 253 308 361
#     4  12  26  42  60  90 126 161 202 252 305 367
#     4   9  20  38  62  89 117 154 200 249 302 357
#     4   9  19  35  56  84 116 151 195 243 295 356
#     4  10  22  40  62  86 116 160 205 249 304 363
#     4  10  20  34  55  86 118 155 199 247 298 358
#     4  11  23  41  65  94 125 161 203 251 304 362
#
# _framework density 20.559699999999999
#
# number of rings (size 3 to 8) (size 9 to 14) (size 15 to 20)
#    0.000    1.857    0.000    3.429    2.000    6.000 
#    0.000    2.857    0.000    0.000    0.000    0.000 
#    0.000    0.000    0.000    0.000    0.000    0.000 
#
# Total GULP energy -347282.203914 kJ/mol
# GULP energy per Si atom -12402.935854 kJ/mol
# Density = 2.051290 g / cm^3
# Si number density = 20.559700 Si / 1000 Ang^3
#
#
#
# Elastic Constant Matrix: (Units=GPa)
#
#
# Indices 1 2 3 4 5 6 
#
# 1 104.7012 39.6145 33.6142 0.0087 -5.8767 -0.0063
# 2 39.6145 92.8552 36.4183 -0.0085 -1.9139 -0.0004
# 3 33.6142 36.4183 94.9848 -0.0081 11.1323 0.0042
# 4 0.0087 -0.0085 -0.0081 29.6218 0.0055 4.0722
# 5 -5.8767 -1.9139 11.1323 0.0055 29.0374 -0.0025
# 6 -0.0063 -0.0004 0.0042 4.0722 -0.0025 31.8679
#
#
#
# Elastic Compliance Matrix: (Units=1/GPa)
#
#
# Indices 1 2 3 4 5 6 
#
# 1 0.012260 -0.003881 -0.003258 -0.000007 0.003475 0.000004
# 2 -0.003881 0.014130 -0.004252 0.000004 0.001776 0.000000
# 3 -0.003258 -0.004252 0.014053 0.000005 -0.006327 -0.000004
# 4 -0.000007 0.000004 0.000005 0.034363 -0.000010 -0.004391
# 5 0.003475 0.001776 -0.006327 -0.000010 0.037684 0.000006
# 6 0.000004 0.000000 -0.000004 -0.004391 0.000006 0.031941
#
#
# Mechanical properties :
#
#
# Convention : Reuss Voigt Hill
#
# Bulk Modulus (GPa) = 56.62411 56.87059 56.74735
# Shear Modulus (GPa) = 28.88509 30.29836 29.59172
#
# Velocity S-wave (km/s) = 3.75232 3.84301 3.79794
# Velocity P-wave (km/s) = 6.80986 6.88570 6.84789
#
# Compressibility (1/GPa) = 0.01766032
#
# Stress axis : x y z
#
# Youngs Moduli (GPa) = 81.56288 70.77350 71.16011
#
# Poissons Ratio (x) = 0.27469 0.23184
# Poissons Ratio (y) = 0.31656 0.30258
# Poissons Ratio (z) = 0.26573 0.30093
#
# Static dielectric constant tensor:
#      x y z
#    x 3.765500 -0.000030 -0.060640 
#    y -0.000030 3.684880 0.000030 
#    z -0.060640 0.000030 3.928520 
# 
# 
# High freq. dielectric constant tensor:
#      x y z
#    x 1.805410 0.000000 -0.006440 
#    y 0.000000 1.800140 0.000000 
#    z -0.006440 0.000000 1.813410 
# 
# From -- ./inp_files/292438.got.cif
#   From: 2010.06.25/outbox.cif.g09.slc.cpg/sg12_147_cif.got.tgz:292438.got - 2010.06.28 00:19:55.
