data_PCOD8098280
_publ_section_title
;
Structure prediction by ZEFSAII (Michael W. Deem and Ramdas Pophale) SiO2 
 PCOD8098280
Probable space group: C 2/M
;
_chemical_formula_sum "Si O2"
_cell_formula_units_Z 64
_cell_length_a 26.648990
_cell_length_b 12.691695
_cell_length_c 20.702879
_cell_angle_alpha 90.000000
_cell_angle_beta 151.317153
_cell_angle_gamma 90.000000
_cell_volume 3360.755861
_symmetry_space_group_name_H-M "C 2/M"
_symmetry_group_IT_number 12
_symmetry_cell_setting 'monoclinic'
loop_
_space_group_symop_operation_xyz
x,y,z
-x,y,-z
-x,-y,-z
x,-y,z
1/2+x,1/2+y,z
1/2-x,1/2+y,-z
1/2-x,1/2-y,-z
1/2+x,1/2-y,z
loop_
_atom_site_type_symbol
_atom_site_label
_atom_site_fract_x
_atom_site_fract_y
_atom_site_fract_z
Si Si1 0.667464 0.876959 0.618324
Si Si2 0.602165 0.288923 0.647943
Si Si3 0.057725 0.618438 0.846845
Si Si4 0.821502 0.621232 0.893739
Si Si5 0.111484 0.221345 0.140250
Si Si6 0.356898 0.622080 0.582240
Si Si7 0.993525 0.263786 0.653211
Si Si8 0.136207 0.298479 0.306594
O O1 0.630420 0.818656 0.641609
O O2 0.791407 0.859313 0.746811
O O3 0.601567 0.835047 0.482339
O O4 0.645805 0.000000 0.602748
O O5 0.500000 0.341729 0.500000
O O6 0.696114 0.371205 0.750321
O O7 0.577685 0.264148 0.694240
O O8 0.089609 0.500000 0.867467
O O9 0.063646 0.678902 0.786065
O O10 0.940169 0.623881 0.741307
O O11 0.136956 0.665171 0.990263
O O12 0.855224 0.500000 0.922441
O O13 0.870727 0.689181 0.892722
O O14 0.094784 0.280221 0.188574
O O15 0.000000 0.163175 0.000000
O O16 0.375774 0.500000 0.619241
O O17 0.444306 0.659505 0.629811
O O18 0.245673 0.642076 0.423844
O O19 0.359580 0.686034 0.652249
#
# Coordination Sequence:
#
# PCOD8098280 Si02
#       8
#     8   8   8   8   8   8   8   8
#     4  10  21  38  59  85 112 145 189 231 276 333
#     4   9  21  39  57  81 113 146 183 234 283 327
#     4  10  20  34  56  84 110 143 187 231 278 331
#     4  10  22  37  56  83 113 146 186 231 277 333
#     4  11  21  38  57  80 116 151 185 226 272 331
#     4  10  21  36  57  84 114 145 185 230 278 333
#     4  10  20  37  59  84 110 145 186 233 285 327
#     4  10  20  37  54  82 114 150 184 224 275 330
#
# _framework density 19.043336
#
# number of rings (size 3 to 8) (size 9 to 14) (size 15 to 20)
#    0.000    2.000    2.500    0.750    0.000    6.000 
#    0.000    0.000    0.000    0.000    0.000    0.000 
#    0.000    0.000    0.000    0.000    0.000    0.000 
#
# Total GULP energy -396765.356617 kJ/mol
# GULP energy per Si atom -12398.917394 kJ/mol
# Density = 1.899999 g / cm^3
# Si number density = 19.043336 Si / 1000 Ang^3
#
#
#
# Elastic Constant Matrix: (Units=GPa)
#
#
# Indices 1 2 3 4 5 6 
#
# 1 93.7993 16.5670 22.6046 0.0000 -16.4964 0.0000
# 2 16.5670 83.1691 19.0523 0.0000 -8.2092 0.0000
# 3 22.6046 19.0523 93.0650 0.0000 -10.1678 0.0000
# 4 0.0000 0.0000 0.0000 20.1579 0.0000 -0.9851
# 5 -16.4964 -8.2092 -10.1678 0.0000 36.1450 0.0000
# 6 0.0000 0.0000 0.0000 -0.9851 0.0000 11.9994
#
#
#
# Elastic Compliance Matrix: (Units=1/GPa)
#
#
# Indices 1 2 3 4 5 6 
#
# 1 0.012264 -0.001488 -0.002166 0.000000 0.004650 0.000000
# 2 -0.001488 0.012969 -0.002111 0.000000 0.001673 0.000000
# 3 -0.002166 -0.002111 0.011909 0.000000 0.001882 0.000000
# 4 0.000000 0.000000 0.000000 0.049808 0.000000 0.004089
# 5 0.004650 0.001673 0.001882 0.000000 0.030698 0.000000
# 6 0.000000 0.000000 0.000000 0.004089 0.000000 0.083673
#
#
# Mechanical properties :
#
#
# Convention : Reuss Voigt Hill
#
# Bulk Modulus (GPa) = 39.04424 42.94235 40.99330
# Shear Modulus (GPa) = 22.58490 27.78111 25.18300
#
# Velocity S-wave (km/s) = 3.44753 3.82362 3.64043
# Velocity P-wave (km/s) = 6.03280 6.48785 6.26446
#
# Compressibility (1/GPa) = 0.02561197
#
# Stress axis : x y z
#
# Youngs Moduli (GPa) = 81.54219 77.10879 83.96959
#
# Poissons Ratio (x) = 0.11471 0.18189
# Poissons Ratio (y) = 0.12131 0.17725
# Poissons Ratio (z) = 0.17663 0.16277
#
# Static dielectric constant tensor:
#      x y z
#    x 3.500990 0.000000 -0.052850 
#    y 0.000000 3.167600 0.000000 
#    z -0.052850 0.000000 3.711390 
# 
# 
# High freq. dielectric constant tensor:
#      x y z
#    x 1.747190 0.000000 -0.005700 
#    y 0.000000 1.714640 0.000000 
#    z -0.005700 0.000000 1.750950 
# 
# From -- ./inp_files/327823.got.cif
#   From: 2010.06.25/outbox.cif.g09.slc.cpg/sg12_164_cif.got.tgz:327823.got - 2010.06.28 00:19:55.
