data_PCOD8098609
_publ_section_title
;
Structure prediction by ZEFSAII (Michael W. Deem and Ramdas Pophale) SiO2 
 PCOD8098609
Probable space group: C 2/M
;
_chemical_formula_sum "Si O2"
_cell_formula_units_Z 40
_cell_length_a 20.506492
_cell_length_b 9.251290
_cell_length_c 10.241003
_cell_angle_alpha 90.000000
_cell_angle_beta 80.539853
_cell_angle_gamma 90.000000
_cell_volume 1916.413834
_symmetry_space_group_name_H-M "C 2/M"
_symmetry_group_IT_number 12
_symmetry_cell_setting 'monoclinic'
loop_
_space_group_symop_operation_xyz
x,y,z
-x,y,-z
-x,-y,-z
x,-y,z
1/2+x,1/2+y,z
1/2-x,1/2+y,-z
1/2-x,1/2-y,-z
1/2+x,1/2-y,z
loop_
_atom_site_type_symbol
_atom_site_label
_atom_site_fract_x
_atom_site_fract_y
_atom_site_fract_z
Si Si1 0.344507 0.330444 0.381231
Si Si2 0.443721 0.166474 0.917197
Si Si3 0.314367 0.335333 0.936893
Si Si4 0.773079 0.162575 0.666932
Si Si5 0.023353 0.667126 0.635028
O O1 0.350710 0.500000 0.355864
O O2 0.290937 0.265925 0.297320
O O3 0.319993 0.287280 0.533698
O O4 0.415113 0.259377 0.334747
O O5 0.379946 0.261887 0.972063
O O6 0.465849 0.191036 0.760184
O O7 0.424668 0.000000 0.947216
O O8 0.500000 0.215098 0.000000
O O9 0.310601 0.500000 0.988999
O O10 0.318333 0.328732 0.779212
O O11 0.250000 0.250000 0.000000
O O12 0.746969 0.000000 0.650932
O O13 0.044694 0.500000 0.620818
O O14 0.000000 0.721715 0.500000
#
# Coordination Sequence:
#
# PCOD8098609 Si02
#       5
#     8   8   8   8   8
#     4  10  20  34  58  89 117 150 195 247 297 351
#     4  10  23  42  62  87 122 162 201 246 303 362
#     4  11  24  41  63  88 119 159 204 250 298 356
#     4   9  20  38  57  82 119 157 193 240 299 356
#     4  10  21  37  59  85 117 158 200 242 297 360
#
# _framework density 20.872318
#
# number of rings (size 3 to 8) (size 9 to 14) (size 15 to 20)
#    0.000    2.000    0.000    2.400    2.800    4.000 
#    0.000    0.000    0.000    0.000    0.000    0.000 
#    0.000    0.000    0.000    0.000    0.000    0.000 
#
# Total GULP energy -248083.405406 kJ/mol
# GULP energy per Si atom -12404.170270 kJ/mol
# Density = 2.082481 g / cm^3
# Si number density = 20.872318 Si / 1000 Ang^3
#
#
#
# Elastic Constant Matrix: (Units=GPa)
#
#
# Indices 1 2 3 4 5 6 
#
# 1 142.5950 80.3356 21.4364 0.0000 2.5316 0.0000
# 2 80.3356 115.4752 18.6480 0.0000 -2.4291 0.0000
# 3 21.4364 18.6480 61.9640 0.0000 8.0467 0.0000
# 4 0.0000 0.0000 0.0000 22.9024 0.0000 0.1541
# 5 2.5316 -2.4291 8.0467 0.0000 27.6550 0.0000
# 6 0.0000 0.0000 0.0000 0.1541 0.0000 42.7312
#
#
#
# Elastic Compliance Matrix: (Units=1/GPa)
#
#
# Indices 1 2 3 4 5 6 
#
# 1 0.011744 -0.007957 -0.001494 0.000000 -0.001339 0.000000
# 2 -0.007957 0.014568 -0.001966 0.000000 0.002580 0.000000
# 3 -0.001494 -0.001966 0.017929 0.000000 -0.005253 0.000000
# 4 0.000000 0.000000 0.000000 0.043665 0.000000 -0.000157
# 5 -0.001339 0.002580 -0.005253 0.000000 0.038037 0.000000
# 6 0.000000 0.000000 0.000000 -0.000157 0.000000 0.023403
#
#
# Mechanical properties :
#
#
# Convention : Reuss Voigt Hill
#
# Bulk Modulus (GPa) = 46.71749 62.31936 54.51843
# Shear Modulus (GPa) = 27.88363 31.96533 29.92448
#
# Velocity S-wave (km/s) = 3.65898 3.91765 3.79052
# Velocity P-wave (km/s) = 6.34681 7.09832 6.73306
#
# Compressibility (1/GPa) = 0.02140526
#
# Stress axis : x y z
#
# Youngs Moduli (GPa) = 85.14776 68.64571 55.77485
#
# Poissons Ratio (x) = 0.54624 0.08334
# Poissons Ratio (y) = 0.67755 0.10967
# Poissons Ratio (z) = 0.12723 0.13498
#
# Static dielectric constant tensor:
#      x y z
#    x 3.603940 0.000000 0.093060 
#    y 0.000000 3.745290 0.000000 
#    z 0.093060 0.000000 3.878460 
# 
# 
# High freq. dielectric constant tensor:
#      x y z
#    x 1.814200 0.000000 0.003050 
#    y 0.000000 1.815520 0.000000 
#    z 0.003050 0.000000 1.821200 
# 
# From -- ./inp_files/151843.got.cif
#   From: 2010.06.25/outbox.cif.g09.slc.cpg/sg12_76_cif.got.tgz:151843.got - 2010.06.28 00:19:55.
