data_PCOD8098694
_publ_section_title
;
Structure prediction by ZEFSAII (Michael W. Deem and Ramdas Pophale) SiO2 
 PCOD8098694
Probable space group: C 2/M
;
_chemical_formula_sum "Si O2"
_cell_formula_units_Z 32
_cell_length_a 22.121461
_cell_length_b 11.741892
_cell_length_c 7.346931
_cell_angle_alpha 90.000000
_cell_angle_beta 54.701826
_cell_angle_gamma 90.000000
_cell_volume 1557.510667
_symmetry_space_group_name_H-M "C 2/M"
_symmetry_group_IT_number 12
_symmetry_cell_setting 'monoclinic'
loop_
_space_group_symop_operation_xyz
x,y,z
-x,y,-z
-x,-y,-z
x,-y,z
1/2+x,1/2+y,z
1/2-x,1/2+y,-z
1/2-x,1/2-y,-z
1/2+x,1/2-y,z
loop_
_atom_site_type_symbol
_atom_site_label
_atom_site_fract_x
_atom_site_fract_y
_atom_site_fract_z
Si Si1 0.587668 0.746262 0.825711
Si Si2 0.313592 0.132908 0.068480
Si Si3 0.914172 0.000000 0.178810
Si Si4 0.155081 0.774343 0.321001
Si Si5 0.414517 0.500000 0.600250
O O1 0.628749 0.841680 0.870512
O O2 0.615698 0.620133 0.849324
O O3 0.605728 0.760181 0.580369
O O4 0.500000 0.761087 0.000000
O O5 0.238402 0.200860 0.241733
O O6 0.296593 0.000000 0.094325
O O7 0.347139 0.169578 0.815580
O O8 0.896326 0.000000 0.420482
O O9 0.000000 0.000000 0.000000
O O10 0.122683 0.883377 0.263832
O O11 0.500000 0.500000 0.500000
#
# Coordination Sequence:
#
# PCOD8098694 Si02
#       5
#     8   8   4   8   4
#     4  10  22  40  65  92 121 156 203 260 310 361
#     4  11  24  42  61  87 127 169 206 243 301 381
#     4   8  18  34  54  96 116 139 191 244 315 356
#     4  10  23  42  62  93 124 160 202 254 315 362
#     4  10  20  34  68  92 119 148 195 267 309 349
#
# _framework density 20.545607
#
# number of rings (size 3 to 8) (size 9 to 14) (size 15 to 20)
#    0.000    2.000    1.250    0.750   10.500    1.500 
#    2.250    1.250    0.000    0.000    0.000    0.000 
#    0.000    0.000    0.000    0.000    0.000    0.000 
#
# Total GULP energy -198315.961237 kJ/mol
# GULP energy per Si atom -12394.747577 kJ/mol
# Density = 2.049884 g / cm^3
# Si number density = 20.545607 Si / 1000 Ang^3
#
#
#
# Elastic Constant Matrix: (Units=GPa)
#
#
# Indices 1 2 3 4 5 6 
#
# 1 87.3392 20.4905 27.6288 0.0000 -5.4029 0.0000
# 2 20.4905 65.3169 16.9713 0.0000 12.6387 0.0000
# 3 27.6288 16.9713 126.7912 0.0000 4.1062 0.0000
# 4 0.0000 0.0000 0.0000 29.1337 0.0000 -1.1470
# 5 -5.4029 12.6387 4.1062 0.0000 27.9553 0.0000
# 6 0.0000 0.0000 0.0000 -1.1470 0.0000 30.7236
#
#
#
# Elastic Compliance Matrix: (Units=1/GPa)
#
#
# Indices 1 2 3 4 5 6 
#
# 1 0.013644 -0.004610 -0.002521 0.000000 0.005091 0.000000
# 2 -0.004610 0.018861 -0.001221 0.000000 -0.009239 0.000000
# 3 -0.002521 -0.001221 0.008639 0.000000 -0.001204 0.000000
# 4 0.000000 0.000000 0.000000 0.034375 0.000000 0.001283
# 5 0.005091 -0.009239 -0.001204 0.000000 0.041109 0.000000
# 6 0.000000 0.000000 0.000000 0.001283 0.000000 0.032596
#
#
# Mechanical properties :
#
#
# Convention : Reuss Voigt Hill
#
# Bulk Modulus (GPa) = 40.91715 45.51425 43.21570
# Shear Modulus (GPa) = 28.72335 31.85298 30.28816
#
# Velocity S-wave (km/s) = 3.74308 3.94173 3.84369
# Velocity P-wave (km/s) = 6.21606 6.55112 6.38579
#
# Compressibility (1/GPa) = 0.02443963
#
# Stress axis : x y z
#
# Youngs Moduli (GPa) = 73.29421 53.01893 115.75820
#
# Poissons Ratio (x) = 0.24443 0.29181
# Poissons Ratio (y) = 0.33791 0.14131
# Poissons Ratio (z) = 0.18476 0.06472
#
# Static dielectric constant tensor:
#      x y z
#    x 3.399470 0.000000 -0.023250 
#    y 0.000000 4.073170 0.000000 
#    z -0.023250 0.000000 3.888620 
# 
# 
# High freq. dielectric constant tensor:
#      x y z
#    x 1.785140 0.000000 -0.002860 
#    y 0.000000 1.799790 0.000000 
#    z -0.002860 0.000000 1.814140 
# 
# From -- ./inp_files/83259.got.cif
#   From: 2010.06.25/outbox.cif.g09.slc.cpg/sg12_42_cif.got.tgz:83259.got - 2010.06.28 00:19:55.
