data_PCOD8098724
_publ_section_title
;
Structure prediction by ZEFSAII (Michael W. Deem and Ramdas Pophale) SiO2 
 PCOD8098724
Probable space group: C 2/M
;
_chemical_formula_sum "Si O2"
_cell_formula_units_Z 48
_cell_length_a 24.375717
_cell_length_b 9.180854
_cell_length_c 13.987363
_cell_angle_alpha 90.000000
_cell_angle_beta 70.483592
_cell_angle_gamma 90.000000
_cell_volume 2950.385844
_symmetry_space_group_name_H-M "C 2/M"
_symmetry_group_IT_number 12
_symmetry_cell_setting 'monoclinic'
loop_
_space_group_symop_operation_xyz
x,y,z
-x,y,-z
-x,-y,-z
x,-y,z
1/2+x,1/2+y,z
1/2-x,1/2+y,-z
1/2-x,1/2-y,-z
1/2+x,1/2-y,z
loop_
_atom_site_type_symbol
_atom_site_label
_atom_site_fract_x
_atom_site_fract_y
_atom_site_fract_z
Si Si1 0.118640 0.670398 0.828759
Si Si2 0.226431 0.331964 0.649449
Si Si3 0.018723 0.826992 0.772007
Si Si4 0.447608 0.839035 0.955906
Si Si5 0.829346 0.669334 0.518296
Si Si6 0.039142 0.330721 0.568858
O O1 0.104764 0.500000 0.815648
O O2 0.185663 0.706010 0.764123
O O3 0.076991 0.765490 0.786023
O O4 0.108729 0.706471 0.947248
O O5 0.242989 0.500000 0.636821
O O6 0.190117 0.285986 0.576782
O O7 0.287241 0.246080 0.620178
O O8 0.012908 0.766142 0.668739
O O9 0.961257 0.775620 0.864253
O O10 0.020799 0.000000 0.769824
O O11 0.438790 0.000000 0.915799
O O12 0.500000 0.843099 0.000000
O O13 0.823261 0.500000 0.540780
O O14 0.895505 0.721186 0.494219
O O15 0.039105 0.500000 0.600151
O O16 0.000000 0.302312 0.500000
#
# Coordination Sequence:
#
# PCOD8098724 Si02
#       6
#     8   8   8   8   8   8
#     4   9  16  29  46  65  90 123 157 183 214 267
#     4   9  16  27  45  66  92 120 146 180 223 270
#     4  11  20  28  42  65  95 121 146 187 234 272
#     4   8  15  27  44  62  86 120 154 184 217 265
#     4   9  17  29  44  65  90 115 149 187 223 268
#     4  10  20  35  52  65  84 121 163 194 220 260
#
# _framework density 16.269058000000001
#
# number of rings (size 3 to 8) (size 9 to 14) (size 15 to 20)
#    0.000    2.667    1.667    2.500    0.000    4.667 
#    0.000    0.000    0.000    0.000    0.000    1.167 
#    0.000    0.000    0.000    0.000    0.000    0.000 
#
# Total GULP energy -297496.311179 kJ/mol
# GULP energy per Si atom -12395.679632 kJ/mol
# Density = 1.623203 g / cm^3
# Si number density = 16.269058 Si / 1000 Ang^3
#
#
#
# Elastic Constant Matrix: (Units=GPa)
#
#
# Indices 1 2 3 4 5 6 
#
# 1 69.8367 31.6224 53.6712 0.0000 -16.7080 0.0000
# 2 31.6224 83.0138 64.3557 0.0000 -7.1188 0.0000
# 3 53.6712 64.3557 131.9468 0.0000 -32.4636 0.0000
# 4 0.0000 0.0000 0.0000 22.4477 0.0000 -7.5625
# 5 -16.7080 -7.1188 -32.4636 0.0000 26.0769 0.0000
# 6 0.0000 0.0000 0.0000 -7.5625 0.0000 16.5724
#
#
#
# Elastic Compliance Matrix: (Units=1/GPa)
#
#
# Indices 1 2 3 4 5 6 
#
# 1 0.021620 -0.003251 -0.005793 0.000000 0.005753 0.000000
# 2 -0.003251 0.021574 -0.011912 0.000000 -0.011023 0.000000
# 3 -0.005793 -0.011912 0.020228 0.000000 0.018218 0.000000
# 4 0.000000 0.000000 0.000000 0.052641 0.000000 0.024022
# 5 0.005753 -0.011023 0.018218 0.000000 0.061705 0.000000
# 6 0.000000 0.000000 0.000000 0.024022 0.000000 0.071303
#
#
# Mechanical properties :
#
#
# Convention : Reuss Voigt Hill
#
# Bulk Modulus (GPa) = 46.49327 64.89957 55.69642
# Shear Modulus (GPa) = 16.76994 22.02927 19.39960
#
# Velocity S-wave (km/s) = 3.21407 3.68375 3.45689
# Velocity P-wave (km/s) = 6.51256 7.62045 7.08819
#
# Compressibility (1/GPa) = 0.02150849
#
# Stress axis : x y z
#
# Youngs Moduli (GPa) = 46.25422 46.35138 49.43762
#
# Poissons Ratio (x) = 0.15071 0.28639
# Poissons Ratio (y) = 0.15039 0.58891
# Poissons Ratio (z) = 0.26794 0.55215
#
# Static dielectric constant tensor:
#      x y z
#    x 2.790930 0.000000 -0.417460 
#    y 0.000000 2.998030 0.000000 
#    z -0.417460 0.000000 3.419690 
# 
# 
# High freq. dielectric constant tensor:
#      x y z
#    x 1.576790 0.000000 -0.035060 
#    y 0.000000 1.619220 0.000000 
#    z -0.035060 0.000000 1.628950 
# 
# From -- ./inp_files/179329.got.cif
#   From: 2010.06.25/outbox.cif.g09.slc.cpg/sg12_90_cif.got.tgz:179329.got - 2010.06.28 00:19:55.
