data_PCOD8098588
_publ_section_title
;
Structure prediction by ZEFSAII (Michael W. Deem and Ramdas Pophale) SiO2 
 PCOD8098588
Probable space group: C 2/M
;
_chemical_formula_sum "Si O2"
_cell_formula_units_Z 56
_cell_length_a 23.318620
_cell_length_b 8.654442
_cell_length_c 18.861988
_cell_angle_alpha 90.000000
_cell_angle_beta 128.256642
_cell_angle_gamma 90.000000
_cell_volume 2989.060104
_symmetry_space_group_name_H-M "C 2/M"
_symmetry_group_IT_number 12
_symmetry_cell_setting 'monoclinic'
loop_
_space_group_symop_operation_xyz
x,y,z
-x,y,-z
-x,-y,-z
x,-y,z
1/2+x,1/2+y,z
1/2-x,1/2+y,-z
1/2-x,1/2-y,-z
1/2+x,1/2-y,z
loop_
_atom_site_type_symbol
_atom_site_label
_atom_site_fract_x
_atom_site_fract_y
_atom_site_fract_z
Si Si1 0.896200 0.673273 0.371374
Si Si2 0.085673 0.318886 0.341465
Si Si3 0.156697 0.182046 0.533152
Si Si4 0.220573 0.179632 0.905944
Si Si5 0.731897 0.670837 0.192328
Si Si6 0.061732 0.817545 0.735771
Si Si7 0.810896 0.183476 0.690042
O O1 0.928437 0.500000 0.402387
O O2 0.899580 0.756521 0.450158
O O3 0.813446 0.667523 0.283443
O O4 0.943137 0.770482 0.350736
O O5 0.094144 0.500000 0.363402
O O6 0.122899 0.218944 0.431372
O O7 0.123352 0.274217 0.296453
O O8 0.000955 0.272180 0.269613
O O9 0.234584 0.265098 0.597432
O O10 0.167846 0.000000 0.550738
O O11 0.274088 0.220704 0.881115
O O12 0.138575 0.239047 0.827755
O O13 0.220434 0.000000 0.915710
O O14 0.250000 0.250000 0.000000
O O15 0.707271 0.500000 0.149658
O O16 0.683594 0.728736 0.222027
O O17 0.050789 0.000000 0.734284
O O18 0.818397 0.000000 0.685624
#
# Coordination Sequence:
#
# PCOD8098588 Si02
#       7
#     8   8   8   8   8   8   8
#     4   9  17  32  52  75 103 136 173 217 264 312
#     4  12  24  36  51  73 103 142 181 221 264 309
#     4  11  21  34  52  75 103 138 182 228 264 303
#     4  10  20  34  58  86 111 134 163 204 253 309
#     4   8  16  31  53  78 105 134 167 207 255 304
#     4  10  21  37  54  77 106 138 173 212 261 317
#     4  10  20  36  55  76 104 140 180 222 261 305
#
# _framework density 18.734987
#
# number of rings (size 3 to 8) (size 9 to 14) (size 15 to 20)
#    0.000    2.000    0.000    5.571    0.000    6.286 
#    0.000    2.857    0.000    0.857    0.000    6.000 
#    0.000    0.000    0.000    0.000    0.000    0.000 
#
# Total GULP energy -347195.570089 kJ/mol
# GULP energy per Si atom -12399.841789 kJ/mol
# Density = 1.869235 g / cm^3
# Si number density = 18.734987 Si / 1000 Ang^3
#
#
#
# Elastic Constant Matrix: (Units=GPa)
#
#
# Indices 1 2 3 4 5 6 
#
# 1 108.4022 25.7163 58.1060 0.0000 -11.7578 0.0000
# 2 25.7163 72.5614 26.3630 0.0000 -2.9643 0.0000
# 3 58.1060 26.3630 72.0201 0.0000 -22.2222 0.0000
# 4 0.0000 0.0000 0.0000 27.3521 0.0000 -6.2741
# 5 -11.7578 -2.9643 -22.2222 0.0000 21.1822 0.0000
# 6 0.0000 0.0000 0.0000 -6.2741 0.0000 34.0787
#
#
#
# Elastic Compliance Matrix: (Units=1/GPa)
#
#
# Indices 1 2 3 4 5 6 
#
# 1 0.017012 -0.000618 -0.015691 0.000000 -0.007105 0.000000
# 2 -0.000618 0.016404 -0.007250 0.000000 -0.005654 0.000000
# 3 -0.015691 -0.007250 0.038738 0.000000 0.030915 0.000000
# 4 0.000000 0.000000 0.000000 0.038172 0.000000 0.007028
# 5 -0.007105 -0.005654 0.030915 0.000000 0.074908 0.000000
# 6 0.000000 0.000000 0.000000 0.007028 0.000000 0.030638
#
#
# Mechanical properties :
#
#
# Convention : Reuss Voigt Hill
#
# Bulk Modulus (GPa) = 39.94609 52.59494 46.27051
# Shear Modulus (GPa) = 18.42742 26.04248 22.23495
#
# Velocity S-wave (km/s) = 3.13962 3.73238 3.44875
# Velocity P-wave (km/s) = 5.87459 6.83434 6.37256
#
# Compressibility (1/GPa) = 0.02503374
#
# Stress axis : x y z
#
# Youngs Moduli (GPa) = 58.78298 60.96158 25.81471
#
# Poissons Ratio (x) = 0.03770 0.40506
# Poissons Ratio (y) = 0.03636 0.18716
# Poissons Ratio (z) = 0.92237 0.44198
#
# Static dielectric constant tensor:
#      x y z
#    x 3.710070 0.000000 -0.302700 
#    y 0.000000 3.541230 0.000000 
#    z -0.302700 0.000000 3.134240 
# 
# 
# High freq. dielectric constant tensor:
#      x y z
#    x 1.728690 0.000000 -0.020780 
#    y 0.000000 1.739480 0.000000 
#    z -0.020780 0.000000 1.693890 
# 
# From -- ./inp_files/281595.got.cif
#   From: 2010.06.25/outbox.cif.g09.slc.cpg/sg12_141_cif.got.tgz:281595.got - 2010.06.28 00:19:55.
