data_PCOD8098644
_publ_section_title
;
Structure prediction by ZEFSAII (Michael W. Deem and Ramdas Pophale) SiO2 
 PCOD8098644
Probable space group: C 2/M
;
_chemical_formula_sum "Si O2"
_cell_formula_units_Z 64
_cell_length_a 9.505977
_cell_length_b 21.342478
_cell_length_c 17.699059
_cell_angle_alpha 90.000000
_cell_angle_beta 76.706112
_cell_angle_gamma 90.000000
_cell_volume 3494.583319
_symmetry_space_group_name_H-M "C 2/M"
_symmetry_group_IT_number 12
_symmetry_cell_setting 'monoclinic'
loop_
_space_group_symop_operation_xyz
x,y,z
-x,y,-z
-x,-y,-z
x,-y,z
1/2+x,1/2+y,z
1/2-x,1/2+y,-z
1/2-x,1/2-y,-z
1/2+x,1/2-y,z
loop_
_atom_site_type_symbol
_atom_site_label
_atom_site_fract_x
_atom_site_fract_y
_atom_site_fract_z
Si Si1 0.655622 0.764323 0.179454
Si Si2 0.823633 0.642478 0.690313
Si Si3 0.901727 0.122163 0.581726
Si Si4 0.741037 0.367115 0.202709
Si Si5 0.116847 0.574262 0.668861
Si Si6 0.918288 0.712851 0.088280
Si Si7 0.857721 0.262548 0.554667
Si Si8 0.029060 0.072598 0.720760
O O1 0.646409 0.822453 0.235768
O O2 0.669728 0.701471 0.229376
O O3 0.791875 0.765700 0.103637
O O4 0.514661 0.764981 0.146016
O O5 0.795340 0.688823 0.623338
O O6 0.679641 0.603703 0.723727
O O7 0.961906 0.598108 0.657917
O O8 0.740590 0.092811 0.592431
O O9 0.894421 0.197053 0.590443
O O10 0.000000 0.100475 0.500000
O O11 0.975817 0.095374 0.646493
O O12 0.839717 0.392114 0.258410
O O13 0.845745 0.355771 0.116667
O O14 0.602590 0.412098 0.204212
O O15 0.110741 0.500000 0.681693
O O16 0.000000 0.708675 0.000000
O O17 0.750000 0.250000 0.500000
O O18 0.000000 0.292639 0.500000
O O19 0.059098 0.000000 0.716691
#
# Coordination Sequence:
#
# PCOD8098644 Si02
#       8
#     8   8   8   8   8   8   8   8
#     4  10  20  34  59  91 115 149 182 230 289 339
#     4  12  21  37  58  84 117 146 195 240 286 342
#     4  10  21  38  58  79 106 148 191 237 291 349
#     4   9  20  35  58  82 114 148 186 225 282 340
#     4  11  22  37  57  82 112 153 199 247 278 323
#     4  10  20  35  57  92 125 145 175 225 295 353
#     4  11  23  37  57  83 113 146 180 235 295 340
#     4  11  23  37  55  80 110 152 196 239 278 328
#
# _framework density 18.314056000000001
#
# number of rings (size 3 to 8) (size 9 to 14) (size 15 to 20)
#    0.750    0.750    1.250    6.750    0.000    4.000 
#    0.000    0.000    0.000    4.500    0.000    0.875 
#    0.000    0.000    0.000    0.000    0.000    0.000 
#
# Total GULP energy -396477.527839 kJ/mol
# GULP energy per Si atom -12389.922745 kJ/mol
# Density = 1.827237 g / cm^3
# Si number density = 18.314056 Si / 1000 Ang^3
#
#
#
# Elastic Constant Matrix: (Units=GPa)
#
#
# Indices 1 2 3 4 5 6 
#
# 1 95.9717 18.3335 10.9915 0.0000 -4.3232 0.0000
# 2 18.3335 87.8954 21.4347 0.0000 -1.6308 0.0000
# 3 10.9915 21.4347 57.7703 0.0000 -16.7478 0.0000
# 4 0.0000 0.0000 0.0000 7.4138 0.0000 -4.5553
# 5 -4.3232 -1.6308 -16.7478 0.0000 28.0343 0.0000
# 6 0.0000 0.0000 0.0000 -4.5553 0.0000 26.1467
#
#
#
# Elastic Compliance Matrix: (Units=1/GPa)
#
#
# Indices 1 2 3 4 5 6 
#
# 1 0.010968 -0.002009 -0.001070 0.000000 0.000935 0.000000
# 2 -0.002009 0.013021 -0.005224 0.000000 -0.002673 0.000000
# 3 -0.001070 -0.005224 0.023362 0.000000 0.013488 0.000000
# 4 0.000000 0.000000 0.000000 0.151053 0.000000 0.026317
# 5 0.000935 -0.002673 0.013488 0.000000 0.043717 0.000000
# 6 0.000000 0.000000 0.000000 0.026317 0.000000 0.042831
#
#
# Mechanical properties :
#
#
# Convention : Reuss Voigt Hill
#
# Bulk Modulus (GPa) = 32.52663 38.12854 35.32758
# Shear Modulus (GPa) = 16.03562 25.04413 20.53988
#
# Velocity S-wave (km/s) = 2.96225 3.70196 3.35257
# Velocity P-wave (km/s) = 5.43129 6.25597 5.85816
#
# Compressibility (1/GPa) = 0.03074404
#
# Stress axis : x y z
#
# Youngs Moduli (GPa) = 91.17178 76.80143 42.80497
#
# Poissons Ratio (x) = 0.15433 0.04581
# Poissons Ratio (y) = 0.18321 0.22360
# Poissons Ratio (z) = 0.09757 0.40119
#
# Static dielectric constant tensor:
#      x y z
#    x 3.688840 0.000000 -0.251320 
#    y 0.000000 3.344240 0.000000 
#    z -0.251320 0.000000 3.133990 
# 
# 
# High freq. dielectric constant tensor:
#      x y z
#    x 1.736450 0.000000 -0.008130 
#    y 0.000000 1.696270 0.000000 
#    z -0.008130 0.000000 1.681800 
# 
# From -- ./inp_files/258109.got.cif
#   From: 2010.06.25/outbox.cif.g09.slc.cpg/sg12_130_cif.got.tgz:258109.got - 2010.06.28 00:19:55.
