data_PCOD8098756
_publ_section_title
;
Structure prediction by ZEFSAII (Michael W. Deem and Ramdas Pophale) SiO2 
 PCOD8098756
Probable space group: C 2/M
;
_chemical_formula_sum "Si O2"
_cell_formula_units_Z 52
_cell_length_a 12.337819
_cell_length_b 21.449493
_cell_length_c 12.449891
_cell_angle_alpha 90.000000
_cell_angle_beta 122.422574
_cell_angle_gamma 90.000000
_cell_volume 2781.144108
_symmetry_space_group_name_H-M "C 2/M"
_symmetry_group_IT_number 12
_symmetry_cell_setting 'monoclinic'
loop_
_space_group_symop_operation_xyz
x,y,z
-x,y,-z
-x,-y,-z
x,-y,z
1/2+x,1/2+y,z
1/2-x,1/2+y,-z
1/2-x,1/2-y,-z
1/2+x,1/2-y,z
loop_
_atom_site_type_symbol
_atom_site_label
_atom_site_fract_x
_atom_site_fract_y
_atom_site_fract_z
Si Si1 0.008700 0.787399 0.631513
Si Si2 0.784699 0.294648 0.753349
Si Si3 0.099219 0.427182 0.849898
Si Si4 0.500000 0.147692 0.000000
Si Si5 0.793612 0.159802 0.656191
Si Si6 0.412606 0.153976 0.625526
Si Si7 0.636003 0.427401 0.116987
O O1 0.149979 0.811973 0.738280
O O2 0.991507 0.718093 0.667937
O O3 0.000000 0.786934 0.500000
O O4 0.903643 0.833328 0.625191
O O5 0.777069 0.222774 0.714408
O O6 0.806084 0.339841 0.662712
O O7 0.894631 0.305145 0.898613
O O8 0.070400 0.500000 0.844027
O O9 0.012458 0.401089 0.705451
O O10 0.249437 0.414029 0.906563
O O11 0.062168 0.395293 0.941944
O O12 0.659213 0.142764 0.525793
O O13 0.831941 0.103905 0.753157
O O14 0.623669 0.500000 0.135455
O O15 0.500000 0.401479 0.000000
#
# Coordination Sequence:
#
# PCOD8098756 Si02
#       7
#     8   8   8   4   8   8   8
#     4  11  18  33  59  84 117 153 180 225 296 339
#     4  10  20  35  52  88 118 145 182 229 284 347
#     4  10  22  41  62  82 110 151 194 241 284 328
#     4  10  23  38  60  88 117 144 190 238 284 338
#     4  11  21  35  59  84 116 151 188 232 287 334
#     4  10  20  35  55  87 116 141 187 238 278 341
#     4  10  24  42  56  78 113 152 196 233 275 339
#
# _framework density 18.697341999999999
#
# number of rings (size 3 to 8) (size 9 to 14) (size 15 to 20)
#    0.000    1.692    3.077    2.077    3.231    0.615 
#    0.000    4.615    0.000    0.462    0.000    0.000 
#    0.000    0.000    0.000    0.000    0.000    0.000 
#
# Total GULP energy -322408.422699 kJ/mol
# GULP energy per Si atom -12400.323950 kJ/mol
# Density = 1.865479 g / cm^3
# Si number density = 18.697342 Si / 1000 Ang^3
#
#
#
# Elastic Constant Matrix: (Units=GPa)
#
#
# Indices 1 2 3 4 5 6 
#
# 1 121.5103 36.3572 47.5491 0.0000 18.5577 0.0000
# 2 36.3572 51.1680 50.8972 0.0000 7.9673 0.0000
# 3 47.5491 50.8972 134.7438 0.0000 23.3671 0.0000
# 4 0.0000 0.0000 0.0000 26.2066 0.0000 -0.7170
# 5 18.5577 7.9673 23.3671 0.0000 35.2837 0.0000
# 6 0.0000 0.0000 0.0000 -0.7170 0.0000 15.7243
#
#
#
# Elastic Compliance Matrix: (Units=1/GPa)
#
#
# Indices 1 2 3 4 5 6 
#
# 1 0.011063 -0.006474 -0.000794 0.000000 -0.003831 0.000000
# 2 -0.006474 0.035119 -0.011519 0.000000 0.003104 0.000000
# 3 -0.000794 -0.011519 0.013025 0.000000 -0.005607 0.000000
# 4 0.000000 0.000000 0.000000 0.038206 0.000000 0.001742
# 5 -0.003831 0.003104 -0.005607 0.000000 0.033369 0.000000
# 6 0.000000 0.000000 0.000000 0.001742 0.000000 0.063675
#
#
# Mechanical properties :
#
#
# Convention : Reuss Voigt Hill
#
# Bulk Modulus (GPa) = 46.22810 64.11434 55.17122
# Shear Modulus (GPa) = 20.89933 26.95082 23.92508
#
# Velocity S-wave (km/s) = 3.34693 3.80073 3.58103
# Velocity P-wave (km/s) = 6.30191 7.32296 6.83154
#
# Compressibility (1/GPa) = 0.02163187
#
# Stress axis : x y z
#
# Youngs Moduli (GPa) = 90.39407 28.47499 76.77400
#
# Poissons Ratio (x) = 0.18436 0.06096
# Poissons Ratio (y) = 0.58524 0.88436
# Poissons Ratio (z) = 0.07177 0.32800
#
# Static dielectric constant tensor:
#      x y z
#    x 4.062350 0.000000 0.188600 
#    y 0.000000 3.210320 0.000000 
#    z 0.188600 0.000000 3.522660 
# 
# 
# High freq. dielectric constant tensor:
#      x y z
#    x 1.748110 0.000000 0.004760 
#    y 0.000000 1.700000 0.000000 
#    z 0.004760 0.000000 1.727840 
# 
# From -- ./inp_files/133354.got.cif
#   From: 2010.06.25/outbox.cif.g09.slc.cpg/sg12_67_cif.got.tgz:133354.got - 2010.06.28 00:19:55.
