data_PCOD8098910
_publ_section_title
;
Structure prediction by ZEFSAII (Michael W. Deem and Ramdas Pophale) SiO2 
 PCOD8098910
Probable space group: C 2/M
;
_chemical_formula_sum "Si O2"
_cell_formula_units_Z 64
_cell_length_a 31.107885
_cell_length_b 8.948103
_cell_length_c 28.164385
_cell_angle_alpha 90.000000
_cell_angle_beta 26.925090
_cell_angle_gamma 90.000000
_cell_volume 3550.032318
_symmetry_space_group_name_H-M "C 2/M"
_symmetry_group_IT_number 12
_symmetry_cell_setting 'monoclinic'
loop_
_space_group_symop_operation_xyz
x,y,z
-x,y,-z
-x,-y,-z
x,-y,z
1/2+x,1/2+y,z
1/2-x,1/2+y,-z
1/2-x,1/2-y,-z
1/2+x,1/2-y,z
loop_
_atom_site_type_symbol
_atom_site_label
_atom_site_fract_x
_atom_site_fract_y
_atom_site_fract_z
Si Si1 0.251707 0.171377 0.948406
Si Si2 0.737842 0.676925 0.562711
Si Si3 0.740434 0.326698 0.312813
Si Si4 0.892406 0.677318 0.729706
Si Si5 0.108383 0.324999 0.512295
Si Si6 0.245858 0.677155 0.809237
Si Si7 0.598203 0.674783 0.022544
Si Si8 0.897868 0.324263 0.233254
O O1 0.340096 0.228092 0.829605
O O2 0.154129 0.201465 0.016546
O O3 0.266133 0.000000 0.945671
O O4 0.250000 0.250000 0.000000
O O5 0.727979 0.500000 0.567382
O O6 0.750000 0.750000 0.500000
O O7 0.828926 0.724461 0.504321
O O8 0.642954 0.741652 0.680190
O O9 0.717632 0.500000 0.338257
O O10 0.648239 0.245579 0.424780
O O11 0.757407 0.275739 0.242437
O O12 0.833859 0.284847 0.250728
O O13 0.879910 0.500000 0.733861
O O14 0.845281 0.764259 0.732254
O O15 0.001104 0.728591 0.626633
O O16 0.112692 0.500000 0.500938
O O17 0.236588 0.500000 0.825748
O O18 0.157940 0.760001 0.920138
O O19 0.579675 0.500000 0.031854
O O20 0.501379 0.764170 0.120485
O O21 0.901405 0.500000 0.240040
#
# Coordination Sequence:
#
# PCOD8098910 Si02
#       8
#     8   8   8   8   8   8   8   8
#     4   9  19  34  52  74 103 134 167 208 255 303
#     4  10  20  35  54  79 108 139 175 216 259 307
#     4   9  20  36  53  76 107 136 169 214 260 303
#     4   9  19  36  53  74 104 136 170 213 257 302
#     4   9  19  35  55  76 102 137 176 213 256 308
#     4  10  20  35  54  77 104 137 173 211 256 309
#     4  10  21  37  54  77 107 136 169 215 261 306
#     4  10  20  36  56  77 103 139 176 214 259 308
#
# _framework density 18.028005
#
# number of rings (size 3 to 8) (size 9 to 14) (size 15 to 20)
#    0.000    2.500    0.000    2.250    0.000    7.000 
#    0.000    6.250    0.000    0.000    0.000    0.000 
#    0.000    0.000    0.000    0.000    0.000    0.000 
#
# Total GULP energy -396856.347993 kJ/mol
# GULP energy per Si atom -12401.760875 kJ/mol
# Density = 1.798697 g / cm^3
# Si number density = 18.028005 Si / 1000 Ang^3
#
#
#
# Elastic Constant Matrix: (Units=GPa)
#
#
# Indices 1 2 3 4 5 6 
#
# 1 96.6864 43.0145 71.7680 -0.0074 16.0271 0.0032
# 2 43.0145 61.0813 41.6979 -0.0632 6.2336 0.0453
# 3 71.7680 41.6979 117.4538 -0.0063 -2.5994 0.0093
# 4 -0.0074 -0.0632 -0.0063 35.2799 0.0055 2.5407
# 5 16.0271 6.2336 -2.5994 0.0055 37.6019 -0.0039
# 6 0.0032 0.0453 0.0093 2.5407 -0.0039 30.2889
#
#
#
# Elastic Compliance Matrix: (Units=1/GPa)
#
#
# Indices 1 2 3 4 5 6 
#
# 1 0.024942 -0.007874 -0.012671 -0.000010 -0.010202 0.000013
# 2 -0.007874 0.024750 -0.003998 0.000045 -0.001024 -0.000039
# 3 -0.012671 -0.003998 0.017837 -0.000008 0.007297 0.000003
# 4 -0.000010 0.000045 -0.000008 0.028517 -0.000008 -0.002392
# 5 -0.010202 -0.001024 0.007297 -0.000008 0.031617 0.000005
# 6 0.000013 -0.000039 0.000003 -0.002392 0.000005 0.033216
#
#
# Mechanical properties :
#
#
# Convention : Reuss Voigt Hill
#
# Bulk Modulus (GPa) = 54.21831 65.35359 59.78595
# Shear Modulus (GPa) = 23.13602 28.55020 25.84311
#
# Velocity S-wave (km/s) = 3.58626 3.98384 3.79026
# Velocity P-wave (km/s) = 6.87663 7.58229 7.23807
#
# Compressibility (1/GPa) = 0.01844395
#
# Stress axis : x y z
#
# Youngs Moduli (GPa) = 40.09321 40.40334 56.06243
#
# Poissons Ratio (x) = 0.31812 0.71036
# Poissons Ratio (y) = 0.31567 0.22416
# Poissons Ratio (z) = 0.50801 0.16155
#
# Static dielectric constant tensor:
#      x y z
#    x 3.441990 -0.000070 -0.016890 
#    y -0.000070 3.359740 0.000100 
#    z -0.016890 0.000100 3.512660 
# 
# 
# High freq. dielectric constant tensor:
#      x y z
#    x 1.696490 0.000000 0.000620 
#    y 0.000000 1.703700 0.000010 
#    z 0.000620 0.000010 1.705240 
# 
# From -- ./inp_files/249240.got.cif
#   From: 2010.06.25/outbox.cif.g09.slc.cpg/sg12_125_cif.got.tgz:249240.got - 2010.06.28 00:19:55.
