data_PCOD8098309
_publ_section_title
;
Structure prediction by ZEFSAII (Michael W. Deem and Ramdas Pophale) SiO2 
 PCOD8098309
Probable space group: C 2/M
;
_chemical_formula_sum "Si O2"
_cell_formula_units_Z 64
_cell_length_a 25.351722
_cell_length_b 9.085930
_cell_length_c 14.066413
_cell_angle_alpha 90.000000
_cell_angle_beta 86.301292
_cell_angle_gamma 90.000000
_cell_volume 3233.364516
_symmetry_space_group_name_H-M "C 2/M"
_symmetry_group_IT_number 12
_symmetry_cell_setting 'monoclinic'
loop_
_space_group_symop_operation_xyz
x,y,z
-x,y,-z
-x,-y,-z
x,-y,z
1/2+x,1/2+y,z
1/2-x,1/2+y,-z
1/2-x,1/2-y,-z
1/2+x,1/2-y,z
loop_
_atom_site_type_symbol
_atom_site_label
_atom_site_fract_x
_atom_site_fract_y
_atom_site_fract_z
Si Si1 0.265894 0.669543 0.902669
Si Si2 0.444651 0.674505 0.709596
Si Si3 0.253236 0.326699 0.283143
Si Si4 0.554065 0.826574 0.946294
Si Si5 0.143783 0.329754 0.393658
Si Si6 0.112181 0.167656 0.094465
Si Si7 0.949672 0.327477 0.269474
Si Si8 0.157853 0.329814 0.612206
O O1 0.248094 0.500000 0.910123
O O2 0.236426 0.745992 0.818025
O O3 0.328053 0.686178 0.879034
O O4 0.250000 0.750000 0.000000
O O5 0.446844 0.500000 0.701564
O O6 0.405652 0.733242 0.633280
O O7 0.424184 0.726831 0.815470
O O8 0.502442 0.741730 0.686092
O O9 0.259211 0.500000 0.267450
O O10 0.195690 0.284276 0.329186
O O11 0.296487 0.272791 0.352630
O O12 0.557514 0.771569 0.837784
O O13 0.558929 0.000000 0.951746
O O14 0.500000 0.769135 0.000000
O O15 0.602643 0.760316 0.000103
O O16 0.129679 0.500000 0.379113
O O17 0.154000 0.295058 0.501985
O O18 0.098462 0.000000 0.072184
O O19 0.962681 0.500000 0.270987
O O20 0.897221 0.287431 0.332587
O O21 0.172116 0.500000 0.629801
#
# Coordination Sequence:
#
# PCOD8098309 Si02
#       8
#     8   8   8   8   8   8   8   8
#     4  11  24  42  61  89 125 160 199 244 301 363
#     4  11  22  38  62  90 120 158 202 251 306 357
#     4  11  23  40  64  93 122 158 204 253 306 362
#     4  10  20  34  56  84 113 150 195 236 279 346
#     4  10  22  41  65  90 117 157 206 254 306 368
#     4  10  22  38  57  84 117 154 194 242 295 351
#     4  10  22  40  59  86 122 160 200 246 303 364
#     4  10  23  42  63  88 121 162 204 251 311 368
#
# _framework density 19.793624999999999
#
# number of rings (size 3 to 8) (size 9 to 14) (size 15 to 20)
#    0.000    1.625    2.500    1.500    1.750    4.250 
#    0.000    2.500    0.000    0.000    0.000    0.000 
#    0.000    0.000    0.000    0.000    0.000    0.000 
#
# Total GULP energy -396998.145063 kJ/mol
# GULP energy per Si atom -12406.192033 kJ/mol
# Density = 1.974857 g / cm^3
# Si number density = 19.793625 Si / 1000 Ang^3
#
#
#
# Elastic Constant Matrix: (Units=GPa)
#
#
# Indices 1 2 3 4 5 6 
#
# 1 71.6968 47.2192 37.2897 0.0000 20.3316 0.0000
# 2 47.2192 80.4144 49.6908 0.0000 11.2029 0.0000
# 3 37.2897 49.6908 119.6537 0.0000 6.0407 0.0000
# 4 0.0000 0.0000 0.0000 31.7302 0.0000 9.3319
# 5 20.3316 11.2029 6.0407 0.0000 31.3307 0.0000
# 6 0.0000 0.0000 0.0000 9.3319 0.0000 35.8042
#
#
#
# Elastic Compliance Matrix: (Units=1/GPa)
#
#
# Indices 1 2 3 4 5 6 
#
# 1 0.027174 -0.012588 -0.002603 0.000000 -0.012631 0.000000
# 2 -0.012588 0.023271 -0.005790 0.000000 0.000964 0.000000
# 3 -0.002603 -0.005790 0.011495 0.000000 0.001543 0.000000
# 4 0.000000 0.000000 0.000000 0.034132 0.000000 -0.008896
# 5 -0.012631 0.000964 0.001543 0.000000 0.039472 0.000000
# 6 0.000000 0.000000 0.000000 -0.008896 0.000000 0.030248
#
#
# Mechanical properties :
#
#
# Convention : Reuss Voigt Hill
#
# Bulk Modulus (GPa) = 50.05597 60.01827 55.03712
# Shear Modulus (GPa) = 23.31941 28.94403 26.13172
#
# Velocity S-wave (km/s) = 3.43611 3.82814 3.63741
# Velocity P-wave (km/s) = 6.40986 7.06593 6.74588
#
# Compressibility (1/GPa) = 0.01997764
#
# Stress axis : x y z
#
# Youngs Moduli (GPa) = 36.79988 42.97263 86.99273
#
# Poissons Ratio (x) = 0.54095 0.22647
# Poissons Ratio (y) = 0.46324 0.50366
# Poissons Ratio (z) = 0.09580 0.24880
#
# Static dielectric constant tensor:
#      x y z
#    x 3.595740 0.000000 -0.045250 
#    y 0.000000 3.545830 0.000000 
#    z -0.045250 0.000000 3.632380 
# 
# 
# High freq. dielectric constant tensor:
#      x y z
#    x 1.775500 0.000000 0.003660 
#    y 0.000000 1.768400 0.000000 
#    z 0.003660 0.000000 1.779650 
# 
# From -- ./inp_files/238710.got.cif
#   From: 2010.06.25/outbox.cif.g09.slc.cpg/sg12_120_cif.got.tgz:238710.got - 2010.06.28 00:19:55.
