data_PCOD8098175
_publ_section_title
;
Structure prediction by ZEFSAII (Michael W. Deem and Ramdas Pophale) SiO2 
 PCOD8098175
Probable space group: C 2/M
;
_chemical_formula_sum "Si O2"
_cell_formula_units_Z 40
_cell_length_a 19.020875
_cell_length_b 10.365229
_cell_length_c 9.139285
_cell_angle_alpha 90.000000
_cell_angle_beta 96.058795
_cell_angle_gamma 90.000000
_cell_volume 1791.797353
_symmetry_space_group_name_H-M "C 2/M"
_symmetry_group_IT_number 12
_symmetry_cell_setting 'monoclinic'
loop_
_space_group_symop_operation_xyz
x,y,z
-x,y,-z
-x,-y,-z
x,-y,z
1/2+x,1/2+y,z
1/2-x,1/2+y,-z
1/2-x,1/2-y,-z
1/2+x,1/2-y,z
loop_
_atom_site_type_symbol
_atom_site_label
_atom_site_fract_x
_atom_site_fract_y
_atom_site_fract_z
Si Si1 0.736891 0.646218 0.698761
Si Si2 0.667443 0.359455 0.377119
Si Si3 0.480682 0.729576 0.658641
Si Si4 0.111593 0.147177 0.885882
Si Si5 0.574022 0.862604 0.092512
O O1 0.766355 0.500000 0.704404
O O2 0.691740 0.676672 0.545241
O O3 0.803152 0.745911 0.724153
O O4 0.686220 0.669835 0.824697
O O5 0.697948 0.500000 0.336140
O O6 0.582557 0.374773 0.362697
O O7 0.500000 0.777011 0.500000
O O8 0.548040 0.673534 0.758602
O O9 0.443707 0.845602 0.739645
O O10 0.104233 0.000000 0.940509
O O11 0.113139 0.240310 0.027453
O O12 0.615559 0.000000 0.081485
O O13 0.500000 0.875687 0.000000
#
# Coordination Sequence:
#
# PCOD8098175 Si02
#       5
#     8   8   8   8   8
#     4   9  19  36  56  81 117 155 189 229 284 347
#     4  10  20  34  55  86 119 149 187 237 289 339
#     4  11  21  35  60  91 118 146 191 247 291 334
#     4  10  20  37  62  88 115 153 195 235 286 345
#     4   9  21  39  56  82 121 156 189 234 290 349
#
# _framework density 22.323952999999999
#
# number of rings (size 3 to 8) (size 9 to 14) (size 15 to 20)
#    0.000    2.200    2.000    0.600    0.000    7.200 
#    0.000    1.000    0.000    0.000    0.000    0.000 
#    0.000    0.000    0.000    0.000    0.000    0.000 
#
# Total GULP energy -247789.023948 kJ/mol
# GULP energy per Si atom -12389.451197 kJ/mol
# Density = 2.227314 g / cm^3
# Si number density = 22.323953 Si / 1000 Ang^3
#
#
#
# Elastic Constant Matrix: (Units=GPa)
#
#
# Indices 1 2 3 4 5 6 
#
# 1 93.2112 27.8252 33.8391 0.0000 -13.6583 0.0000
# 2 27.8252 179.7919 81.4885 0.0000 -35.6678 0.0000
# 3 33.8391 81.4885 135.0921 0.0000 -26.0591 0.0000
# 4 0.0000 0.0000 0.0000 25.0555 0.0000 -2.8116
# 5 -13.6583 -35.6678 -26.0591 0.0000 30.5420 0.0000
# 6 0.0000 0.0000 0.0000 -2.8116 0.0000 33.9461
#
#
#
# Elastic Compliance Matrix: (Units=1/GPa)
#
#
# Indices 1 2 3 4 5 6 
#
# 1 0.012090 -0.000193 -0.002289 0.000000 0.003228 0.000000
# 2 -0.000193 0.008696 -0.003896 0.000000 0.006745 0.000000
# 3 -0.002289 -0.003896 0.011073 0.000000 0.003874 0.000000
# 4 0.000000 0.000000 0.000000 0.040286 0.000000 0.003337
# 5 0.003228 0.006745 0.003874 0.000000 0.045367 0.000000
# 6 0.000000 0.000000 0.000000 0.003337 0.000000 0.029735
#
#
# Mechanical properties :
#
#
# Convention : Reuss Voigt Hill
#
# Bulk Modulus (GPa) = 52.34981 77.15564 64.75272
# Shear Modulus (GPa) = 30.05330 35.57155 32.81243
#
# Velocity S-wave (km/s) = 3.67309 3.99610 3.83800
# Velocity P-wave (km/s) = 6.44125 7.47855 6.97920
#
# Compressibility (1/GPa) = 0.01910227
#
# Stress axis : x y z
#
# Youngs Moduli (GPa) = 82.71265 115.00001 90.30835
#
# Poissons Ratio (x) = 0.02222 0.20674
# Poissons Ratio (y) = 0.01598 0.35183
# Poissons Ratio (z) = 0.18935 0.44802
#
# Static dielectric constant tensor:
#      x y z
#    x 4.182870 0.000000 0.156730 
#    y 0.000000 4.496850 0.000000 
#    z 0.156730 0.000000 4.124800 
# 
# 
# High freq. dielectric constant tensor:
#      x y z
#    x 1.880570 0.000000 0.009760 
#    y 0.000000 1.874640 0.000000 
#    z 0.009760 0.000000 1.876000 
# 
# From -- ./inp_files/71189.got.cif
#   From: 2010.06.25/outbox.cif.g09.slc.cpg/sg12_36_cif.got.tgz:71189.got - 2010.06.28 00:19:55.
