data_PCOD8098062
_publ_section_title
;
Structure prediction by ZEFSAII (Michael W. Deem and Ramdas Pophale) SiO2 
 PCOD8098062
Probable space group: C 2/M
;
_chemical_formula_sum "Si O2"
_cell_formula_units_Z 40
_cell_length_a 30.871722
_cell_length_b 9.164349
_cell_length_c 15.286398
_cell_angle_alpha 90.000000
_cell_angle_beta 151.157952
_cell_angle_gamma 90.000000
_cell_volume 2086.276739
_symmetry_space_group_name_H-M "C 2/M"
_symmetry_group_IT_number 12
_symmetry_cell_setting 'monoclinic'
loop_
_space_group_symop_operation_xyz
x,y,z
-x,y,-z
-x,-y,-z
x,-y,z
1/2+x,1/2+y,z
1/2-x,1/2+y,-z
1/2-x,1/2-y,-z
1/2+x,1/2-y,z
loop_
_atom_site_type_symbol
_atom_site_label
_atom_site_fract_x
_atom_site_fract_y
_atom_site_fract_z
Si Si1 0.785350 0.674617 0.790368
Si Si2 0.548161 0.338577 0.500181
Si Si3 0.249778 0.157233 0.913369
Si Si4 0.099845 0.673438 0.427757
Si Si5 0.527361 0.172940 0.954216
O O1 0.770425 0.500000 0.758090
O O2 0.803596 0.720968 0.924707
O O3 0.698310 0.754835 0.597034
O O4 0.872774 0.729279 0.892637
O O5 0.500000 0.268341 0.500000
O O6 0.506368 0.500000 0.405868
O O7 0.650938 0.359936 0.702682
O O8 0.539676 0.231084 0.402617
O O9 0.289821 0.000000 0.010517
O O10 0.250000 0.250000 0.000000
O O11 0.109737 0.500000 0.453604
O O12 0.046888 0.722537 0.247282
O O13 0.530390 0.000000 0.962729
O O14 0.500000 0.238526 0.000000
#
# Coordination Sequence:
#
# PCOD8098062 Si02
#       5
#     8   8   8   8   8
#     4   9  19  37  56  75 108 148 180 216 272 333
#     4   9  19  35  52  73 105 145 179 211 267 329
#     4   9  18  30  47  72 101 135 173 211 256 312
#     4  10  20  34  55  83 110 138 181 231 268 312
#     4   9  19  36  58  82 108 143 183 223 275 330
#
# _framework density 19.172910999999999
#
# number of rings (size 3 to 8) (size 9 to 14) (size 15 to 20)
#    0.000    2.800    0.000    1.800    2.800    4.400 
#    0.000    2.000    0.000    4.200    0.000    0.000 
#    0.000    0.000    0.000    0.000    0.000    0.000 
#
# Total GULP energy -247830.913917 kJ/mol
# GULP energy per Si atom -12391.545696 kJ/mol
# Density = 1.912927 g / cm^3
# Si number density = 19.172911 Si / 1000 Ang^3
#
#
#
# Elastic Constant Matrix: (Units=GPa)
#
#
# Indices 1 2 3 4 5 6 
#
# 1 199.2182 46.5888 78.7362 0.0000 -6.6464 0.0000
# 2 46.5888 60.7891 43.1253 0.0000 -9.0105 0.0000
# 3 78.7362 43.1253 98.7002 0.0000 -12.7029 0.0000
# 4 0.0000 0.0000 0.0000 21.9962 0.0000 -0.4324
# 5 -6.6464 -9.0105 -12.7029 0.0000 33.2634 0.0000
# 6 0.0000 0.0000 0.0000 -0.4324 0.0000 23.3617
#
#
#
# Elastic Compliance Matrix: (Units=1/GPa)
#
#
# Indices 1 2 3 4 5 6 
#
# 1 0.007563 -0.002287 -0.005174 0.000000 -0.001084 0.000000
# 2 -0.002287 0.024748 -0.008608 0.000000 0.002960 0.000000
# 3 -0.005174 -0.008608 0.018496 0.000000 0.003698 0.000000
# 4 0.000000 0.000000 0.000000 0.045479 0.000000 0.000842
# 5 -0.001084 0.002960 0.003698 0.000000 0.032060 0.000000
# 6 0.000000 0.000000 0.000000 0.000842 0.000000 0.042821
#
#
# Mechanical properties :
#
#
# Convention : Reuss Voigt Hill
#
# Bulk Modulus (GPa) = 53.56124 77.28979 65.42552
# Shear Modulus (GPa) = 23.86315 28.40807 26.13561
#
# Velocity S-wave (km/s) = 3.53176 3.85343 3.69610
# Velocity P-wave (km/s) = 6.68039 7.75874 7.23967
#
# Compressibility (1/GPa) = 0.01867022
#
# Stress axis : x y z
#
# Youngs Moduli (GPa) = 132.22357 40.40655 54.06571
#
# Poissons Ratio (x) = 0.09240 0.27971
# Poissons Ratio (y) = 0.30235 0.46542
# Poissons Ratio (z) = 0.68407 0.34783
#
# Static dielectric constant tensor:
#      x y z
#    x 3.284830 0.000000 0.445490 
#    y 0.000000 2.976840 0.000000 
#    z 0.445490 0.000000 3.187870 
# 
# 
# High freq. dielectric constant tensor:
#      x y z
#    x 1.758840 0.000000 0.004090 
#    y 0.000000 1.719150 0.000000 
#    z 0.004090 0.000000 1.735630 
# 
# From -- ./inp_files/220277.got.cif
#   From: 2010.06.25/outbox.cif.g09.slc.cpg/sg12_111_cif.got.tgz:220277.got - 2010.06.28 00:19:55.
