data_PCOD8098001
_publ_section_title
;
Structure prediction by ZEFSAII (Michael W. Deem and Ramdas Pophale) SiO2 
 PCOD8098001
Probable space group: C 2/M
;
_chemical_formula_sum "Si O2"
_cell_formula_units_Z 56
_cell_length_a 19.382972
_cell_length_b 9.243678
_cell_length_c 27.287139
_cell_angle_alpha 90.000000
_cell_angle_beta 141.937749
_cell_angle_gamma 90.000000
_cell_volume 3014.174763
_symmetry_space_group_name_H-M "C 2/M"
_symmetry_group_IT_number 12
_symmetry_cell_setting 'monoclinic'
loop_
_space_group_symop_operation_xyz
x,y,z
-x,y,-z
-x,-y,-z
x,-y,z
1/2+x,1/2+y,z
1/2-x,1/2+y,-z
1/2-x,1/2-y,-z
1/2+x,1/2-y,z
loop_
_atom_site_type_symbol
_atom_site_label
_atom_site_fract_x
_atom_site_fract_y
_atom_site_fract_z
Si Si1 0.371452 0.331522 0.833376
Si Si2 0.743310 0.170300 0.860274
Si Si3 0.935446 0.662826 0.014640
Si Si4 0.312698 0.333742 0.692187
Si Si5 0.486568 0.331991 0.265972
Si Si6 0.863706 0.164932 0.561140
Si Si7 0.392306 0.333764 0.466556
O O1 0.404423 0.500000 0.852981
O O2 0.284809 0.293874 0.828364
O O3 0.485808 0.240884 0.901670
O O4 0.314634 0.287968 0.750231
O O5 0.620829 0.232526 0.800212
O O6 0.743686 0.000000 0.870436
O O7 0.822374 0.245739 0.944782
O O8 0.907028 0.500000 0.016474
O O9 0.000000 0.659041 0.000000
O O10 0.278817 0.500000 0.667511
O O11 0.433879 0.305312 0.736187
O O12 0.220726 0.244611 0.611701
O O13 0.450787 0.500000 0.250191
O O14 0.548740 0.277682 0.349891
O O15 0.750000 0.250000 0.500000
O O16 0.917702 0.183824 0.538117
O O17 0.833876 0.000000 0.556730
O O18 0.500000 0.265221 0.500000
O O19 0.377071 0.500000 0.442776
#
# Coordination Sequence:
#
# PCOD8098001 Si02
#       7
#     8   8   8   8   8   8   8
#     4   9  19  35  55  80 109 139 174 219 267 313
#     4  10  20  34  55  82 109 138 175 219 264 313
#     4   9  17  32  55  82 109 139 175 214 261 315
#     4  10  21  38  56  77 107 143 179 218 267 316
#     4  10  21  36  54  77 107 141 179 221 263 313
#     4  10  20  36  56  77 104 141 181 220 265 314
#     4  10  22  37  54  79 109 140 177 223 270 316
#
# _framework density 18.578883999999999
#
# number of rings (size 3 to 8) (size 9 to 14) (size 15 to 20)
#    0.000    2.286    1.429    0.857    2.000    4.286 
#    0.000    0.714    0.000    0.000    0.000    0.000 
#    0.000    0.000    0.000    0.000    0.000    0.000 
#
# Total GULP energy -347252.761110 kJ/mol
# GULP energy per Si atom -12401.884325 kJ/mol
# Density = 1.853660 g / cm^3
# Si number density = 18.578884 Si / 1000 Ang^3
#
#
#
# Elastic Constant Matrix: (Units=GPa)
#
#
# Indices 1 2 3 4 5 6 
#
# 1 62.6331 21.7767 15.5199 0.0000 7.9828 0.0000
# 2 21.7767 71.9724 34.5163 0.0000 12.6242 0.0000
# 3 15.5199 34.5163 68.2626 0.0000 15.3262 0.0000
# 4 0.0000 0.0000 0.0000 34.4530 0.0000 5.3157
# 5 7.9828 12.6242 15.3262 0.0000 31.5747 0.0000
# 6 0.0000 0.0000 0.0000 5.3157 0.0000 23.9260
#
#
#
# Elastic Compliance Matrix: (Units=1/GPa)
#
#
# Indices 1 2 3 4 5 6 
#
# 1 0.018128 -0.004441 -0.001398 0.000000 -0.002129 0.000000
# 2 -0.004441 0.019719 -0.008353 0.000000 -0.002706 0.000000
# 3 -0.001398 -0.008353 0.020607 0.000000 -0.006310 0.000000
# 4 0.000000 0.000000 0.000000 0.030055 0.000000 -0.006678
# 5 -0.002129 -0.002706 -0.006310 0.000000 0.036354 0.000000
# 6 0.000000 0.000000 0.000000 -0.006678 0.000000 0.043279
#
#
# Mechanical properties :
#
#
# Convention : Reuss Voigt Hill
#
# Bulk Modulus (GPa) = 33.25618 38.49933 35.87776
# Shear Modulus (GPa) = 24.20722 26.72774 25.46748
#
# Velocity S-wave (km/s) = 3.61355 3.79701 3.70642
# Velocity P-wave (km/s) = 5.94551 6.32378 6.13756
#
# Compressibility (1/GPa) = 0.03006960
#
# Stress axis : x y z
#
# Youngs Moduli (GPa) = 55.16377 50.71326 48.52613
#
# Poissons Ratio (x) = 0.22522 0.06783
# Poissons Ratio (y) = 0.24499 0.40535
# Poissons Ratio (z) = 0.07711 0.42362
#
# Static dielectric constant tensor:
#      x y z
#    x 3.467690 0.000000 -0.151920 
#    y 0.000000 3.459630 0.000000 
#    z -0.151920 0.000000 3.483210 
# 
# 
# High freq. dielectric constant tensor:
#      x y z
#    x 1.710810 0.000000 -0.001860 
#    y 0.000000 1.720350 0.000000 
#    z -0.001860 0.000000 1.724280 
# 
# From -- ./inp_files/280446.got.cif
#   From: 2010.06.25/outbox.cif.g09.slc.cpg/sg12_141_cif.got.tgz:280446.got - 2010.06.28 00:19:55.
