data_PCOD8098716
_publ_section_title
;
Structure prediction by ZEFSAII (Michael W. Deem and Ramdas Pophale) SiO2 
 PCOD8098716
Probable space group: C 2/M
;
_chemical_formula_sum "Si O2"
_cell_formula_units_Z 48
_cell_length_a 19.159442
_cell_length_b 9.409355
_cell_length_c 15.464277
_cell_angle_alpha 90.000000
_cell_angle_beta 77.882979
_cell_angle_gamma 90.000000
_cell_volume 2725.757649
_symmetry_space_group_name_H-M "C 2/M"
_symmetry_group_IT_number 12
_symmetry_cell_setting 'monoclinic'
loop_
_space_group_symop_operation_xyz
x,y,z
-x,y,-z
-x,-y,-z
x,-y,z
1/2+x,1/2+y,z
1/2-x,1/2+y,-z
1/2-x,1/2-y,-z
1/2+x,1/2-y,z
loop_
_atom_site_type_symbol
_atom_site_label
_atom_site_fract_x
_atom_site_fract_y
_atom_site_fract_z
Si Si1 0.688380 0.332949 0.466866
Si Si2 0.188406 0.336053 0.292973
Si Si3 0.459624 0.836872 0.748019
Si Si4 0.154836 0.163102 0.791269
Si Si5 0.075954 0.838352 0.637567
Si Si6 0.465173 0.167259 0.097651
O O1 0.707675 0.500000 0.457223
O O2 0.750000 0.250000 0.500000
O O3 0.677755 0.269687 0.375097
O O4 0.614298 0.308570 0.536798
O O5 0.189805 0.500000 0.325635
O O6 0.124324 0.309111 0.242403
O O7 0.261332 0.300925 0.223191
O O8 0.504597 0.754576 0.663431
O O9 0.481861 0.786929 0.838369
O O10 0.479387 0.000000 0.729851
O O11 0.131414 0.199559 0.699538
O O12 0.111627 0.258890 0.870465
O O13 0.139283 0.000000 0.818322
O O14 0.050828 0.000000 0.651218
O O15 0.451871 0.000000 0.098124
O O16 0.500000 0.222326 0.000000
#
# Coordination Sequence:
#
# PCOD8098716 Si02
#       6
#     8   8   8   8   8   8
#     4  11  21  33  51  75 103 137 177 215 252 294
#     4  10  20  35  51  73 105 136 171 212 255 300
#     4   9  19  34  53  74 100 136 170 207 257 306
#     4   9  17  32  52  72  98 132 168 205 250 303
#     4   9  18  33  50  70  99 134 171 211 249 291
#     4   9  18  34  55  78 101 127 166 211 253 305
#
# _framework density 17.609784000000001
#
# number of rings (size 3 to 8) (size 9 to 14) (size 15 to 20)
#    0.000    2.500    1.667    0.500    0.000    3.667 
#    0.000    4.167    0.000    0.000    0.000    0.000 
#    0.000    0.000    0.000    0.000    0.000    0.000 
#
# Total GULP energy -297622.313927 kJ/mol
# GULP energy per Si atom -12400.929747 kJ/mol
# Density = 1.756970 g / cm^3
# Si number density = 17.609784 Si / 1000 Ang^3
#
#
#
# Elastic Constant Matrix: (Units=GPa)
#
#
# Indices 1 2 3 4 5 6 
#
# 1 135.9728 54.8116 55.7587 0.0000 -14.3366 0.0000
# 2 54.8116 70.6889 51.9378 0.0000 -12.2923 0.0000
# 3 55.7587 51.9378 99.8043 0.0000 -20.9238 0.0000
# 4 0.0000 0.0000 0.0000 25.9547 0.0000 -6.7469
# 5 -14.3366 -12.2923 -20.9238 0.0000 24.8887 0.0000
# 6 0.0000 0.0000 0.0000 -6.7469 0.0000 29.6160
#
#
#
# Elastic Compliance Matrix: (Units=1/GPa)
#
#
# Indices 1 2 3 4 5 6 
#
# 1 0.011183 -0.006575 -0.002618 0.000000 0.000994 0.000000
# 2 -0.006575 0.026820 -0.010077 0.000000 0.000987 0.000000
# 3 -0.002618 -0.010077 0.018654 0.000000 0.009198 0.000000
# 4 0.000000 0.000000 0.000000 0.040954 0.000000 0.009330
# 5 0.000994 0.000987 0.009198 0.000000 0.048971 0.000000
# 6 0.000000 0.000000 0.000000 0.009330 0.000000 0.035891
#
#
# Mechanical properties :
#
#
# Convention : Reuss Voigt Hill
#
# Bulk Modulus (GPa) = 55.19278 70.16470 62.67874
# Shear Modulus (GPa) = 22.02130 25.68909 23.85519
#
# Velocity S-wave (km/s) = 3.54010 3.82356 3.68456
# Velocity P-wave (km/s) = 6.93685 7.70866 7.33292
#
# Compressibility (1/GPa) = 0.01811831
#
# Stress axis : x y z
#
# Youngs Moduli (GPa) = 89.42017 37.28526 53.60672
#
# Poissons Ratio (x) = 0.24516 0.14033
# Poissons Ratio (y) = 0.58795 0.54018
# Poissons Ratio (z) = 0.23409 0.37572
#
# Static dielectric constant tensor:
#      x y z
#    x 3.322690 0.000000 -0.051560 
#    y 0.000000 3.304610 0.000000 
#    z -0.051560 0.000000 3.220090 
# 
# 
# High freq. dielectric constant tensor:
#      x y z
#    x 1.681810 0.000000 -0.008590 
#    y 0.000000 1.681650 0.000000 
#    z -0.008590 0.000000 1.660110 
# 
# From -- ./inp_files/221638.got.cif
#   From: 2010.06.25/outbox.cif.g09.slc.cpg/sg12_111_cif.got.tgz:221638.got - 2010.06.28 00:19:55.
