data_PCOD8098690
_publ_section_title
;
Structure prediction by ZEFSAII (Michael W. Deem and Ramdas Pophale) SiO2 
 PCOD8098690
Probable space group: C 2/M
;
_chemical_formula_sum "Si O2"
_cell_formula_units_Z 56
_cell_length_a 9.139360
_cell_length_b 19.019299
_cell_length_c 16.747162
_cell_angle_alpha 90.000000
_cell_angle_beta 104.032317
_cell_angle_gamma 90.000000
_cell_volume 2824.193714
_symmetry_space_group_name_H-M "C 2/M"
_symmetry_group_IT_number 12
_symmetry_cell_setting 'monoclinic'
loop_
_space_group_symop_operation_xyz
x,y,z
-x,y,-z
-x,-y,-z
x,-y,z
1/2+x,1/2+y,z
1/2-x,1/2+y,-z
1/2-x,1/2-y,-z
1/2+x,1/2-y,z
loop_
_atom_site_type_symbol
_atom_site_label
_atom_site_fract_x
_atom_site_fract_y
_atom_site_fract_z
Si Si1 0.385475 0.082047 0.737299
Si Si2 0.154552 0.820613 0.232092
Si Si3 0.349527 0.168915 0.581088
Si Si4 0.684001 0.682998 0.808267
Si Si5 0.797555 0.582600 0.137370
Si Si6 0.328903 0.675282 0.011564
Si Si7 0.818783 0.304467 0.405351
O O1 0.376633 0.102025 0.641782
O O2 0.250875 0.121075 0.763853
O O3 0.543353 0.103060 0.800115
O O4 0.356853 0.000000 0.740029
O O5 0.222461 0.754686 0.191461
O O6 0.162589 0.887909 0.174960
O O7 0.247254 0.845565 0.321937
O O8 0.987848 0.801322 0.239623
O O9 0.243590 0.225250 0.609385
O O10 0.506060 0.206901 0.585004
O O11 0.282198 0.152900 0.483088
O O12 0.675963 0.653246 0.896907
O O13 0.778828 0.500000 0.123353
O O14 0.777668 0.619784 0.049029
O O15 0.500000 0.678158 0.000000
O O16 0.250000 0.750000 0.000000
#
# Coordination Sequence:
#
# PCOD8098690 Si02
#       7
#     8   8   8   8   8   8   8
#     4  11  25  44  63  90 130 172 213 260 317 380
#     4  12  21  40  65  95 126 162 212 262 311 376
#     4  10  20  37  60  97 127 158 207 261 319 367
#     4  12  24  39  67  94 123 167 214 265 315 374
#     4  11  25  43  64  90 128 169 209 261 318 376
#     4  12  25  42  65  97 125 163 211 269 315 373
#     4  10  20  34  64  96 123 159 206 263 309 369
#
# _framework density 19.828669000000001
#
# number of rings (size 3 to 8) (size 9 to 14) (size 15 to 20)
#    0.000    0.857    5.714    1.714    2.000    1.429 
#    0.000    3.571    0.000    0.857    0.000    0.000 
#    0.000    0.000    0.000    0.000    0.000    0.000 
#
# Total GULP energy -347072.799830 kJ/mol
# GULP energy per Si atom -12395.457137 kJ/mol
# Density = 1.978354 g / cm^3
# Si number density = 19.828669 Si / 1000 Ang^3
#
#
#
# Elastic Constant Matrix: (Units=GPa)
#
#
# Indices 1 2 3 4 5 6 
#
# 1 110.7924 45.6871 27.4223 0.0000 -3.7631 0.0000
# 2 45.6871 104.2477 50.0008 0.0000 -1.1881 0.0000
# 3 27.4223 50.0008 142.3717 0.0000 -4.2303 0.0000
# 4 0.0000 0.0000 0.0000 31.3122 0.0000 0.2596
# 5 -3.7631 -1.1881 -4.2303 0.0000 28.7301 0.0000
# 6 0.0000 0.0000 0.0000 0.2596 0.0000 24.8841
#
#
#
# Elastic Compliance Matrix: (Units=1/GPa)
#
#
# Indices 1 2 3 4 5 6 
#
# 1 0.011089 -0.004616 -0.000479 0.000000 0.001191 0.000000
# 2 -0.004616 0.013458 -0.003856 0.000000 -0.000616 0.000000
# 3 -0.000479 -0.003856 0.008501 0.000000 0.001029 0.000000
# 4 0.000000 0.000000 0.000000 0.031939 0.000000 -0.000333
# 5 0.001191 -0.000616 0.001029 0.000000 0.035089 0.000000
# 6 0.000000 0.000000 0.000000 -0.000333 0.000000 0.040190
#
#
# Mechanical properties :
#
#
# Convention : Reuss Voigt Hill
#
# Bulk Modulus (GPa) = 66.02698 67.07026 66.54862
# Shear Modulus (GPa) = 30.63438 32.60538 31.61988
#
# Velocity S-wave (km/s) = 3.93485 4.05946 3.99765
# Velocity P-wave (km/s) = 7.34950 7.47467 7.41235
#
# Compressibility (1/GPa) = 0.01514532
#
# Stress axis : x y z
#
# Youngs Moduli (GPa) = 90.18341 74.30607 117.63579
#
# Poissons Ratio (x) = 0.34301 0.05637
# Poissons Ratio (y) = 0.41630 0.45355
# Poissons Ratio (z) = 0.04321 0.28649
#
# Static dielectric constant tensor:
#      x y z
#    x 3.756190 0.000000 -0.042640 
#    y 0.000000 3.290600 0.000000 
#    z -0.042640 0.000000 4.279840 
# 
# 
# High freq. dielectric constant tensor:
#      x y z
#    x 1.780290 0.000000 -0.002020 
#    y 0.000000 1.738390 0.000000 
#    z -0.002020 0.000000 1.800960 
# 
# From -- ./inp_files/257200.got.cif
#   From: 2010.06.25/outbox.cif.g09.slc.cpg/sg12_129_cif.got.tgz:257200.got - 2010.06.28 00:19:55.
