data_PCOD8098128
_publ_section_title
;
Structure prediction by ZEFSAII (Michael W. Deem and Ramdas Pophale) SiO2 
 PCOD8098128
Probable space group: C 2/M
;
_chemical_formula_sum "Si O2"
_cell_formula_units_Z 56
_cell_length_a 16.155992
_cell_length_b 23.479917
_cell_length_c 8.854893
_cell_angle_alpha 90.000000
_cell_angle_beta 122.774289
_cell_angle_gamma 90.000000
_cell_volume 2824.302231
_symmetry_space_group_name_H-M "C 2/M"
_symmetry_group_IT_number 12
_symmetry_cell_setting 'monoclinic'
loop_
_space_group_symop_operation_xyz
x,y,z
-x,y,-z
-x,-y,-z
x,-y,z
1/2+x,1/2+y,z
1/2-x,1/2+y,-z
1/2-x,1/2-y,-z
1/2+x,1/2-y,z
loop_
_atom_site_type_symbol
_atom_site_label
_atom_site_fract_x
_atom_site_fract_y
_atom_site_fract_z
Si Si1 0.897511 0.330735 0.826639
Si Si2 0.103364 0.668003 0.531707
Si Si3 0.588107 0.564382 0.698779
Si Si4 0.277546 0.735029 0.857276
Si Si5 0.796683 0.565691 0.227891
Si Si6 0.400022 0.624923 0.988217
Si Si7 0.693280 0.064168 0.115829
O O1 0.902423 0.325822 0.652719
O O2 0.810146 0.291668 0.803146
O O3 0.875973 0.395481 0.854347
O O4 0.000000 0.310693 0.000000
O O5 0.183730 0.710548 0.678010
O O6 0.127577 0.602709 0.599281
O O7 0.000000 0.686241 0.500000
O O8 0.500000 0.576929 0.500000
O O9 0.582345 0.500000 0.760195
O O10 0.693231 0.571574 0.719348
O O11 0.577563 0.611154 0.816749
O O12 0.366671 0.690150 0.941649
O O13 0.250000 0.750000 0.000000
O O14 0.814003 0.500000 0.285256
O O15 0.684915 0.583102 0.159633
O O16 0.814964 0.579290 0.069757
O O17 0.500000 0.613845 0.000000
O O18 0.656733 0.000000 0.109113
#
# Coordination Sequence:
#
# PCOD8098128 Si02
#       7
#     8   8   8   8   8   8   8
#     4  12  24  41  63  87 118 152 193 241 296 358
#     4  11  24  41  62  89 118 153 196 244 296 353
#     4   9  18  33  54  82 118 156 191 231 283 340
#     4  11  23  43  64  83 114 154 197 247 299 350
#     4   9  19  37  59  84 118 158 197 241 295 350
#     4  10  20  34  55  84 115 149 193 238 287 344
#     4   9  19  38  61  85 116 155 198 243 293 350
#
# _framework density 19.827907
#
# number of rings (size 3 to 8) (size 9 to 14) (size 15 to 20)
#    0.000    1.857    0.000    6.429    0.000    4.571 
#    0.000    8.571    0.000    0.000    0.000    0.000 
#    0.000    0.000    0.000    0.000    0.000    0.000 
#
# Total GULP energy -347283.307027 kJ/mol
# GULP energy per Si atom -12402.975251 kJ/mol
# Density = 1.978278 g / cm^3
# Si number density = 19.827907 Si / 1000 Ang^3
#
#
#
# Elastic Constant Matrix: (Units=GPa)
#
#
# Indices 1 2 3 4 5 6 
#
# 1 119.8009 46.0622 52.1848 0.0000 -8.3697 0.0000
# 2 46.0622 103.2263 48.4445 0.0000 -4.5831 0.0000
# 3 52.1848 48.4445 128.9740 0.0000 -2.6265 0.0000
# 4 0.0000 0.0000 0.0000 24.1658 0.0000 -2.3560
# 5 -8.3697 -4.5831 -2.6265 0.0000 31.9845 0.0000
# 6 0.0000 0.0000 0.0000 -2.3560 0.0000 28.2848
#
#
#
# Elastic Compliance Matrix: (Units=1/GPa)
#
#
# Indices 1 2 3 4 5 6 
#
# 1 0.011205 -0.003395 -0.003214 0.000000 0.002182 0.000000
# 2 -0.003395 0.012845 -0.003438 0.000000 0.000670 0.000000
# 3 -0.003214 -0.003438 0.010335 0.000000 -0.000485 0.000000
# 4 0.000000 0.000000 0.000000 0.041720 0.000000 0.003475
# 5 0.002182 0.000670 -0.000485 0.000000 0.031892 0.000000
# 6 0.000000 0.000000 0.000000 0.003475 0.000000 0.035644
#
#
# Mechanical properties :
#
#
# Convention : Reuss Voigt Hill
#
# Bulk Modulus (GPa) = 69.96649 71.70935 70.83792
# Shear Modulus (GPa) = 29.67380 30.57432 30.12406
#
# Velocity S-wave (km/s) = 3.87275 3.93107 3.90202
# Velocity P-wave (km/s) = 7.44050 7.53981 7.49032
#
# Compressibility (1/GPa) = 0.01429256
#
# Stress axis : x y z
#
# Youngs Moduli (GPa) = 89.24684 77.84946 96.75493
#
# Poissons Ratio (x) = 0.26427 0.31099
# Poissons Ratio (y) = 0.30296 0.33262
# Poissons Ratio (z) = 0.28685 0.26763
#
# Static dielectric constant tensor:
#      x y z
#    x 3.546530 0.000000 0.119940 
#    y 0.000000 3.716870 0.000000 
#    z 0.119940 0.000000 3.580180 
# 
# 
# High freq. dielectric constant tensor:
#      x y z
#    x 1.771890 0.000000 0.010130 
#    y 0.000000 1.781140 0.000000 
#    z 0.010130 0.000000 1.771070 
# 
# From -- ./inp_files/65744.got.cif
#   From: 2010.06.25/outbox.cif.g09.slc.cpg/sg12_33_cif.got.tgz:65744.got - 2010.06.28 00:19:55.
