data_PCOD8098869
_publ_section_title
;
Structure prediction by ZEFSAII (Michael W. Deem and Ramdas Pophale) SiO2 
 PCOD8098869
Probable space group: C 2/M
;
_chemical_formula_sum "Si O2"
_cell_formula_units_Z 40
_cell_length_a 20.695758
_cell_length_b 8.978555
_cell_length_c 12.759573
_cell_angle_alpha 90.000000
_cell_angle_beta 103.364706
_cell_angle_gamma 90.000000
_cell_volume 2306.749126
_symmetry_space_group_name_H-M "C 2/M"
_symmetry_group_IT_number 12
_symmetry_cell_setting 'monoclinic'
loop_
_space_group_symop_operation_xyz
x,y,z
-x,y,-z
-x,-y,-z
x,-y,z
1/2+x,1/2+y,z
1/2-x,1/2+y,-z
1/2-x,1/2-y,-z
1/2+x,1/2-y,z
loop_
_atom_site_type_symbol
_atom_site_label
_atom_site_fract_x
_atom_site_fract_y
_atom_site_fract_z
Si Si1 0.653125 0.325843 0.769466
Si Si2 0.075164 0.823131 0.543800
Si Si3 0.181034 0.825345 0.002686
Si Si4 0.817968 0.674737 0.561002
Si Si5 0.699140 0.173167 0.208778
O O1 0.658373 0.500000 0.752663
O O2 0.598244 0.264864 0.667614
O O3 0.725785 0.260637 0.767395
O O4 0.633362 0.291460 0.883768
O O5 0.119718 0.745462 0.473344
O O6 0.000000 0.769977 0.500000
O O7 0.082149 0.000000 0.533456
O O8 0.154758 0.755606 0.102278
O O9 0.190919 0.000000 0.021237
O O10 0.250000 0.750000 0.000000
O O11 0.812593 0.500000 0.535269
O O12 0.750000 0.750000 0.500000
O O13 0.830989 0.705081 0.688772
O O14 0.698636 0.000000 0.180559
#
# Coordination Sequence:
#
# PCOD8098869 Si02
#       5
#     8   8   8   8   8
#     4   8  14  28  46  68  99 129 160 204 249 289
#     4  10  20  35  54  75 103 139 174 206 253 313
#     4   9  16  26  43  68  99 128 161 204 250 301
#     4  11  21  34  53  76 105 135 169 215 260 305
#     4   9  17  30  47  69 100 129 160 208 255 297
#
# _framework density 17.340420999999999
#
# number of rings (size 3 to 8) (size 9 to 14) (size 15 to 20)
#    0.000    2.600    2.000    2.400    0.000    2.000 
#    0.000    1.000    0.000    1.200    0.000    8.400 
#    0.000    0.000    0.000    0.000    0.000    0.000 
#
# Total GULP energy -247808.901194 kJ/mol
# GULP energy per Si atom -12390.445060 kJ/mol
# Density = 1.730095 g / cm^3
# Si number density = 17.340421 Si / 1000 Ang^3
#
#
#
# Elastic Constant Matrix: (Units=GPa)
#
#
# Indices 1 2 3 4 5 6 
#
# 1 91.0436 35.8426 67.2594 0.0000 -0.8129 0.0000
# 2 35.8426 65.5551 58.5236 0.0000 -4.9492 0.0000
# 3 67.2594 58.5236 181.1423 0.0000 1.3088 0.0000
# 4 0.0000 0.0000 0.0000 31.0625 0.0000 -5.7980
# 5 -0.8129 -4.9492 1.3088 0.0000 17.6422 0.0000
# 6 0.0000 0.0000 0.0000 -5.7980 0.0000 18.9804
#
#
#
# Elastic Compliance Matrix: (Units=1/GPa)
#
#
# Indices 1 2 3 4 5 6 
#
# 1 0.016183 -0.004932 -0.004413 0.000000 -0.000310 0.000000
# 2 -0.004932 0.023720 -0.005882 0.000000 0.006863 0.000000
# 3 -0.004413 -0.005882 0.009078 0.000000 -0.002527 0.000000
# 4 0.000000 0.000000 0.000000 0.034140 0.000000 0.010429
# 5 -0.000310 0.006863 -0.002527 0.000000 0.058781 0.000000
# 6 0.000000 0.000000 0.000000 0.010429 0.000000 0.055872
#
#
# Mechanical properties :
#
#
# Convention : Reuss Voigt Hill
#
# Bulk Modulus (GPa) = 53.97530 73.44358 63.70944
# Shear Modulus (GPa) = 21.33088 25.27804 23.30446
#
# Velocity S-wave (km/s) = 3.51112 3.82219 3.66995
# Velocity P-wave (km/s) = 6.90157 7.86923 7.40123
#
# Compressibility (1/GPa) = 0.01852699
#
# Stress axis : x y z
#
# Youngs Moduli (GPa) = 61.79401 42.15872 110.15918
#
# Poissons Ratio (x) = 0.20791 0.48616
# Poissons Ratio (y) = 0.30474 0.64794
# Poissons Ratio (z) = 0.27271 0.24797
#
# Static dielectric constant tensor:
#      x y z
#    x 2.985170 0.000000 0.033460 
#    y 0.000000 3.206640 0.000000 
#    z 0.033460 0.000000 3.997360 
# 
# 
# High freq. dielectric constant tensor:
#      x y z
#    x 1.611140 0.000000 -0.003470 
#    y 0.000000 1.658260 0.000000 
#    z -0.003470 0.000000 1.698790 
# 
# From -- ./inp_files/162527.got.cif
#   From: 2010.06.25/outbox.cif.g09.slc.cpg/sg12_82_cif.got.tgz:162527.got - 2010.06.28 00:19:55.
