data_PCOD8098641
_publ_section_title
;
Structure prediction by ZEFSAII (Michael W. Deem and Ramdas Pophale) SiO2 
 PCOD8098641
Probable space group: C 2/M
;
_chemical_formula_sum "Si O2"
_cell_formula_units_Z 56
_cell_length_a 19.453769
_cell_length_b 8.964359
_cell_length_c 18.590801
_cell_angle_alpha 90.000000
_cell_angle_beta 115.637681
_cell_angle_gamma 90.000000
_cell_volume 2922.873583
_symmetry_space_group_name_H-M "C 2/M"
_symmetry_group_IT_number 12
_symmetry_cell_setting 'monoclinic'
loop_
_space_group_symop_operation_xyz
x,y,z
-x,y,-z
-x,-y,-z
x,-y,z
1/2+x,1/2+y,z
1/2-x,1/2+y,-z
1/2-x,1/2-y,-z
1/2+x,1/2-y,z
loop_
_atom_site_type_symbol
_atom_site_label
_atom_site_fract_x
_atom_site_fract_y
_atom_site_fract_z
Si Si1 0.540531 0.323206 0.849175
Si Si2 0.593629 0.823527 0.729054
Si Si3 0.480554 0.671582 0.571467
Si Si4 0.192413 0.170941 0.526064
Si Si5 0.221240 0.826418 0.698761
Si Si6 0.887858 0.327770 0.828001
Si Si7 0.911602 0.163487 0.976982
O O1 0.535675 0.500000 0.835161
O O2 0.581555 0.245732 0.801631
O O3 0.454204 0.265186 0.819581
O O4 0.593291 0.282649 0.942326
O O5 0.524444 0.775489 0.646603
O O6 0.674306 0.766695 0.735902
O O7 0.594787 0.000000 0.735947
O O8 0.500000 0.723469 0.500000
O O9 0.506124 0.500000 0.594364
O O10 0.391201 0.693086 0.544587
O O11 0.250000 0.250000 0.500000
O O12 0.197537 0.234589 0.609387
O O13 0.216691 0.000000 0.540431
O O14 0.310828 0.798819 0.749229
O O15 0.199821 0.000000 0.698280
O O16 0.911607 0.500000 0.838507
O O17 0.873074 0.278467 0.904193
O O18 0.873264 0.000000 0.950308
O O19 0.000000 0.149376 0.000000
#
# Coordination Sequence:
#
# PCOD8098641 Si02
#       7
#     8   8   8   8   8   8   8
#     4  10  21  38  60  84 115 154 193 232 280 343
#     4  12  25  38  58  87 116 147 191 245 287 331
#     4  10  20  40  64  81 107 154 195 225 278 343
#     4  10  22  39  60  84 113 149 189 233 279 333
#     4  10  22  42  59  79 117 157 189 228 286 346
#     4  10  20  34  59  90 118 149 187 238 288 333
#     4   8  16  33  56  82 113 151 190 230 279 338
#
# _framework density 19.159227000000001
#
# number of rings (size 3 to 8) (size 9 to 14) (size 15 to 20)
#    0.000    2.000    1.429    3.000    2.000    5.714 
#    0.000    0.714    0.000    0.000    0.000    0.000 
#    0.000    0.000    0.000    0.000    0.000    0.000 
#
# Total GULP energy -347223.160181 kJ/mol
# GULP energy per Si atom -12400.827149 kJ/mol
# Density = 1.911562 g / cm^3
# Si number density = 19.159227 Si / 1000 Ang^3
#
#
#
# Elastic Constant Matrix: (Units=GPa)
#
#
# Indices 1 2 3 4 5 6 
#
# 1 86.8474 40.6929 23.5459 0.0000 -21.9905 0.0000
# 2 40.6929 97.0568 33.6667 0.0000 -12.6643 0.0000
# 3 23.5459 33.6667 65.6501 0.0000 -19.6606 0.0000
# 4 0.0000 0.0000 0.0000 32.8708 0.0000 -1.7488
# 5 -21.9905 -12.6643 -19.6606 0.0000 36.0858 0.0000
# 6 0.0000 0.0000 0.0000 -1.7488 0.0000 29.4697
#
#
#
# Elastic Compliance Matrix: (Units=1/GPa)
#
#
# Indices 1 2 3 4 5 6 
#
# 1 0.016229 -0.005576 -0.000699 0.000000 0.007552 0.000000
# 2 -0.005576 0.014483 -0.005883 0.000000 -0.001520 0.000000
# 3 -0.000699 -0.005883 0.021216 0.000000 0.009068 0.000000
# 4 0.000000 0.000000 0.000000 0.030518 0.000000 0.001811
# 5 0.007552 -0.001520 0.009068 0.000000 0.036721 0.000000
# 6 0.000000 0.000000 0.000000 0.001811 0.000000 0.034041
#
#
# Mechanical properties :
#
#
# Convention : Reuss Voigt Hill
#
# Bulk Modulus (GPa) = 36.21724 49.48505 42.85115
# Shear Modulus (GPa) = 26.77681 29.79517 28.28599
#
# Velocity S-wave (km/s) = 3.74250 3.94780 3.84652
# Velocity P-wave (km/s) = 6.13346 6.83114 6.49168
#
# Compressibility (1/GPa) = 0.02761116
#
# Stress axis : x y z
#
# Youngs Moduli (GPa) = 61.61770 69.04443 47.13516
#
# Poissons Ratio (x) = 0.38502 0.03297
# Poissons Ratio (y) = 0.34360 0.27728
# Poissons Ratio (z) = 0.04310 0.40617
#
# Static dielectric constant tensor:
#      x y z
#    x 3.350620 0.000000 -0.119880 
#    y 0.000000 3.502410 0.000000 
#    z -0.119880 0.000000 3.939920 
# 
# 
# High freq. dielectric constant tensor:
#      x y z
#    x 1.734270 0.000000 -0.007170 
#    y 0.000000 1.742060 0.000000 
#    z -0.007170 0.000000 1.754220 
# 
# From -- ./inp_files/281653.got.cif
#   From: 2010.06.25/outbox.cif.g09.slc.cpg/sg12_141_cif.got.tgz:281653.got - 2010.06.28 00:19:55.
