data_PCOD8098387
_publ_section_title
;
Structure prediction by ZEFSAII (Michael W. Deem and Ramdas Pophale) SiO2 
 PCOD8098387
Probable space group: C 2/M
;
_chemical_formula_sum "Si O2"
_cell_formula_units_Z 36
_cell_length_a 16.124841
_cell_length_b 14.743918
_cell_length_c 18.367038
_cell_angle_alpha 90.000000
_cell_angle_beta 159.615469
_cell_angle_gamma 90.000000
_cell_volume 1520.983895
_symmetry_space_group_name_H-M "C 2/M"
_symmetry_group_IT_number 12
_symmetry_cell_setting 'monoclinic'
loop_
_space_group_symop_operation_xyz
x,y,z
-x,y,-z
-x,-y,-z
x,-y,z
1/2+x,1/2+y,z
1/2-x,1/2+y,-z
1/2-x,1/2-y,-z
1/2+x,1/2-y,z
loop_
_atom_site_type_symbol
_atom_site_label
_atom_site_fract_x
_atom_site_fract_y
_atom_site_fract_z
Si Si1 0.388700 0.400195 0.751077
Si Si2 0.904262 0.602888 0.150810
Si Si3 0.488659 0.219769 0.357172
Si Si4 0.623257 0.397954 0.526011
Si Si5 0.500000 0.650996 0.000000
O O1 0.299771 0.500000 0.652860
O O2 0.184225 0.326979 0.570602
O O3 0.460269 0.408630 0.895095
O O4 0.630823 0.372154 0.905795
O O5 0.907637 0.500000 0.185769
O O6 0.007050 0.674000 0.293838
O O7 0.085384 0.608298 0.230787
O O8 0.538763 0.327605 0.394451
O O9 0.229586 0.213250 0.178779
O O10 0.500000 0.369934 0.500000
O O11 0.545485 0.500000 0.439637
#
# Coordination Sequence:
#
# PCOD8098387 Si02
#       5
#     8   8   8   8   4
#     4  10  20  34  56  86 120 155 188 230 289 351
#     4   9  20  38  60  89 120 148 187 239 289 343
#     4  11  21  37  60  85 115 152 194 237 287 344
#     4  10  21  39  61  84 115 155 197 242 287 333
#     4  10  21  34  53  86 124 152 189 238 285 342
#
# _framework density 23.668887999999999
#
# number of rings (size 3 to 8) (size 9 to 14) (size 15 to 20)
#    0.000    2.000    0.000    3.667    0.000    4.444 
#    0.000    2.778    0.000   13.333    0.000    0.000 
#    0.000    0.000    0.000    0.000    0.000    0.000 
#
# Total GULP energy -223049.331085 kJ/mol
# GULP energy per Si atom -12391.629505 kJ/mol
# Density = 2.361502 g / cm^3
# Si number density = 23.668888 Si / 1000 Ang^3
#
#
#
# Elastic Constant Matrix: (Units=GPa)
#
#
# Indices 1 2 3 4 5 6 
#
# 1 94.1466 22.3036 56.4513 0.1477 41.6155 -0.0282
# 2 22.3036 135.1442 54.5738 0.3953 4.4683 -0.2976
# 3 56.4513 54.5738 137.7240 0.4568 33.5773 0.0608
# 4 0.1477 0.3953 0.4568 18.7177 0.1734 6.1501
# 5 41.6155 4.4683 33.5773 0.1734 49.4361 -0.0438
# 6 -0.0282 -0.2976 0.0608 6.1501 -0.0438 13.1228
#
#
#
# Elastic Compliance Matrix: (Units=1/GPa)
#
#
# Indices 1 2 3 4 5 6 
#
# 1 0.019272 -0.001019 -0.004270 0.000116 -0.013231 -0.000060
# 2 -0.001019 0.009014 -0.003792 -0.000224 0.002620 0.000333
# 3 -0.004270 -0.003792 0.011450 -0.000091 -0.003840 -0.000118
# 4 0.000116 -0.000224 -0.000091 0.063161 -0.000263 -0.029606
# 5 -0.013231 0.002620 -0.003840 -0.000263 0.033739 0.000285
# 6 -0.000060 0.000333 -0.000118 -0.029606 0.000285 0.090087
#
#
# Mechanical properties :
#
#
# Convention : Reuss Voigt Hill
#
# Bulk Modulus (GPa) = 46.35384 70.40802 58.38093
# Shear Modulus (GPa) = 19.83519 31.83439 25.83479
#
# Velocity S-wave (km/s) = 2.89801 3.67139 3.30738
# Velocity P-wave (km/s) = 5.55201 6.91258 6.26931
#
# Compressibility (1/GPa) = 0.02157319
#
# Stress axis : x y z
#
# Youngs Moduli (GPa) = 51.88899 110.94062 87.33448
#
# Poissons Ratio (x) = 0.11308 0.37291
# Poissons Ratio (y) = 0.05289 0.33119
# Poissons Ratio (z) = 0.22156 0.42071
#
# Static dielectric constant tensor:
#      x y z
#    x 4.186410 -0.000290 0.555230 
#    y -0.000290 4.227970 -0.000520 
#    z 0.555230 -0.000520 4.269190 
# 
# 
# High freq. dielectric constant tensor:
#      x y z
#    x 1.923400 -0.000010 0.044970 
#    y -0.000010 1.943990 -0.000040 
#    z 0.044970 -0.000040 1.930740 
# 
# From -- ./inp_files/316576.got.cif
#   From: 2010.06.25/outbox.cif.g09.slc.cpg/sg12_159_cif.got.tgz:316576.got - 2010.06.28 00:19:55.
