data_PCOD8098338
_publ_section_title
;
Structure prediction by ZEFSAII (Michael W. Deem and Ramdas Pophale) SiO2 
 PCOD8098338
Probable space group: C 2/M
;
_chemical_formula_sum "Si O2"
_cell_formula_units_Z 64
_cell_length_a 15.509545
_cell_length_b 8.845108
_cell_length_c 33.153718
_cell_angle_alpha 90.000000
_cell_angle_beta 134.030353
_cell_angle_gamma 90.000000
_cell_volume 3269.988542
_symmetry_space_group_name_H-M "C 2/M"
_symmetry_group_IT_number 12
_symmetry_cell_setting 'monoclinic'
loop_
_space_group_symop_operation_xyz
x,y,z
-x,y,-z
-x,-y,-z
x,-y,z
1/2+x,1/2+y,z
1/2-x,1/2+y,-z
1/2-x,1/2-y,-z
1/2+x,1/2-y,z
loop_
_atom_site_type_symbol
_atom_site_label
_atom_site_fract_x
_atom_site_fract_y
_atom_site_fract_z
Si Si1 0.092249 0.820532 0.062930
Si Si2 0.958489 0.320953 0.365266
Si Si3 0.139515 0.678653 0.864363
Si Si4 0.765770 0.673516 0.744007
Si Si5 0.454679 0.320846 0.861995
Si Si6 0.095971 0.679884 0.563098
Si Si7 0.861880 0.177570 0.630559
Si Si8 0.455690 0.828590 0.737190
O O1 0.225273 0.760304 0.095729
O O2 0.048527 0.767260 0.092635
O O3 0.095490 0.000000 0.062189
O O4 0.000000 0.754161 0.000000
O O5 0.953103 0.500000 0.362294
O O6 0.860494 0.255515 0.302625
O O7 0.937298 0.258583 0.403452
O O8 0.087625 0.261860 0.392495
O O9 0.131106 0.500000 0.869342
O O10 0.076698 0.759245 0.881827
O O11 0.071456 0.720181 0.800764
O O12 0.744760 0.500000 0.749188
O O13 0.836680 0.754333 0.802849
O O14 0.837973 0.687751 0.726039
O O15 0.451407 0.500000 0.856715
O O16 0.094229 0.500000 0.562719
O O17 0.227387 0.738594 0.593595
O O18 0.000000 0.744641 0.500000
O O19 0.943880 0.216701 0.695807
O O20 0.864965 0.000000 0.624015
O O21 0.469584 0.000000 0.725745
#
# Coordination Sequence:
#
# PCOD8098338 Si02
#       8
#     8   8   8   8   8   8   8   8
#     4   9  19  36  57  81 111 150 195 235 279 340
#     4  11  22  37  59  87 117 153 192 232 285 343
#     4   9  19  36  56  80 112 152 187 232 290 340
#     4  10  20  36  58  85 118 151 187 237 291 341
#     4  10  20  34  56  85 113 147 191 236 283 340
#     4   9  20  40  62  83 114 154 194 237 283 334
#     4  11  22  36  57  87 117 151 192 236 285 336
#     4   9  18  33  55  81 114 149 186 233 286 344
#
# _framework density 19.571933999999999
#
# number of rings (size 3 to 8) (size 9 to 14) (size 15 to 20)
#    0.000    2.250    1.250    2.250    1.750    3.000 
#    0.000    1.250    0.000    7.875    0.000    0.000 
#    0.000    0.000    0.000    0.000    0.000    0.000 
#
# Total GULP energy -396865.587618 kJ/mol
# GULP energy per Si atom -12402.049613 kJ/mol
# Density = 1.952739 g / cm^3
# Si number density = 19.571934 Si / 1000 Ang^3
#
#
#
# Elastic Constant Matrix: (Units=GPa)
#
#
# Indices 1 2 3 4 5 6 
#
# 1 155.8490 40.9616 86.9901 0.0000 5.6388 0.0000
# 2 40.9616 63.0815 33.1184 0.0000 -1.3668 0.0000
# 3 86.9901 33.1184 135.0216 0.0000 5.0027 0.0000
# 4 0.0000 0.0000 0.0000 16.9748 0.0000 0.0902
# 5 5.6388 -1.3668 5.0027 0.0000 25.5897 0.0000
# 6 0.0000 0.0000 0.0000 0.0902 0.0000 31.5665
#
#
#
# Elastic Compliance Matrix: (Units=1/GPa)
#
#
# Indices 1 2 3 4 5 6 
#
# 1 0.010828 -0.003934 -0.005958 0.000000 -0.001431 0.000000
# 2 -0.003934 0.019713 -0.002389 0.000000 0.002387 0.000000
# 3 -0.005958 -0.002389 0.011873 0.000000 -0.001136 0.000000
# 4 0.000000 0.000000 0.000000 0.058912 0.000000 -0.000168
# 5 -0.001431 0.002387 -0.001136 0.000000 0.039743 0.000000
# 6 0.000000 0.000000 0.000000 -0.000168 0.000000 0.031680
#
#
# Mechanical properties :
#
#
# Convention : Reuss Voigt Hill
#
# Bulk Modulus (GPa) = 56.01797 75.12135 65.56966
# Shear Modulus (GPa) = 24.59891 27.68501 26.14196
#
# Velocity S-wave (km/s) = 3.54905 3.76510 3.65867
# Velocity P-wave (km/s) = 6.74374 7.57409 7.17094
#
# Compressibility (1/GPa) = 0.01785142
#
# Stress axis : x y z
#
# Youngs Moduli (GPa) = 92.35475 50.72782 84.22526
#
# Poissons Ratio (x) = 0.19956 0.50182
# Poissons Ratio (y) = 0.36332 0.20123
# Poissons Ratio (z) = 0.55026 0.12120
#
# Static dielectric constant tensor:
#      x y z
#    x 3.720080 0.000000 0.035140 
#    y 0.000000 3.298470 0.000000 
#    z 0.035140 0.000000 3.637370 
# 
# 
# High freq. dielectric constant tensor:
#      x y z
#    x 1.773540 0.000000 0.001060 
#    y 0.000000 1.739740 0.000000 
#    z 0.001060 0.000000 1.757610 
# 
# From -- ./inp_files/375636.got.cif
#   From: 2010.06.25/outbox.cif.g09.slc.cpg/sg12_188_cif.got.tgz:375636.got - 2010.06.28 00:19:55.
