data_PCOD8098110
_publ_section_title
;
Structure prediction by ZEFSAII (Michael W. Deem and Ramdas Pophale) SiO2 
 PCOD8098110
Probable space group: C 2/M
;
_chemical_formula_sum "Si O2"
_cell_formula_units_Z 64
_cell_length_a 14.515763
_cell_length_b 9.167581
_cell_length_c 24.227000
_cell_angle_alpha 90.000000
_cell_angle_beta 89.596708
_cell_angle_gamma 90.000000
_cell_volume 3223.914425
_symmetry_space_group_name_H-M "C 2/M"
_symmetry_group_IT_number 12
_symmetry_cell_setting 'monoclinic'
loop_
_space_group_symop_operation_xyz
x,y,z
-x,y,-z
-x,-y,-z
x,-y,z
1/2+x,1/2+y,z
1/2-x,1/2+y,-z
1/2-x,1/2-y,-z
1/2+x,1/2-y,z
loop_
_atom_site_type_symbol
_atom_site_label
_atom_site_fract_x
_atom_site_fract_y
_atom_site_fract_z
Si Si1 0.618623 0.668224 0.346976
Si Si2 0.013546 0.829735 0.135155
Si Si3 0.131124 0.335508 0.454386
Si Si4 0.638462 0.668421 0.952522
Si Si5 0.650486 0.170110 0.061823
Si Si6 0.650396 0.334902 0.559562
Si Si7 0.033816 0.829777 0.741321
Si Si8 0.670184 0.171146 0.668191
O O1 0.611794 0.500000 0.364254
O O2 0.587865 0.760497 0.400485
O O3 0.553079 0.708241 0.296617
O O4 0.721876 0.707067 0.327607
O O5 0.102651 0.741444 0.115005
O O6 0.926609 0.788417 0.097724
O O7 0.991051 0.780380 0.197075
O O8 0.037016 0.000000 0.132214
O O9 0.093725 0.500000 0.459043
O O10 0.240824 0.333597 0.449717
O O11 0.100397 0.246871 0.508995
O O12 0.628078 0.500000 0.969243
O O13 0.741704 0.705448 0.933256
O O14 0.609448 0.760951 0.006040
O O15 0.629439 0.000000 0.060950
O O16 0.612878 0.500000 0.563822
O O17 0.624901 0.250351 0.615567
O O18 0.122109 0.736186 0.722664
O O19 0.059605 0.000000 0.738531
O O20 0.651392 0.000000 0.663278
#
# Coordination Sequence:
#
# PCOD8098110 Si02
#       8
#     8   8   8   8   8   8   8   8
#     4   9  19  36  55  75 104 140 174 214 267 320
#     4  10  21  37  56  77 106 145 182 217 261 313
#     4   9  16  27  48  78 106 133 170 215 263 317
#     4   9  19  36  56  80 112 146 176 211 262 318
#     4  10  20  34  55  84 113 140 175 219 263 309
#     4   9  16  28  49  76 105 137 171 210 263 324
#     4  10  22  39  56  76 104 141 184 221 258 313
#     4  10  20  35  55  78 105 137 174 220 269 313
#
# _framework density 19.851644
#
# number of rings (size 3 to 8) (size 9 to 14) (size 15 to 20)
#    0.000    2.500    0.000    1.875    0.000    8.000 
#    0.000    0.625    0.000    3.750    0.000    0.000 
#    0.000    0.000    0.000    0.000    0.000    0.000 
#
# Total GULP energy -396940.749944 kJ/mol
# GULP energy per Si atom -12404.398436 kJ/mol
# Density = 1.980646 g / cm^3
# Si number density = 19.851644 Si / 1000 Ang^3
#
#
#
# Elastic Constant Matrix: (Units=GPa)
#
#
# Indices 1 2 3 4 5 6 
#
# 1 41.5012 18.8456 23.1699 0.0000 -2.0038 0.0000
# 2 18.8456 81.7627 38.5810 0.0000 -5.7816 0.0000
# 3 23.1699 38.5810 115.8170 0.0000 -7.6048 0.0000
# 4 0.0000 0.0000 0.0000 34.9387 0.0000 -8.2854
# 5 -2.0038 -5.7816 -7.6048 0.0000 28.7953 0.0000
# 6 0.0000 0.0000 0.0000 -8.2854 0.0000 24.2805
#
#
#
# Elastic Compliance Matrix: (Units=1/GPa)
#
#
# Indices 1 2 3 4 5 6 
#
# 1 0.028515 -0.004606 -0.004173 0.000000 -0.000043 0.000000
# 2 -0.004606 0.015335 -0.004076 0.000000 0.001682 0.000000
# 3 -0.004173 -0.004076 0.010944 0.000000 0.001781 0.000000
# 4 0.000000 0.000000 0.000000 0.031142 0.000000 0.010627
# 5 -0.000043 0.001682 0.001781 0.000000 0.035533 0.000000
# 6 0.000000 0.000000 0.000000 0.010627 0.000000 0.044812
#
#
# Mechanical properties :
#
#
# Convention : Reuss Voigt Hill
#
# Bulk Modulus (GPa) = 34.38505 44.47489 39.42997
# Shear Modulus (GPa) = 24.79109 28.16853 26.47981
#
# Velocity S-wave (km/s) = 3.53770 3.77098 3.65620
# Velocity P-wave (km/s) = 5.83487 6.43527 6.14241
#
# Compressibility (1/GPa) = 0.02908241
#
# Stress axis : x y z
#
# Youngs Moduli (GPa) = 35.06911 65.21181 91.37426
#
# Poissons Ratio (x) = 0.30040 0.38130
# Poissons Ratio (y) = 0.16154 0.37247
# Poissons Ratio (z) = 0.14634 0.26582
#
# Static dielectric constant tensor:
#      x y z
#    x 3.494670 0.000000 -0.029110 
#    y 0.000000 3.628310 0.000000 
#    z -0.029110 0.000000 3.622450 
# 
# 
# High freq. dielectric constant tensor:
#      x y z
#    x 1.771250 0.000000 -0.004030 
#    y 0.000000 1.774740 0.000000 
#    z -0.004030 0.000000 1.770190 
# 
# From -- ./inp_files/338847.got.cif
#   From: 2010.06.25/outbox.cif.g09.slc.cpg/sg12_170_cif.got.tgz:338847.got - 2010.06.28 00:19:55.
