data_PCOD8098017
_publ_section_title
;
Structure prediction by ZEFSAII (Michael W. Deem and Ramdas Pophale) SiO2 
 PCOD8098017
Probable space group: C 2/M
;
_chemical_formula_sum "Si O2"
_cell_formula_units_Z 64
_cell_length_a 18.435331
_cell_length_b 13.193820
_cell_length_c 16.072541
_cell_angle_alpha 90.000000
_cell_angle_beta 124.152252
_cell_angle_gamma 90.000000
_cell_volume 3235.188573
_symmetry_space_group_name_H-M "C 2/M"
_symmetry_group_IT_number 12
_symmetry_cell_setting 'monoclinic'
loop_
_space_group_symop_operation_xyz
x,y,z
-x,y,-z
-x,-y,-z
x,-y,z
1/2+x,1/2+y,z
1/2-x,1/2+y,-z
1/2-x,1/2-y,-z
1/2+x,1/2-y,z
loop_
_atom_site_type_symbol
_atom_site_label
_atom_site_fract_x
_atom_site_fract_y
_atom_site_fract_z
Si Si1 0.332801 0.883394 0.685718
Si Si2 0.178933 0.739044 0.639016
Si Si3 0.030792 0.218301 0.196086
Si Si4 0.828787 0.886289 0.796213
Si Si5 0.362341 0.712759 0.986193
Si Si6 0.698524 0.115485 0.944819
Si Si7 0.405332 0.113168 0.554659
Si Si8 0.426512 0.790949 0.273734
O O1 0.240874 0.832750 0.653953
O O2 0.416524 0.825103 0.779005
O O3 0.339700 0.876334 0.590429
O O4 0.334615 0.000000 0.717286
O O5 0.233792 0.639251 0.699560
O O6 0.117640 0.702700 0.524235
O O7 0.120080 0.769805 0.681029
O O8 0.100783 0.126925 0.233236
O O9 0.981285 0.211001 0.252770
O O10 0.962725 0.203922 0.077367
O O11 0.855896 0.804817 0.883780
O O12 0.829271 0.000000 0.831768
O O13 0.301800 0.629476 0.993823
O O14 0.326949 0.824152 0.987917
O O15 0.645215 0.154485 0.830244
O O16 0.675703 0.000000 0.947517
O O17 0.506544 0.125959 0.646896
O O18 0.396411 0.000000 0.510566
#
# Coordination Sequence:
#
# PCOD8098017 Si02
#       8
#     8   8   8   8   8   8   8   8
#     4   9  20  40  61  82 114 154 190 233 289 343
#     4  11  21  35  59  87 118 148 190 236 285 340
#     4   9  21  37  56  79 111 146 189 234 281 338
#     4  11  22  37  58  83 115 152 188 236 292 340
#     4  10  20  34  55  82 110 146 192 235 283 336
#     4  10  20  35  56  83 117 153 187 232 292 344
#     4  10  20  34  58  90 117 147 191 237 286 340
#     4  10  20  36  57  83 119 154 183 237 289 335
#
# _framework density 19.782464000000001
#
# number of rings (size 3 to 8) (size 9 to 14) (size 15 to 20)
#    0.000    2.000    1.250    2.250    0.000    6.500 
#    0.000    3.125    0.000    7.500    0.000    0.000 
#    0.000    0.000    0.000    0.000    0.000    0.000 
#
# Total GULP energy -396695.680268 kJ/mol
# GULP energy per Si atom -12396.740008 kJ/mol
# Density = 1.973744 g / cm^3
# Si number density = 19.782464 Si / 1000 Ang^3
#
#
#
# Elastic Constant Matrix: (Units=GPa)
#
#
# Indices 1 2 3 4 5 6 
#
# 1 105.6187 35.7588 20.8987 0.0000 -7.3389 0.0000
# 2 35.7588 80.1279 41.2712 0.0000 -7.1700 0.0000
# 3 20.8987 41.2712 84.8830 0.0000 5.0517 0.0000
# 4 0.0000 0.0000 0.0000 21.8698 0.0000 -0.3873
# 5 -7.3389 -7.1700 5.0517 0.0000 29.0854 0.0000
# 6 0.0000 0.0000 0.0000 -0.3873 0.0000 15.4259
#
#
#
# Elastic Compliance Matrix: (Units=1/GPa)
#
#
# Indices 1 2 3 4 5 6 
#
# 1 0.011258 -0.004501 -0.000693 0.000000 0.001851 0.000000
# 2 -0.004501 0.019392 -0.008627 0.000000 0.005143 0.000000
# 3 -0.000693 -0.008627 0.016453 0.000000 -0.005159 0.000000
# 4 0.000000 0.000000 0.000000 0.045745 0.000000 0.001149
# 5 0.001851 0.005143 -0.005159 0.000000 0.037013 0.000000
# 6 0.000000 0.000000 0.000000 0.001149 0.000000 0.064855
#
#
# Mechanical properties :
#
#
# Convention : Reuss Voigt Hill
#
# Bulk Modulus (GPa) = 51.38560 51.83187 51.60874
# Shear Modulus (GPa) = 21.84882 24.78964 23.31923
#
# Velocity S-wave (km/s) = 3.32694 3.54377 3.43707
# Velocity P-wave (km/s) = 6.38668 6.55761 6.47271
#
# Compressibility (1/GPa) = 0.01946071
#
# Stress axis : x y z
#
# Youngs Moduli (GPa) = 88.82713 51.56682 60.77898
#
# Poissons Ratio (x) = 0.23211 0.04214
# Poissons Ratio (y) = 0.39983 0.52432
# Poissons Ratio (z) = 0.06159 0.44485
#
# Static dielectric constant tensor:
#      x y z
#    x 3.879850 0.000000 0.023610 
#    y 0.000000 3.314980 0.000000 
#    z 0.023610 0.000000 3.536870 
# 
# 
# High freq. dielectric constant tensor:
#      x y z
#    x 1.790320 0.000000 0.004730 
#    y 0.000000 1.738650 0.000000 
#    z 0.004730 0.000000 1.766230 
# 
# From -- ./inp_files/225335.got.cif
#   From: 2010.06.25/outbox.cif.g09.slc.cpg/sg12_113_cif.got.tgz:225335.got - 2010.06.28 00:19:55.
