data_PCOD8098096
_publ_section_title
;
Structure prediction by ZEFSAII (Michael W. Deem and Ramdas Pophale) SiO2 
 PCOD8098096
Probable space group: C 2/M
;
_chemical_formula_sum "Si O2"
_cell_formula_units_Z 64
_cell_length_a 29.872744
_cell_length_b 8.934699
_cell_length_c 25.185518
_cell_angle_alpha 90.000000
_cell_angle_beta 28.659152
_cell_angle_gamma 90.000000
_cell_volume 3223.913058
_symmetry_space_group_name_H-M "C 2/M"
_symmetry_group_IT_number 12
_symmetry_cell_setting 'monoclinic'
loop_
_space_group_symop_operation_xyz
x,y,z
-x,y,-z
-x,-y,-z
x,-y,z
1/2+x,1/2+y,z
1/2-x,1/2+y,-z
1/2-x,1/2-y,-z
1/2+x,1/2-y,z
loop_
_atom_site_type_symbol
_atom_site_label
_atom_site_fract_x
_atom_site_fract_y
_atom_site_fract_z
Si Si1 0.088242 0.171812 0.572368
Si Si2 0.649165 0.822567 0.611030
Si Si3 0.084862 0.826300 0.784535
Si Si4 0.872166 0.171302 0.012838
Si Si5 0.257673 0.172378 0.319040
Si Si6 0.094208 0.172412 0.297867
Si Si7 0.213003 0.675358 0.258465
Si Si8 0.759126 0.328627 0.046024
O O1 0.085254 0.274393 0.627773
O O2 0.187862 0.190442 0.440921
O O3 0.007746 0.224000 0.615549
O O4 0.070526 0.000000 0.607841
O O5 0.750000 0.750000 0.500000
O O6 0.599659 0.767123 0.715771
O O7 0.659990 0.000000 0.601932
O O8 0.149946 0.766365 0.763968
O O9 0.979934 0.802779 0.914810
O O10 0.106810 0.000000 0.750495
O O11 0.850660 0.000000 0.021155
O O12 0.808915 0.220632 0.128662
O O13 0.846896 0.265558 0.987151
O O14 0.209074 0.236490 0.317436
O O15 0.284246 0.000000 0.282259
O O16 0.123722 0.274216 0.316876
O O17 0.164080 0.198886 0.176628
O O18 0.094459 0.000000 0.316162
O O19 0.206692 0.500000 0.276378
O O20 0.779734 0.500000 0.013719
O O21 0.750000 0.250000 0.000000
#
# Coordination Sequence:
#
# PCOD8098096 Si02
#       8
#     8   8   8   8   8   8   8   8
#     4  10  22  40  61  86 118 157 199 241 290 350
#     4  12  24  39  60  87 121 158 196 241 295 348
#     4  11  23  40  62  87 118 155 198 245 294 351
#     4   9  21  40  60  83 114 155 196 239 295 353
#     4  11  23  39  61  87 117 154 198 244 295 354
#     4   9  20  39  60  83 114 154 196 239 292 349
#     4  10  21  40  63  86 117 153 195 247 297 348
#     4  10  20  34  55  83 115 151 193 241 291 348
#
# _framework density 19.851652000000001
#
# number of rings (size 3 to 8) (size 9 to 14) (size 15 to 20)
#    0.000    1.750    1.250    2.625    1.750    4.000 
#    0.000    5.000    0.000    0.000    0.000    0.000 
#    0.000    0.000    0.000    0.000    0.000    0.000 
#
# Total GULP energy -396976.042490 kJ/mol
# GULP energy per Si atom -12405.501328 kJ/mol
# Density = 1.980647 g / cm^3
# Si number density = 19.851652 Si / 1000 Ang^3
#
#
#
# Elastic Constant Matrix: (Units=GPa)
#
#
# Indices 1 2 3 4 5 6 
#
# 1 109.9836 51.1444 17.6872 0.0339 -3.9909 -0.0089
# 2 51.1444 110.2798 21.5631 0.0445 -0.1365 -0.0284
# 3 17.6872 21.5631 32.0585 0.0529 -12.3976 -0.0325
# 4 0.0339 0.0445 0.0529 27.5684 -0.0344 1.0295
# 5 -3.9909 -0.1365 -12.3976 -0.0344 37.1786 0.0156
# 6 -0.0089 -0.0284 -0.0325 1.0295 0.0156 43.6261
#
#
#
# Elastic Compliance Matrix: (Units=1/GPa)
#
#
# Indices 1 2 3 4 5 6 
#
# 1 0.011886 -0.004887 -0.003196 0.000000 0.000192 -0.000003
# 2 -0.004887 0.012682 -0.006910 -0.000005 -0.002782 0.000003
# 3 -0.003196 -0.006910 0.043008 -0.000051 0.013973 0.000023
# 4 0.000000 -0.000005 -0.000051 0.036306 0.000017 -0.000857
# 5 0.000192 -0.002782 0.013973 0.000017 0.031567 -0.000003
# 6 -0.000003 0.000003 0.000023 -0.000857 -0.000003 0.022942
#
#
# Mechanical properties :
#
#
# Convention : Reuss Voigt Hill
#
# Bulk Modulus (GPa) = 26.60322 48.12347 37.36335
# Shear Modulus (GPa) = 24.88729 32.46978 28.67854
#
# Velocity S-wave (km/s) = 3.54455 4.04867 3.80497
# Velocity P-wave (km/s) = 5.49381 6.79336 6.17785
#
# Compressibility (1/GPa) = 0.03758944
#
# Stress axis : x y z
#
# Youngs Moduli (GPa) = 84.13388 78.85222 23.25173
#
# Poissons Ratio (x) = 0.38536 0.07432
# Poissons Ratio (y) = 0.41117 0.16066
# Poissons Ratio (z) = 0.26890 0.54485
#
# Static dielectric constant tensor:
#      x y z
#    x 3.612860 0.004220 -0.188100 
#    y 0.004220 4.451030 0.003360 
#    z -0.188100 0.003360 3.517510 
# 
# 
# High freq. dielectric constant tensor:
#      x y z
#    x 1.782790 0.000000 -0.003980 
#    y 0.000000 1.779910 0.000010 
#    z -0.003980 0.000010 1.767160 
# 
# From -- ./inp_files/249764.got.cif
#   From: 2010.06.25/outbox.cif.g09.slc.cpg/sg12_125_cif.got.tgz:249764.got - 2010.06.28 00:19:55.
