data_PCOD8098974
_publ_section_title
;
Structure prediction by ZEFSAII (Michael W. Deem and Ramdas Pophale) SiO2 
 PCOD8098974
Probable space group: C 2/M
;
_chemical_formula_sum "Si O2"
_cell_formula_units_Z 48
_cell_length_a 12.190798
_cell_length_b 16.116454
_cell_length_c 12.010409
_cell_angle_alpha 90.000000
_cell_angle_beta 78.411626
_cell_angle_gamma 90.000000
_cell_volume 2311.613960
_symmetry_space_group_name_H-M "C 2/M"
_symmetry_group_IT_number 12
_symmetry_cell_setting 'monoclinic'
loop_
_space_group_symop_operation_xyz
x,y,z
-x,y,-z
-x,-y,-z
x,-y,z
1/2+x,1/2+y,z
1/2-x,1/2+y,-z
1/2-x,1/2-y,-z
1/2+x,1/2-y,z
loop_
_atom_site_type_symbol
_atom_site_label
_atom_site_fract_x
_atom_site_fract_y
_atom_site_fract_z
Si Si1 0.217679 0.403551 0.411076
Si Si2 0.345873 0.405820 0.813773
Si Si3 0.093137 0.902349 0.792779
Si Si4 0.317532 0.900778 0.337004
Si Si5 0.432877 0.901367 0.757323
Si Si6 0.750897 0.841394 0.048559
O O1 0.193864 0.500000 0.432113
O O2 0.341204 0.387571 0.336308
O O3 0.206336 0.362595 0.535632
O O4 0.124450 0.368612 0.345010
O O5 0.367181 0.500000 0.774817
O O6 0.468563 0.364657 0.802919
O O7 0.275264 0.362910 0.728351
O O8 0.275734 0.403008 0.941693
O O9 0.152395 0.852101 0.879337
O O10 0.093239 0.000000 0.824868
O O11 0.439050 0.871754 0.269146
O O12 0.312738 0.000000 0.337547
O O13 0.370684 0.861521 0.875900
O O14 0.419016 0.000000 0.769039
O O15 0.750000 0.750000 0.000000
#
# Coordination Sequence:
#
# PCOD8098974 Si02
#       6
#     8   8   8   8   8   8
#     4   8  14  27  52  84 110 134 171 217 264 315
#     4  10  20  35  54  79 111 143 177 219 268 321
#     4   9  18  35  59  81 105 141 182 221 263 319
#     4   9  17  29  50  84 115 136 166 214 271 324
#     4   9  17  32  54  79 109 144 178 216 264 321
#     4  11  22  36  52  76 102 139 187 231 269 312
#
# _framework density 20.764711999999999
#
# number of rings (size 3 to 8) (size 9 to 14) (size 15 to 20)
#    0.000    2.667    0.000    3.500    0.000    4.667 
#    6.000    5.833    0.000    4.000    8.667    0.000 
#    0.000    0.000    0.000    0.000    0.000    0.000 
#
# Total GULP energy -297521.438458 kJ/mol
# GULP energy per Si atom -12396.726602 kJ/mol
# Density = 2.071745 g / cm^3
# Si number density = 20.764712 Si / 1000 Ang^3
#
#
#
# Elastic Constant Matrix: (Units=GPa)
#
#
# Indices 1 2 3 4 5 6 
#
# 1 165.6395 32.7885 90.1591 0.0000 0.8507 0.0000
# 2 32.7885 30.1793 28.6869 0.0000 -2.9565 0.0000
# 3 90.1591 28.6869 154.1593 0.0000 -5.8805 0.0000
# 4 0.0000 0.0000 0.0000 9.6946 0.0000 -0.9699
# 5 0.8507 -2.9565 -5.8805 0.0000 24.9669 0.0000
# 6 0.0000 0.0000 0.0000 -0.9699 0.0000 10.9405
#
#
#
# Elastic Compliance Matrix: (Units=1/GPa)
#
#
# Indices 1 2 3 4 5 6 
#
# 1 0.009865 -0.006524 -0.004640 0.000000 -0.002201 0.000000
# 2 -0.006524 0.044798 -0.004349 0.000000 0.004503 0.000000
# 3 -0.004640 -0.004349 0.010087 0.000000 0.002019 0.000000
# 4 0.000000 0.000000 0.000000 0.104073 0.000000 0.009226
# 5 -0.002201 0.004503 0.002019 0.000000 0.041137 0.000000
# 6 0.000000 0.000000 0.000000 0.009226 0.000000 0.092222
#
#
# Mechanical properties :
#
#
# Convention : Reuss Voigt Hill
#
# Bulk Modulus (GPa) = 29.65156 72.58302 51.11729
# Shear Modulus (GPa) = 14.51597 22.34330 18.42964
#
# Velocity S-wave (km/s) = 2.64686 3.28384 2.98240
# Velocity P-wave (km/s) = 4.86333 7.02915 6.04404
#
# Compressibility (1/GPa) = 0.03372504
#
# Stress axis : x y z
#
# Youngs Moduli (GPa) = 101.36548 22.32227 99.14116
#
# Poissons Ratio (x) = 0.14562 0.45998
# Poissons Ratio (y) = 0.66127 0.43119
# Poissons Ratio (z) = 0.47030 0.09709
#
# Static dielectric constant tensor:
#      x y z
#    x 4.018350 0.000000 0.017890 
#    y 0.000000 3.152960 0.000000 
#    z 0.017890 0.000000 4.001140 
# 
# 
# High freq. dielectric constant tensor:
#      x y z
#    x 1.818370 0.000000 -0.003660 
#    y 0.000000 1.758730 0.000000 
#    z -0.003660 0.000000 1.823050 
# 
# From -- ./inp_files/131043.got.cif
#   From: 2010.06.25/outbox.cif.g09.slc.cpg/sg12_66_cif.got.tgz:131043.got - 2010.06.28 00:19:55.
