data_PCOD8098774
_publ_section_title
;
Structure prediction by ZEFSAII (Michael W. Deem and Ramdas Pophale) SiO2 
 PCOD8098774
Probable space group: C 2/M
;
_chemical_formula_sum "Si O2"
_cell_formula_units_Z 60
_cell_length_a 13.882170
_cell_length_b 10.207197
_cell_length_c 23.549916
_cell_angle_alpha 90.000000
_cell_angle_beta 108.053744
_cell_angle_gamma 90.000000
_cell_volume 3172.685097
_symmetry_space_group_name_H-M "C 2/M"
_symmetry_group_IT_number 12
_symmetry_cell_setting 'monoclinic'
loop_
_space_group_symop_operation_xyz
x,y,z
-x,y,-z
-x,-y,-z
x,-y,z
1/2+x,1/2+y,z
1/2-x,1/2+y,-z
1/2-x,1/2-y,-z
1/2+x,1/2-y,z
loop_
_atom_site_type_symbol
_atom_site_label
_atom_site_fract_x
_atom_site_fract_y
_atom_site_fract_z
Si Si1 0.000000 0.217021 0.000000
Si Si2 0.208978 0.647447 0.209985
Si Si3 0.449217 0.850206 0.403941
Si Si4 0.417023 0.354135 0.100731
Si Si5 0.578130 0.645311 0.698641
Si Si6 0.660782 0.849403 0.499433
Si Si7 0.698264 0.848239 0.077639
Si Si8 0.438730 0.348405 0.775698
O O1 0.101990 0.299375 0.025436
O O2 0.978708 0.134899 0.052918
O O3 0.169651 0.500000 0.216521
O O4 0.328331 0.656444 0.241401
O O5 0.184364 0.685348 0.140991
O O6 0.158629 0.754825 0.241596
O O7 0.415335 0.753659 0.348366
O O8 0.565274 0.821136 0.441514
O O9 0.373870 0.825094 0.442496
O O10 0.438673 0.000000 0.381166
O O11 0.395742 0.500000 0.119447
O O12 0.305808 0.284964 0.075582
O O13 0.485196 0.288749 0.162446
O O14 0.575375 0.500000 0.670018
O O15 0.480319 0.666034 0.719818
O O16 0.750000 0.750000 0.500000
O O17 0.697590 0.000000 0.498554
O O18 0.701682 0.000000 0.065699
O O19 0.409894 0.500000 0.783731
#
# Coordination Sequence:
#
# PCOD8098774 Si02
#       8
#     4   8   8   8   8   8   8   8
#     4  12  20  32  56  80 100 132 180 230 278 330
#     4  10  20  37  57  77 105 144 183 225 277 333
#     4   9  20  38  58  84 121 153 187 233 283 322
#     4  10  20  35  53  74 103 137 174 221 276 333
#     4  10  21  37  59  81 109 151 193 226 275 337
#     4   9  19  37  60  86 118 159 191 229 280 326
#     4  10  20  35  53  74 103 137 174 221 276 333
#     4  10  20  37  57  77 105 144 183 225 277 333
#
# _framework density 18.911425999999999
#
# number of rings (size 3 to 8) (size 9 to 14) (size 15 to 20)
#    0.000    2.133    2.667    1.600    0.000    3.200 
#    0.000    6.667    0.000    1.600    0.000    0.000 
#    0.000    0.000    0.000    0.000    0.000    0.000 
#
# Total GULP energy -371846.700473 kJ/mol
# GULP energy per Si atom -12394.890016 kJ/mol
# Density = 1.886838 g / cm^3
# Si number density = 18.911426 Si / 1000 Ang^3
#
#
#
# Elastic Constant Matrix: (Units=GPa)
#
#
# Indices 1 2 3 4 5 6 
#
# 1 96.2049 48.0565 6.8962 0.0000 -7.1428 0.0000
# 2 48.0565 88.7438 33.8045 0.0000 -7.9473 0.0000
# 3 6.8962 33.8045 65.5549 0.0000 -6.5115 0.0000
# 4 0.0000 0.0000 0.0000 24.1503 0.0000 0.5274
# 5 -7.1428 -7.9473 -6.5115 0.0000 18.1501 0.0000
# 6 0.0000 0.0000 0.0000 0.5274 0.0000 32.0189
#
#
#
# Elastic Compliance Matrix: (Units=1/GPa)
#
#
# Indices 1 2 3 4 5 6 
#
# 1 0.014934 -0.009119 0.003441 0.000000 0.003119 0.000000
# 2 -0.009119 0.019831 -0.009085 0.000000 0.001836 0.000000
# 3 0.003441 -0.009085 0.020030 0.000000 0.004562 0.000000
# 4 0.000000 0.000000 0.000000 0.041422 0.000000 -0.000682
# 5 0.003119 0.001836 0.004562 0.000000 0.058764 0.000000
# 6 0.000000 0.000000 0.000000 -0.000682 0.000000 0.031243
#
#
# Mechanical properties :
#
#
# Convention : Reuss Voigt Hill
#
# Bulk Modulus (GPa) = 39.57106 47.55758 43.56432
# Shear Modulus (GPa) = 22.30410 25.64693 23.97552
#
# Velocity S-wave (km/s) = 3.43796 3.68660 3.56445
# Velocity P-wave (km/s) = 6.06047 6.58206 6.32664
#
# Compressibility (1/GPa) = 0.02527099
#
# Stress axis : x y z
#
# Youngs Moduli (GPa) = 66.95955 50.42524 49.92435
#
# Poissons Ratio (x) = 0.45981 -0.17179
# Poissons Ratio (y) = 0.61058 0.45355
# Poissons Ratio (z) = -0.23040 0.45810
#
# Static dielectric constant tensor:
#      x y z
#    x 3.511500 0.000000 0.060940 
#    y 0.000000 3.297140 0.000000 
#    z 0.060940 0.000000 3.309060 
# 
# 
# High freq. dielectric constant tensor:
#      x y z
#    x 1.741480 0.000000 0.001040 
#    y 0.000000 1.719940 0.000000 
#    z 0.001040 0.000000 1.729480 
# 
# From -- ./inp_files/338951.got.cif
#   From: 2010.06.25/outbox.cif.g09.slc.cpg/sg12_170_cif.got.tgz:338951.got - 2010.06.28 00:19:55.
