data_PCOD8098049
_publ_section_title
;
Structure prediction by ZEFSAII (Michael W. Deem and Ramdas Pophale) SiO2 
 PCOD8098049
Probable space group: C 2/M
;
_chemical_formula_sum "Si O2"
_cell_formula_units_Z 64
_cell_length_a 27.871348
_cell_length_b 11.629957
_cell_length_c 15.498258
_cell_angle_alpha 90.000000
_cell_angle_beta 140.820363
_cell_angle_gamma 90.000000
_cell_volume 3173.707250
_symmetry_space_group_name_H-M "C 2/M"
_symmetry_group_IT_number 12
_symmetry_cell_setting 'monoclinic'
loop_
_space_group_symop_operation_xyz
x,y,z
-x,y,-z
-x,-y,-z
x,-y,z
1/2+x,1/2+y,z
1/2-x,1/2+y,-z
1/2-x,1/2-y,-z
1/2+x,1/2-y,z
loop_
_atom_site_type_symbol
_atom_site_label
_atom_site_fract_x
_atom_site_fract_y
_atom_site_fract_z
Si Si1 0.852676 0.680453 0.194442
Si Si2 0.946058 0.869394 0.006141
Si Si3 0.746407 0.126002 0.096461
Si Si4 0.010224 0.781088 0.419511
Si Si5 0.208059 0.262411 0.222426
Si Si6 0.950130 0.128426 0.700301
Si Si7 0.223856 0.861643 0.521030
Si Si8 0.654314 0.123745 0.628342
O O1 0.817178 0.807978 0.153030
O O2 0.829102 0.609735 0.246335
O O3 0.943267 0.689495 0.312125
O O4 0.822154 0.617798 0.067277
O O5 0.874893 0.790437 0.882773
O O6 0.918331 0.000000 0.988133
O O7 0.000000 0.869381 0.000000
O O8 0.992146 0.811434 0.151125
O O9 0.714455 0.180672 0.138294
O O10 0.777307 0.000000 0.161011
O O11 0.013814 0.869944 0.345656
O O12 0.088991 0.715087 0.523405
O O13 0.000000 0.840765 0.500000
O O14 0.225839 0.355700 0.321697
O O15 0.270184 0.161313 0.316700
O O16 0.863720 0.172701 0.582362
O O17 0.947600 0.000000 0.730900
O O18 0.250000 0.750000 0.500000
O O19 0.231263 0.000000 0.499100
O O20 0.629974 0.000000 0.557111
#
# Coordination Sequence:
#
# PCOD8098049 Si02
#       8
#     8   8   8   8   8   8   8   8
#     4   9  20  34  53  80 116 157 203 251 290 358
#     4  10  21  38  64  92 120 158 205 265 326 382
#     4  10  20  35  55  81 114 155 198 243 304 362
#     4  10  20  36  53  83 121 160 207 255 308 367
#     4  11  21  38  61  89 119 154 201 258 315 380
#     4  10  21  39  60  89 125 161 207 262 318 380
#     4  11  24  43  68  94 126 165 209 265 326 388
#     4  10  20  34  55  82 117 160 205 253 302 365
#
# _framework density 20.165690999999999
#
# number of rings (size 3 to 8) (size 9 to 14) (size 15 to 20)
#    0.000    1.875    1.250    2.625    0.000    5.500 
#    0.000    3.125    0.000    8.250    0.000    0.000 
#    0.000    0.000    0.000    0.000    0.000    0.000 
#
# Total GULP energy -396434.896300 kJ/mol
# GULP energy per Si atom -12388.590509 kJ/mol
# Density = 2.011979 g / cm^3
# Si number density = 20.165691 Si / 1000 Ang^3
#
#
#
# Elastic Constant Matrix: (Units=GPa)
#
#
# Indices 1 2 3 4 5 6 
#
# 1 87.4169 27.6082 32.4964 0.0000 2.1967 0.0000
# 2 27.6082 83.7319 15.7297 0.0000 3.0786 0.0000
# 3 32.4964 15.7297 113.9953 0.0000 4.1372 0.0000
# 4 0.0000 0.0000 0.0000 21.9370 0.0000 -0.5704
# 5 2.1967 3.0786 4.1372 0.0000 36.9508 0.0000
# 6 0.0000 0.0000 0.0000 -0.5704 0.0000 11.9615
#
#
#
# Elastic Compliance Matrix: (Units=1/GPa)
#
#
# Indices 1 2 3 4 5 6 
#
# 1 0.013968 -0.003956 -0.003432 0.000000 -0.000117 0.000000
# 2 -0.003956 0.013407 -0.000693 0.000000 -0.000804 0.000000
# 3 -0.003432 -0.000693 0.009877 0.000000 -0.000844 0.000000
# 4 0.000000 0.000000 0.000000 0.045642 0.000000 0.002176
# 5 -0.000117 -0.000804 -0.000844 0.000000 0.027231 0.000000
# 6 0.000000 0.000000 0.000000 0.002176 0.000000 0.083705
#
#
# Mechanical properties :
#
#
# Convention : Reuss Voigt Hill
#
# Bulk Modulus (GPa) = 47.41682 48.53476 47.97579
# Shear Modulus (GPa) = 23.03917 28.12384 25.58151
#
# Velocity S-wave (km/s) = 3.38375 3.73854 3.56556
# Velocity P-wave (km/s) = 6.23145 6.53879 6.38697
#
# Compressibility (1/GPa) = 0.02108956
#
# Stress axis : x y z
#
# Youngs Moduli (GPa) = 71.59453 74.58696 101.24776
#
# Poissons Ratio (x) = 0.29510 0.34744
# Poissons Ratio (y) = 0.28326 0.07016
# Poissons Ratio (z) = 0.24568 0.05168
#
# Static dielectric constant tensor:
#      x y z
#    x 3.611350 0.000000 -0.078150 
#    y 0.000000 3.628190 0.000000 
#    z -0.078150 0.000000 3.967250 
# 
# 
# High freq. dielectric constant tensor:
#      x y z
#    x 1.782440 0.000000 -0.002880 
#    y 0.000000 1.766620 0.000000 
#    z -0.002880 0.000000 1.802280 
# 
# From -- ./inp_files/245954.got.cif
#   From: 2010.06.25/outbox.cif.g09.slc.cpg/sg12_123_cif.got.tgz:245954.got - 2010.06.28 00:19:55.
