data_PCOD8098548
_publ_section_title
;
Structure prediction by ZEFSAII (Michael W. Deem and Ramdas Pophale) SiO2 
 PCOD8098548
Probable space group: C 2/M
;
_chemical_formula_sum "Si O2"
_cell_formula_units_Z 56
_cell_length_a 9.071908
_cell_length_b 27.582201
_cell_length_c 12.774334
_cell_angle_alpha 90.000000
_cell_angle_beta 59.635633
_cell_angle_gamma 90.000000
_cell_volume 2757.973951
_symmetry_space_group_name_H-M "C 2/M"
_symmetry_group_IT_number 12
_symmetry_cell_setting 'monoclinic'
loop_
_space_group_symop_operation_xyz
x,y,z
-x,y,-z
-x,-y,-z
x,-y,z
1/2+x,1/2+y,z
1/2-x,1/2+y,-z
1/2-x,1/2-y,-z
1/2+x,1/2-y,z
loop_
_atom_site_type_symbol
_atom_site_label
_atom_site_fract_x
_atom_site_fract_y
_atom_site_fract_z
Si Si1 0.376179 0.663598 0.951874
Si Si2 0.882356 0.396766 0.331698
Si Si3 0.019297 0.000000 0.327384
Si Si4 0.136859 0.227996 0.735200
Si Si5 0.614699 0.334655 0.552427
Si Si6 0.138545 0.099219 0.230588
Si Si7 0.213547 0.500000 0.580063
Si Si8 0.904485 0.311587 0.793867
O O1 0.472543 0.702895 0.846535
O O2 0.317770 0.619144 0.900112
O O3 0.500000 0.644698 0.000000
O O4 0.206199 0.687479 0.060672
O O5 0.768519 0.366200 0.452561
O O6 0.806360 0.400276 0.242255
O O7 0.904822 0.451590 0.368487
O O8 0.060573 0.366907 0.257914
O O9 0.062371 0.045959 0.240799
O O10 0.141918 0.000000 0.383814
O O11 0.819607 0.000000 0.433305
O O12 0.177320 0.209173 0.603561
O O13 0.306188 0.219982 0.742037
O O14 0.087552 0.285152 0.748231
O O15 0.500000 0.312562 0.500000
O O16 0.508196 0.370724 0.661483
#
# Coordination Sequence:
#
# PCOD8098548 Si02
#       8
#     8   8   4   8   8   8   4   8
#     4   9  20  40  58  78 112 157 199 245 287 347
#     4  10  20  34  57  89 122 152 190 243 295 350
#     4   9  14  28  58  92 115 146 197 240 287 349
#     4  10  23  40  59  83 115 156 201 243 290 352
#     4   9  18  34  57  85 119 152 190 238 291 347
#     4   9  17  32  58  88 115 149 195 244 291 343
#     4   9  16  32  57  89 123 153 190 236 287 353
#     4  11  24  39  58  86 118 157 199 244 295 340
#
# _framework density 20.304760999999999
#
# number of rings (size 3 to 8) (size 9 to 14) (size 15 to 20)
#    0.000    2.429    1.429    0.429    6.000    1.714 
#    0.000    1.071    0.000   11.143    0.000    0.000 
#    0.000    0.000    0.000    0.000    0.000    0.000 
#
# Total GULP energy -347121.393789 kJ/mol
# GULP energy per Si atom -12397.192635 kJ/mol
# Density = 2.025855 g / cm^3
# Si number density = 20.304761 Si / 1000 Ang^3
#
#
#
# Elastic Constant Matrix: (Units=GPa)
#
#
# Indices 1 2 3 4 5 6 
#
# 1 53.8870 34.9401 30.1085 0.0000 1.0453 0.0000
# 2 34.9401 115.8974 41.7459 0.0000 4.5616 0.0000
# 3 30.1085 41.7459 78.2945 0.0000 21.0678 0.0000
# 4 0.0000 0.0000 0.0000 12.5985 0.0000 8.9040
# 5 1.0453 4.5616 21.0678 0.0000 26.0035 0.0000
# 6 0.0000 0.0000 0.0000 8.9040 0.0000 19.3798
#
#
#
# Elastic Compliance Matrix: (Units=1/GPa)
#
#
# Indices 1 2 3 4 5 6 
#
# 1 0.027132 -0.004916 -0.009912 0.000000 0.007802 0.000000
# 2 -0.004916 0.011826 -0.005000 0.000000 0.002174 0.000000
# 3 -0.009912 -0.005000 0.024177 0.000000 -0.018313 0.000000
# 4 0.000000 0.000000 0.000000 0.117542 0.000000 -0.054004
# 5 0.007802 0.002174 -0.018313 0.000000 0.052598 0.000000
# 6 0.000000 0.000000 0.000000 -0.054004 0.000000 0.076412
#
#
# Mechanical properties :
#
#
# Convention : Reuss Voigt Hill
#
# Bulk Modulus (GPa) = 42.59076 51.29642 46.94359
# Shear Modulus (GPa) = 13.99896 21.01535 17.50715
#
# Velocity S-wave (km/s) = 2.62857 3.22063 2.93954
# Velocity P-wave (km/s) = 5.49853 6.25684 5.88990
#
# Compressibility (1/GPa) = 0.02347927
#
# Stress axis : x y z
#
# Youngs Moduli (GPa) = 36.85714 84.56068 41.36110
#
# Poissons Ratio (x) = 0.41574 0.40996
# Poissons Ratio (y) = 0.18121 0.20679
# Poissons Ratio (z) = 0.36531 0.42278
#
# Static dielectric constant tensor:
#      x y z
#    x 3.398130 0.000000 0.124450 
#    y 0.000000 3.828020 0.000000 
#    z 0.124450 0.000000 3.827630 
# 
# 
# High freq. dielectric constant tensor:
#      x y z
#    x 1.761620 0.000000 0.002320 
#    y 0.000000 1.791180 0.000000 
#    z 0.002320 0.000000 1.792890 
# 
# From -- ./inp_files/125680.got.cif
#   From: 2010.06.25/outbox.cif.g09.slc.cpg/sg12_63_cif.got.tgz:125680.got - 2010.06.28 00:19:55.
