data_PCOD8098445
_publ_section_title
;
Structure prediction by ZEFSAII (Michael W. Deem and Ramdas Pophale) SiO2 
 PCOD8098445
Probable space group: C 2/M
;
_chemical_formula_sum "Si O2"
_cell_formula_units_Z 48
_cell_length_a 23.721280
_cell_length_b 9.217054
_cell_length_c 14.981345
_cell_angle_alpha 90.000000
_cell_angle_beta 128.727119
_cell_angle_gamma 90.000000
_cell_volume 2555.350489
_symmetry_space_group_name_H-M "C 2/M"
_symmetry_group_IT_number 12
_symmetry_cell_setting 'monoclinic'
loop_
_space_group_symop_operation_xyz
x,y,z
-x,y,-z
-x,-y,-z
x,-y,z
1/2+x,1/2+y,z
1/2-x,1/2+y,-z
1/2-x,1/2-y,-z
1/2+x,1/2-y,z
loop_
_atom_site_type_symbol
_atom_site_label
_atom_site_fract_x
_atom_site_fract_y
_atom_site_fract_z
Si Si1 0.822034 0.331866 0.214038
Si Si2 0.154282 0.334260 0.560563
Si Si3 0.074524 0.829208 0.334147
Si Si4 0.178447 0.667565 0.101928
Si Si5 0.571492 0.833256 0.835674
Si Si6 0.319124 0.330865 0.718035
O O1 0.801207 0.500000 0.179883
O O2 0.857265 0.306421 0.345872
O O3 0.749360 0.240371 0.130201
O O4 0.878928 0.279189 0.196906
O O5 0.137164 0.500000 0.518505
O O6 0.098478 0.233194 0.453193
O O7 0.236031 0.293300 0.614282
O O8 0.133737 0.783549 0.319600
O O9 0.998638 0.765367 0.228795
O O10 0.067166 0.000000 0.335684
O O11 0.195936 0.500000 0.137096
O O12 0.154089 0.741549 0.169909
O O13 0.112884 0.687492 0.969153
O O14 0.548851 0.000000 0.798294
O O15 0.327544 0.500000 0.749701
#
# Coordination Sequence:
#
# PCOD8098445 Si02
#       6
#     8   8   8   8   8   8
#     4   9  19  37  59  80 106 142 178 213 262 323
#     4   9  18  35  58  79 102 137 178 219 265 318
#     4  11  23  36  53  79 109 142 180 222 265 310
#     4  10  20  34  57  85 107 134 177 226 266 304
#     4  10  22  38  54  77 111 147 178 211 262 323
#     4   9  20  38  57  78 106 142 179 215 266 324
#
# _framework density 18.784115
#
# number of rings (size 3 to 8) (size 9 to 14) (size 15 to 20)
#    0.000    2.333    0.000    3.000    0.000    7.333 
#    0.000    6.667    0.000    0.000    0.000    0.000 
#    0.000    0.000    0.000    0.000    0.000    0.000 
#
# Total GULP energy -297703.865429 kJ/mol
# GULP energy per Si atom -12404.327726 kJ/mol
# Density = 1.874136 g / cm^3
# Si number density = 18.784115 Si / 1000 Ang^3
#
#
#
# Elastic Constant Matrix: (Units=GPa)
#
#
# Indices 1 2 3 4 5 6 
#
# 1 36.7193 26.0540 25.0854 0.0000 -1.0550 0.0000
# 2 26.0540 77.0214 49.3931 0.0000 2.8953 0.0000
# 3 25.0854 49.3931 94.1076 0.0000 2.0066 0.0000
# 4 0.0000 0.0000 0.0000 36.4232 0.0000 2.3229
# 5 -1.0550 2.8953 2.0066 0.0000 20.3805 0.0000
# 6 0.0000 0.0000 0.0000 2.3229 0.0000 28.0983
#
#
#
# Elastic Compliance Matrix: (Units=1/GPa)
#
#
# Indices 1 2 3 4 5 6 
#
# 1 0.037631 -0.009629 -0.005059 0.000000 0.003814 0.000000
# 2 -0.009629 0.022099 -0.008973 0.000000 -0.002754 0.000000
# 3 -0.005059 -0.008973 0.016698 0.000000 -0.000631 0.000000
# 4 0.000000 0.000000 0.000000 0.027601 0.000000 -0.002282
# 5 0.003814 -0.002754 -0.000631 0.000000 0.049717 0.000000
# 6 0.000000 0.000000 0.000000 -0.002282 0.000000 0.035778
#
#
# Mechanical properties :
#
#
# Convention : Reuss Voigt Hill
#
# Bulk Modulus (GPa) = 34.35694 45.43479 39.89587
# Shear Modulus (GPa) = 20.28016 24.13479 22.20748
#
# Velocity S-wave (km/s) = 3.28936 3.58837 3.44211
# Velocity P-wave (km/s) = 5.72334 6.43498 6.08956
#
# Compressibility (1/GPa) = 0.02910620
#
# Stress axis : x y z
#
# Youngs Moduli (GPa) = 26.57372 45.25193 59.88872
#
# Poissons Ratio (x) = 0.43572 0.30295
# Poissons Ratio (y) = 0.25587 0.53739
# Poissons Ratio (z) = 0.13442 0.40605
#
# Static dielectric constant tensor:
#      x y z
#    x 3.514430 0.000000 -0.104320 
#    y 0.000000 3.430660 0.000000 
#    z -0.104320 0.000000 3.331810 
# 
# 
# High freq. dielectric constant tensor:
#      x y z
#    x 1.729840 0.000000 -0.008460 
#    y 0.000000 1.729710 0.000000 
#    z -0.008460 0.000000 1.731980 
# 
# From -- ./inp_files/244895.got.cif
#   From: 2010.06.25/outbox.cif.g09.slc.cpg/sg12_123_cif.got.tgz:244895.got - 2010.06.28 00:19:55.
