data_PCOD8098797
_publ_section_title
;
Structure prediction by ZEFSAII (Michael W. Deem and Ramdas Pophale) SiO2 
 PCOD8098797
Probable space group: C 2/M
;
_chemical_formula_sum "Si O2"
_cell_formula_units_Z 56
_cell_length_a 23.978031
_cell_length_b 8.791309
_cell_length_c 15.887664
_cell_angle_alpha 90.000000
_cell_angle_beta 123.200249
_cell_angle_gamma 90.000000
_cell_volume 2802.392899
_symmetry_space_group_name_H-M "C 2/M"
_symmetry_group_IT_number 12
_symmetry_cell_setting 'monoclinic'
loop_
_space_group_symop_operation_xyz
x,y,z
-x,y,-z
-x,-y,-z
x,-y,z
1/2+x,1/2+y,z
1/2-x,1/2+y,-z
1/2-x,1/2-y,-z
1/2+x,1/2-y,z
loop_
_atom_site_type_symbol
_atom_site_label
_atom_site_fract_x
_atom_site_fract_y
_atom_site_fract_z
Si Si1 0.945810 0.822032 0.386430
Si Si2 0.452174 0.678738 0.201005
Si Si3 0.676015 0.179348 0.635365
Si Si4 0.316745 0.319307 0.823222
Si Si5 0.315313 0.318778 0.012582
Si Si6 0.320150 0.679870 0.536308
Si Si7 0.414097 0.681040 0.763027
O O1 0.971256 0.784415 0.313432
O O2 0.878269 0.726211 0.340446
O O3 0.000000 0.768562 0.500000
O O4 0.929867 0.000000 0.384120
O O5 0.448322 0.500000 0.184000
O O6 0.510599 0.744178 0.188119
O O7 0.380202 0.745394 0.115432
O O8 0.748191 0.239128 0.724865
O O9 0.654252 0.262321 0.532103
O O10 0.676817 0.000000 0.621975
O O11 0.316792 0.500000 0.822917
O O12 0.321899 0.258736 0.922394
O O13 0.379804 0.257626 0.820716
O O14 0.309787 0.500000 0.011832
O O15 0.250000 0.250000 0.000000
O O16 0.314336 0.500000 0.530900
O O17 0.250000 0.750000 0.500000
O O18 0.371575 0.737726 0.648585
O O19 0.415094 0.500000 0.765690
#
# Coordination Sequence:
#
# PCOD8098797 Si02
#       7
#     8   8   8   8   8   8   8
#     4  10  20  35  53  76 106 142 182 223 272 325
#     4   9  18  32  53  80 106 136 180 224 265 320
#     4  11  21  34  52  78 109 142 181 222 267 323
#     4   9  18  32  51  78 108 136 171 219 273 317
#     4  10  20  35  56  80 105 135 176 224 269 319
#     4  11  20  33  54  79 111 147 179 217 266 317
#     4   9  17  32  53  78 109 139 171 219 270 315
#
# _framework density 19.982921999999999
#
# number of rings (size 3 to 8) (size 9 to 14) (size 15 to 20)
#    0.000    2.143    1.429    2.571    0.000    3.143 
#    0.000    3.571    0.000    1.714    0.000    1.000 
#    0.000    0.000    0.000    0.000    0.000    0.000 
#
# Total GULP energy -347145.057508 kJ/mol
# GULP energy per Si atom -12398.037768 kJ/mol
# Density = 1.993744 g / cm^3
# Si number density = 19.982922 Si / 1000 Ang^3
#
#
#
# Elastic Constant Matrix: (Units=GPa)
#
#
# Indices 1 2 3 4 5 6 
#
# 1 186.2215 18.2914 81.3594 0.0000 4.6160 0.0000
# 2 18.2914 27.9291 18.3050 0.0000 0.3623 0.0000
# 3 81.3594 18.3050 144.3442 0.0000 -4.7503 0.0000
# 4 0.0000 0.0000 0.0000 17.1071 0.0000 -0.2008
# 5 4.6160 0.3623 -4.7503 0.0000 36.5878 0.0000
# 6 0.0000 0.0000 0.0000 -0.2008 0.0000 29.9192
#
#
#
# Elastic Compliance Matrix: (Units=1/GPa)
#
#
# Indices 1 2 3 4 5 6 
#
# 1 0.007324 -0.002228 -0.003892 0.000000 -0.001407 0.000000
# 2 -0.002228 0.039767 -0.003807 0.000000 -0.000607 0.000000
# 3 -0.003892 -0.003807 0.009663 0.000000 0.001783 0.000000
# 4 0.000000 0.000000 0.000000 0.058460 0.000000 0.000392
# 5 -0.001407 -0.000607 0.001783 0.000000 0.027747 0.000000
# 6 0.000000 0.000000 0.000000 0.000392 0.000000 0.033426
#
#
# Mechanical properties :
#
#
# Convention : Reuss Voigt Hill
#
# Bulk Modulus (GPa) = 27.10013 66.04515 46.57264
# Shear Modulus (GPa) = 23.97611 32.75875 28.36743
#
# Velocity S-wave (km/s) = 3.46761 4.05327 3.77182
# Velocity P-wave (km/s) = 5.44275 7.41807 6.50582
#
# Compressibility (1/GPa) = 0.03690019
#
# Stress axis : x y z
#
# Youngs Moduli (GPa) = 136.53687 25.14641 103.48599
#
# Poissons Ratio (x) = 0.05601 0.40277
# Poissons Ratio (y) = 0.30414 0.39402
# Poissons Ratio (z) = 0.53140 0.09574
#
# Static dielectric constant tensor:
#      x y z
#    x 3.950490 0.000000 -0.072280 
#    y 0.000000 3.160690 0.000000 
#    z -0.072280 0.000000 3.959500 
# 
# 
# High freq. dielectric constant tensor:
#      x y z
#    x 1.799730 0.000000 -0.003410 
#    y 0.000000 1.726550 0.000000 
#    z -0.003410 0.000000 1.783900 
# 
# From -- ./inp_files/238980.got.cif
#   From: 2010.06.25/outbox.cif.g09.slc.cpg/sg12_120_cif.got.tgz:238980.got - 2010.06.28 00:19:55.
