data_PCOD8098551
_publ_section_title
;
Structure prediction by ZEFSAII (Michael W. Deem and Ramdas Pophale) SiO2 
 PCOD8098551
Probable space group: C 2/M
;
_chemical_formula_sum "Si O2"
_cell_formula_units_Z 44
_cell_length_a 24.599681
_cell_length_b 17.753611
_cell_length_c 14.273737
_cell_angle_alpha 90.000000
_cell_angle_beta 160.098259
_cell_angle_gamma 90.000000
_cell_volume 2122.041041
_symmetry_space_group_name_H-M "C 2/M"
_symmetry_group_IT_number 12
_symmetry_cell_setting 'monoclinic'
loop_
_space_group_symop_operation_xyz
x,y,z
-x,y,-z
-x,-y,-z
x,-y,z
1/2+x,1/2+y,z
1/2-x,1/2+y,-z
1/2-x,1/2-y,-z
1/2+x,1/2-y,z
loop_
_atom_site_type_symbol
_atom_site_label
_atom_site_fract_x
_atom_site_fract_y
_atom_site_fract_z
Si Si1 0.000000 0.360330 0.500000
Si Si2 0.389263 0.181493 0.515292
Si Si3 0.182317 0.915832 0.906371
Si Si4 0.929741 0.087177 0.987570
Si Si5 0.330700 0.086910 0.953967
Si Si6 0.905481 0.851207 0.570933
O O1 0.954864 0.308506 0.515656
O O2 0.852639 0.413733 0.234297
O O3 0.223013 0.138347 0.242158
O O4 0.366510 0.263563 0.522738
O O5 0.510249 0.135696 0.776877
O O6 0.205068 0.895867 0.833908
O O7 0.060779 0.857715 0.756122
O O8 0.111706 0.000000 0.803498
O O9 0.881877 0.000000 0.922713
O O10 0.000000 0.103582 0.000000
O O11 0.064973 0.109444 0.281678
O O12 0.247455 0.108145 0.721864
O O13 0.382435 0.000000 0.038645
#
# Coordination Sequence:
#
# PCOD8098551 Si02
#       6
#     4   8   8   8   8   8
#     4  10  21  34  62  92 133 166 206 250 305 374
#     4  11  24  40  63  95 131 166 204 254 317 373
#     4  10  20  34  57  89 128 171 209 247 303 373
#     4  11  25  47  71  90 117 166 223 264 302 368
#     4  10  22  37  58  90 130 167 204 251 309 374
#     4  12  23  38  63  93 128 164 203 263 313 370
#
# _framework density 20.734755
#
# number of rings (size 3 to 8) (size 9 to 14) (size 15 to 20)
#    0.000    1.273    1.818    4.091    2.545    5.091 
#    0.000    0.909    0.000    3.273    0.000    0.000 
#    0.000    0.000    0.000    0.000    0.000    0.000 
#
# Total GULP energy -272912.243848 kJ/mol
# GULP energy per Si atom -12405.101993 kJ/mol
# Density = 2.068756 g / cm^3
# Si number density = 20.734755 Si / 1000 Ang^3
#
#
#
# Elastic Constant Matrix: (Units=GPa)
#
#
# Indices 1 2 3 4 5 6 
#
# 1 87.8589 29.1725 41.4721 0.0000 -26.1486 0.0000
# 2 29.1725 98.6563 22.8602 0.0000 -8.2598 0.0000
# 3 41.4721 22.8602 93.9048 0.0000 -29.2962 0.0000
# 4 0.0000 0.0000 0.0000 -15.1741 0.0000 3.9046
# 5 -26.1486 -8.2598 -29.2962 0.0000 31.6384 0.0000
# 6 0.0000 0.0000 0.0000 3.9046 0.0000 12.4918
#
#
#
# Elastic Compliance Matrix: (Units=1/GPa)
#
#
# Indices 1 2 3 4 5 6 
#
# 1 0.017199 -0.003404 -0.003670 0.000000 0.009928 0.000000
# 2 -0.003404 0.011422 -0.001722 0.000000 -0.001426 0.000000
# 3 -0.003670 -0.001722 0.016316 0.000000 0.011625 0.000000
# 4 0.000000 0.000000 0.000000 -0.060996 0.000000 0.019065
# 5 0.009928 -0.001426 0.011625 0.000000 0.050205 0.000000
# 6 0.000000 0.000000 0.000000 0.019065 0.000000 0.074093
#
#
# Mechanical properties :
#
#
# Convention : Reuss Voigt Hill
#
# Bulk Modulus (GPa) = 36.56955 51.93662 44.25309
# Shear Modulus (GPa) = 37.05156 18.25225 27.65190
#
# Velocity S-wave (km/s) = 4.23180 2.97016 3.65581
# Velocity P-wave (km/s) = 6.44613 6.07165 6.26169
#
# Compressibility (1/GPa) = 0.02734515
#
# Stress axis : x y z
#
# Youngs Moduli (GPa) = 58.14198 87.54663 61.28978
#
# Poissons Ratio (x) = 0.29803 0.22492
# Poissons Ratio (y) = 0.19793 0.10555
# Poissons Ratio (z) = 0.21337 0.15077
#
# Static dielectric constant tensor:
#      x y z
#    x 3.712330 0.000000 -0.243640 
#    y 0.000000 3.625800 0.000000 
#    z -0.243640 0.000000 3.792820 
# 
# 
# High freq. dielectric constant tensor:
#      x y z
#    x 1.791490 0.000000 -0.025160 
#    y 0.000000 1.813270 0.000000 
#    z -0.025160 0.000000 1.818030 
# 
# From -- ./inp_files/241554.got.cif
#   From: 2010.06.25/outbox.cif.g09.slc.cpg/sg12_121_cif.got.tgz:241554.got - 2010.06.28 00:19:55.
