data_PCOD8098063
_publ_section_title
;
Structure prediction by ZEFSAII (Michael W. Deem and Ramdas Pophale) SiO2 
 PCOD8098063
Probable space group: C 2/M
;
_chemical_formula_sum "Si O2"
_cell_formula_units_Z 64
_cell_length_a 18.584815
_cell_length_b 9.140972
_cell_length_c 29.769272
_cell_angle_alpha 90.000000
_cell_angle_beta 137.498476
_cell_angle_gamma 90.000000
_cell_volume 3416.762464
_symmetry_space_group_name_H-M "C 2/M"
_symmetry_group_IT_number 12
_symmetry_cell_setting 'monoclinic'
loop_
_space_group_symop_operation_xyz
x,y,z
-x,y,-z
-x,-y,-z
x,-y,z
1/2+x,1/2+y,z
1/2-x,1/2+y,-z
1/2-x,1/2-y,-z
1/2+x,1/2-y,z
loop_
_atom_site_type_symbol
_atom_site_label
_atom_site_fract_x
_atom_site_fract_y
_atom_site_fract_z
Si Si1 0.420719 0.831458 0.370953
Si Si2 0.714487 0.834065 0.777158
Si Si3 0.885540 0.828183 0.190246
Si Si4 0.925562 0.165053 0.827248
Si Si5 0.160530 0.831745 0.931675
Si Si6 0.091830 0.333102 0.269082
Si Si7 0.838160 0.670038 0.510319
Si Si8 0.824519 0.830742 0.410873
O O1 0.349843 0.779201 0.296177
O O2 0.544473 0.813449 0.413791
O O3 0.391885 0.733329 0.400564
O O4 0.394426 0.000000 0.370851
O O5 0.695563 0.728838 0.810093
O O6 0.841433 0.823547 0.828540
O O7 0.680057 0.000000 0.772722
O O8 0.841900 0.780926 0.121341
O O9 0.000576 0.757427 0.252417
O O10 0.897746 0.000000 0.199956
O O11 0.887559 0.273630 0.771151
O O12 0.044215 0.203191 0.899531
O O13 0.928142 0.000000 0.808107
O O14 0.190190 0.000000 0.948924
O O15 0.250000 0.750000 0.000000
O O16 0.054753 0.500000 0.248728
O O17 0.198894 0.315753 0.346256
O O18 0.805820 0.500000 0.491378
O O19 0.750000 0.750000 0.500000
O O20 0.850031 0.740234 0.466932
O O21 0.857512 0.000000 0.432174
#
# Coordination Sequence:
#
# PCOD8098063 Si02
#       8
#     8   8   8   8   8   8   8   8
#     4  10  22  40  61  83 110 148 191 234 286 342
#     4  10  20  36  59  85 115 148 184 235 289 334
#     4  10  22  37  55  83 118 150 187 232 280 332
#     4   9  18  35  58  84 114 146 184 228 275 329
#     4   9  19  36  58  84 113 149 190 227 269 329
#     4  10  20  34  55  83 111 144 188 232 276 333
#     4  11  25  42  59  82 113 149 191 239 289 343
#     4  11  23  38  59  85 113 146 190 235 283 345
#
# _framework density 18.731183000000001
#
# number of rings (size 3 to 8) (size 9 to 14) (size 15 to 20)
#    0.000    2.000    1.250    2.625    1.750    7.500 
#    0.000    0.625    0.000    3.750    0.000    0.000 
#    0.000    0.000    0.000    0.000    0.000    0.000 
#
# Total GULP energy -396826.729159 kJ/mol
# GULP energy per Si atom -12400.835286 kJ/mol
# Density = 1.868855 g / cm^3
# Si number density = 18.731183 Si / 1000 Ang^3
#
#
#
# Elastic Constant Matrix: (Units=GPa)
#
#
# Indices 1 2 3 4 5 6 
#
# 1 124.3621 56.7039 50.7652 0.0000 7.1429 0.0000
# 2 56.7039 98.2239 48.6378 0.0001 2.4908 -0.0001
# 3 50.7652 48.6378 100.0698 0.0000 12.9889 0.0000
# 4 0.0000 0.0001 0.0000 30.2693 0.0000 -1.2681
# 5 7.1429 2.4908 12.9889 0.0000 21.0828 0.0000
# 6 0.0000 -0.0001 0.0000 -1.2681 0.0000 38.7317
#
#
#
# Elastic Compliance Matrix: (Units=1/GPa)
#
#
# Indices 1 2 3 4 5 6 
#
# 1 0.011820 -0.005145 -0.003320 0.000000 -0.001351 0.000000
# 2 -0.005145 0.015784 -0.005484 0.000000 0.003257 0.000000
# 3 -0.003320 -0.005484 0.015339 0.000000 -0.007678 0.000000
# 4 0.000000 0.000000 0.000000 0.033082 0.000000 0.001083
# 5 -0.001351 0.003257 -0.007678 0.000000 0.052235 0.000000
# 6 0.000000 0.000000 0.000000 0.001083 0.000000 0.025854
#
#
# Mechanical properties :
#
#
# Convention : Reuss Voigt Hill
#
# Bulk Modulus (GPa) = 66.47045 70.54107 68.50576
# Shear Modulus (GPa) = 26.73379 29.12002 27.92690
#
# Velocity S-wave (km/s) = 3.78197 3.94715 3.86545
# Velocity P-wave (km/s) = 7.39153 7.64950 7.52162
#
# Compressibility (1/GPa) = 0.01504428
#
# Stress axis : x y z
#
# Youngs Moduli (GPa) = 84.60271 63.35420 65.19149
#
# Poissons Ratio (x) = 0.32598 0.21644
# Poissons Ratio (y) = 0.43531 0.35753
# Poissons Ratio (z) = 0.28088 0.34746
#
# Static dielectric constant tensor:
#      x y z
#    x 3.465770 0.000000 0.152910 
#    y 0.000000 3.555700 0.000000 
#    z 0.152910 0.000000 3.370700 
# 
# 
# High freq. dielectric constant tensor:
#      x y z
#    x 1.728760 0.000000 0.015650 
#    y 0.000000 1.733880 0.000000 
#    z 0.015650 0.000000 1.718000 
# 
# From -- ./inp_files/378442.got.cif
#   From: 2010.06.25/outbox.cif.g09.slc.cpg/sg12_190_cif.got.tgz:378442.got - 2010.06.28 00:19:55.
