data_PCOD8098122
_publ_section_title
;
Structure prediction by ZEFSAII (Michael W. Deem and Ramdas Pophale) SiO2 
 PCOD8098122
Probable space group: C 2/M
;
_chemical_formula_sum "Si O2"
_cell_formula_units_Z 64
_cell_length_a 15.454868
_cell_length_b 8.647062
_cell_length_c 31.013073
_cell_angle_alpha 90.000000
_cell_angle_beta 128.621608
_cell_angle_gamma 90.000000
_cell_volume 3238.084923
_symmetry_space_group_name_H-M "C 2/M"
_symmetry_group_IT_number 12
_symmetry_cell_setting 'monoclinic'
loop_
_space_group_symop_operation_xyz
x,y,z
-x,y,-z
-x,-y,-z
x,-y,z
1/2+x,1/2+y,z
1/2-x,1/2+y,-z
1/2-x,1/2-y,-z
1/2+x,1/2-y,z
loop_
_atom_site_type_symbol
_atom_site_label
_atom_site_fract_x
_atom_site_fract_y
_atom_site_fract_z
Si Si1 0.918521 0.316934 0.062532
Si Si2 0.700451 0.669857 0.443125
Si Si3 0.680350 0.316616 0.741480
Si Si4 0.245483 0.185708 0.324526
Si Si5 0.437314 0.182369 0.670126
Si Si6 0.403137 0.830667 0.443580
Si Si7 0.760963 0.683056 0.937200
Si Si8 0.665662 0.816586 0.132183
O O1 0.918476 0.500000 0.065625
O O2 0.857108 0.250172 0.085260
O O3 0.042604 0.249548 0.101194
O O4 0.856964 0.261252 0.999831
O O5 0.652761 0.500000 0.440438
O O6 0.750000 0.750000 0.500000
O O7 0.605053 0.770914 0.390859
O O8 0.797518 0.648976 0.439931
O O9 0.664060 0.500000 0.734138
O O10 0.745686 0.258537 0.719715
O O11 0.563328 0.235611 0.712328
O O12 0.755467 0.263198 0.804756
O O13 0.133308 0.240100 0.313327
O O14 0.355991 0.246382 0.385046
O O15 0.244828 0.000000 0.322423
O O16 0.428584 0.000000 0.672670
O O17 0.500000 0.736872 0.500000
O O18 0.453146 0.000000 0.447412
O O19 0.752962 0.500000 0.934118
O O20 0.787592 0.749861 0.898235
O O21 0.659158 0.000000 0.127463
#
# Coordination Sequence:
#
# PCOD8098122 Si02
#       8
#     8   8   8   8   8   8   8   8
#     4   9  17  32  55  82 112 147 187 230 282 338
#     4  10  20  34  55  84 115 145 180 228 286 345
#     4  11  23  39  59  84 115 152 197 243 292 348
#     4  10  21  39  61  84 113 147 188 236 290 350
#     4  11  23  41  61  81 112 153 196 241 290 343
#     4   8  16  31  52  78 105 135 170 214 272 333
#     4   9  17  32  55  82 112 148 188 230 279 335
#     4   9  19  35  55  80 110 148 190 233 280 337
#
# _framework density 19.764769000000001
#
# number of rings (size 3 to 8) (size 9 to 14) (size 15 to 20)
#    0.000    2.375    0.000    3.375    1.750    2.500 
#    0.000    5.625    0.000    5.250    0.000    0.000 
#    0.000    0.000    0.000    0.000    0.000    0.000 
#
# Total GULP energy -396638.528972 kJ/mol
# GULP energy per Si atom -12394.954030 kJ/mol
# Density = 1.971978 g / cm^3
# Si number density = 19.764769 Si / 1000 Ang^3
#
#
#
# Elastic Constant Matrix: (Units=GPa)
#
#
# Indices 1 2 3 4 5 6 
#
# 1 123.0106 21.3557 83.2246 0.0000 -2.7811 0.0000
# 2 21.3557 59.4065 29.6528 0.0000 -1.9733 0.0000
# 3 83.2246 29.6528 152.1062 0.0000 -3.5750 0.0000
# 4 0.0000 0.0000 0.0000 22.6656 0.0000 -0.8791
# 5 -2.7811 -1.9733 -3.5750 0.0000 28.5479 0.0000
# 6 0.0000 0.0000 0.0000 -0.8791 0.0000 30.3969
#
#
#
# Elastic Compliance Matrix: (Units=1/GPa)
#
#
# Indices 1 2 3 4 5 6 
#
# 1 0.012993 -0.001236 -0.006861 0.000000 0.000321 0.000000
# 2 -0.001236 0.018785 -0.002967 0.000000 0.000807 0.000000
# 3 -0.006861 -0.002967 0.010918 0.000000 0.000494 0.000000
# 4 0.000000 0.000000 0.000000 0.044169 0.000000 0.001277
# 5 0.000321 0.000807 0.000494 0.000000 0.035178 0.000000
# 6 0.000000 0.000000 0.000000 0.001277 0.000000 0.032935
#
#
# Mechanical properties :
#
#
# Convention : Reuss Voigt Hill
#
# Bulk Modulus (GPa) = 48.61552 66.99883 57.80717
# Shear Modulus (GPa) = 27.17968 29.67478 28.42723
#
# Velocity S-wave (km/s) = 3.71234 3.87899 3.79658
# Velocity P-wave (km/s) = 6.55940 7.35077 6.96633
#
# Compressibility (1/GPa) = 0.02056956
#
# Stress axis : x y z
#
# Youngs Moduli (GPa) = 76.96611 53.23343 91.59090
#
# Poissons Ratio (x) = 0.06577 0.62836
# Poissons Ratio (y) = 0.09510 0.27176
# Poissons Ratio (z) = 0.52803 0.15795
#
# Static dielectric constant tensor:
#      x y z
#    x 3.596580 0.000000 0.060190 
#    y 0.000000 3.418600 0.000000 
#    z 0.060190 0.000000 3.767180 
# 
# 
# High freq. dielectric constant tensor:
#      x y z
#    x 1.774440 0.000000 0.000000 
#    y 0.000000 1.747880 0.000000 
#    z 0.000000 0.000000 1.776480 
# 
# From -- ./inp_files/375590.got.cif
#   From: 2010.06.25/outbox.cif.g09.slc.cpg/sg12_188_cif.got.tgz:375590.got - 2010.06.28 00:19:55.
