data_PCOD8098413
_publ_section_title
;
Structure prediction by ZEFSAII (Michael W. Deem and Ramdas Pophale) SiO2 
 PCOD8098413
Probable space group: C 2/M
;
_chemical_formula_sum "Si O2"
_cell_formula_units_Z 48
_cell_length_a 15.172174
_cell_length_b 17.843868
_cell_length_c 9.755053
_cell_angle_alpha 90.000000
_cell_angle_beta 76.422612
_cell_angle_gamma 90.000000
_cell_volume 2567.182352
_symmetry_space_group_name_H-M "C 2/M"
_symmetry_group_IT_number 12
_symmetry_cell_setting 'monoclinic'
loop_
_space_group_symop_operation_xyz
x,y,z
-x,y,-z
-x,-y,-z
x,-y,z
1/2+x,1/2+y,z
1/2-x,1/2+y,-z
1/2-x,1/2-y,-z
1/2+x,1/2-y,z
loop_
_atom_site_type_symbol
_atom_site_label
_atom_site_fract_x
_atom_site_fract_y
_atom_site_fract_z
Si Si1 0.244915 0.162935 0.538437
Si Si2 0.929975 0.415500 0.403209
Si Si3 0.902731 0.911828 0.599137
Si Si4 0.489943 0.805592 0.158781
Si Si5 0.648352 0.304862 0.147014
Si Si6 0.182781 0.212943 0.832478
O O1 0.250000 0.250000 0.500000
O O2 0.342057 0.128257 0.481428
O O3 0.172163 0.119640 0.475166
O O4 0.219537 0.153351 0.708397
O O5 0.903735 0.500000 0.374265
O O6 0.974493 0.378911 0.253817
O O7 0.000000 0.412020 0.500000
O O8 0.891597 0.874025 0.752449
O O9 0.000000 0.891711 0.500000
O O10 0.890011 0.000000 0.623661
O O11 0.580528 0.765376 0.179695
O O12 0.407165 0.747913 0.200829
O O13 0.500000 0.833739 0.000000
O O14 0.745217 0.280061 0.171797
O O15 0.660921 0.329507 0.983318
#
# Coordination Sequence:
#
# PCOD8098413 Si02
#       6
#     8   8   8   8   8   8
#     4  12  21  36  63  87 112 155 194 239 283 333
#     4  11  24  38  55  85 121 152 186 234 288 343
#     4  11  24  39  58  87 120 153 190 238 293 346
#     4  10  20  35  58  84 111 147 191 236 278 335
#     4  10  20  36  58  83 116 145 192 240 276 344
#     4  10  20  34  56  90 109 142 198 235 280 327
#
# _framework density 18.697543
#
# number of rings (size 3 to 8) (size 9 to 14) (size 15 to 20)
#    0.000    1.333    3.333    2.500    0.000    0.333 
#    0.000    1.667    0.000   14.500    0.000    0.000 
#    0.000    0.000    0.000    0.000    0.000    0.000 
#
# Total GULP energy -297670.381804 kJ/mol
# GULP energy per Si atom -12402.932575 kJ/mol
# Density = 1.865499 g / cm^3
# Si number density = 18.697543 Si / 1000 Ang^3
#
#
#
# Elastic Constant Matrix: (Units=GPa)
#
#
# Indices 1 2 3 4 5 6 
#
# 1 90.9546 35.0452 28.7040 0.0000 -14.1992 0.0000
# 2 35.0452 103.1853 73.1501 0.0000 -17.5642 0.0000
# 3 28.7040 73.1501 146.9357 0.0000 -22.9672 0.0000
# 4 0.0000 0.0000 0.0000 28.4060 0.0000 -3.1493
# 5 -14.1992 -17.5642 -22.9672 0.0000 29.9448 0.0000
# 6 0.0000 0.0000 0.0000 -3.1493 0.0000 27.7183
#
#
#
# Elastic Compliance Matrix: (Units=1/GPa)
#
#
# Indices 1 2 3 4 5 6 
#
# 1 0.013066 -0.003699 -0.000093 0.000000 0.003955 0.000000
# 2 -0.003699 0.016351 -0.007036 0.000000 0.002440 0.000000
# 3 -0.000093 -0.007036 0.010993 0.000000 0.004260 0.000000
# 4 0.000000 0.000000 0.000000 0.035653 0.000000 0.004051
# 5 0.003955 0.002440 0.004260 0.000000 0.039969 0.000000
# 6 0.000000 0.000000 0.000000 0.004051 0.000000 0.036537
#
#
# Mechanical properties :
#
#
# Convention : Reuss Voigt Hill
#
# Bulk Modulus (GPa) = 53.32101 68.31937 60.82019
# Shear Modulus (GPa) = 27.70447 30.82556 29.26501
#
# Velocity S-wave (km/s) = 3.85348 4.06475 3.96053
# Velocity P-wave (km/s) = 6.95548 7.65821 7.31529
#
# Compressibility (1/GPa) = 0.01875433
#
# Stress axis : x y z
#
# Youngs Moduli (GPa) = 76.53232 61.15861 90.97030
#
# Poissons Ratio (x) = 0.22620 0.00846
# Poissons Ratio (y) = 0.28306 0.64008
# Poissons Ratio (z) = 0.00712 0.43032
#
# Static dielectric constant tensor:
#      x y z
#    x 3.448150 0.000000 -0.278590 
#    y 0.000000 3.293650 0.000000 
#    z -0.278590 0.000000 3.684690 
# 
# 
# High freq. dielectric constant tensor:
#      x y z
#    x 1.749690 0.000000 -0.004710 
#    y 0.000000 1.695860 0.000000 
#    z -0.004710 0.000000 1.744970 
# 
# From -- ./inp_files/61755.got.cif
#   From: 2010.06.25/outbox.cif.g09.slc.cpg/sg12_31_cif.got.tgz:61755.got - 2010.06.28 00:19:55.
