data_PCOD8098283
_publ_section_title
;
Structure prediction by ZEFSAII (Michael W. Deem and Ramdas Pophale) SiO2 
 PCOD8098283
Probable space group: C 2/M
;
_chemical_formula_sum "Si O2"
_cell_formula_units_Z 64
_cell_length_a 29.866147
_cell_length_b 9.201912
_cell_length_c 18.554548
_cell_angle_alpha 90.000000
_cell_angle_beta 140.324219
_cell_angle_gamma 90.000000
_cell_volume 3255.588202
_symmetry_space_group_name_H-M "C 2/M"
_symmetry_group_IT_number 12
_symmetry_cell_setting 'monoclinic'
loop_
_space_group_symop_operation_xyz
x,y,z
-x,y,-z
-x,-y,-z
x,-y,z
1/2+x,1/2+y,z
1/2-x,1/2+y,-z
1/2-x,1/2-y,-z
1/2+x,1/2-y,z
loop_
_atom_site_type_symbol
_atom_site_label
_atom_site_fract_x
_atom_site_fract_y
_atom_site_fract_z
Si Si1 0.698523 0.160544 0.067813
Si Si2 0.586979 0.328173 0.847809
Si Si3 0.569672 0.672747 0.129080
Si Si4 0.075670 0.328512 0.562680
Si Si5 0.704579 0.834207 0.241389
Si Si6 0.144904 0.829012 0.519730
Si Si7 0.940480 0.829136 0.721470
Si Si8 0.148839 0.833008 0.775957
O O1 0.721448 0.181591 0.178480
O O2 0.768240 0.178497 0.106069
O O3 0.666299 0.000000 0.015975
O O4 0.641160 0.277782 0.975516
O O5 0.588343 0.500000 0.849478
O O6 0.510993 0.264258 0.773323
O O7 0.608569 0.270667 0.795816
O O8 0.574781 0.500000 0.133431
O O9 0.638603 0.734817 0.177369
O O10 0.569032 0.735029 0.210082
O O11 0.500000 0.725237 0.000000
O O12 0.083330 0.500000 0.562920
O O13 0.090463 0.254252 0.504071
O O14 0.132538 0.270098 0.688997
O O15 0.000000 0.283416 0.500000
O O16 0.774531 0.779654 0.369659
O O17 0.687259 0.000000 0.241494
O O18 0.124497 0.791089 0.411615
O O19 0.136393 0.000000 0.525363
O O20 0.949936 0.000000 0.740970
O O21 0.127516 0.000000 0.732213
#
# Coordination Sequence:
#
# PCOD8098283 Si02
#       8
#     8   8   8   8   8   8   8   8
#     4  10  20  35  53  79 115 148 184 233 287 339
#     4  10  20  34  56  84 110 145 194 237 280 337
#     4  10  21  38  60  86 117 149 186 234 287 344
#     4  11  23  36  53  82 118 152 191 239 287 334
#     4  10  21  37  58  84 113 147 190 239 287 338
#     4  10  20  39  62  81 110 152 194 236 282 340
#     4   9  19  36  58  84 111 145 191 236 280 336
#     4  10  20  36  56  80 110 149 196 233 275 342
#
# _framework density 19.658505999999999
#
# number of rings (size 3 to 8) (size 9 to 14) (size 15 to 20)
#    0.000    2.000    1.250    2.250    0.000    5.750 
#    0.000    1.875    0.000    0.000    0.000    0.000 
#    0.000    0.000    0.000    0.000    0.000    0.000 
#
# Total GULP energy -396816.944634 kJ/mol
# GULP energy per Si atom -12400.529520 kJ/mol
# Density = 1.961376 g / cm^3
# Si number density = 19.658506 Si / 1000 Ang^3
#
#
#
# Elastic Constant Matrix: (Units=GPa)
#
#
# Indices 1 2 3 4 5 6 
#
# 1 102.5896 27.0084 37.0884 0.0000 6.1393 0.0000
# 2 27.0084 36.1433 26.7461 0.0000 2.9922 0.0000
# 3 37.0884 26.7461 112.0727 0.0000 -0.8674 0.0000
# 4 0.0000 0.0000 0.0000 23.5123 0.0000 2.0211
# 5 6.1393 2.9922 -0.8674 0.0000 33.6102 0.0000
# 6 0.0000 0.0000 0.0000 2.0211 0.0000 26.3630
#
#
#
# Elastic Compliance Matrix: (Units=1/GPa)
#
#
# Indices 1 2 3 4 5 6 
#
# 1 0.012717 -0.007575 -0.002414 0.000000 -0.001711 0.000000
# 2 -0.007575 0.038461 -0.006689 0.000000 -0.002213 0.000000
# 3 -0.002414 -0.006689 0.011328 0.000000 0.001329 0.000000
# 4 0.000000 0.000000 0.000000 0.042813 0.000000 -0.003282
# 5 -0.001711 -0.002213 0.001329 0.000000 0.030297 0.000000
# 6 0.000000 0.000000 0.000000 -0.003282 0.000000 0.038184
#
#
# Mechanical properties :
#
#
# Convention : Reuss Voigt Hill
#
# Bulk Modulus (GPa) = 34.30464 48.05460 41.17962
# Shear Modulus (GPa) = 23.05503 27.36127 25.20815
#
# Velocity S-wave (km/s) = 3.42830 3.73477 3.58481
# Velocity P-wave (km/s) = 5.75840 6.56474 6.17474
#
# Compressibility (1/GPa) = 0.02915057
#
# Stress axis : x y z
#
# Youngs Moduli (GPa) = 78.63585 26.00020 88.27477
#
# Poissons Ratio (x) = 0.19695 0.21309
# Poissons Ratio (y) = 0.59565 0.59048
# Poissons Ratio (z) = 0.18982 0.17392
#
# Static dielectric constant tensor:
#      x y z
#    x 3.723960 0.000000 -0.056640 
#    y 0.000000 3.335660 0.000000 
#    z -0.056640 0.000000 3.623350 
# 
# 
# High freq. dielectric constant tensor:
#      x y z
#    x 1.770550 0.000000 -0.000040 
#    y 0.000000 1.739530 0.000000 
#    z -0.000040 0.000000 1.773430 
# 
# From -- ./inp_files/295828.got.cif
#   From: 2010.06.25/outbox.cif.g09.slc.cpg/sg12_148_cif.got.tgz:295828.got - 2010.06.28 00:19:55.
