data_PCOD8098701
_publ_section_title
;
Structure prediction by ZEFSAII (Michael W. Deem and Ramdas Pophale) SiO2 
 PCOD8098701
Probable space group: C 2/M
;
_chemical_formula_sum "Si O2"
_cell_formula_units_Z 64
_cell_length_a 27.130090
_cell_length_b 14.376267
_cell_length_c 9.733437
_cell_angle_alpha 90.000000
_cell_angle_beta 98.829825
_cell_angle_gamma 90.000000
_cell_volume 3751.335021
_symmetry_space_group_name_H-M "C 2/M"
_symmetry_group_IT_number 12
_symmetry_cell_setting 'monoclinic'
loop_
_space_group_symop_operation_xyz
x,y,z
-x,y,-z
-x,-y,-z
x,-y,z
1/2+x,1/2+y,z
1/2-x,1/2+y,-z
1/2-x,1/2-y,-z
1/2+x,1/2-y,z
loop_
_atom_site_type_symbol
_atom_site_label
_atom_site_fract_x
_atom_site_fract_y
_atom_site_fract_z
Si Si1 0.970452 0.892950 0.626424
Si Si2 0.039193 0.897010 0.897616
Si Si3 0.675209 0.100460 0.059194
Si Si4 0.130733 0.208203 0.363359
Si Si5 0.133290 0.208975 0.038688
Si Si6 0.786831 0.108278 0.109246
Si Si7 0.175973 0.601655 0.382976
Si Si8 0.212631 0.109177 0.579529
O O1 0.922304 0.827246 0.605207
O O2 0.000000 0.883003 0.500000
O O3 0.009652 0.857012 0.755279
O O4 0.954105 0.000000 0.648131
O O5 0.061964 0.000000 0.876635
O O6 0.081807 0.825154 0.953959
O O7 0.000000 0.906003 0.000000
O O8 0.636483 0.181315 0.003217
O O9 0.730672 0.125802 0.030941
O O10 0.679542 0.090275 0.222851
O O11 0.657624 0.000000 0.990515
O O12 0.135762 0.190606 0.202656
O O13 0.136317 0.317874 0.404448
O O14 0.174204 0.154010 0.458326
O O15 0.178670 0.157683 0.986435
O O16 0.794868 0.148030 0.267822
O O17 0.799880 0.000000 0.114436
O O18 0.160293 0.500000 0.438847
O O19 0.231774 0.630489 0.454778
O O20 0.202823 0.000000 0.577052
#
# Coordination Sequence:
#
# PCOD8098701 Si02
#       8
#     8   8   8   8   8   8   8   8
#     4  10  22  37  52  72  97 126 161 200 245 295
#     4  10  20  35  50  70 102 127 151 199 254 295
#     4   8  16  32  50  71 102 134 165 201 238 285
#     4  11  20  31  52  77  98 126 168 209 241 284
#     4  11  20  30  52  77  98 130 168 201 244 292
#     4   9  18  31  48  73 104 136 164 193 240 295
#     4   8  16  32  51  72 100 133 165 199 243 289
#     4   9  18  31  48  73 105 135 163 196 236 291
#
# _framework density 17.060592
#
# number of rings (size 3 to 8) (size 9 to 14) (size 15 to 20)
#    0.000    2.500    1.250    3.000    1.750    1.500 
#    0.000    0.000    0.000    3.750    0.000    0.000 
#    0.000    0.000    0.000    0.000    0.000    0.000 
#
# Total GULP energy -396598.139411 kJ/mol
# GULP energy per Si atom -12393.691857 kJ/mol
# Density = 1.702176 g / cm^3
# Si number density = 17.060592 Si / 1000 Ang^3
#
#
#
# Elastic Constant Matrix: (Units=GPa)
#
#
# Indices 1 2 3 4 5 6 
#
# 1 98.1943 76.7048 33.0722 0.0000 12.9903 0.0000
# 2 76.7048 103.0131 33.7802 0.0000 14.9309 0.0000
# 3 33.0722 33.7802 62.3788 0.0000 11.4500 0.0000
# 4 0.0000 0.0000 0.0000 24.3119 0.0000 -0.3649
# 5 12.9903 14.9309 11.4500 0.0000 27.0988 0.0000
# 6 0.0000 0.0000 0.0000 -0.3649 0.0000 34.2292
#
#
#
# Elastic Compliance Matrix: (Units=1/GPa)
#
#
# Indices 1 2 3 4 5 6 
#
# 1 0.025109 -0.017333 -0.003761 0.000000 -0.000897 0.000000
# 2 -0.017333 0.024210 -0.003249 0.000000 -0.003657 0.000000
# 3 -0.003761 -0.003249 0.020733 0.000000 -0.005167 0.000000
# 4 0.000000 0.000000 0.000000 0.041139 0.000000 0.000439
# 5 -0.000897 -0.003657 -0.005167 0.000000 0.041530 0.000000
# 6 0.000000 0.000000 0.000000 0.000439 0.000000 0.029220
#
#
# Mechanical properties :
#
#
# Convention : Reuss Voigt Hill
#
# Bulk Modulus (GPa) = 46.80644 61.18895 53.99769
# Shear Modulus (GPa) = 21.03049 25.12990 23.08020
#
# Velocity S-wave (km/s) = 3.51478 3.84211 3.68208
# Velocity P-wave (km/s) = 6.63073 7.45828 7.05664
#
# Compressibility (1/GPa) = 0.02136458
#
# Stress axis : x y z
#
# Youngs Moduli (GPa) = 39.82580 41.30582 48.23160
#
# Poissons Ratio (x) = 0.71597 0.18142
# Poissons Ratio (y) = 0.69031 0.15672
# Poissons Ratio (z) = 0.14980 0.13421
#
# Static dielectric constant tensor:
#      x y z
#    x 3.111500 0.000000 0.011430 
#    y 0.000000 3.673690 0.000000 
#    z 0.011430 0.000000 3.112140 
# 
# 
# High freq. dielectric constant tensor:
#      x y z
#    x 1.644750 0.000000 0.002540 
#    y 0.000000 1.656630 0.000000 
#    z 0.002540 0.000000 1.646050 
# 
# From -- ./inp_files/96899.got.cif
#   From: 2010.06.25/outbox.cif.g09.slc.cpg/sg12_49_cif.got.tgz:96899.got - 2010.06.28 00:19:55.
