data_PCOD8098171
_publ_section_title
;
Structure prediction by ZEFSAII (Michael W. Deem and Ramdas Pophale) SiO2 
 PCOD8098171
Probable space group: C 2/M
;
_chemical_formula_sum "Si O2"
_cell_formula_units_Z 60
_cell_length_a 9.003134
_cell_length_b 33.593305
_cell_length_c 11.463968
_cell_angle_alpha 90.000000
_cell_angle_beta 67.638752
_cell_angle_gamma 90.000000
_cell_volume 3206.497493
_symmetry_space_group_name_H-M "C 2/M"
_symmetry_group_IT_number 12
_symmetry_cell_setting 'monoclinic'
loop_
_space_group_symop_operation_xyz
x,y,z
-x,y,-z
-x,-y,-z
x,-y,z
1/2+x,1/2+y,z
1/2-x,1/2+y,-z
1/2-x,1/2-y,-z
1/2+x,1/2-y,z
loop_
_atom_site_type_symbol
_atom_site_label
_atom_site_fract_x
_atom_site_fract_y
_atom_site_fract_z
Si Si1 0.866378 0.266469 0.138271
Si Si2 0.528779 0.302831 0.191205
Si Si3 0.896665 0.867229 0.382796
Si Si4 0.714369 0.106407 0.215046
Si Si5 0.000000 0.866031 0.000000
Si Si6 0.963899 0.349638 0.147810
Si Si7 0.786664 0.103743 0.644116
Si Si8 0.532385 0.046123 0.626618
O O1 0.685753 0.274459 0.146617
O O2 0.914805 0.305117 0.197792
O O3 0.875848 0.225730 0.209974
O O4 0.000000 0.259892 0.000000
O O5 0.485519 0.325484 0.324784
O O6 0.558649 0.337374 0.086779
O O7 0.766697 0.879374 0.326449
O O8 0.802324 0.863902 0.533707
O O9 0.033681 0.902213 0.356760
O O10 0.612180 0.141359 0.186791
O O11 0.612101 0.065989 0.255877
O O12 0.866594 0.102644 0.084367
O O13 0.818788 0.379349 0.219052
O O14 0.000000 0.353880 0.000000
O O15 0.704494 0.064048 0.615107
O O16 0.500000 0.053647 0.500000
O O17 0.534133 0.000000 0.657755
#
# Coordination Sequence:
#
# PCOD8098171 Si02
#       8
#     8   8   8   8   4   8   8   8
#     4  11  21  33  51  78 116 153 197 255 300 331
#     4  11  22  34  52  82 116 152 205 248 297 334
#     4  10  21  37  58  83 114 159 198 239 285 345
#     4  10  21  35  61  87 119 151 195 234 289 348
#     4  10  20  34  55  86 114 158 196 242 279 354
#     4  10  21  35  58  86 113 155 200 242 295 346
#     4  10  20  40  61  80 118 155 192 235 288 346
#     4  10  20  39  64  94 117 143 187 239 291 349
#
# _framework density 18.712005999999999
#
# number of rings (size 3 to 8) (size 9 to 14) (size 15 to 20)
#    0.000    1.733    3.333    2.000    5.600    0.000 
#    0.000    3.000    0.000    6.400    0.000    0.000 
#    0.000    0.000    0.000    0.000    0.000    0.000 
#
# Total GULP energy -371715.146647 kJ/mol
# GULP energy per Si atom -12390.504888 kJ/mol
# Density = 1.866942 g / cm^3
# Si number density = 18.712006 Si / 1000 Ang^3
#
#
#
# Elastic Constant Matrix: (Units=GPa)
#
#
# Indices 1 2 3 4 5 6 
#
# 1 110.0095 38.5008 28.5936 0.0000 7.2077 0.0000
# 2 38.5008 96.9278 33.0187 0.0000 1.8205 0.0000
# 3 28.5936 33.0187 79.6000 0.0000 -0.6772 0.0000
# 4 0.0000 0.0000 0.0000 22.7073 0.0000 4.1088
# 5 7.2077 1.8205 -0.6772 0.0000 30.1267 0.0000
# 6 0.0000 0.0000 0.0000 4.1088 0.0000 20.0721
#
#
#
# Elastic Compliance Matrix: (Units=1/GPa)
#
#
# Indices 1 2 3 4 5 6 
#
# 1 0.011150 -0.003505 -0.002573 0.000000 -0.002514 0.000000
# 2 -0.003505 0.013138 -0.004191 0.000000 -0.000049 0.000000
# 3 -0.002573 -0.004191 0.015236 0.000000 0.001211 0.000000
# 4 0.000000 0.000000 0.000000 0.045733 0.000000 -0.009362
# 5 -0.002514 -0.000049 0.001211 0.000000 0.033825 0.000000
# 6 0.000000 0.000000 0.000000 -0.009362 0.000000 0.051737
#
#
# Mechanical properties :
#
#
# Convention : Reuss Voigt Hill
#
# Bulk Modulus (GPa) = 52.67073 54.08482 53.37777
# Shear Modulus (GPa) = 25.29280 27.00951 26.15115
#
# Velocity S-wave (km/s) = 3.68052 3.80337 3.74245
# Velocity P-wave (km/s) = 6.80227 6.94652 6.87477
#
# Compressibility (1/GPa) = 0.01898588
#
# Stress axis : x y z
#
# Youngs Moduli (GPa) = 89.68345 76.11547 65.63531
#
# Poissons Ratio (x) = 0.26682 0.16886
# Poissons Ratio (y) = 0.31438 0.27507
# Poissons Ratio (z) = 0.23073 0.31899
#
# Static dielectric constant tensor:
#      x y z
#    x 3.732020 0.000000 -0.090270 
#    y 0.000000 3.306500 0.000000 
#    z -0.090270 0.000000 3.560580 
# 
# 
# High freq. dielectric constant tensor:
#      x y z
#    x 1.745010 0.000000 -0.001020 
#    y 0.000000 1.692890 0.000000 
#    z -0.001020 0.000000 1.721560 
# 
# From -- ./inp_files/125723.got.cif
#   From: 2010.06.25/outbox.cif.g09.slc.cpg/sg12_63_cif.got.tgz:125723.got - 2010.06.28 00:19:55.
