data_PCOD8098296
_publ_section_title
;
Structure prediction by ZEFSAII (Michael W. Deem and Ramdas Pophale) SiO2 
 PCOD8098296
Probable space group: C 2/M
;
_chemical_formula_sum "Si O2"
_cell_formula_units_Z 64
_cell_length_a 29.930954
_cell_length_b 9.379844
_cell_length_c 16.079672
_cell_angle_alpha 90.000000
_cell_angle_beta 46.825626
_cell_angle_gamma 90.000000
_cell_volume 3292.187199
_symmetry_space_group_name_H-M "C 2/M"
_symmetry_group_IT_number 12
_symmetry_cell_setting 'monoclinic'
loop_
_space_group_symop_operation_xyz
x,y,z
-x,y,-z
-x,-y,-z
x,-y,z
1/2+x,1/2+y,z
1/2-x,1/2+y,-z
1/2-x,1/2-y,-z
1/2+x,1/2-y,z
loop_
_atom_site_type_symbol
_atom_site_label
_atom_site_fract_x
_atom_site_fract_y
_atom_site_fract_z
Si Si1 0.499625 0.333130 0.252076
Si Si2 0.654773 0.841312 0.303800
Si Si3 0.272187 0.340341 0.048096
Si Si4 0.712735 0.164546 0.397033
Si Si5 0.613205 0.332601 0.994765
Si Si6 0.837457 0.667646 0.221203
Si Si7 0.382442 0.836403 0.345866
Si Si8 0.047205 0.168262 0.369490
O O1 0.487031 0.500000 0.275153
O O2 0.436133 0.259507 0.312936
O O3 0.525125 0.275937 0.307865
O O4 0.547265 0.298470 0.117911
O O5 0.723922 0.831770 0.183578
O O6 0.660430 0.804218 0.394203
O O7 0.613166 0.732112 0.306536
O O8 0.627733 0.000000 0.325283
O O9 0.281014 0.500000 0.003539
O O10 0.336307 0.282931 0.002267
O O11 0.250000 0.250000 0.000000
O O12 0.769939 0.267063 0.310658
O O13 0.680978 0.197972 0.525606
O O14 0.734876 0.000000 0.362905
O O15 0.621149 0.500000 0.963902
O O16 0.620722 0.241281 0.901902
O O17 0.831388 0.500000 0.210578
O O18 0.872234 0.698210 0.262664
O O19 0.401086 0.000000 0.336351
O O20 0.000000 0.219900 0.500000
O O21 0.055179 0.000000 0.359105
#
# Coordination Sequence:
#
# PCOD8098296 Si02
#       8
#     8   8   8   8   8   8   8   8
#     4  10  22  39  60  85 115 156 202 239 281 345
#     4  10  20  34  56  84 111 147 190 227 276 342
#     4  10  20  35  55  81 112 147 187 231 280 335
#     4  10  20  39  62  85 118 155 189 234 294 359
#     4  10  21  40  60  80 116 160 196 236 286 347
#     4  11  23  38  59  90 118 147 193 247 299 345
#     4  10  23  40  60  86 117 152 191 242 301 350
#     4  10  21  37  57  84 118 152 188 237 290 335
#
# _framework density 19.439964
#
# number of rings (size 3 to 8) (size 9 to 14) (size 15 to 20)
#    0.000    1.875    1.250    2.250    0.000    5.750 
#    0.000    2.500    0.000    0.000    0.000    0.000 
#    0.000    0.000    0.000    0.000    0.000    0.000 
#
# Total GULP energy -396907.344327 kJ/mol
# GULP energy per Si atom -12403.354510 kJ/mol
# Density = 1.939572 g / cm^3
# Si number density = 19.439964 Si / 1000 Ang^3
#
#
#
# Elastic Constant Matrix: (Units=GPa)
#
#
# Indices 1 2 3 4 5 6 
#
# 1 85.2752 42.4796 35.5190 0.0001 5.4639 0.0000
# 2 42.4796 63.0027 44.3262 -0.0005 6.8388 0.0001
# 3 35.5190 44.3262 102.4866 -0.0001 14.3170 0.0000
# 4 0.0001 -0.0005 -0.0001 32.3983 0.0000 -1.2873
# 5 5.4639 6.8388 14.3170 0.0000 34.0751 0.0000
# 6 0.0000 0.0001 0.0000 -1.2873 0.0000 36.6771
#
#
#
# Elastic Compliance Matrix: (Units=1/GPa)
#
#
# Indices 1 2 3 4 5 6 
#
# 1 0.017797 -0.011010 -0.001398 0.000000 -0.000057 0.000000
# 2 -0.011010 0.029633 -0.008941 0.000000 -0.000425 0.000000
# 3 -0.001398 -0.008941 0.014689 0.000000 -0.004153 0.000000
# 4 0.000000 0.000000 0.000000 0.030909 0.000000 0.001085
# 5 -0.000057 -0.000425 -0.004153 0.000000 0.031186 0.000000
# 6 0.000000 0.000000 0.000000 0.001085 0.000000 0.027303
#
#
# Mechanical properties :
#
#
# Convention : Reuss Voigt Hill
#
# Bulk Modulus (GPa) = 51.49228 55.04603 53.26916
# Shear Modulus (GPa) = 24.91403 29.19273 27.05338
#
# Velocity S-wave (km/s) = 3.58381 3.87936 3.73451
# Velocity P-wave (km/s) = 6.60835 6.96012 6.78652
#
# Compressibility (1/GPa) = 0.01942039
#
# Stress axis : x y z
#
# Youngs Moduli (GPa) = 56.18801 33.74650 68.07677
#
# Poissons Ratio (x) = 0.37155 0.09519
# Poissons Ratio (y) = 0.61863 0.60869
# Poissons Ratio (z) = 0.07857 0.30174
#
# Static dielectric constant tensor:
#      x y z
#    x 3.454090 0.000000 0.176470 
#    y 0.000000 3.507970 0.000000 
#    z 0.176470 0.000000 3.812090 
# 
# 
# High freq. dielectric constant tensor:
#      x y z
#    x 1.758170 0.000000 0.007630 
#    y 0.000000 1.749190 0.000000 
#    z 0.007630 0.000000 1.769520 
# 
# From -- ./inp_files/249873.got.cif
#   From: 2010.06.25/outbox.cif.g09.slc.cpg/sg12_125_cif.got.tgz:249873.got - 2010.06.28 00:19:55.
