data_PCOD8098976
_publ_section_title
;
Structure prediction by ZEFSAII (Michael W. Deem and Ramdas Pophale) SiO2 
 PCOD8098976
Probable space group: C 2/M
;
_chemical_formula_sum "Si O2"
_cell_formula_units_Z 64
_cell_length_a 30.186839
_cell_length_b 9.051780
_cell_length_c 25.965472
_cell_angle_alpha 90.000000
_cell_angle_beta 151.821343
_cell_angle_gamma 90.000000
_cell_volume 3350.383124
_symmetry_space_group_name_H-M "C 2/M"
_symmetry_group_IT_number 12
_symmetry_cell_setting 'monoclinic'
loop_
_space_group_symop_operation_xyz
x,y,z
-x,y,-z
-x,-y,-z
x,-y,z
1/2+x,1/2+y,z
1/2-x,1/2+y,-z
1/2-x,1/2-y,-z
1/2+x,1/2-y,z
loop_
_atom_site_type_symbol
_atom_site_label
_atom_site_fract_x
_atom_site_fract_y
_atom_site_fract_z
Si Si1 0.939079 0.826562 0.389514
Si Si2 0.033535 0.330238 0.288849
Si Si3 0.176764 0.328433 0.961329
Si Si4 0.271741 0.825747 0.797806
Si Si5 0.740273 0.673324 0.321236
Si Si6 0.442627 0.826495 0.572007
Si Si7 0.121031 0.174323 0.004088
Si Si8 0.084721 0.171590 0.242741
O O1 0.831523 0.783158 0.288199
O O2 0.000000 0.766811 0.500000
O O3 0.972839 0.749433 0.371975
O O4 0.953568 0.000000 0.397958
O O5 0.062074 0.500000 0.314850
O O6 0.058219 0.265964 0.370413
O O7 0.094672 0.249320 0.308150
O O8 0.924066 0.304774 0.167221
O O9 0.202322 0.500000 0.994209
O O10 0.250000 0.250000 0.000000
O O11 0.182495 0.250848 0.022656
O O12 0.286300 0.769756 0.755057
O O13 0.348621 0.742225 0.910595
O O14 0.289220 0.000000 0.817943
O O15 0.729837 0.500000 0.297784
O O16 0.844815 0.714630 0.445381
O O17 0.670393 0.722261 0.294927
O O18 0.462188 0.000000 0.592024
O O19 0.139460 0.000000 0.022130
O O20 0.011948 0.214079 0.884705
O O21 0.089081 0.000000 0.258893
#
# Coordination Sequence:
#
# PCOD8098976 Si02
#       8
#     8   8   8   8   8   8   8   8
#     4  10  21  38  56  78 113 149 182 228 279 330
#     4   9  20  37  55  81 114 145 182 230 278 327
#     4  10  20  35  54  79 112 148 188 231 277 332
#     4  11  23  38  57  84 114 146 187 231 281 337
#     4  10  21  38  59  83 112 147 189 231 275 331
#     4  10  21  36  57  85 114 147 186 227 274 331
#     4  10  21  38  58  80 110 147 187 232 282 332
#     4   9  20  39  60  82 110 147 188 231 277 329
#
# _framework density 19.102291999999998
#
# number of rings (size 3 to 8) (size 9 to 14) (size 15 to 20)
#    0.000    2.125    1.250    1.125    1.750    4.250 
#    0.000    2.500    0.000    0.000    0.000    0.000 
#    0.000    0.000    0.000    0.000    0.000    0.000 
#
# Total GULP energy -396944.796179 kJ/mol
# GULP energy per Si atom -12404.524881 kJ/mol
# Density = 1.905881 g / cm^3
# Si number density = 19.102292 Si / 1000 Ang^3
#
#
#
# Elastic Constant Matrix: (Units=GPa)
#
#
# Indices 1 2 3 4 5 6 
#
# 1 133.5088 41.8721 25.2231 0.0000 -10.2997 0.0000
# 2 41.8721 59.0152 20.6059 0.0000 -6.4803 0.0000
# 3 25.2231 20.6059 45.2883 0.0000 -23.0201 0.0000
# 4 0.0000 0.0000 0.0000 24.7769 0.0000 -6.0984
# 5 -10.2997 -6.4803 -23.0201 0.0000 36.1979 0.0000
# 6 0.0000 0.0000 0.0000 -6.0984 0.0000 38.5477
#
#
#
# Elastic Compliance Matrix: (Units=1/GPa)
#
#
# Indices 1 2 3 4 5 6 
#
# 1 0.009916 -0.006069 -0.002777 0.000000 -0.000031 0.000000
# 2 -0.006069 0.024128 -0.009280 0.000000 -0.003309 0.000000
# 3 -0.002777 -0.009280 0.039311 0.000000 0.022548 0.000000
# 4 0.000000 0.000000 0.000000 0.041995 0.000000 0.006644
# 5 -0.000031 -0.003309 0.022548 0.000000 0.041364 0.000000
# 6 0.000000 0.000000 0.000000 0.006644 0.000000 0.026993
#
#
# Mechanical properties :
#
#
# Convention : Reuss Voigt Hill
#
# Bulk Modulus (GPa) = 26.95206 45.91272 36.43239
# Shear Modulus (GPa) = 21.52142 29.91193 25.71667
#
# Velocity S-wave (km/s) = 3.36019 3.96142 3.67312
# Velocity P-wave (km/s) = 5.40319 6.70903 6.09121
#
# Compressibility (1/GPa) = 0.03710292
#
# Stress axis : x y z
#
# Youngs Moduli (GPa) = 100.84855 41.44600 25.43820
#
# Poissons Ratio (x) = 0.25155 0.07064
# Poissons Ratio (y) = 0.61208 0.23606
# Poissons Ratio (z) = 0.28005 0.38460
#
# Static dielectric constant tensor:
#      x y z
#    x 3.599400 0.000000 -0.088540 
#    y 0.000000 3.456790 0.000000 
#    z -0.088540 0.000000 3.596360 
# 
# 
# High freq. dielectric constant tensor:
#      x y z
#    x 1.751150 0.000000 -0.006000 
#    y 0.000000 1.740390 0.000000 
#    z -0.006000 0.000000 1.743020 
# 
# From -- ./inp_files/353447.got.cif
#   From: 2010.06.25/outbox.cif.g09.slc.cpg/sg12_177_cif.got.tgz:353447.got - 2010.06.28 00:19:55.
