data_PCOD8098980
_publ_section_title
;
Structure prediction by ZEFSAII (Michael W. Deem and Ramdas Pophale) SiO2 
 PCOD8098980
Probable space group: C 2/M
;
_chemical_formula_sum "Si O2"
_cell_formula_units_Z 56
_cell_length_a 20.875338
_cell_length_b 9.380197
_cell_length_c 29.479164
_cell_angle_alpha 90.000000
_cell_angle_beta 30.896718
_cell_angle_gamma 90.000000
_cell_volume 2964.110603
_symmetry_space_group_name_H-M "C 2/M"
_symmetry_group_IT_number 12
_symmetry_cell_setting 'monoclinic'
loop_
_space_group_symop_operation_xyz
x,y,z
-x,y,-z
-x,-y,-z
x,-y,z
1/2+x,1/2+y,z
1/2-x,1/2+y,-z
1/2-x,1/2-y,-z
1/2+x,1/2-y,z
loop_
_atom_site_type_symbol
_atom_site_label
_atom_site_fract_x
_atom_site_fract_y
_atom_site_fract_z
Si Si1 0.400938 0.836463 0.448241
Si Si2 0.979468 0.662201 0.799827
Si Si3 0.496625 0.830902 0.950912
Si Si4 0.404004 0.165564 0.597629
Si Si5 0.660622 0.164064 0.770145
Si Si6 0.169273 0.335856 0.607392
Si Si7 0.747821 0.830520 0.953943
O O1 0.533325 0.807247 0.391373
O O2 0.295815 0.749159 0.538270
O O3 0.404815 0.789772 0.393245
O O4 0.363023 0.000000 0.476669
O O5 0.931116 0.500000 0.822246
O O6 0.871762 0.775183 0.853684
O O7 0.035373 0.679696 0.816201
O O8 0.086683 0.702189 0.700019
O O9 0.616432 0.782575 0.847310
O O10 0.498395 0.000000 0.952465
O O11 0.500000 0.766038 0.000000
O O12 0.368943 0.780193 0.005092
O O13 0.500000 0.219821 0.500000
O O14 0.273032 0.247803 0.679339
O O15 0.373939 0.000000 0.607277
O O16 0.704432 0.000000 0.744795
O O17 0.206284 0.500000 0.582795
O O18 0.750126 0.000000 0.960061
O O19 0.750000 0.750000 0.000000
#
# Coordination Sequence:
#
# PCOD8098980 Si02
#       7
#     8   8   8   8   8   8   8
#     4   9  18  33  50  71 104 140 175 217 268 319
#     4  10  20  35  54  80 109 137 178 225 274 321
#     4   9  19  37  58  81 112 147 182 225 277 326
#     4  10  21  35  51  74 107 142 175 216 268 323
#     4  10  20  35  55  78 105 139 180 225 267 318
#     4   9  18  32  52  75 102 137 174 221 268 315
#     4  11  21  36  59  83 109 142 180 223 272 325
#
# _framework density 18.892681
#
# number of rings (size 3 to 8) (size 9 to 14) (size 15 to 20)
#    0.000    2.286    1.429    1.286    0.000    3.143 
#    0.000    0.000    0.000    3.000    0.000    0.000 
#    0.000    0.000    0.000    0.000    0.000    0.000 
#
# Total GULP energy -347084.704998 kJ/mol
# GULP energy per Si atom -12395.882321 kJ/mol
# Density = 1.884968 g / cm^3
# Si number density = 18.892681 Si / 1000 Ang^3
#
#
#
# Elastic Constant Matrix: (Units=GPa)
#
#
# Indices 1 2 3 4 5 6 
#
# 1 86.8279 27.4909 45.1270 0.0001 5.0927 -0.0001
# 2 27.4909 52.4838 42.2815 0.0000 -4.7775 -0.0006
# 3 45.1270 42.2815 96.9929 0.0003 3.2952 -0.0001
# 4 0.0001 0.0000 0.0003 36.2887 0.0000 -3.7994
# 5 5.0927 -4.7775 3.2952 0.0000 31.1203 0.0000
# 6 -0.0001 -0.0006 -0.0001 -3.7994 0.0000 21.6075
#
#
#
# Elastic Compliance Matrix: (Units=1/GPa)
#
#
# Indices 1 2 3 4 5 6 
#
# 1 0.015822 -0.004115 -0.005478 0.000000 -0.002641 0.000000
# 2 -0.004115 0.031551 -0.012070 0.000000 0.006795 0.000001
# 3 -0.005478 -0.012070 0.018218 0.000000 -0.002886 0.000000
# 4 0.000000 0.000000 0.000000 0.028074 0.000000 0.004936
# 5 -0.002641 0.006795 -0.002886 0.000000 0.033914 0.000000
# 6 0.000000 0.000001 0.000000 0.004936 0.000000 0.047148
#
#
# Mechanical properties :
#
#
# Convention : Reuss Voigt Hill
#
# Bulk Modulus (GPa) = 44.91235 51.78928 48.35081
# Shear Modulus (GPa) = 22.17536 25.89697 24.03617
#
# Velocity S-wave (km/s) = 3.42973 3.70637 3.57073
# Velocity P-wave (km/s) = 6.28554 6.76669 6.53055
#
# Compressibility (1/GPa) = 0.02226559
#
# Stress axis : x y z
#
# Youngs Moduli (GPa) = 63.20440 31.69427 54.88954
#
# Poissons Ratio (x) = 0.13042 0.30067
# Poissons Ratio (y) = 0.26008 0.66254
# Poissons Ratio (z) = 0.34622 0.38256
#
# Static dielectric constant tensor:
#      x y z
#    x 3.706980 0.000000 0.091240 
#    y 0.000000 3.460090 0.000000 
#    z 0.091240 0.000000 3.645640 
# 
# 
# High freq. dielectric constant tensor:
#      x y z
#    x 1.738050 0.000000 0.008320 
#    y 0.000000 1.712720 0.000000 
#    z 0.008320 0.000000 1.737840 
# 
# From -- ./inp_files/237391.got.cif
#   From: 2010.06.25/outbox.cif.g09.slc.cpg/sg12_119_cif.got.tgz:237391.got - 2010.06.28 00:19:55.
