data_PCOD8098321
_publ_section_title
;
Structure prediction by ZEFSAII (Michael W. Deem and Ramdas Pophale) SiO2 
 PCOD8098321
Probable space group: C 2/M
;
_chemical_formula_sum "Si O2"
_cell_formula_units_Z 64
_cell_length_a 29.611718
_cell_length_b 9.230157
_cell_length_c 16.921427
_cell_angle_alpha 90.000000
_cell_angle_beta 41.270938
_cell_angle_gamma 90.000000
_cell_volume 3050.730445
_symmetry_space_group_name_H-M "C 2/M"
_symmetry_group_IT_number 12
_symmetry_cell_setting 'monoclinic'
loop_
_space_group_symop_operation_xyz
x,y,z
-x,y,-z
-x,-y,-z
x,-y,z
1/2+x,1/2+y,z
1/2-x,1/2+y,-z
1/2-x,1/2-y,-z
1/2+x,1/2-y,z
loop_
_atom_site_type_symbol
_atom_site_label
_atom_site_fract_x
_atom_site_fract_y
_atom_site_fract_z
Si Si1 0.294678 0.665049 0.196748
Si Si2 0.154617 0.340827 0.135068
Si Si3 0.654284 0.165620 0.455194
Si Si4 0.536575 0.335727 0.222334
Si Si5 0.923615 0.671666 0.286803
Si Si6 0.953106 0.836746 0.492407
Si Si7 0.075413 0.831451 0.871527
Si Si8 0.266397 0.658669 0.861255
O O1 0.291875 0.500000 0.169797
O O2 0.235750 0.689203 0.340700
O O3 0.369331 0.700747 0.132969
O O4 0.281659 0.770610 0.141268
O O5 0.121785 0.500000 0.195632
O O6 0.108179 0.242381 0.140246
O O7 0.168695 0.260191 0.200762
O O8 0.224677 0.364079 0.996433
O O9 0.630904 0.216629 0.573354
O O10 0.617375 0.251635 0.431988
O O11 0.632407 0.000000 0.472588
O O12 0.548281 0.500000 0.176758
O O13 0.496295 0.246260 0.209021
O O14 0.496619 0.332609 0.356257
O O15 0.932616 0.500000 0.268496
O O16 0.899220 0.736176 0.235754
O O17 0.000000 0.765893 0.500000
O O18 0.933372 0.000000 0.542888
O O19 0.076074 0.000000 0.846310
O O20 0.000000 0.783851 0.000000
O O21 0.292120 0.500000 0.798486
#
# Coordination Sequence:
#
# PCOD8098321 Si02
#       8
#     8   8   8   8   8   8   8   8
#     4  10  22  40  61  87 120 156 195 246 301 355
#     4  10  21  37  56  82 116 156 199 242 292 347
#     4   9  20  38  58  84 116 154 196 240 296 352
#     4  10  20  34  56  84 115 155 196 238 293 349
#     4  10  21  39  61  86 118 153 196 247 295 351
#     4   9  19  34  52  80 116 152 193 241 288 339
#     4  10  23  42  63  90 119 153 195 242 301 362
#     4  10  22  38  56  82 116 154 198 242 290 349
#
# _framework density 20.978581999999999
#
# number of rings (size 3 to 8) (size 9 to 14) (size 15 to 20)
#    0.000    2.250    0.000    1.500    3.500    4.500 
#    0.000    0.000    0.000    0.000    0.000    0.000 
#    0.000    0.000    0.000    0.000    0.000    0.000 
#
# Total GULP energy -396777.059965 kJ/mol
# GULP energy per Si atom -12399.283124 kJ/mol
# Density = 2.093083 g / cm^3
# Si number density = 20.978582 Si / 1000 Ang^3
#
#
#
# Elastic Constant Matrix: (Units=GPa)
#
#
# Indices 1 2 3 4 5 6 
#
# 1 97.9083 53.5299 28.0987 0.0017 3.7642 -0.0017
# 2 53.5299 122.4816 24.9966 0.0220 6.0071 -0.0091
# 3 28.0987 24.9966 52.7823 0.0111 -7.9860 -0.0049
# 4 0.0017 0.0220 0.0111 18.9397 -0.0070 1.7601
# 5 3.7642 6.0071 -7.9860 -0.0070 31.4417 0.0022
# 6 -0.0017 -0.0091 -0.0049 1.7601 0.0022 40.6723
#
#
#
# Elastic Compliance Matrix: (Units=1/GPa)
#
#
# Indices 1 2 3 4 5 6 
#
# 1 0.014782 -0.005175 -0.005758 0.000007 -0.002243 -0.000001
# 2 -0.005175 0.011116 -0.002846 -0.000012 -0.002227 0.000003
# 3 -0.005758 -0.002846 0.024486 -0.000008 0.007453 0.000002
# 4 0.000007 -0.000012 -0.000008 0.053012 0.000011 -0.002294
# 5 -0.002243 -0.002227 0.007453 0.000011 0.034392 -0.000002
# 6 -0.000001 0.000003 0.000002 -0.002294 -0.000002 0.024686
#
#
# Mechanical properties :
#
#
# Convention : Reuss Voigt Hill
#
# Bulk Modulus (GPa) = 43.80968 54.04695 48.92831
# Shear Modulus (GPa) = 25.29824 29.31388 27.30606
#
# Velocity S-wave (km/s) = 3.47639 3.74214 3.61171
# Velocity P-wave (km/s) = 6.08622 6.67010 6.38484
#
# Compressibility (1/GPa) = 0.02282601
#
# Stress axis : x y z
#
# Youngs Moduli (GPa) = 67.65115 89.95678 40.83897
#
# Poissons Ratio (x) = 0.46554 0.23513
# Poissons Ratio (y) = 0.35011 0.11625
# Poissons Ratio (z) = 0.38951 0.25606
#
# Static dielectric constant tensor:
#      x y z
#    x 3.720160 0.000000 -0.055710 
#    y 0.000000 4.043570 0.000000 
#    z -0.055710 0.000000 3.638540 
# 
# 
# High freq. dielectric constant tensor:
#      x y z
#    x 1.816160 0.000000 -0.000460 
#    y 0.000000 1.824630 0.000000 
#    z -0.000460 0.000000 1.814170 
# 
# From -- ./inp_files/295658.got.cif
#   From: 2010.06.25/outbox.cif.g09.slc.cpg/sg12_148_cif.got.tgz:295658.got - 2010.06.28 00:19:55.
