data_PCOD8098284
_publ_section_title
;
Structure prediction by ZEFSAII (Michael W. Deem and Ramdas Pophale) SiO2 
 PCOD8098284
Probable space group: C 2/M
;
_chemical_formula_sum "Si O2"
_cell_formula_units_Z 64
_cell_length_a 26.223592
_cell_length_b 8.791466
_cell_length_c 16.230841
_cell_angle_alpha 90.000000
_cell_angle_beta 118.904547
_cell_angle_gamma 90.000000
_cell_volume 3275.774737
_symmetry_space_group_name_H-M "C 2/M"
_symmetry_group_IT_number 12
_symmetry_cell_setting 'monoclinic'
loop_
_space_group_symop_operation_xyz
x,y,z
-x,y,-z
-x,-y,-z
x,-y,z
1/2+x,1/2+y,z
1/2-x,1/2+y,-z
1/2-x,1/2-y,-z
1/2+x,1/2-y,z
loop_
_atom_site_type_symbol
_atom_site_label
_atom_site_fract_x
_atom_site_fract_y
_atom_site_fract_z
Si Si1 0.226820 0.181379 0.200420
Si Si2 0.346244 0.176511 0.998088
Si Si3 0.140763 0.325162 0.689278
Si Si4 0.448002 0.174262 0.517977
Si Si5 0.591858 0.321092 0.807980
Si Si6 0.367239 0.335300 0.753387
Si Si7 0.561949 0.333203 0.029422
Si Si8 0.540148 0.319988 0.299332
O O1 0.204748 0.243273 0.094545
O O2 0.292970 0.233119 0.264040
O O3 0.190203 0.247721 0.251597
O O4 0.218796 0.000000 0.192122
O O5 0.407235 0.206651 0.001125
O O6 0.331343 0.000000 0.993311
O O7 0.356694 0.244246 0.097419
O O8 0.138150 0.500000 0.716726
O O9 0.113058 0.306920 0.577292
O O10 0.103830 0.224384 0.723356
O O11 0.500000 0.230959 0.500000
O O12 0.445692 0.277125 0.596462
O O13 0.459115 0.000000 0.553180
O O14 0.597665 0.500000 0.822396
O O15 0.525419 0.266126 0.777819
O O16 0.348161 0.500000 0.701663
O O17 0.407557 0.363935 0.861932
O O18 0.407554 0.247388 0.716979
O O19 0.557702 0.500000 0.980418
O O20 0.500000 0.261781 0.000000
O O21 0.542755 0.500000 0.291208
#
# Coordination Sequence:
#
# PCOD8098284 Si02
#       8
#     8   8   8   8   8   8   8   8
#     4   9  19  38  60  77 103 146 192 226 264 322
#     4  11  22  34  51  78 113 147 183 228 277 325
#     4  10  21  38  59  81 105 141 184 227 275 331
#     4  10  20  36  57  81 113 143 171 216 281 338
#     4  11  22  35  54  81 111 144 184 227 275 329
#     4   8  15  30  52  77 103 137 178 221 261 306
#     4   9  16  30  52  74 104 146 189 227 269 322
#     4  10  20  34  56  84 111 139 179 224 267 320
#
# _framework density 19.537362999999999
#
# number of rings (size 3 to 8) (size 9 to 14) (size 15 to 20)
#    0.000    2.250    1.250    3.000    0.000    4.500 
#    0.000    3.125    0.000    0.000    0.000    0.000 
#    0.000    0.000    0.000    0.000    0.000    0.000 
#
# Total GULP energy -396459.455858 kJ/mol
# GULP energy per Si atom -12389.357996 kJ/mol
# Density = 1.949289 g / cm^3
# Si number density = 19.537363 Si / 1000 Ang^3
#
#
#
# Elastic Constant Matrix: (Units=GPa)
#
#
# Indices 1 2 3 4 5 6 
#
# 1 99.9701 18.7044 39.6560 0.0000 7.8165 0.0000
# 2 18.7044 43.4001 19.4705 0.0000 -0.1989 0.0000
# 3 39.6560 19.4705 61.8552 0.0000 -0.2948 0.0000
# 4 0.0000 0.0000 0.0000 27.2323 0.0000 -2.1974
# 5 7.8165 -0.1989 -0.2948 0.0000 34.3562 0.0000
# 6 0.0000 0.0000 0.0000 -2.1974 0.0000 20.8026
#
#
#
# Elastic Compliance Matrix: (Units=1/GPa)
#
#
# Indices 1 2 3 4 5 6 
#
# 1 0.013960 -0.002340 -0.008229 0.000000 -0.003260 0.000000
# 2 -0.002340 0.027223 -0.007066 0.000000 0.000629 0.000000
# 3 -0.008229 -0.007066 0.023676 0.000000 0.002034 0.000000
# 4 0.000000 0.000000 0.000000 0.037037 0.000000 0.003912
# 5 -0.003260 0.000629 0.002034 0.000000 0.029870 0.000000
# 6 0.000000 0.000000 0.000000 0.003912 0.000000 0.048484
#
#
# Mechanical properties :
#
#
# Convention : Reuss Voigt Hill
#
# Bulk Modulus (GPa) = 33.79553 40.09857 36.94705
# Shear Modulus (GPa) = 22.18459 24.97121 23.57790
#
# Velocity S-wave (km/s) = 3.37337 3.57897 3.47769
# Velocity P-wave (km/s) = 5.70160 6.13574 5.92265
#
# Compressibility (1/GPa) = 0.02958971
#
# Stress axis : x y z
#
# Youngs Moduli (GPa) = 71.63391 36.73415 42.23625
#
# Poissons Ratio (x) = 0.08594 0.34756
# Poissons Ratio (y) = 0.16759 0.29844
# Poissons Ratio (z) = 0.58947 0.25957
#
# Static dielectric constant tensor:
#      x y z
#    x 3.580750 0.000000 0.031700 
#    y 0.000000 3.239080 0.000000 
#    z 0.031700 0.000000 3.488970 
# 
# 
# High freq. dielectric constant tensor:
#      x y z
#    x 1.766320 0.000000 0.000210 
#    y 0.000000 1.727520 0.000000 
#    z 0.000210 0.000000 1.753100 
# 
# From -- ./inp_files/244149.got.cif
#   From: 2010.06.25/outbox.cif.g09.slc.cpg/sg12_123_cif.got.tgz:244149.got - 2010.06.28 00:19:55.
