data_PCOD8098557
_publ_section_title
;
Structure prediction by ZEFSAII (Michael W. Deem and Ramdas Pophale) SiO2 
 PCOD8098557
Probable space group: C 2/M
;
_chemical_formula_sum "Si O2"
_cell_formula_units_Z 60
_cell_length_a 16.855427
_cell_length_b 17.642775
_cell_length_c 12.382117
_cell_angle_alpha 90.000000
_cell_angle_beta 58.429161
_cell_angle_gamma 90.000000
_cell_volume 3137.168489
_symmetry_space_group_name_H-M "C 2/M"
_symmetry_group_IT_number 12
_symmetry_cell_setting 'monoclinic'
loop_
_space_group_symop_operation_xyz
x,y,z
-x,y,-z
-x,-y,-z
x,-y,z
1/2+x,1/2+y,z
1/2-x,1/2+y,-z
1/2-x,1/2-y,-z
1/2+x,1/2-y,z
loop_
_atom_site_type_symbol
_atom_site_label
_atom_site_fract_x
_atom_site_fract_y
_atom_site_fract_z
Si Si1 0.781030 0.334703 0.444775
Si Si2 0.500000 0.696113 0.500000
Si Si3 0.604103 0.085675 0.467767
Si Si4 0.089507 0.086944 0.610672
Si Si5 0.151127 0.301304 0.279457
Si Si6 0.643706 0.767388 0.056159
Si Si7 0.010863 0.843921 0.872453
Si Si8 0.659408 0.779880 0.815570
O O1 0.750000 0.250000 0.500000
O O2 0.872315 0.361381 0.445928
O O3 0.698573 0.392752 0.529878
O O4 0.808907 0.339903 0.297951
O O5 0.533377 0.642676 0.572992
O O6 0.584480 0.748043 0.399309
O O7 0.500000 0.095708 0.500000
O O8 0.663381 0.116031 0.324184
O O9 0.630315 0.000000 0.477030
O O10 0.049000 0.094541 0.760910
O O11 0.077048 0.000000 0.582886
O O12 0.110085 0.312286 0.187463
O O13 0.254071 0.269319 0.207215
O O14 0.589934 0.687067 0.090932
O O15 0.750000 0.750000 0.000000
O O16 0.625169 0.814518 0.956615
O O17 0.079721 0.771836 0.821359
O O18 0.000000 0.880237 0.000000
#
# Coordination Sequence:
#
# PCOD8098557 Si02
#       8
#     8   4   8   8   8   8   8   8
#     4  12  21  38  62  88 118 156 205 246 296 360
#     4  12  21  36  57  88 116 158 196 250 295 360
#     4  11  24  37  55  88 122 151 191 248 307 355
#     4  12  24  37  57  88 126 161 194 245 309 368
#     4  11  19  36  61  82 116 152 201 243 292 355
#     4   9  20  34  56  87 114 148 196 252 291 346
#     4  10  20  36  56  82 119 149 196 245 296 355
#     4  10  20  34  57  91 111 148 202 250 290 341
#
# _framework density 19.125526000000001
#
# number of rings (size 3 to 8) (size 9 to 14) (size 15 to 20)
#    0.000    1.200    6.000    0.600    1.867    0.267 
#    0.000    0.000    0.000    6.400    0.000    1.867 
#    0.000    0.000    0.000    0.000    0.000    0.000 
#
# Total GULP energy -371720.931192 kJ/mol
# GULP energy per Si atom -12390.697706 kJ/mol
# Density = 1.908200 g / cm^3
# Si number density = 19.125526 Si / 1000 Ang^3
#
#
#
# Elastic Constant Matrix: (Units=GPa)
#
#
# Indices 1 2 3 4 5 6 
#
# 1 87.9153 33.5128 24.0445 0.0000 7.7547 0.0000
# 2 33.5128 77.9415 38.1677 0.0000 9.2015 0.0000
# 3 24.0445 38.1677 133.3817 0.0000 29.2383 0.0000
# 4 0.0000 0.0000 0.0000 15.4374 0.0000 2.3003
# 5 7.7547 9.2015 29.2383 0.0000 39.5702 0.0000
# 6 0.0000 0.0000 0.0000 2.3003 0.0000 22.1676
#
#
#
# Elastic Compliance Matrix: (Units=1/GPa)
#
#
# Indices 1 2 3 4 5 6 
#
# 1 0.013725 -0.005443 -0.000721 0.000000 -0.000891 0.000000
# 2 -0.005443 0.017084 -0.003903 0.000000 -0.000022 0.000000
# 3 -0.000721 -0.003903 0.010160 0.000000 -0.006458 0.000000
# 4 0.000000 0.000000 0.000000 0.065795 0.000000 -0.006827
# 5 -0.000891 -0.000022 -0.006458 0.000000 0.030223 0.000000
# 6 0.000000 0.000000 0.000000 -0.006827 0.000000 0.045819
#
#
# Mechanical properties :
#
#
# Convention : Reuss Voigt Hill
#
# Bulk Modulus (GPa) = 47.99559 54.52095 51.25827
# Shear Modulus (GPa) = 23.82246 29.00262 26.41254
#
# Velocity S-wave (km/s) = 3.53311 3.89837 3.72023
# Velocity P-wave (km/s) = 6.46478 6.98798 6.73146
#
# Compressibility (1/GPa) = 0.02083525
#
# Stress axis : x y z
#
# Youngs Moduli (GPa) = 72.85792 58.53344 98.42776
#
# Poissons Ratio (x) = 0.31860 0.07100
# Poissons Ratio (y) = 0.39657 0.38412
# Poissons Ratio (z) = 0.05256 0.22843
#
# Static dielectric constant tensor:
#      x y z
#    x 3.824040 0.000000 0.304400 
#    y 0.000000 3.149880 0.000000 
#    z 0.304400 0.000000 4.753320 
# 
# 
# High freq. dielectric constant tensor:
#      x y z
#    x 1.766810 0.000000 0.007720 
#    y 0.000000 1.687350 0.000000 
#    z 0.007720 0.000000 1.763690 
# 
# From -- ./inp_files/158273.got.cif
#   From: 2010.06.25/outbox.cif.g09.slc.cpg/sg12_80_cif.got.tgz:158273.got - 2010.06.28 00:19:55.
