data_PCOD8098484
_publ_section_title
;
Structure prediction by ZEFSAII (Michael W. Deem and Ramdas Pophale) SiO2 
 PCOD8098484
Probable space group: C 2/M
;
_chemical_formula_sum "Si O2"
_cell_formula_units_Z 64
_cell_length_a 19.834194
_cell_length_b 9.086114
_cell_length_c 24.188270
_cell_angle_alpha 90.000000
_cell_angle_beta 51.344370
_cell_angle_gamma 90.000000
_cell_volume 3404.089395
_symmetry_space_group_name_H-M "C 2/M"
_symmetry_group_IT_number 12
_symmetry_cell_setting 'monoclinic'
loop_
_space_group_symop_operation_xyz
x,y,z
-x,y,-z
-x,-y,-z
x,-y,z
1/2+x,1/2+y,z
1/2-x,1/2+y,-z
1/2-x,1/2-y,-z
1/2+x,1/2-y,z
loop_
_atom_site_type_symbol
_atom_site_label
_atom_site_fract_x
_atom_site_fract_y
_atom_site_fract_z
Si Si1 0.660250 0.173030 0.058639
Si Si2 0.997788 0.670621 0.937720
Si Si3 0.108986 0.170878 0.794485
Si Si4 0.952397 0.172462 0.795099
Si Si5 0.763676 0.170520 0.663004
Si Si6 0.712736 0.832875 0.570825
Si Si7 0.537743 0.670026 0.422029
Si Si8 0.512897 0.831026 0.660091
O O1 0.595955 0.204201 0.040364
O O2 0.622639 0.243863 0.133647
O O3 0.674070 0.000000 0.061025
O O4 0.750000 0.250000 0.000000
O O5 0.021248 0.500000 0.919129
O O6 0.071734 0.762275 0.869694
O O7 0.000000 0.720706 0.000000
O O8 0.201444 0.242341 0.735845
O O9 0.044120 0.203142 0.777172
O O10 0.123057 0.000000 0.796891
O O11 0.954480 0.236936 0.732157
O O12 0.930400 0.000000 0.804160
O O13 0.754594 0.232133 0.605293
O O14 0.860375 0.195587 0.633584
O O15 0.736384 0.000000 0.678133
O O16 0.750000 0.750000 0.500000
O O17 0.610937 0.815647 0.628666
O O18 0.741660 0.000000 0.548202
O O19 0.500000 0.722757 0.500000
O O20 0.513307 0.500000 0.424488
O O21 0.493973 0.768372 0.397875
O O22 0.482173 0.000000 0.676910
#
# Coordination Sequence:
#
# PCOD8098484 Si02
#       8
#     8   8   8   8   8   8   8   8
#     4  10  20  36  59  86 117 151 189 233 280 333
#     4   9  19  37  60  84 112 150 190 227 272 332
#     4  10  20  34  57  87 115 146 184 236 285 326
#     4  10  20  36  59  85 114 150 191 233 283 339
#     4  10  20  37  58  80 110 149 188 229 277 339
#     4  10  21  35  56  84 110 141 184 231 279 330
#     4  10  22  40  60  80 110 153 193 231 282 344
#     4  11  22  37  58  84 114 146 185 236 289 337
#
# _framework density 18.800916999999998
#
# number of rings (size 3 to 8) (size 9 to 14) (size 15 to 20)
#    0.000    2.000    1.250    2.250    0.000    5.000 
#    2.250    0.000    0.000    0.000    0.000    0.000 
#    0.000    0.000    0.000    0.000    0.000    0.000 
#
# Total GULP energy -396938.789642 kJ/mol
# GULP energy per Si atom -12404.337176 kJ/mol
# Density = 1.875812 g / cm^3
# Si number density = 18.800917 Si / 1000 Ang^3
#
#
#
# Elastic Constant Matrix: (Units=GPa)
#
#
# Indices 1 2 3 4 5 6 
#
# 1 40.9094 26.4287 22.2453 -0.0001 9.9072 -0.0001
# 2 26.4287 93.9391 61.9681 -0.0002 1.7450 -0.0005
# 3 22.2453 61.9681 123.0301 0.0000 5.9358 -0.0001
# 4 -0.0001 -0.0002 0.0000 40.0195 0.0000 -0.1776
# 5 9.9072 1.7450 5.9358 0.0000 34.4707 0.0000
# 6 -0.0001 -0.0005 -0.0001 -0.1776 0.0000 28.1565
#
#
#
# Elastic Compliance Matrix: (Units=1/GPa)
#
#
# Indices 1 2 3 4 5 6 
#
# 1 0.032522 -0.008066 -0.001398 0.000000 -0.008698 0.000000
# 2 -0.008066 0.017954 -0.007717 0.000000 0.002738 0.000000
# 3 -0.001398 -0.007717 0.012332 0.000000 -0.001331 0.000000
# 4 0.000000 0.000000 0.000000 0.024989 0.000000 0.000158
# 5 -0.008698 0.002738 -0.001331 0.000000 0.031601 0.000000
# 6 0.000000 0.000000 0.000000 0.000158 0.000000 0.035517
#
#
# Mechanical properties :
#
#
# Convention : Reuss Voigt Hill
#
# Bulk Modulus (GPa) = 35.15399 53.24032 44.19716
# Shear Modulus (GPa) = 25.15633 30.34510 27.75071
#
# Velocity S-wave (km/s) = 3.66189 4.02185 3.84608
# Velocity P-wave (km/s) = 6.05127 7.06728 6.57892
#
# Compressibility (1/GPa) = 0.02844627
#
# Stress axis : x y z
#
# Youngs Moduli (GPa) = 30.74873 55.69769 81.09020
#
# Poissons Ratio (x) = 0.44925 0.11337
# Poissons Ratio (y) = 0.24801 0.62576
# Poissons Ratio (z) = 0.04299 0.42981
#
# Static dielectric constant tensor:
#      x y z
#    x 3.343470 0.000000 0.061240 
#    y 0.000000 3.482650 0.000000 
#    z 0.061240 0.000000 3.414210 
# 
# 
# High freq. dielectric constant tensor:
#      x y z
#    x 1.719970 0.000000 0.001160 
#    y 0.000000 1.733450 0.000000 
#    z 0.001160 0.000000 1.739120 
# 
# From -- ./inp_files/346022.got.cif
#   From: 2010.06.25/outbox.cif.g09.slc.cpg/sg12_174_cif.got.tgz:346022.got - 2010.06.28 00:19:55.
