data_PCOD8098920
_publ_section_title
;
Structure prediction by ZEFSAII (Michael W. Deem and Ramdas Pophale) SiO2 
 PCOD8098920
Probable space group: C 2/M
;
_chemical_formula_sum "Si O2"
_cell_formula_units_Z 56
_cell_length_a 15.089192
_cell_length_b 9.121387
_cell_length_c 24.211131
_cell_angle_alpha 90.000000
_cell_angle_beta 63.007575
_cell_angle_gamma 90.000000
_cell_volume 2969.286334
_symmetry_space_group_name_H-M "C 2/M"
_symmetry_group_IT_number 12
_symmetry_cell_setting 'monoclinic'
loop_
_space_group_symop_operation_xyz
x,y,z
-x,y,-z
-x,-y,-z
x,-y,z
1/2+x,1/2+y,z
1/2-x,1/2+y,-z
1/2-x,1/2-y,-z
1/2+x,1/2-y,z
loop_
_atom_site_type_symbol
_atom_site_label
_atom_site_fract_x
_atom_site_fract_y
_atom_site_fract_z
Si Si1 0.891913 0.672210 0.506119
Si Si2 0.664730 0.665636 0.803047
Si Si3 0.308650 0.172272 0.410865
Si Si4 0.000454 0.834678 0.935740
Si Si5 0.573104 0.826288 0.728572
Si Si6 0.644175 0.827869 0.191097
Si Si7 0.674954 0.171701 0.061693
O O1 0.882527 0.500000 0.520079
O O2 0.799203 0.750789 0.562145
O O3 0.876549 0.709360 0.445429
O O4 0.000000 0.726341 0.500000
O O5 0.655056 0.500000 0.782788
O O6 0.608996 0.678102 0.877768
O O7 0.628068 0.778583 0.768323
O O8 0.778941 0.708011 0.782095
O O9 0.370729 0.233274 0.341351
O O10 0.288176 0.000000 0.413483
O O11 0.936165 0.711718 0.924123
O O12 0.957894 0.000000 0.939464
O O13 0.000000 0.795505 0.000000
O O14 0.461828 0.758708 0.761767
O O15 0.570599 0.000000 0.727126
O O16 0.686045 0.767355 0.120965
O O17 0.629512 0.000000 0.186994
O O18 0.694203 0.000000 0.051946
O O19 0.750000 0.250000 0.000000
#
# Coordination Sequence:
#
# PCOD8098920 Si02
#       7
#     8   8   8   8   8   8   8
#     4   9  18  34  57  85 113 143 184 227 262 311
#     4  10  20  35  56  79 104 139 183 226 273 325
#     4   9  19  34  54  81 113 149 181 221 274 319
#     4  10  20  35  54  77 107 138 176 229 283 333
#     4  10  20  37  56  77 111 148 184 223 270 327
#     4   9  19  36  56  76 104 143 179 220 275 331
#     4  11  21  35  55  78 105 138 179 225 282 341
#
# _framework density 18.859749999999998
#
# number of rings (size 3 to 8) (size 9 to 14) (size 15 to 20)
#    0.000    2.286    1.429    1.286    0.000    4.571 
#    0.000    6.429    0.000    0.000    0.000    0.000 
#    0.000    0.000    0.000    0.000    0.000    0.000 
#
# Total GULP energy -347061.896256 kJ/mol
# GULP energy per Si atom -12395.067723 kJ/mol
# Density = 1.881682 g / cm^3
# Si number density = 18.859750 Si / 1000 Ang^3
#
#
#
# Elastic Constant Matrix: (Units=GPa)
#
#
# Indices 1 2 3 4 5 6 
#
# 1 129.3081 20.1752 57.1380 0.0000 -13.7635 0.0000
# 2 20.1752 26.8996 23.9862 0.0000 -6.5071 0.0000
# 3 57.1380 23.9862 134.7646 0.0000 -10.9482 0.0000
# 4 0.0000 0.0000 0.0000 25.1081 0.0000 -1.1639
# 5 -13.7635 -6.5071 -10.9482 0.0000 24.8738 0.0000
# 6 0.0000 0.0000 0.0000 -1.1639 0.0000 28.3782
#
#
#
# Elastic Compliance Matrix: (Units=1/GPa)
#
#
# Indices 1 2 3 4 5 6 
#
# 1 0.010155 -0.003860 -0.003365 0.000000 0.003129 0.000000
# 2 -0.003860 0.047414 -0.006190 0.000000 0.007544 0.000000
# 3 -0.003365 -0.006190 0.010024 0.000000 0.000931 0.000000
# 4 0.000000 0.000000 0.000000 0.039904 0.000000 0.001637
# 5 0.003129 0.007544 0.000931 0.000000 0.044317 0.000000
# 6 0.000000 0.000000 0.000000 0.001637 0.000000 0.035305
#
#
# Mechanical properties :
#
#
# Convention : Reuss Voigt Hill
#
# Bulk Modulus (GPa) = 24.53035 54.84123 39.68579
# Shear Modulus (GPa) = 21.97442 28.31689 25.14566
#
# Velocity S-wave (km/s) = 3.41713 3.87905 3.65540
# Velocity P-wave (km/s) = 5.34827 7.01458 6.23732
#
# Compressibility (1/GPa) = 0.04076583
#
# Stress axis : x y z
#
# Youngs Moduli (GPa) = 98.46966 21.09064 99.75847
#
# Poissons Ratio (x) = 0.08140 0.33565
# Poissons Ratio (y) = 0.38007 0.61748
# Poissons Ratio (z) = 0.33131 0.13055
#
# Static dielectric constant tensor:
#      x y z
#    x 4.514350 0.000000 -0.940980 
#    y 0.000000 3.475490 0.000000 
#    z -0.940980 0.000000 4.366630 
# 
# 
# High freq. dielectric constant tensor:
#      x y z
#    x 1.737370 0.000000 -0.005090 
#    y 0.000000 1.708470 0.000000 
#    z -0.005090 0.000000 1.737530 
# 
# From -- ./inp_files/337882.got.cif
#   From: 2010.06.25/outbox.cif.g09.slc.cpg/sg12_169_cif.got.tgz:337882.got - 2010.06.28 00:19:55.
