data_PCOD8098041
_publ_section_title
;
Structure prediction by ZEFSAII (Michael W. Deem and Ramdas Pophale) SiO2 
 PCOD8098041
Probable space group: C 2/M
;
_chemical_formula_sum "Si O2"
_cell_formula_units_Z 48
_cell_length_a 21.347562
_cell_length_b 12.941494
_cell_length_c 14.941987
_cell_angle_alpha 90.000000
_cell_angle_beta 36.215546
_cell_angle_gamma 90.000000
_cell_volume 2438.931601
_symmetry_space_group_name_H-M "C 2/M"
_symmetry_group_IT_number 12
_symmetry_cell_setting 'monoclinic'
loop_
_space_group_symop_operation_xyz
x,y,z
-x,y,-z
-x,-y,-z
x,-y,z
1/2+x,1/2+y,z
1/2-x,1/2+y,-z
1/2-x,1/2-y,-z
1/2+x,1/2-y,z
loop_
_atom_site_type_symbol
_atom_site_label
_atom_site_fract_x
_atom_site_fract_y
_atom_site_fract_z
Si Si1 0.387469 0.202332 0.170112
Si Si2 0.880434 0.325497 0.666713
Si Si3 0.727979 0.612308 0.208669
Si Si4 0.056345 0.618899 0.710725
Si Si5 0.835351 0.338382 0.912981
Si Si6 0.761431 0.383310 0.633031
O O1 0.315043 0.145981 0.180838
O O2 0.401187 0.125800 0.237594
O O3 0.338883 0.309263 0.262529
O O4 0.500000 0.231705 0.000000
O O5 0.861604 0.201012 0.694369
O O6 0.855247 0.382903 0.790117
O O7 0.801941 0.378609 0.687796
O O8 0.000000 0.347126 0.500000
O O9 0.679259 0.500000 0.292644
O O10 0.784636 0.589678 0.047690
O O11 0.024536 0.500000 0.727245
O O12 0.147024 0.656911 0.538566
O O13 0.953262 0.692027 0.813283
O O14 0.750000 0.250000 0.000000
O O15 0.726962 0.500000 0.648805
#
# Coordination Sequence:
#
# PCOD8098041 Si02
#       6
#     8   8   8   8   8   8
#     4  11  22  37  59  82 112 143 182 233 278 324
#     4  10  20  37  58  81 111 145 182 225 271 323
#     4  10  21  36  56  84 113 143 181 225 274 327
#     4  11  21  36  61  85 109 145 185 227 274 326
#     4  10  20  34  55  82 115 146 177 220 272 321
#     4  10  23  39  57  81 109 147 187 227 275 326
#
# _framework density 19.680748999999999
#
# number of rings (size 3 to 8) (size 9 to 14) (size 15 to 20)
#    0.000    1.667    3.333    1.500    0.000    3.000 
#    0.000    0.000    0.000    1.000    0.000    0.000 
#    0.000    0.000    0.000    0.000    0.000    0.000 
#
# Total GULP energy -297391.503526 kJ/mol
# GULP energy per Si atom -12391.312647 kJ/mol
# Density = 1.963595 g / cm^3
# Si number density = 19.680749 Si / 1000 Ang^3
#
#
#
# Elastic Constant Matrix: (Units=GPa)
#
#
# Indices 1 2 3 4 5 6 
#
# 1 93.3533 12.0972 29.2727 0.0000 14.4865 0.0000
# 2 12.0972 83.6810 19.3017 0.0000 -6.3589 0.0000
# 3 29.2727 19.3017 92.8977 0.0000 16.3833 0.0000
# 4 0.0000 0.0000 0.0000 14.7012 0.0000 -3.2277
# 5 14.4865 -6.3589 16.3833 0.0000 29.0173 0.0000
# 6 0.0000 0.0000 0.0000 -3.2277 0.0000 14.7416
#
#
#
# Elastic Compliance Matrix: (Units=1/GPa)
#
#
# Indices 1 2 3 4 5 6 
#
# 1 0.012560 -0.001569 -0.002738 0.000000 -0.005069 0.000000
# 2 -0.001569 0.013350 -0.003258 0.000000 0.005548 0.000000
# 3 -0.002738 -0.003258 0.013537 0.000000 -0.006990 0.000000
# 4 0.000000 0.000000 0.000000 0.071456 0.000000 0.015645
# 5 -0.005069 0.005548 -0.006990 0.000000 0.042155 0.000000
# 6 0.000000 0.000000 0.000000 0.015645 0.000000 0.071261
#
#
# Mechanical properties :
#
#
# Convention : Reuss Voigt Hill
#
# Bulk Modulus (GPa) = 41.12307 43.47503 42.29905
# Shear Modulus (GPa) = 20.19747 25.64273 22.92010
#
# Velocity S-wave (km/s) = 3.20700 3.61353 3.41632
# Velocity P-wave (km/s) = 5.88673 6.28874 6.09105
#
# Compressibility (1/GPa) = 0.02431725
#
# Stress axis : x y z
#
# Youngs Moduli (GPa) = 79.61501 74.90595 73.87223
#
# Poissons Ratio (x) = 0.11756 0.20225
# Poissons Ratio (y) = 0.12495 0.24066
# Poissons Ratio (z) = 0.21798 0.24403
#
# Static dielectric constant tensor:
#      x y z
#    x 3.748660 0.000000 0.272100 
#    y 0.000000 3.426290 0.000000 
#    z 0.272100 0.000000 3.893130 
# 
# 
# High freq. dielectric constant tensor:
#      x y z
#    x 1.773800 0.000000 0.016100 
#    y 0.000000 1.745880 0.000000 
#    z 0.016100 0.000000 1.776510 
# 
# From -- ./inp_files/165470.got.cif
#   From: 2010.06.25/outbox.cif.g09.slc.cpg/sg12_83_cif.got.tgz:165470.got - 2010.06.28 00:19:55.
