data_PCOD8098067
_publ_section_title
;
Structure prediction by ZEFSAII (Michael W. Deem and Ramdas Pophale) SiO2 
 PCOD8098067
Probable space group: C 2/M
;
_chemical_formula_sum "Si O2"
_cell_formula_units_Z 48
_cell_length_a 25.134166
_cell_length_b 14.351155
_cell_length_c 22.563998
_cell_angle_alpha 90.000000
_cell_angle_beta 162.195660
_cell_angle_gamma 90.000000
_cell_volume 2488.620092
_symmetry_space_group_name_H-M "C 2/M"
_symmetry_group_IT_number 12
_symmetry_cell_setting 'monoclinic'
loop_
_space_group_symop_operation_xyz
x,y,z
-x,y,-z
-x,-y,-z
x,-y,z
1/2+x,1/2+y,z
1/2-x,1/2+y,-z
1/2-x,1/2-y,-z
1/2+x,1/2-y,z
loop_
_atom_site_type_symbol
_atom_site_label
_atom_site_fract_x
_atom_site_fract_y
_atom_site_fract_z
Si Si1 0.637974 0.748546 0.693454
Si Si2 0.235762 0.393547 0.081907
Si Si3 0.136202 0.296007 0.509562
Si Si4 0.301996 0.399021 0.784578
Si Si5 0.619001 0.603335 0.450565
Si Si6 0.899804 0.394154 0.651387
O O1 0.500000 0.705127 0.500000
O O2 0.749541 0.666252 0.841855
O O3 0.542962 0.806846 0.644372
O O4 0.752420 0.824686 0.781637
O O5 0.211216 0.500000 0.076064
O O6 0.408351 0.383123 0.223150
O O7 0.063424 0.359974 0.864419
O O8 0.277730 0.358344 0.692646
O O9 0.191370 0.185933 0.569372
O O10 0.110109 0.326644 0.414741
O O11 0.204778 0.500000 0.688494
O O12 0.500000 0.420905 0.000000
O O13 0.660382 0.500000 0.521041
O O14 0.714831 0.612970 0.489021
O O15 0.932866 0.500000 0.665395
#
# Coordination Sequence:
#
# PCOD8098067 Si02
#       6
#     8   8   8   8   8   8
#     4   9  20  36  56  80 105 145 185 222 274 320
#     4   9  19  36  57  82 114 146 181 225 272 326
#     4  10  20  36  58  80 107 147 182 225 275 323
#     4  10  22  39  56  79 109 141 181 230 275 322
#     4   9  19  35  53  81 118 146 178 222 269 324
#     4  10  20  34  55  83 112 146 184 226 276 323
#
# _framework density 19.287797999999999
#
# number of rings (size 3 to 8) (size 9 to 14) (size 15 to 20)
#    0.000    2.500    0.000    1.000    2.333    6.667 
#    3.000    2.500    0.000    1.000    0.000    0.000 
#    0.000    0.000    0.000    0.000    0.000    0.000 
#
# Total GULP energy -297363.395408 kJ/mol
# GULP energy per Si atom -12390.141475 kJ/mol
# Density = 1.924390 g / cm^3
# Si number density = 19.287798 Si / 1000 Ang^3
#
#
#
# Elastic Constant Matrix: (Units=GPa)
#
#
# Indices 1 2 3 4 5 6 
#
# 1 107.8670 66.3850 47.1453 0.0673 -8.6453 -0.0071
# 2 66.3850 137.7838 63.4349 0.0691 -19.8340 0.0037
# 3 47.1453 63.4349 86.7051 0.1495 -11.0088 -0.0317
# 4 0.0673 0.0691 0.1495 22.3808 0.0167 -3.2207
# 5 -8.6453 -19.8340 -11.0088 0.0167 24.5118 -0.0029
# 6 -0.0071 0.0037 -0.0317 -3.2207 -0.0029 25.4578
#
#
#
# Elastic Compliance Matrix: (Units=1/GPa)
#
#
# Indices 1 2 3 4 5 6 
#
# 1 0.014084 -0.005038 -0.004093 0.000001 -0.000947 0.000000
# 2 -0.005038 0.013516 -0.006348 0.000010 0.006309 -0.000009
# 3 -0.004093 -0.006348 0.018630 -0.000092 0.001787 0.000012
# 4 0.000001 0.000010 -0.000092 0.045510 -0.000064 0.005757
# 5 -0.000947 0.006309 0.001787 -0.000064 0.046370 -0.000002
# 6 0.000000 -0.000009 0.000012 0.005757 -0.000002 0.040009
#
#
# Mechanical properties :
#
#
# Convention : Reuss Voigt Hill
#
# Bulk Modulus (GPa) = 65.47579 76.25404 70.86491
# Shear Modulus (GPa) = 23.34627 24.82947 24.08787
#
# Velocity S-wave (km/s) = 3.48288 3.59181 3.53776
# Velocity P-wave (km/s) = 7.08480 7.53805 7.31493
#
# Compressibility (1/GPa) = 0.01527282
#
# Stress axis : x y z
#
# Youngs Moduli (GPa) = 71.00271 73.98763 53.67670
#
# Poissons Ratio (x) = 0.37274 0.21967
# Poissons Ratio (y) = 0.35771 0.34074
# Poissons Ratio (z) = 0.29058 0.46968
#
# Static dielectric constant tensor:
#      x y z
#    x 3.570250 -0.000030 0.077330 
#    y -0.000030 3.808430 -0.000100 
#    z 0.077330 -0.000100 3.467840 
# 
# 
# High freq. dielectric constant tensor:
#      x y z
#    x 1.741830 0.000000 0.012040 
#    y 0.000000 1.767800 0.000000 
#    z 0.012040 0.000000 1.731840 
# 
# From -- ./inp_files/85666.got.cif
#   From: 2010.06.25/outbox.cif.g09.slc.cpg/sg12_43_cif.got.tgz:85666.got - 2010.06.28 00:19:55.
