data_PCOD8098879
_publ_section_title
;
Structure prediction by ZEFSAII (Michael W. Deem and Ramdas Pophale) SiO2 
 PCOD8098879
Probable space group: C 2/M
;
_chemical_formula_sum "Si O2"
_cell_formula_units_Z 64
_cell_length_a 14.457668
_cell_length_b 9.227674
_cell_length_c 24.090188
_cell_angle_alpha 90.000000
_cell_angle_beta 89.770153
_cell_angle_gamma 90.000000
_cell_volume 3213.861710
_symmetry_space_group_name_H-M "C 2/M"
_symmetry_group_IT_number 12
_symmetry_cell_setting 'monoclinic'
loop_
_space_group_symop_operation_xyz
x,y,z
-x,y,-z
-x,-y,-z
x,-y,z
1/2+x,1/2+y,z
1/2-x,1/2+y,-z
1/2-x,1/2-y,-z
1/2+x,1/2-y,z
loop_
_atom_site_type_symbol
_atom_site_label
_atom_site_fract_x
_atom_site_fract_y
_atom_site_fract_z
Si Si1 0.339651 0.829821 0.726877
Si Si2 0.523362 0.671726 0.201225
Si Si3 0.499171 0.830818 0.088537
Si Si4 0.349305 0.840450 0.395271
Si Si5 0.873458 0.832841 0.291959
Si Si6 0.894970 0.341082 0.513521
Si Si7 0.846788 0.332160 0.999498
Si Si8 0.862388 0.839380 0.621736
O O1 0.382302 0.751872 0.780730
O O2 0.230567 0.796995 0.727201
O O3 0.392117 0.761535 0.673115
O O4 0.360669 0.000000 0.728275
O O5 0.539642 0.500000 0.199782
O O6 0.494251 0.727773 0.141346
O O7 0.441263 0.717149 0.243068
O O8 0.592286 0.792010 0.054520
O O9 0.499938 0.000000 0.105341
O O10 0.407690 0.794108 0.053328
O O11 0.403260 0.744690 0.349715
O O12 0.348541 0.773253 0.457679
O O13 0.246567 0.854354 0.373882
O O14 0.396283 0.000000 0.398309
O O15 0.884208 0.000000 0.305454
O O16 0.850605 0.500000 0.528211
O O17 0.888773 0.229884 0.563432
O O18 0.000000 0.365820 0.500000
O O19 0.822105 0.500000 0.998956
O O20 0.750000 0.250000 0.000000
O O21 0.907646 0.000000 0.626868
#
# Coordination Sequence:
#
# PCOD8098879 Si02
#       8
#     8   8   8   8   8   8   8   8
#     4  10  21  39  60  80 108 150 190 228 284 348
#     4  11  23  38  58  87 119 150 190 243 284 324
#     4   9  20  39  58  84 121 161 197 231 279 342
#     4   9  19  35  54  75 101 135 176 222 274 336
#     4   9  21  39  57  79 109 145 186 231 283 339
#     4  10  21  34  49  75 105 133 173 220 271 341
#     4   9  19  37  62  89 121 158 199 239 281 330
#     4  10  20  35  54  76 102 134 176 227 279 332
#
# _framework density 19.913737000000001
#
# number of rings (size 3 to 8) (size 9 to 14) (size 15 to 20)
#    0.000    2.375    0.000    2.250    1.750    4.750 
#    0.000    5.000    0.000    0.000    0.000    0.000 
#    0.000    0.000    0.000    0.000    0.000    0.000 
#
# Total GULP energy -396708.440324 kJ/mol
# GULP energy per Si atom -12397.138760 kJ/mol
# Density = 1.986841 g / cm^3
# Si number density = 19.913737 Si / 1000 Ang^3
#
#
#
# Elastic Constant Matrix: (Units=GPa)
#
#
# Indices 1 2 3 4 5 6 
#
# 1 69.8662 34.7224 28.6191 0.0000 0.3094 0.0000
# 2 34.7224 90.8534 49.6404 0.0000 0.9979 0.0000
# 3 28.6191 49.6404 117.5469 0.0000 3.9952 0.0000
# 4 0.0000 0.0000 0.0000 45.8642 0.0000 2.1119
# 5 0.3094 0.9979 3.9952 0.0000 25.1794 0.0000
# 6 0.0000 0.0000 0.0000 2.1119 0.0000 24.0458
#
#
#
# Elastic Compliance Matrix: (Units=1/GPa)
#
#
# Indices 1 2 3 4 5 6 
#
# 1 0.017999 -0.005826 -0.001932 0.000000 0.000316 0.000000
# 2 -0.005826 0.016198 -0.005432 0.000000 0.000292 0.000000
# 3 -0.001932 -0.005432 0.011325 0.000000 -0.001558 0.000000
# 4 0.000000 0.000000 0.000000 0.021892 0.000000 -0.001923
# 5 0.000316 0.000292 -0.001558 0.000000 0.039947 0.000000
# 6 0.000000 0.000000 0.000000 -0.001923 0.000000 0.041756
#
#
# Mechanical properties :
#
#
# Convention : Reuss Voigt Hill
#
# Bulk Modulus (GPa) = 52.24622 56.02558 54.13590
# Shear Modulus (GPa) = 27.49091 30.03683 28.76387
#
# Velocity S-wave (km/s) = 3.71954 3.88796 3.80468
# Velocity P-wave (km/s) = 6.68879 6.95343 6.82239
#
# Compressibility (1/GPa) = 0.01914014
#
# Stress axis : x y z
#
# Youngs Moduli (GPa) = 55.55890 61.73538 88.30365
#
# Poissons Ratio (x) = 0.35970 0.17064
# Poissons Ratio (y) = 0.32371 0.47965
# Poissons Ratio (z) = 0.10736 0.33534
#
# Static dielectric constant tensor:
#      x y z
#    x 3.590230 0.000000 0.017010 
#    y 0.000000 3.759030 0.000000 
#    z 0.017010 0.000000 3.931630 
# 
# 
# High freq. dielectric constant tensor:
#      x y z
#    x 1.775000 0.000000 0.008620 
#    y 0.000000 1.776530 0.000000 
#    z 0.008620 0.000000 1.775960 
# 
# From -- ./inp_files/338822.got.cif
#   From: 2010.06.25/outbox.cif.g09.slc.cpg/sg12_170_cif.got.tgz:338822.got - 2010.06.28 00:19:55.
