data_PCOD8098719
_publ_section_title
;
Structure prediction by ZEFSAII (Michael W. Deem and Ramdas Pophale) SiO2 
 PCOD8098719
Probable space group: C 2/M
;
_chemical_formula_sum "Si O2"
_cell_formula_units_Z 56
_cell_length_a 12.052263
_cell_length_b 23.820320
_cell_length_c 15.578399
_cell_angle_alpha 90.000000
_cell_angle_beta 141.597878
_cell_angle_gamma 90.000000
_cell_volume 2778.140751
_symmetry_space_group_name_H-M "C 2/M"
_symmetry_group_IT_number 12
_symmetry_cell_setting 'monoclinic'
loop_
_space_group_symop_operation_xyz
x,y,z
-x,y,-z
-x,-y,-z
x,-y,z
1/2+x,1/2+y,z
1/2-x,1/2+y,-z
1/2-x,1/2-y,-z
1/2+x,1/2-y,z
loop_
_atom_site_type_symbol
_atom_site_label
_atom_site_fract_x
_atom_site_fract_y
_atom_site_fract_z
Si Si1 0.798141 0.000000 0.205253
Si Si2 0.222652 0.686797 0.222503
Si Si3 0.347105 0.162163 0.573731
Si Si4 0.447264 0.000000 0.104187
Si Si5 0.792438 0.771060 0.650528
Si Si6 0.576330 0.878333 0.850085
Si Si7 0.510862 0.402734 0.411522
Si Si8 0.189980 0.196142 0.912017
O O1 0.639659 0.000000 0.177449
O O2 0.919812 0.055091 0.288939
O O3 0.715260 0.000000 0.060880
O O4 0.243423 0.750367 0.273861
O O5 0.409567 0.656297 0.351474
O O6 0.188829 0.692448 0.100327
O O7 0.067578 0.650384 0.173142
O O8 0.349269 0.183517 0.475310
O O9 0.279042 0.214459 0.587756
O O10 0.538053 0.141977 0.728394
O O11 0.213631 0.109433 0.505903
O O12 0.431780 0.054697 0.153992
O O13 0.983719 0.801824 0.761014
O O14 0.768799 0.857196 0.001069
O O15 0.500000 0.430101 0.500000
O O16 0.250000 0.250000 0.000000
#
# Coordination Sequence:
#
# PCOD8098719 Si02
#       8
#     4   8   8   4   8   8   8   8
#     4  11  23  30  50  74 107 153 194 228 254 332
#     4  11  21  34  54  78 108 152 183 222 280 327
#     4  10  20  35  51  74 106 143 186 228 272 317
#     4  11  22  36  50  76 112 150 197 229 267 331
#     4  10  21  35  53  75 107 146 185 230 272 333
#     4  11  22  36  55  78 111 154 185 231 277 332
#     4  12  19  34  49  75 107 150 190 218 271 332
#     4  12  22  35  55  79 109 152 190 226 278 338
#
# _framework density 20.157367000000001
#
# number of rings (size 3 to 8) (size 9 to 14) (size 15 to 20)
#    0.000    1.000    8.571    1.500    2.000    0.571 
#    0.000    0.000    0.000    0.000    0.000    0.000 
#    0.000    5.714    0.000    0.000    0.000    0.071 
#
# Total GULP energy -347011.389383 kJ/mol
# GULP energy per Si atom -12393.263907 kJ/mol
# Density = 2.011149 g / cm^3
# Si number density = 20.157367 Si / 1000 Ang^3
#
#
#
# Elastic Constant Matrix: (Units=GPa)
#
#
# Indices 1 2 3 4 5 6 
#
# 1 19.2389 22.8665 20.3164 0.0000 -2.1846 0.0000
# 2 22.8665 111.6882 58.2360 0.0000 -12.7065 0.0000
# 3 20.3164 58.2360 122.6467 0.0000 -12.6454 0.0000
# 4 0.0000 0.0000 0.0000 48.2251 0.0000 2.0270
# 5 -2.1846 -12.7065 -12.6454 0.0000 20.5005 0.0000
# 6 0.0000 0.0000 0.0000 2.0270 0.0000 19.6860
#
#
#
# Elastic Compliance Matrix: (Units=1/GPa)
#
#
# Indices 1 2 3 4 5 6 
#
# 1 0.072759 -0.011746 -0.006863 0.000000 -0.003760 0.000000
# 2 -0.011746 0.014137 -0.004264 0.000000 0.004881 0.000000
# 3 -0.006863 -0.004264 0.011712 0.000000 0.003850 0.000000
# 4 0.000000 0.000000 0.000000 0.020826 0.000000 -0.002144
# 5 -0.003760 0.004881 0.003850 0.000000 0.053779 0.000000
# 6 0.000000 0.000000 0.000000 -0.002144 0.000000 0.051018
#
#
# Mechanical properties :
#
#
# Convention : Reuss Voigt Hill
#
# Bulk Modulus (GPa) = 18.91696 50.71243 34.81470
# Shear Modulus (GPa) = 17.38555 27.82598 22.60576
#
# Velocity S-wave (km/s) = 2.94001 3.71945 3.35246
# Velocity P-wave (km/s) = 4.57492 6.60747 5.68280
#
# Compressibility (1/GPa) = 0.05286261
#
# Stress axis : x y z
#
# Youngs Moduli (GPa) = 13.74409 70.73846 85.38393
#
# Poissons Ratio (x) = 0.83086 0.58599
# Poissons Ratio (y) = 0.16143 0.36404
# Poissons Ratio (z) = 0.09433 0.30160
#
# Static dielectric constant tensor:
#      x y z
#    x 3.321860 0.000000 -0.192690 
#    y 0.000000 3.682390 0.000000 
#    z -0.192690 0.000000 4.355540 
# 
# 
# High freq. dielectric constant tensor:
#      x y z
#    x 1.714070 0.000000 -0.010130 
#    y 0.000000 1.770010 0.000000 
#    z -0.010130 0.000000 1.823740 
# 
# From -- ./inp_files/209192.got.cif
#   From: 2010.06.25/outbox.cif.g09.slc.cpg/sg12_105_cif.got.tgz:209192.got - 2010.06.28 00:19:55.
