data_PCOD8098016
_publ_section_title
;
Structure prediction by ZEFSAII (Michael W. Deem and Ramdas Pophale) SiO2 
 PCOD8098016
Probable space group: C 2/M
;
_chemical_formula_sum "Si O2"
_cell_formula_units_Z 40
_cell_length_a 27.070803
_cell_length_b 8.777963
_cell_length_c 19.197629
_cell_angle_alpha 90.000000
_cell_angle_beta 152.181644
_cell_angle_gamma 90.000000
_cell_volume 2128.885839
_symmetry_space_group_name_H-M "C 2/M"
_symmetry_group_IT_number 12
_symmetry_cell_setting 'monoclinic'
loop_
_space_group_symop_operation_xyz
x,y,z
-x,y,-z
-x,-y,-z
x,-y,z
1/2+x,1/2+y,z
1/2-x,1/2+y,-z
1/2-x,1/2-y,-z
1/2+x,1/2-y,z
loop_
_atom_site_type_symbol
_atom_site_label
_atom_site_fract_x
_atom_site_fract_y
_atom_site_fract_z
Si Si1 0.384869 0.824672 0.360311
Si Si2 0.275754 0.675730 0.959351
Si Si3 0.321566 0.822103 0.648634
Si Si4 0.203892 0.181555 0.233483
Si Si5 0.433480 0.177302 0.052213
O O1 0.500000 0.742795 0.500000
O O2 0.329673 0.804017 0.217308
O O3 0.309792 0.755711 0.326986
O O4 0.402188 0.000000 0.401108
O O5 0.306186 0.500000 0.006776
O O6 0.250000 0.750000 0.000000
O O7 0.374479 0.757879 0.046207
O O8 0.250000 0.750000 0.500000
O O9 0.293098 0.743118 0.685386
O O10 0.443247 0.791010 0.781942
O O11 0.297020 0.000000 0.624080
O O12 0.198634 0.000000 0.226433
O O13 0.102424 0.241394 0.064033
O O14 0.408282 0.000000 0.013053
#
# Coordination Sequence:
#
# PCOD8098016 Si02
#       5
#     8   8   8   8   8
#     4   8  16  32  53  77 105 138 176 215 259 315
#     4  10  20  34  55  82 110 143 182 226 275 324
#     4  11  24  39  56  80 110 144 182 229 283 333
#     4  10  20  35  58  84 109 143 184 225 273 330
#     4  10  21  38  58  79 107 146 188 227 273 330
#
# _framework density 18.789171
#
# number of rings (size 3 to 8) (size 9 to 14) (size 15 to 20)
#    0.000    2.200    0.000    4.200    0.000    7.200 
#    0.000    4.000    0.000   20.400    0.000    0.000 
#    0.000    0.000    0.000    0.000    0.000    0.000 
#
# Total GULP energy -248005.515772 kJ/mol
# GULP energy per Si atom -12400.275789 kJ/mol
# Density = 1.874641 g / cm^3
# Si number density = 18.789171 Si / 1000 Ang^3
#
#
#
# Elastic Constant Matrix: (Units=GPa)
#
#
# Indices 1 2 3 4 5 6 
#
# 1 135.7555 65.8004 74.5780 0.0000 -17.4483 0.0000
# 2 65.8004 105.3867 68.5547 0.0000 0.1133 0.0000
# 3 74.5780 68.5547 123.3911 0.0000 3.0637 0.0000
# 4 0.0000 0.0000 0.0000 29.7788 0.0000 -5.4969
# 5 -17.4483 0.1133 3.0637 0.0000 34.1703 0.0000
# 6 0.0000 0.0000 0.0000 -5.4969 0.0000 36.4119
#
#
#
# Elastic Compliance Matrix: (Units=1/GPa)
#
#
# Indices 1 2 3 4 5 6 
#
# 1 0.013974 -0.004878 -0.005926 0.000000 0.007683 0.000000
# 2 -0.004878 0.016578 -0.006213 0.000000 -0.001989 0.000000
# 3 -0.005926 -0.006213 0.015247 0.000000 -0.004373 0.000000
# 4 0.000000 0.000000 0.000000 0.034544 0.000000 0.005215
# 5 0.007683 -0.001989 -0.004373 0.000000 0.033587 0.000000
# 6 0.000000 0.000000 0.000000 0.005215 0.000000 0.028251
#
#
# Mechanical properties :
#
#
# Convention : Reuss Voigt Hill
#
# Bulk Modulus (GPa) = 85.00572 86.93329 85.96950
# Shear Modulus (GPa) = 27.75682 30.44554 29.10118
#
# Velocity S-wave (km/s) = 3.84771 4.02976 3.93978
# Velocity P-wave (km/s) = 8.06721 8.24743 8.15782
#
# Compressibility (1/GPa) = 0.01176391
#
# Stress axis : x y z
#
# Youngs Moduli (GPa) = 71.56350 60.31995 65.58767
#
# Poissons Ratio (x) = 0.29423 0.38870
# Poissons Ratio (y) = 0.34907 0.40751
# Poissons Ratio (z) = 0.42411 0.37478
#
# Static dielectric constant tensor:
#      x y z
#    x 3.652110 0.000000 0.189550 
#    y 0.000000 3.460420 0.000000 
#    z 0.189550 0.000000 3.540260 
# 
# 
# High freq. dielectric constant tensor:
#      x y z
#    x 1.742340 0.000000 0.004460 
#    y 0.000000 1.727090 0.000000 
#    z 0.004460 0.000000 1.729740 
# 
# From -- ./inp_files/211436.got.cif
#   From: 2010.06.25/outbox.cif.g09.slc.cpg/sg12_106_cif.got.tgz:211436.got - 2010.06.28 00:19:55.
