data_PCOD8098916
_publ_section_title
;
Structure prediction by ZEFSAII (Michael W. Deem and Ramdas Pophale) SiO2 
 PCOD8098916
Probable space group: C 2/M
;
_chemical_formula_sum "Si O2"
_cell_formula_units_Z 56
_cell_length_a 33.900989
_cell_length_b 10.056402
_cell_length_c 7.173836
_cell_angle_alpha 90.000000
_cell_angle_beta 85.080694
_cell_angle_gamma 90.000000
_cell_volume 2436.709421
_symmetry_space_group_name_H-M "C 2/M"
_symmetry_group_IT_number 12
_symmetry_cell_setting 'monoclinic'
loop_
_space_group_symop_operation_xyz
x,y,z
-x,y,-z
-x,-y,-z
x,-y,z
1/2+x,1/2+y,z
1/2-x,1/2+y,-z
1/2-x,1/2-y,-z
1/2+x,1/2-y,z
loop_
_atom_site_type_symbol
_atom_site_label
_atom_site_fract_x
_atom_site_fract_y
_atom_site_fract_z
Si Si1 0.970879 0.350365 0.280166
Si Si2 0.659706 0.149833 0.529487
Si Si3 0.617513 0.354669 0.025847
Si Si4 0.729527 0.855644 0.248995
Si Si5 0.056202 0.647851 0.133806
Si Si6 0.407798 0.651560 0.388217
Si Si7 0.806656 0.285805 0.107817
O O1 0.960980 0.500000 0.358787
O O2 0.948116 0.235929 0.405705
O O3 0.018036 0.323478 0.280499
O O4 0.957845 0.341851 0.072136
O O5 0.697444 0.207211 0.402144
O O6 0.626414 0.260178 0.500939
O O7 0.668413 0.134502 0.747580
O O8 0.647684 0.000000 0.466399
O O9 0.613223 0.500000 0.120189
O O10 0.600390 0.358043 0.826272
O O11 0.664056 0.319993 0.002009
O O12 0.591628 0.251934 0.161136
O O13 0.770076 0.776251 0.234575
O O14 0.740248 0.000000 0.322626
O O15 0.711259 0.874183 0.049359
O O16 0.072836 0.500000 0.166595
O O17 0.410479 0.500000 0.468746
#
# Coordination Sequence:
#
# PCOD8098916 Si02
#       7
#     8   8   8   8   8   8   8
#     4   8  13  23  39  62  95 133 171 213 257 303
#     4  10  20  35  55  78 105 139 176 215 259 308
#     4   9  17  28  44  67  98 135 171 212 261 309
#     4  10  21  36  54  78 105 136 177 218 259 311
#     4   8  14  23  38  63  95 131 172 214 255 304
#     4   9  17  28  44  69 100 135 173 214 259 307
#     4  10  20  35  54  77 105 138 173 215 263 309
#
# _framework density 22.981812999999999
#
# number of rings (size 3 to 8) (size 9 to 14) (size 15 to 20)
#    0.000    2.857    0.000    2.571    0.000    5.143 
#    0.000    7.143    0.000    0.000    0.000    1.000 
#    0.000    6.857    0.000    0.571    0.000    0.000 
#
# Total GULP energy -346964.390073 kJ/mol
# GULP energy per Si atom -12391.585360 kJ/mol
# Density = 2.292951 g / cm^3
# Si number density = 22.981813 Si / 1000 Ang^3
#
#
#
# Elastic Constant Matrix: (Units=GPa)
#
#
# Indices 1 2 3 4 5 6 
#
# 1 101.4466 81.2424 33.9362 0.0000 -42.6308 0.0000
# 2 81.2424 188.7396 25.7369 0.0000 -48.0164 0.0000
# 3 33.9362 25.7369 34.9973 0.0000 -23.3270 0.0000
# 4 0.0000 0.0000 0.0000 14.3714 0.0000 -2.9816
# 5 -42.6308 -48.0164 -23.3270 0.0000 45.9115 0.0000
# 6 0.0000 0.0000 0.0000 -2.9816 0.0000 -14.8222
#
#
#
# Elastic Compliance Matrix: (Units=1/GPa)
#
#
# Indices 1 2 3 4 5 6 
#
# 1 0.021731 -0.005642 -0.011199 0.000000 0.008587 0.000000
# 2 -0.005642 0.008688 0.002489 0.000000 0.005112 0.000000
# 3 -0.011199 0.002489 0.049001 0.000000 0.017102 0.000000
# 4 0.000000 0.000000 0.000000 0.066795 0.000000 -0.013436
# 5 0.008587 0.005112 0.017102 0.000000 0.043790 0.000000
# 6 0.000000 0.000000 0.000000 -0.013436 0.000000 -0.064764
#
#
# Mechanical properties :
#
#
# Convention : Reuss Voigt Hill
#
# Bulk Modulus (GPa) = 19.71753 67.44604 43.58179
# Shear Modulus (GPa) = 29.26525 21.37666 25.32096
#
# Velocity S-wave (km/s) = 3.57236 3.05315 3.32291
# Velocity P-wave (km/s) = 5.06102 6.46841 5.80750
#
# Compressibility (1/GPa) = 0.05071629
#
# Stress axis : x y z
#
# Youngs Moduli (GPa) = 46.01774 115.09980 20.40764
#
# Poissons Ratio (x) = 0.64942 0.22855
# Poissons Ratio (y) = 0.25964 -0.05080
# Poissons Ratio (z) = 0.51536 -0.28654
#
# Static dielectric constant tensor:
#      x y z
#    x 4.109970 0.000000 -0.312140 
#    y 0.000000 4.218000 0.000000 
#    z -0.312140 0.000000 3.872230 
# 
# 
# High freq. dielectric constant tensor:
#      x y z
#    x 1.900540 0.000000 -0.013360 
#    y 0.000000 1.895460 0.000000 
#    z -0.013360 0.000000 1.900650 
# 
# From -- ./inp_files/109849.got.cif
#   From: 2010.06.25/outbox.cif.g09.slc.cpg/sg12_55_cif.got.tgz:109849.got - 2010.06.28 00:19:55.
