data_PCOD8098918
_publ_section_title
;
Structure prediction by ZEFSAII (Michael W. Deem and Ramdas Pophale) SiO2 
 PCOD8098918
Probable space group: C 2/M
;
_chemical_formula_sum "Si O2"
_cell_formula_units_Z 52
_cell_length_a 12.212136
_cell_length_b 14.166994
_cell_length_c 19.326727
_cell_angle_alpha 90.000000
_cell_angle_beta 126.136398
_cell_angle_gamma 90.000000
_cell_volume 2700.425867
_symmetry_space_group_name_H-M "C 2/M"
_symmetry_group_IT_number 12
_symmetry_cell_setting 'monoclinic'
loop_
_space_group_symop_operation_xyz
x,y,z
-x,y,-z
-x,-y,-z
x,-y,z
1/2+x,1/2+y,z
1/2-x,1/2+y,-z
1/2-x,1/2-y,-z
1/2+x,1/2-y,z
loop_
_atom_site_type_symbol
_atom_site_label
_atom_site_fract_x
_atom_site_fract_y
_atom_site_fract_z
Si Si1 0.921638 0.216937 0.400268
Si Si2 0.000000 0.731730 0.000000
Si Si3 0.559149 0.895006 0.898760
Si Si4 0.236892 0.680332 0.843960
Si Si5 0.257121 0.390710 0.700310
Si Si6 0.155198 0.393176 0.290390
Si Si7 0.514741 0.280756 0.290872
O O1 0.857807 0.322456 0.375113
O O2 0.810542 0.135939 0.348784
O O3 0.000000 0.201431 0.500000
O O4 0.024493 0.195261 0.375692
O O5 0.920872 0.671257 0.027963
O O6 0.111292 0.794144 0.079184
O O7 0.671861 0.878078 0.882236
O O8 0.408482 0.880881 0.810266
O O9 0.577988 0.000000 0.933917
O O10 0.251886 0.616401 0.781093
O O11 0.142654 0.772851 0.792965
O O12 0.234327 0.500000 0.669919
O O13 0.403028 0.355222 0.725275
O O14 0.138468 0.500000 0.310814
O O15 0.073091 0.325387 0.310648
#
# Coordination Sequence:
#
# PCOD8098918 Si02
#       7
#     8   4   8   8   8   8   8
#     4  10  21  36  55  83 116 143 173 221 276 324
#     4  12  21  34  55  82 110 140 178 222 272 322
#     4  10  20  35  54  77 106 141 181 222 266 319
#     4  10  20  37  56  76 106 143 179 221 275 323
#     4  10  21  38  58  80 107 144 188 226 265 319
#     4   9  19  36  57  78 104 144 186 221 265 323
#     4   9  19  37  56  77 106 143 182 224 268 319
#
# _framework density 19.256221
#
# number of rings (size 3 to 8) (size 9 to 14) (size 15 to 20)
#    0.000    2.154    0.000    4.846    0.000    7.385 
#    0.000    6.154    0.000    0.000    0.000    0.000 
#    0.000    0.000    0.000    0.000    0.000    0.000 
#
# Total GULP energy -322289.156230 kJ/mol
# GULP energy per Si atom -12395.736778 kJ/mol
# Density = 1.921239 g / cm^3
# Si number density = 19.256221 Si / 1000 Ang^3
#
#
#
# Elastic Constant Matrix: (Units=GPa)
#
#
# Indices 1 2 3 4 5 6 
#
# 1 100.1611 26.1032 26.5475 0.0000 -9.6798 0.0000
# 2 26.1032 83.0706 24.2339 0.0000 4.6271 0.0000
# 3 26.5475 24.2339 44.0052 0.0000 -15.6009 0.0000
# 4 0.0000 0.0000 0.0000 18.0068 0.0000 -4.6286
# 5 -9.6798 4.6271 -15.6009 0.0000 20.6557 0.0000
# 6 0.0000 0.0000 0.0000 -4.6286 0.0000 13.3999
#
#
#
# Elastic Compliance Matrix: (Units=1/GPa)
#
#
# Indices 1 2 3 4 5 6 
#
# 1 0.012228 -0.002463 -0.005180 0.000000 0.002369 0.000000
# 2 -0.002463 0.017686 -0.013750 0.000000 -0.015501 0.000000
# 3 -0.005180 -0.013750 0.045959 0.000000 0.035365 0.000000
# 4 0.000000 0.000000 0.000000 0.060946 0.000000 0.021052
# 5 0.002369 -0.015501 0.035365 0.000000 0.079706 0.000000
# 6 0.000000 0.000000 0.000000 0.021052 0.000000 0.081899
#
#
# Mechanical properties :
#
#
# Convention : Reuss Voigt Hill
#
# Bulk Modulus (GPa) = 30.22279 42.33400 36.27839
# Shear Modulus (GPa) = 14.19488 20.43598 17.31543
#
# Velocity S-wave (km/s) = 2.71801 3.26124 3.00194
# Velocity P-wave (km/s) = 5.05759 6.01774 5.55844
#
# Compressibility (1/GPa) = 0.03308762
#
# Stress axis : x y z
#
# Youngs Moduli (GPa) = 81.78057 56.54055 21.75836
#
# Poissons Ratio (x) = 0.13926 0.11272
# Poissons Ratio (y) = 0.20143 0.29917
# Poissons Ratio (z) = 0.42366 0.77741
#
# Static dielectric constant tensor:
#      x y z
#    x 3.654100 0.000000 0.019100 
#    y 0.000000 3.428620 0.000000 
#    z 0.019100 0.000000 3.399580 
# 
# 
# High freq. dielectric constant tensor:
#      x y z
#    x 1.760590 0.000000 -0.003590 
#    y 0.000000 1.735590 0.000000 
#    z -0.003590 0.000000 1.734090 
# 
# From -- ./inp_files/305520.got.cif
#   From: 2010.06.25/outbox.cif.g09.slc.cpg/sg12_153_cif.got.tgz:305520.got - 2010.06.28 00:19:55.
