data_PCOD8098051
_publ_section_title
;
Structure prediction by ZEFSAII (Michael W. Deem and Ramdas Pophale) SiO2 
 PCOD8098051
Probable space group: C 2/M
;
_chemical_formula_sum "Si O2"
_cell_formula_units_Z 48
_cell_length_a 7.765359
_cell_length_b 24.279540
_cell_length_c 19.987208
_cell_angle_alpha 90.000000
_cell_angle_beta 141.538106
_cell_angle_gamma 90.000000
_cell_volume 2343.906720
_symmetry_space_group_name_H-M "C 2/M"
_symmetry_group_IT_number 12
_symmetry_cell_setting 'monoclinic'
loop_
_space_group_symop_operation_xyz
x,y,z
-x,y,-z
-x,-y,-z
x,-y,z
1/2+x,1/2+y,z
1/2-x,1/2+y,-z
1/2-x,1/2-y,-z
1/2+x,1/2-y,z
loop_
_atom_site_type_symbol
_atom_site_label
_atom_site_fract_x
_atom_site_fract_y
_atom_site_fract_z
Si Si1 0.077881 0.561370 0.627751
Si Si2 0.420936 0.408198 0.610024
Si Si3 0.166856 0.771475 0.242134
Si Si4 0.469222 0.936496 0.234938
Si Si5 0.680088 0.707022 0.390301
Si Si6 0.765726 0.175670 0.875094
O O1 0.188863 0.500000 0.667282
O O2 0.299628 0.592068 0.648853
O O3 0.776686 0.561005 0.502048
O O4 0.052489 0.584848 0.695025
O O5 0.715724 0.436740 0.694295
O O6 0.421398 0.343284 0.593549
O O7 0.494588 0.759502 0.352536
O O8 0.097610 0.806076 0.287471
O O9 0.110359 0.808138 0.159672
O O10 0.997166 0.713815 0.186670
O O11 0.305770 0.889893 0.143337
O O12 0.358845 0.000000 0.191560
O O13 0.000000 0.721047 0.500000
O O14 0.000000 0.187838 0.000000
#
# Coordination Sequence:
#
# PCOD8098051 Si02
#       6
#     8   8   8   8   8   8
#     4  10  20  34  55  82 118 163 203 239 290 362
#     4  11  19  34  57  84 122 162 201 240 291 366
#     4  10  23  40  60  88 121 155 202 251 306 365
#     4  11  23  39  60  89 123 158 202 256 309 364
#     4  11  20  36  57  89 125 159 192 238 305 371
#     4  11  23  42  65  87 112 156 211 264 310 351
#
# _framework density 20.478631
#
# number of rings (size 3 to 8) (size 9 to 14) (size 15 to 20)
#    0.000    1.333    3.333    4.500    0.000    1.667 
#    0.000    0.000    0.000    0.000    0.000    4.667 
#    0.000    0.000    0.000    0.000    0.000    0.000 
#
# Total GULP energy -297413.493717 kJ/mol
# GULP energy per Si atom -12392.228905 kJ/mol
# Density = 2.043202 g / cm^3
# Si number density = 20.478631 Si / 1000 Ang^3
#
#
#
# Elastic Constant Matrix: (Units=GPa)
#
#
# Indices 1 2 3 4 5 6 
#
# 1 63.9594 16.8214 21.7237 0.0000 -2.8248 0.0000
# 2 16.8214 94.7325 28.5613 0.0000 -6.4413 0.0000
# 3 21.7237 28.5613 78.7302 -0.0002 -0.9896 -0.0001
# 4 0.0000 0.0000 -0.0002 16.1366 0.0000 -8.6511
# 5 -2.8248 -6.4413 -0.9896 0.0000 17.4247 0.0000
# 6 0.0000 0.0000 -0.0001 -8.6511 0.0000 21.2873
#
#
#
# Elastic Compliance Matrix: (Units=1/GPa)
#
#
# Indices 1 2 3 4 5 6 
#
# 1 0.017605 -0.001723 -0.004208 0.000000 0.001978 0.000000
# 2 -0.001723 0.012327 -0.003946 0.000000 0.004054 0.000000
# 3 -0.004208 -0.003946 0.015278 0.000000 -0.001273 0.000000
# 4 0.000000 0.000000 0.000000 0.079234 0.000000 0.032201
# 5 0.001978 0.004054 -0.001273 0.000000 0.059137 0.000000
# 6 0.000000 0.000000 0.000000 0.032201 0.000000 0.060063
#
#
# Mechanical properties :
#
#
# Convention : Reuss Voigt Hill
#
# Bulk Modulus (GPa) = 39.28150 41.29279 40.28714
# Shear Modulus (GPa) = 18.39039 22.32411 20.35725
#
# Velocity S-wave (km/s) = 2.99996 3.30527 3.15631
# Velocity P-wave (km/s) = 5.58776 5.89695 5.74444
#
# Compressibility (1/GPa) = 0.02545728
#
# Stress axis : x y z
#
# Youngs Moduli (GPa) = 56.80358 81.12156 65.45363
#
# Poissons Ratio (x) = 0.13977 0.27541
# Poissons Ratio (y) = 0.09787 0.25826
# Poissons Ratio (z) = 0.23901 0.32008
#
# Static dielectric constant tensor:
#      x y z
#    x 3.963460 0.000000 -0.054570 
#    y 0.000000 3.757980 0.000000 
#    z -0.054570 0.000000 3.340250 
# 
# 
# High freq. dielectric constant tensor:
#      x y z
#    x 1.808760 0.000000 -0.002230 
#    y 0.000000 1.809490 0.000000 
#    z -0.002230 0.000000 1.762770 
# 
# From -- ./inp_files/121924.got.cif
#   From: 2010.06.25/outbox.cif.g09.slc.cpg/sg12_61_cif.got.tgz:121924.got - 2010.06.28 00:19:55.
