data_PCOD8098496
_publ_section_title
;
Structure prediction by ZEFSAII (Michael W. Deem and Ramdas Pophale) SiO2 
 PCOD8098496
Probable space group: C 2/M
;
_chemical_formula_sum "Si O2"
_cell_formula_units_Z 56
_cell_length_a 23.133115
_cell_length_b 9.006985
_cell_length_c 14.955874
_cell_angle_alpha 90.000000
_cell_angle_beta 64.142365
_cell_angle_gamma 90.000000
_cell_volume 2804.207838
_symmetry_space_group_name_H-M "C 2/M"
_symmetry_group_IT_number 12
_symmetry_cell_setting 'monoclinic'
loop_
_space_group_symop_operation_xyz
x,y,z
-x,y,-z
-x,-y,-z
x,-y,z
1/2+x,1/2+y,z
1/2-x,1/2+y,-z
1/2-x,1/2-y,-z
1/2+x,1/2-y,z
loop_
_atom_site_type_symbol
_atom_site_label
_atom_site_fract_x
_atom_site_fract_y
_atom_site_fract_z
Si Si1 0.469690 0.674778 0.114949
Si Si2 0.990846 0.826888 0.403465
Si Si3 0.943517 0.673896 0.796976
Si Si4 0.739568 0.327954 0.645604
Si Si5 0.344572 0.328997 0.468508
Si Si6 0.159097 0.324618 0.837659
Si Si7 0.815279 0.328138 0.980147
O O1 0.461548 0.500000 0.132287
O O2 0.513497 0.735076 0.163747
O O3 0.400755 0.749399 0.170779
O O4 0.500000 0.719345 0.000000
O O5 0.919374 0.786454 0.418364
O O6 0.000000 0.781297 0.500000
O O7 0.041806 0.731028 0.312565
O O8 0.005817 0.000000 0.378935
O O9 0.958778 0.500000 0.795922
O O10 0.869072 0.706971 0.869492
O O11 0.744963 0.500000 0.666735
O O12 0.684292 0.297486 0.609609
O O13 0.808521 0.272763 0.564860
O O14 0.722791 0.235469 0.745735
O O15 0.334501 0.500000 0.502998
O O16 0.154054 0.500000 0.830757
O O17 0.160046 0.272990 0.939988
O O18 0.799394 0.500000 0.996316
O O19 0.750000 0.250000 0.000000
#
# Coordination Sequence:
#
# PCOD8098496 Si02
#       7
#     8   8   8   8   8   8   8
#     4  11  22  36  60  92 122 155 196 244 298 357
#     4  10  22  40  62  87 117 156 203 251 299 356
#     4  11  23  41  63  89 122 158 200 251 305 359
#     4  10  20  34  57  87 117 150 194 243 293 352
#     4   9  19  37  57  81 116 151 191 242 298 354
#     4  11  22  38  59  86 122 159 196 239 296 357
#     4  10  24  42  60  84 117 158 200 242 289 349
#
# _framework density 19.969988000000001
#
# number of rings (size 3 to 8) (size 9 to 14) (size 15 to 20)
#    0.000    1.714    1.429    2.571    0.000    6.571 
#    0.000    4.286    0.000    0.000    0.000    0.000 
#    0.000    0.000    0.000    0.000    0.000    0.000 
#
# Total GULP energy -347345.123495 kJ/mol
# GULP energy per Si atom -12405.182982 kJ/mol
# Density = 1.992454 g / cm^3
# Si number density = 19.969988 Si / 1000 Ang^3
#
#
#
# Elastic Constant Matrix: (Units=GPa)
#
#
# Indices 1 2 3 4 5 6 
#
# 1 78.7157 29.6645 32.0443 0.0000 -9.3478 0.0000
# 2 29.6645 72.6519 57.3345 0.0000 -5.1997 -0.0002
# 3 32.0443 57.3345 137.0637 0.0000 -8.6518 0.0000
# 4 0.0000 0.0000 0.0000 39.9527 0.0000 -3.7639
# 5 -9.3478 -5.1997 -8.6518 0.0000 25.0762 0.0000
# 6 0.0000 -0.0002 0.0000 -3.7639 0.0000 31.4619
#
#
#
# Elastic Compliance Matrix: (Units=1/GPa)
#
#
# Indices 1 2 3 4 5 6 
#
# 1 0.015648 -0.005087 -0.001256 0.000000 0.004345 0.000000
# 2 -0.005087 0.022244 -0.008121 0.000000 -0.000086 0.000000
# 3 -0.001256 -0.008121 0.011092 0.000000 0.001675 0.000000
# 4 0.000000 0.000000 0.000000 0.025315 0.000000 0.003028
# 5 0.004345 -0.000086 0.001675 0.000000 0.042058 0.000000
# 6 0.000000 0.000000 0.000000 0.003028 0.000000 0.032147
#
#
# Mechanical properties :
#
#
# Convention : Reuss Voigt Hill
#
# Bulk Modulus (GPa) = 49.85953 58.50198 54.18076
# Shear Modulus (GPa) = 27.15642 30.59068 28.87355
#
# Velocity S-wave (km/s) = 3.69163 3.91811 3.80655
# Velocity P-wave (km/s) = 6.57208 7.05885 6.81981
#
# Compressibility (1/GPa) = 0.02005635
#
# Stress axis : x y z
#
# Youngs Moduli (GPa) = 63.90408 44.95603 90.15254
#
# Poissons Ratio (x) = 0.22869 0.11325
# Poissons Ratio (y) = 0.32508 0.73212
# Poissons Ratio (z) = 0.08028 0.36508
#
# Static dielectric constant tensor:
#      x y z
#    x 3.508430 0.000000 -0.079550 
#    y 0.000000 3.607930 0.000000 
#    z -0.079550 0.000000 3.947850 
# 
# 
# High freq. dielectric constant tensor:
#      x y z
#    x 1.769710 0.000000 -0.006980 
#    y 0.000000 1.781350 0.000000 
#    z -0.006980 0.000000 1.792540 
# 
# From -- ./inp_files/238240.got.cif
#   From: 2010.06.25/outbox.cif.g09.slc.cpg/sg12_120_cif.got.tgz:238240.got - 2010.06.28 00:19:55.
