data_PCOD8098311
_publ_section_title
;
Structure prediction by ZEFSAII (Michael W. Deem and Ramdas Pophale) SiO2 
 PCOD8098311
Probable space group: C 2/M
;
_chemical_formula_sum "Si O2"
_cell_formula_units_Z 56
_cell_length_a 19.336626
_cell_length_b 9.095070
_cell_length_c 18.413779
_cell_angle_alpha 90.000000
_cell_angle_beta 115.500529
_cell_angle_gamma 90.000000
_cell_volume 2922.913787
_symmetry_space_group_name_H-M "C 2/M"
_symmetry_group_IT_number 12
_symmetry_cell_setting 'monoclinic'
loop_
_space_group_symop_operation_xyz
x,y,z
-x,y,-z
-x,-y,-z
x,-y,z
1/2+x,1/2+y,z
1/2-x,1/2+y,-z
1/2-x,1/2-y,-z
1/2+x,1/2-y,z
loop_
_atom_site_type_symbol
_atom_site_label
_atom_site_fract_x
_atom_site_fract_y
_atom_site_fract_z
Si Si1 0.315209 0.827760 0.984450
Si Si2 0.588420 0.169149 0.219995
Si Si3 0.911645 0.834685 0.480852
Si Si4 0.047222 0.669949 0.364323
Si Si5 0.624025 0.172520 0.674870
Si Si6 0.029025 0.828240 0.933266
Si Si7 0.236431 0.331919 0.199259
O O1 0.304616 0.792630 0.894800
O O2 0.314066 0.000000 0.000287
O O3 0.250000 0.750000 0.000000
O O4 0.394757 0.762497 0.048281
O O5 0.581369 0.206548 0.301412
O O6 0.534102 0.279225 0.152652
O O7 0.675869 0.197641 0.236095
O O8 0.564817 0.000000 0.193069
O O9 0.902008 0.760037 0.555033
O O10 0.864386 0.747128 0.398539
O O11 0.000000 0.830903 0.500000
O O12 0.879463 0.000000 0.469960
O O13 0.055747 0.500000 0.388690
O O14 0.957657 0.715278 0.326740
O O15 0.689749 0.229402 0.758337
O O16 0.632558 0.000000 0.668432
O O17 0.046072 0.000000 0.931344
O O18 0.000000 0.789601 0.000000
O O19 0.264799 0.500000 0.212400
#
# Coordination Sequence:
#
# PCOD8098311 Si02
#       7
#     8   8   8   8   8   8   8
#     4  11  24  41  61  85 116 152 193 240 290 341
#     4  10  21  39  60  82 112 152 192 232 284 341
#     4   9  17  32  55  82 112 146 182 224 276 333
#     4   9  19  35  57  85 111 141 184 232 279 333
#     4  10  20  34  56  84 114 146 183 231 282 333
#     4  11  23  39  60  86 115 151 194 238 284 340
#     4  10  22  39  57  80 113 150 188 231 282 340
#
# _framework density 19.158964000000001
#
# number of rings (size 3 to 8) (size 9 to 14) (size 15 to 20)
#    0.000    2.000    1.429    1.714    2.000    5.143 
#    0.000    0.714    0.000    0.000    0.000    0.000 
#    0.000    0.000    0.000    0.000    0.000    0.000 
#
# Total GULP energy -347323.642543 kJ/mol
# GULP energy per Si atom -12404.415805 kJ/mol
# Density = 1.911536 g / cm^3
# Si number density = 19.158964 Si / 1000 Ang^3
#
#
#
# Elastic Constant Matrix: (Units=GPa)
#
#
# Indices 1 2 3 4 5 6 
#
# 1 74.8095 31.9398 16.0316 0.0000 -14.8607 0.0000
# 2 31.9398 85.1310 28.5059 0.0000 -6.2893 0.0000
# 3 16.0316 28.5059 54.7788 0.0000 -15.4058 0.0000
# 4 0.0000 0.0000 0.0000 38.4108 0.0000 5.4124
# 5 -14.8607 -6.2893 -15.4058 0.0000 32.9556 0.0000
# 6 0.0000 0.0000 0.0000 5.4124 0.0000 26.1744
#
#
#
# Elastic Compliance Matrix: (Units=1/GPa)
#
#
# Indices 1 2 3 4 5 6 
#
# 1 0.017237 -0.005948 -0.000095 0.000000 0.006593 0.000000
# 2 -0.005948 0.016299 -0.007623 0.000000 -0.003135 0.000000
# 3 -0.000095 -0.007623 0.025133 0.000000 0.010251 0.000000
# 4 0.000000 0.000000 0.000000 0.026816 0.000000 -0.005545
# 5 0.006593 -0.003135 0.010251 0.000000 0.037511 0.000000
# 6 0.000000 0.000000 0.000000 -0.005545 0.000000 0.039352
#
#
# Mechanical properties :
#
#
# Convention : Reuss Voigt Hill
#
# Bulk Modulus (GPa) = 31.91103 40.85266 36.38185
# Shear Modulus (GPa) = 24.98445 28.72428 26.85436
#
# Velocity S-wave (km/s) = 3.61510 3.87623 3.74794
# Velocity P-wave (km/s) = 5.84100 6.43450 6.14492
#
# Compressibility (1/GPa) = 0.03133713
#
# Stress axis : x y z
#
# Youngs Moduli (GPa) = 58.01511 61.35325 39.78862
#
# Poissons Ratio (x) = 0.36494 0.00378
# Poissons Ratio (y) = 0.34508 0.30329
# Poissons Ratio (z) = 0.00552 0.46767
#
# Static dielectric constant tensor:
#      x y z
#    x 3.527390 0.000000 -0.029270 
#    y 0.000000 3.558430 0.000000 
#    z -0.029270 0.000000 3.631770 
# 
# 
# High freq. dielectric constant tensor:
#      x y z
#    x 1.732500 0.000000 -0.005280 
#    y 0.000000 1.751020 0.000000 
#    z -0.005280 0.000000 1.748570 
# 
# From -- ./inp_files/275484.got.cif
#   From: 2010.06.25/outbox.cif.g09.slc.cpg/sg12_138_cif.got.tgz:275484.got - 2010.06.28 00:19:55.
