data_PCOD8098402
_publ_section_title
;
Structure prediction by ZEFSAII (Michael W. Deem and Ramdas Pophale) SiO2 
 PCOD8098402
Probable space group: C 2/M
;
_chemical_formula_sum "Si O2"
_cell_formula_units_Z 64
_cell_length_a 20.079253
_cell_length_b 25.523217
_cell_length_c 11.677918
_cell_angle_alpha 90.000000
_cell_angle_beta 32.298552
_cell_angle_gamma 90.000000
_cell_volume 3197.854849
_symmetry_space_group_name_H-M "C 2/M"
_symmetry_group_IT_number 12
_symmetry_cell_setting 'monoclinic'
loop_
_space_group_symop_operation_xyz
x,y,z
-x,y,-z
-x,-y,-z
x,-y,z
1/2+x,1/2+y,z
1/2-x,1/2+y,-z
1/2-x,1/2-y,-z
1/2+x,1/2-y,z
loop_
_atom_site_type_symbol
_atom_site_label
_atom_site_fract_x
_atom_site_fract_y
_atom_site_fract_z
Si Si1 0.475426 0.557963 0.242151
Si Si2 0.775996 0.118365 0.114311
Si Si3 0.857166 0.798626 0.171353
Si Si4 0.849400 0.617043 0.938442
Si Si5 0.368778 0.180154 0.128255
Si Si6 0.376766 0.557863 0.630131
Si Si7 0.893546 0.437586 0.454163
Si Si8 0.236846 0.874624 0.515629
O O1 0.489225 0.500000 0.166029
O O2 0.385758 0.554080 0.481289
O O3 0.399047 0.597532 0.271293
O O4 0.611289 0.578964 0.078182
O O5 0.832533 0.169847 0.090469
O O6 0.707951 0.137390 0.097501
O O7 0.679530 0.087456 0.333682
O O8 0.816369 0.739029 0.208823
O O9 0.768568 0.822339 0.398967
O O10 0.000000 0.802031 0.000000
O O11 0.963081 0.578764 0.744858
O O12 0.887126 0.664811 0.967844
O O13 0.748680 0.585968 0.156351
O O14 0.270788 0.142552 0.337026
O O15 0.500000 0.175252 0.000000
O O16 0.500000 0.587372 0.500000
O O17 0.371864 0.500000 0.693512
O O18 0.881512 0.500000 0.474484
O O19 0.839373 0.415374 0.413681
#
# Coordination Sequence:
#
# PCOD8098402 Si02
#       8
#     8   8   8   8   8   8   8   8
#     4  11  21  35  61  94 125 157 199 254 308 364
#     4  11  24  41  62  92 127 165 210 256 307 369
#     4  10  22  41  66  89 118 162 209 258 313 369
#     4  12  23  40  64  91 131 163 206 256 309 372
#     4  11  23  42  64  89 119 163 209 261 317 370
#     4  10  20  34  56  87 121 160 200 243 302 364
#     4  11  25  41  61  90 130 175 210 247 302 375
#     4  11  21  41  64  93 124 158 208 261 310 372
#
# _framework density 20.013415999999999
#
# number of rings (size 3 to 8) (size 9 to 14) (size 15 to 20)
#    0.000    1.125    5.000    1.875    0.000    2.500 
#    0.000    2.500    0.000    1.500    0.000    0.000 
#    0.000    0.000    0.000    0.000    0.000    0.000 
#
# Total GULP energy -396795.495672 kJ/mol
# GULP energy per Si atom -12399.859240 kJ/mol
# Density = 1.996786 g / cm^3
# Si number density = 20.013416 Si / 1000 Ang^3
#
#
#
# Elastic Constant Matrix: (Units=GPa)
#
#
# Indices 1 2 3 4 5 6 
#
# 1 116.8858 59.9516 34.9118 -0.0060 2.9989 0.0019
# 2 59.9516 130.4354 39.9972 0.0027 2.7234 0.0008
# 3 34.9118 39.9972 95.9716 -0.0018 -5.6676 0.0012
# 4 -0.0060 0.0027 -0.0018 50.8785 0.0001 -3.7840
# 5 2.9989 2.7234 -5.6676 0.0001 36.1198 -0.0003
# 6 0.0019 0.0008 0.0012 -3.7840 -0.0003 17.4000
#
#
#
# Elastic Compliance Matrix: (Units=1/GPa)
#
#
# Indices 1 2 3 4 5 6 
#
# 1 0.011654 -0.004606 -0.002378 0.000001 -0.000993 -0.000001
# 2 -0.004606 0.010667 -0.002821 -0.000001 -0.000864 0.000000
# 3 -0.002378 -0.002821 0.012602 0.000000 0.002387 0.000000
# 4 0.000001 -0.000001 0.000000 0.019978 0.000000 0.004345
# 5 -0.000993 -0.000864 0.002387 0.000000 0.028208 0.000001
# 6 -0.000001 0.000000 0.000000 0.004345 0.000001 0.058416
#
#
# Mechanical properties :
#
#
# Convention : Reuss Voigt Hill
#
# Bulk Modulus (GPa) = 65.31185 68.11267 66.71226
# Shear Modulus (GPa) = 30.07719 34.77513 32.42616
#
# Velocity S-wave (km/s) = 3.88087 4.17296 4.02956
# Velocity P-wave (km/s) = 7.26542 7.57136 7.41997
#
# Compressibility (1/GPa) = 0.01531116
#
# Stress axis : x y z
#
# Youngs Moduli (GPa) = 85.80855 93.74770 79.35548
#
# Poissons Ratio (x) = 0.43184 0.18873
# Poissons Ratio (y) = 0.39527 0.22386
# Poissons Ratio (z) = 0.20407 0.26445
#
# Static dielectric constant tensor:
#      x y z
#    x 3.729200 0.000000 -0.001330 
#    y 0.000000 3.710320 0.000010 
#    z -0.001330 0.000010 3.592570 
# 
# 
# High freq. dielectric constant tensor:
#      x y z
#    x 1.783330 0.000000 -0.002340 
#    y 0.000000 1.773580 0.000000 
#    z -0.002340 0.000000 1.787630 
# 
# From -- ./inp_files/170592.got.cif
#   From: 2010.06.25/outbox.cif.g09.slc.cpg/sg12_86_cif.got.tgz:170592.got - 2010.06.28 00:19:55.
