data_PCOD8098019
_publ_section_title
;
Structure prediction by ZEFSAII (Michael W. Deem and Ramdas Pophale) SiO2 
 PCOD8098019
Probable space group: C 2/M
;
_chemical_formula_sum "Si O2"
_cell_formula_units_Z 56
_cell_length_a 18.142689
_cell_length_b 8.850114
_cell_length_c 20.171372
_cell_angle_alpha 90.000000
_cell_angle_beta 63.041792
_cell_angle_gamma 90.000000
_cell_volume 2886.875831
_symmetry_space_group_name_H-M "C 2/M"
_symmetry_group_IT_number 12
_symmetry_cell_setting 'monoclinic'
loop_
_space_group_symop_operation_xyz
x,y,z
-x,y,-z
-x,-y,-z
x,-y,z
1/2+x,1/2+y,z
1/2-x,1/2+y,-z
1/2-x,1/2-y,-z
1/2+x,1/2-y,z
loop_
_atom_site_type_symbol
_atom_site_label
_atom_site_fract_x
_atom_site_fract_y
_atom_site_fract_z
Si Si1 0.630104 0.823955 0.079066
Si Si2 0.339290 0.820840 0.652895
Si Si3 0.514330 0.820210 0.634562
Si Si4 0.810460 0.321353 0.210321
Si Si5 0.802881 0.175031 0.074643
Si Si6 0.529268 0.820504 0.776962
Si Si7 0.325442 0.179069 0.507966
O O1 0.707523 0.794626 0.095568
O O2 0.549272 0.762188 0.149444
O O3 0.623284 0.000000 0.063044
O O4 0.638195 0.728605 0.008759
O O5 0.429172 0.760319 0.637908
O O6 0.273181 0.751333 0.729283
O O7 0.321916 0.766414 0.585295
O O8 0.334811 0.000000 0.660850
O O9 0.524808 0.754527 0.704434
O O10 0.589537 0.760950 0.558822
O O11 0.514031 0.000000 0.636079
O O12 0.802785 0.500000 0.217064
O O13 0.826633 0.271624 0.128816
O O14 0.886751 0.262076 0.223530
O O15 0.819360 0.000000 0.082478
O O16 0.526858 0.000000 0.775729
O O17 0.250000 0.250000 0.500000
O O18 0.319824 0.000000 0.504865
#
# Coordination Sequence:
#
# PCOD8098019 Si02
#       7
#     8   8   8   8   8   8   8
#     4   9  18  35  57  78 102 136 178 219 259 308
#     4  10  20  35  56  80 105 137 180 225 264 306
#     4   9  17  33  56  79 104 138 181 221 258 307
#     4  11  22  35  53  78 108 140 174 215 265 319
#     4  10  20  35  56  80 106 137 174 218 264 311
#     4   9  18  32  52  76 102 137 178 217 258 309
#     4  10  20  34  55  82 111 142 176 217 265 314
#
# _framework density 19.398132
#
# number of rings (size 3 to 8) (size 9 to 14) (size 15 to 20)
#    0.000    2.286    0.000    3.000    0.000    6.857 
#    0.000    5.000    0.000    6.000    0.000    0.000 
#    0.000    0.000    0.000    0.000    0.000    0.000 
#
# Total GULP energy -347286.190627 kJ/mol
# GULP energy per Si atom -12403.078237 kJ/mol
# Density = 1.935398 g / cm^3
# Si number density = 19.398132 Si / 1000 Ang^3
#
#
#
# Elastic Constant Matrix: (Units=GPa)
#
#
# Indices 1 2 3 4 5 6 
#
# 1 115.5047 23.7141 41.3298 0.0000 15.4173 0.0001
# 2 23.7141 20.0618 18.7972 -0.0002 1.8685 0.0001
# 3 41.3298 18.7972 105.6094 0.0000 9.7113 0.0000
# 4 0.0000 -0.0002 0.0000 26.9343 0.0000 1.1567
# 5 15.4173 1.8685 9.7113 0.0000 37.0805 0.0000
# 6 0.0001 0.0001 0.0000 1.1567 0.0000 26.4613
#
#
#
# Elastic Compliance Matrix: (Units=1/GPa)
#
#
# Indices 1 2 3 4 5 6 
#
# 1 0.012550 -0.012248 -0.002365 0.000000 -0.003981 0.000000
# 2 -0.012248 0.071777 -0.008318 0.000000 0.003654 0.000000
# 3 -0.002365 -0.008318 0.012036 0.000000 -0.001750 0.000000
# 4 0.000000 0.000000 0.000000 0.037197 0.000000 -0.001626
# 5 -0.003981 0.003654 -0.001750 0.000000 0.028898 0.000000
# 6 0.000000 0.000000 0.000000 -0.001626 0.000000 0.037862
#
#
# Mechanical properties :
#
#
# Convention : Reuss Voigt Hill
#
# Bulk Modulus (GPa) = 19.80185 45.42868 32.61526
# Shear Modulus (GPa) = 19.01019 28.58419 23.79719
#
# Velocity S-wave (km/s) = 3.13389 3.84285 3.50634
# Velocity P-wave (km/s) = 4.82963 6.56963 5.76564
#
# Compressibility (1/GPa) = 0.05050034
#
# Stress axis : x y z
#
# Youngs Moduli (GPa) = 79.68112 13.93199 83.08438
#
# Poissons Ratio (x) = 0.17064 0.19652
# Poissons Ratio (y) = 0.97592 0.69112
# Poissons Ratio (z) = 0.18847 0.11589
#
# Static dielectric constant tensor:
#      x y z
#    x 3.701900 0.000000 0.013440 
#    y 0.000000 3.190910 0.000000 
#    z 0.013440 0.000000 3.718210 
# 
# 
# High freq. dielectric constant tensor:
#      x y z
#    x 1.764790 0.000000 0.001560 
#    y 0.000000 1.719850 0.000000 
#    z 0.001560 0.000000 1.772690 
# 
# From -- ./inp_files/275234.got.cif
#   From: 2010.06.25/outbox.cif.g09.slc.cpg/sg12_138_cif.got.tgz:275234.got - 2010.06.28 00:19:55.
