data_PCOD8098638
_publ_section_title
;
Structure prediction by ZEFSAII (Michael W. Deem and Ramdas Pophale) SiO2 
 PCOD8098638
Probable space group: C 2/M
;
_chemical_formula_sum "Si O2"
_cell_formula_units_Z 48
_cell_length_a 27.476389
_cell_length_b 8.638846
_cell_length_c 16.986599
_cell_angle_alpha 90.000000
_cell_angle_beta 143.720000
_cell_angle_gamma 90.000000
_cell_volume 2385.869841
_symmetry_space_group_name_H-M "C 2/M"
_symmetry_group_IT_number 12
_symmetry_cell_setting 'monoclinic'
loop_
_space_group_symop_operation_xyz
x,y,z
-x,y,-z
-x,-y,-z
x,-y,z
1/2+x,1/2+y,z
1/2-x,1/2+y,-z
1/2-x,1/2-y,-z
1/2+x,1/2-y,z
loop_
_atom_site_type_symbol
_atom_site_label
_atom_site_fract_x
_atom_site_fract_y
_atom_site_fract_z
Si Si1 0.839539 0.816973 0.104927
Si Si2 0.096094 0.817715 0.269370
Si Si3 0.087549 0.816020 0.963781
Si Si4 0.018600 0.317913 0.612534
Si Si5 0.367950 0.681642 0.508642
Si Si6 0.803076 0.184150 0.747512
O O1 0.875594 0.752155 0.069709
O O2 0.897518 0.763863 0.251689
O O3 0.834441 0.000000 0.097124
O O4 0.750000 0.750000 0.000000
O O5 0.137451 0.774068 0.406267
O O6 0.152291 0.750754 0.272614
O O7 0.004123 0.747380 0.144280
O O8 0.089562 0.000000 0.249521
O O9 0.083420 0.000000 0.955584
O O10 0.143992 0.760055 0.109130
O O11 0.032205 0.500000 0.634257
O O12 0.000000 0.261931 0.500000
O O13 0.944374 0.270779 0.571929
O O14 0.382183 0.500000 0.515150
O O15 0.285185 0.736394 0.358548
O O16 0.791666 0.000000 0.730670
#
# Coordination Sequence:
#
# PCOD8098638 Si02
#       6
#     8   8   8   8   8   8
#     4  11  23  41  64  91 124 157 195 244 299 357
#     4   9  17  34  59  86 115 155 202 242 287 344
#     4   9  18  35  59  86 117 152 195 243 286 339
#     4  11  25  44  65  88 115 152 202 253 303 360
#     4  11  22  38  59  86 123 157 192 243 300 356
#     4  10  20  34  59  89 118 157 201 241 283 343
#
# _framework density 20.118448999999998
#
# number of rings (size 3 to 8) (size 9 to 14) (size 15 to 20)
#    0.000    1.833    1.667    2.500    2.333    3.333 
#    0.000    1.667    0.000    1.000    0.000    0.000 
#    0.000    0.000    0.000    0.000    0.000    0.000 
#
# Total GULP energy -297681.712191 kJ/mol
# GULP energy per Si atom -12403.404675 kJ/mol
# Density = 2.007266 g / cm^3
# Si number density = 20.118449 Si / 1000 Ang^3
#
#
#
# Elastic Constant Matrix: (Units=GPa)
#
#
# Indices 1 2 3 4 5 6 
#
# 1 98.0233 23.8612 44.2415 0.0000 1.6084 0.0000
# 2 23.8612 32.1355 20.8326 0.0000 -2.6371 0.0000
# 3 44.2415 20.8326 141.5125 0.0000 7.8296 0.0000
# 4 0.0000 0.0000 0.0000 29.4078 0.0000 3.2694
# 5 1.6084 -2.6371 7.8296 0.0000 44.0433 0.0000
# 6 0.0000 0.0000 0.0000 3.2694 0.0000 25.4045
#
#
#
# Elastic Compliance Matrix: (Units=1/GPa)
#
#
# Indices 1 2 3 4 5 6 
#
# 1 0.013552 -0.008146 -0.003013 0.000000 -0.000447 0.000000
# 2 -0.008146 0.039692 -0.003479 0.000000 0.003292 0.000000
# 3 -0.003013 -0.003479 0.008611 0.000000 -0.001629 0.000000
# 4 0.000000 0.000000 0.000000 0.034498 0.000000 -0.004440
# 5 -0.000447 0.003292 -0.001629 0.000000 0.023208 0.000000
# 6 0.000000 0.000000 0.000000 -0.004440 0.000000 0.039934
#
#
# Mechanical properties :
#
#
# Convention : Reuss Voigt Hill
#
# Bulk Modulus (GPa) = 30.69408 49.94911 40.32160
# Shear Modulus (GPa) = 25.04637 31.95351 28.49994
#
# Velocity S-wave (km/s) = 3.53221 3.98963 3.76787
# Velocity P-wave (km/s) = 5.65023 6.79002 6.24618
#
# Compressibility (1/GPa) = 0.03257957
#
# Stress axis : x y z
#
# Youngs Moduli (GPa) = 73.79156 25.19394 116.13527
#
# Poissons Ratio (x) = 0.20523 0.34989
# Poissons Ratio (y) = 0.60110 0.40400
# Poissons Ratio (z) = 0.22232 0.08764
#
# Static dielectric constant tensor:
#      x y z
#    x 3.876840 0.000000 -0.050140 
#    y 0.000000 3.291560 0.000000 
#    z -0.050140 0.000000 3.743760 
# 
# 
# High freq. dielectric constant tensor:
#      x y z
#    x 1.796590 0.000000 0.000960 
#    y 0.000000 1.752260 0.000000 
#    z 0.000960 0.000000 1.803900 
# 
# From -- ./inp_files/281799.got.cif
#   From: 2010.06.25/outbox.cif.g09.slc.cpg/sg12_141_cif.got.tgz:281799.got - 2010.06.28 00:19:55.
