data_PCOD8098207
_publ_section_title
;
Structure prediction by ZEFSAII (Michael W. Deem and Ramdas Pophale) SiO2 
 PCOD8098207
Probable space group: C 2/M
;
_chemical_formula_sum "Si O2"
_cell_formula_units_Z 44
_cell_length_a 25.099711
_cell_length_b 10.930280
_cell_length_c 12.408674
_cell_angle_alpha 90.000000
_cell_angle_beta 139.718960
_cell_angle_gamma 90.000000
_cell_volume 2200.994782
_symmetry_space_group_name_H-M "C 2/M"
_symmetry_group_IT_number 12
_symmetry_cell_setting 'monoclinic'
loop_
_space_group_symop_operation_xyz
x,y,z
-x,y,-z
-x,-y,-z
x,-y,z
1/2+x,1/2+y,z
1/2-x,1/2+y,-z
1/2-x,1/2-y,-z
1/2+x,1/2-y,z
loop_
_atom_site_type_symbol
_atom_site_label
_atom_site_fract_x
_atom_site_fract_y
_atom_site_fract_z
Si Si1 0.310449 0.134563 0.712884
Si Si2 0.332552 0.135771 0.217120
Si Si3 0.000000 0.778050 0.500000
Si Si4 0.819145 0.290227 0.959600
Si Si5 0.020394 0.135974 0.764072
Si Si6 0.863651 0.859490 0.663368
O O1 0.314330 0.124788 0.847845
O O2 0.216488 0.152966 0.533495
O O3 0.362463 0.253135 0.753096
O O4 0.342085 0.000000 0.718921
O O5 0.418874 0.196188 0.378495
O O6 0.258011 0.199094 0.164698
O O7 0.336876 0.000000 0.269529
O O8 0.314154 0.131173 0.060850
O O9 0.999344 0.861537 0.393345
O O10 0.905682 0.222099 0.088875
O O11 0.940255 0.174786 0.706841
O O12 0.047546 0.000000 0.836618
O O13 0.870761 0.000000 0.721125
#
# Coordination Sequence:
#
# PCOD8098207 Si02
#       6
#     8   8   4   8   8   8
#     4  10  20  38  59  81 108 144 183 226 274 324
#     4  10  20  35  52  78 111 143 178 223 272 324
#     4  10  20  34  56  80 106 142 182 218 270 326
#     4  10  21  34  54  80 108 142 181 220 270 325
#     4  10  20  36  55  80 109 141 180 225 269 320
#     4   9  20  37  58  81 108 141 185 229 270 319
#
# _framework density 19.990960000000001
#
# number of rings (size 3 to 8) (size 9 to 14) (size 15 to 20)
#    0.000    2.182    0.000    2.727    0.000    2.182 
#    0.000   17.273    0.000    0.000    0.000    0.000 
#    0.000    0.000    0.000    0.000    0.000    0.000 
#
# Total GULP energy -272703.339389 kJ/mol
# GULP energy per Si atom -12395.606336 kJ/mol
# Density = 1.994546 g / cm^3
# Si number density = 19.990960 Si / 1000 Ang^3
#
#
#
# Elastic Constant Matrix: (Units=GPa)
#
#
# Indices 1 2 3 4 5 6 
#
# 1 98.7238 50.2035 29.2251 0.0000 15.3126 0.0000
# 2 50.2035 115.9196 20.9425 0.0000 9.9569 0.0000
# 3 29.2251 20.9425 57.4225 0.0000 -2.4270 0.0000
# 4 0.0000 0.0000 0.0000 16.7985 0.0000 3.4874
# 5 15.3126 9.9569 -2.4270 0.0000 33.5541 0.0000
# 6 0.0000 0.0000 0.0000 3.4874 0.0000 30.5598
#
#
#
# Elastic Compliance Matrix: (Units=1/GPa)
#
#
# Indices 1 2 3 4 5 6 
#
# 1 0.015501 -0.005057 -0.006300 0.000000 -0.006029 0.000000
# 2 -0.005057 0.011195 -0.001557 0.000000 -0.001127 0.000000
# 3 -0.006300 -0.001557 0.021395 0.000000 0.004884 0.000000
# 4 0.000000 0.000000 0.000000 0.060974 0.000000 -0.006958
# 5 -0.006029 -0.001127 0.004884 0.000000 0.033242 0.000000
# 6 0.000000 0.000000 0.000000 -0.006958 0.000000 0.033517
#
#
# Mechanical properties :
#
#
# Convention : Reuss Voigt Hill
#
# Bulk Modulus (GPa) = 44.91554 52.53423 48.72489
# Shear Modulus (GPa) = 23.91526 27.62879 25.77203
#
# Velocity S-wave (km/s) = 3.46251 3.72165 3.59442
# Velocity P-wave (km/s) = 6.20500 6.69355 6.45390
#
# Compressibility (1/GPa) = 0.02226401
#
# Stress axis : x y z
#
# Youngs Moduli (GPa) = 64.51179 89.32594 46.73977
#
# Poissons Ratio (x) = 0.45175 0.29444
# Poissons Ratio (y) = 0.32626 0.07275
# Poissons Ratio (z) = 0.40640 0.13904
#
# Static dielectric constant tensor:
#      x y z
#    x 3.597290 0.000000 0.025620 
#    y 0.000000 3.659530 0.000000 
#    z 0.025620 0.000000 3.602350 
# 
# 
# High freq. dielectric constant tensor:
#      x y z
#    x 1.775670 0.000000 0.006650 
#    y 0.000000 1.783800 0.000000 
#    z 0.006650 0.000000 1.781290 
# 
# From -- ./inp_files/175402.got.cif
#   From: 2010.06.25/outbox.cif.g09.slc.cpg/sg12_88_cif.got.tgz:175402.got - 2010.06.28 00:19:55.
