data_PCOD8098472
_publ_section_title
;
Structure prediction by ZEFSAII (Michael W. Deem and Ramdas Pophale) SiO2 
 PCOD8098472
Probable space group: C 2/M
;
_chemical_formula_sum "Si O2"
_cell_formula_units_Z 64
_cell_length_a 32.381342
_cell_length_b 8.834819
_cell_length_c 24.642545
_cell_angle_alpha 90.000000
_cell_angle_beta 26.588421
_cell_angle_gamma 90.000000
_cell_volume 3155.347215
_symmetry_space_group_name_H-M "C 2/M"
_symmetry_group_IT_number 12
_symmetry_cell_setting 'monoclinic'
loop_
_space_group_symop_operation_xyz
x,y,z
-x,y,-z
-x,-y,-z
x,-y,z
1/2+x,1/2+y,z
1/2-x,1/2+y,-z
1/2-x,1/2-y,-z
1/2+x,1/2-y,z
loop_
_atom_site_type_symbol
_atom_site_label
_atom_site_fract_x
_atom_site_fract_y
_atom_site_fract_z
Si Si1 0.957965 0.823131 0.682289
Si Si2 0.803234 0.175334 0.778886
Si Si3 0.632349 0.678178 0.412155
Si Si4 0.972795 0.178740 0.090973
Si Si5 0.325159 0.327867 0.448325
Si Si6 0.781723 0.671429 0.317099
Si Si7 0.980873 0.679020 0.770273
Si Si8 0.611543 0.678448 0.020856
O O1 0.862965 0.795521 0.762195
O O2 0.949567 0.736008 0.748419
O O3 0.041918 0.753535 0.547811
O O4 0.973770 0.000000 0.675976
O O5 0.865738 0.220926 0.653423
O O6 0.772602 0.000000 0.810677
O O7 0.715053 0.282588 0.882148
O O8 0.626136 0.500000 0.427728
O O9 0.727878 0.735197 0.327581
O O10 0.869528 0.226921 0.227801
O O11 0.042926 0.239251 0.054376
O O12 0.977336 0.000000 0.083633
O O13 0.000000 0.246528 0.000000
O O14 0.339974 0.500000 0.411656
O O15 0.250000 0.250000 0.500000
O O16 0.293980 0.320039 0.546861
O O17 0.419608 0.239485 0.329640
O O18 0.816716 0.500000 0.267630
O O19 0.982209 0.500000 0.768823
O O20 0.908019 0.737317 0.899894
O O21 0.600686 0.500000 0.041985
#
# Coordination Sequence:
#
# PCOD8098472 Si02
#       8
#     8   8   8   8   8   8   8   8
#     4  10  20  39  64  91 124 160 198 247 307 369
#     4  10  21  37  64  94 119 155 203 252 303 365
#     4   9  17  35  61  92 125 156 194 243 303 370
#     4  10  22  39  58  84 119 159 200 242 295 356
#     4  11  22  38  59  87 121 157 199 245 299 359
#     4  10  20  34  57  86 117 153 192 238 290 349
#     4  12  25  41  62  88 120 160 208 258 304 359
#     4  11  24  42  62  84 120 165 203 252 310 363
#
# _framework density 20.28303
#
# number of rings (size 3 to 8) (size 9 to 14) (size 15 to 20)
#    0.000    1.625    1.250    3.750    0.000    6.750 
#    0.000    0.625    0.000    1.500    0.000    0.000 
#    0.000    0.000    0.000    0.000    0.000    0.000 
#
# Total GULP energy -396909.843199 kJ/mol
# GULP energy per Si atom -12403.432600 kJ/mol
# Density = 2.023686 g / cm^3
# Si number density = 20.283030 Si / 1000 Ang^3
#
#
#
# Elastic Constant Matrix: (Units=GPa)
#
#
# Indices 1 2 3 4 5 6 
#
# 1 122.0438 45.6125 34.3347 -0.0173 6.2182 0.0091
# 2 45.6125 73.8816 27.8328 -0.0464 4.8166 0.0120
# 3 34.3347 27.8328 89.5315 -0.0597 1.9529 0.0230
# 4 -0.0173 -0.0464 -0.0597 29.9676 0.0149 -2.1703
# 5 6.2182 4.8166 1.9529 0.0149 33.4937 -0.0030
# 6 0.0091 0.0120 0.0230 -2.1703 -0.0030 23.5423
#
#
#
# Elastic Compliance Matrix: (Units=1/GPa)
#
#
# Indices 1 2 3 4 5 6 
#
# 1 0.011130 -0.005892 -0.002413 -0.000007 -0.001078 0.000000
# 2 -0.005892 0.018575 -0.003485 0.000019 -0.001374 -0.000002
# 3 -0.002413 -0.003485 0.013174 0.000019 0.000181 -0.000008
# 4 -0.000007 0.000019 0.000019 0.033594 -0.000017 0.003097
# 5 -0.001078 -0.001374 0.000181 -0.000017 0.030244 0.000003
# 6 0.000000 -0.000002 -0.000008 0.003097 0.000003 0.042762
#
#
# Mechanical properties :
#
#
# Convention : Reuss Voigt Hill
#
# Bulk Modulus (GPa) = 51.81586 55.66856 53.74221
# Shear Modulus (GPa) = 27.85656 29.24584 28.55120
#
# Velocity S-wave (km/s) = 3.70995 3.80134 3.75592
# Velocity P-wave (km/s) = 6.62975 6.83903 6.73520
#
# Compressibility (1/GPa) = 0.01929911
#
# Stress axis : x y z
#
# Youngs Moduli (GPa) = 89.85087 53.83559 75.90658
#
# Poissons Ratio (x) = 0.31719 0.18316
# Poissons Ratio (y) = 0.52938 0.26454
# Poissons Ratio (z) = 0.21681 0.18762
#
# Static dielectric constant tensor:
#      x y z
#    x 3.931390 0.000000 0.126640 
#    y 0.000000 3.515450 0.000050 
#    z 0.126640 0.000050 3.656730 
# 
# 
# High freq. dielectric constant tensor:
#      x y z
#    x 1.809070 0.000000 0.002040 
#    y 0.000000 1.769240 0.000010 
#    z 0.002040 0.000010 1.796800 
# 
# From -- ./inp_files/353272.got.cif
#   From: 2010.06.25/outbox.cif.g09.slc.cpg/sg12_177_cif.got.tgz:353272.got - 2010.06.28 00:19:55.
