data_PCOD8098002
_publ_section_title
;
Structure prediction by ZEFSAII (Michael W. Deem and Ramdas Pophale) SiO2 
 PCOD8098002
Probable space group: C 2/M
;
_chemical_formula_sum "Si O2"
_cell_formula_units_Z 40
_cell_length_a 22.464558
_cell_length_b 8.862254
_cell_length_c 11.410796
_cell_angle_alpha 90.000000
_cell_angle_beta 72.291533
_cell_angle_gamma 90.000000
_cell_volume 2164.094050
_symmetry_space_group_name_H-M "C 2/M"
_symmetry_group_IT_number 12
_symmetry_cell_setting 'monoclinic'
loop_
_space_group_symop_operation_xyz
x,y,z
-x,y,-z
-x,-y,-z
x,-y,z
1/2+x,1/2+y,z
1/2-x,1/2+y,-z
1/2-x,1/2-y,-z
1/2+x,1/2-y,z
loop_
_atom_site_type_symbol
_atom_site_label
_atom_site_fract_x
_atom_site_fract_y
_atom_site_fract_z
Si Si1 0.918056 0.673646 0.436230
Si Si2 0.302946 0.677034 0.389528
Si Si3 0.284815 0.174965 0.152859
Si Si4 0.841683 0.825564 0.903070
Si Si5 0.060085 0.673471 0.310579
O O1 0.897572 0.500000 0.433726
O O2 0.870999 0.780538 0.396040
O O3 0.918012 0.718934 0.572550
O O4 0.986326 0.699225 0.340627
O O5 0.294066 0.500000 0.401018
O O6 0.250000 0.750000 0.500000
O O7 0.296469 0.729190 0.260835
O O8 0.214526 0.207562 0.152902
O O9 0.296177 0.000000 0.173364
O O10 0.333578 0.227539 0.024876
O O11 0.906087 0.779349 0.803256
O O12 0.843826 0.000000 0.937719
O O13 0.077577 0.500000 0.275530
#
# Coordination Sequence:
#
# PCOD8098002 Si02
#       5
#     8   8   8   8   8
#     4   9  19  36  56  80 109 141 180 220 262 315
#     4  12  24  37  55  80 110 142 176 218 267 315
#     4  10  21  37  56  79 108 142 179 219 265 316
#     4  10  20  34  55  82 109 139 177 221 266 314
#     4   9  18  34  57  81 107 142 179 218 264 315
#
# _framework density 18.483485000000002
#
# number of rings (size 3 to 8) (size 9 to 14) (size 15 to 20)
#    0.000    2.000    0.000    5.400    0.000    7.200 
#    0.000    3.000    0.000    6.000    0.000    0.000 
#    0.000    0.000    0.000    0.000    0.000    0.000 
#
# Total GULP energy -248092.344361 kJ/mol
# GULP energy per Si atom -12404.617218 kJ/mol
# Density = 1.844142 g / cm^3
# Si number density = 18.483485 Si / 1000 Ang^3
#
#
#
# Elastic Constant Matrix: (Units=GPa)
#
#
# Indices 1 2 3 4 5 6 
#
# 1 84.9058 54.0817 54.5503 0.0000 2.0084 0.0000
# 2 54.0817 117.0763 55.1581 0.0000 4.2720 0.0000
# 3 54.5503 55.1581 109.0016 0.0000 -8.5819 0.0000
# 4 0.0000 0.0000 0.0000 36.6497 0.0000 -2.2664
# 5 2.0084 4.2720 -8.5819 0.0000 29.6494 0.0000
# 6 0.0000 0.0000 0.0000 -2.2664 0.0000 29.8241
#
#
#
# Elastic Compliance Matrix: (Units=1/GPa)
#
#
# Indices 1 2 3 4 5 6 
#
# 1 0.020307 -0.005769 -0.007456 0.000000 -0.002702 0.000000
# 2 -0.005769 0.013186 -0.003995 0.000000 -0.002665 0.000000
# 3 -0.007456 -0.003995 0.015362 0.000000 0.005527 0.000000
# 4 0.000000 0.000000 0.000000 0.027414 0.000000 0.002083
# 5 -0.002702 -0.002665 0.005527 0.000000 0.035895 0.000000
# 6 0.000000 0.000000 0.000000 0.002083 0.000000 0.033688
#
#
# Mechanical properties :
#
#
# Convention : Reuss Voigt Hill
#
# Bulk Modulus (GPa) = 69.37445 70.95154 70.16300
# Shear Modulus (GPa) = 27.01281 29.03751 28.02516
#
# Velocity S-wave (km/s) = 3.82705 3.96788 3.89810
# Velocity P-wave (km/s) = 7.55930 7.71115 7.63561
#
# Compressibility (1/GPa) = 0.01441453
#
# Stress axis : x y z
#
# Youngs Moduli (GPa) = 49.24482 75.83881 65.09376
#
# Poissons Ratio (x) = 0.43752 0.48534
# Poissons Ratio (y) = 0.28409 0.26006
# Poissons Ratio (z) = 0.36717 0.30299
#
# Static dielectric constant tensor:
#      x y z
#    x 3.333480 0.000000 -0.021400 
#    y 0.000000 3.407640 0.000000 
#    z -0.021400 0.000000 3.443230 
# 
# 
# High freq. dielectric constant tensor:
#      x y z
#    x 1.709700 0.000000 -0.007060 
#    y 0.000000 1.722920 0.000000 
#    z -0.007060 0.000000 1.721480 
# 
# From -- ./inp_files/162353.got.cif
#   From: 2010.06.25/outbox.cif.g09.slc.cpg/sg12_82_cif.got.tgz:162353.got - 2010.06.28 00:19:55.
