data_PCOD8098410
_publ_section_title
;
Structure prediction by ZEFSAII (Michael W. Deem and Ramdas Pophale) SiO2 
 PCOD8098410
Probable space group: C 2/M
;
_chemical_formula_sum "Si O2"
_cell_formula_units_Z 56
_cell_length_a 15.868907
_cell_length_b 17.377284
_cell_length_c 14.462108
_cell_angle_alpha 90.000000
_cell_angle_beta 136.301375
_cell_angle_gamma 90.000000
_cell_volume 2755.203897
_symmetry_space_group_name_H-M "C 2/M"
_symmetry_group_IT_number 12
_symmetry_cell_setting 'monoclinic'
loop_
_space_group_symop_operation_xyz
x,y,z
-x,y,-z
-x,-y,-z
x,-y,z
1/2+x,1/2+y,z
1/2-x,1/2+y,-z
1/2-x,1/2-y,-z
1/2+x,1/2-y,z
loop_
_atom_site_type_symbol
_atom_site_label
_atom_site_fract_x
_atom_site_fract_y
_atom_site_fract_z
Si Si1 0.103917 0.161639 0.714330
Si Si2 0.620946 0.836075 0.770819
Si Si3 0.182967 0.085817 0.950770
Si Si4 0.308998 0.847137 0.379169
Si Si5 0.124115 0.412104 0.384535
Si Si6 0.939787 0.087064 0.858058
Si Si7 0.337120 0.673345 0.445155
O O1 0.111859 0.244957 0.767300
O O2 0.184705 0.107014 0.844058
O O3 0.170649 0.153488 0.669191
O O4 0.960820 0.139994 0.589305
O O5 0.621546 0.860963 0.662878
O O6 0.509372 0.875786 0.736411
O O7 0.743119 0.859260 0.921869
O O8 0.039632 0.090999 0.857835
O O9 0.234409 0.000000 0.006046
O O10 0.346933 0.911677 0.483057
O O11 0.164926 0.852291 0.248237
O O12 0.340433 0.766128 0.453304
O O13 0.126101 0.500000 0.350964
O O14 0.221999 0.362715 0.405047
O O15 0.887202 0.000000 0.827516
O O16 0.000000 0.115202 0.000000
#
# Coordination Sequence:
#
# PCOD8098410 Si02
#       7
#     8   8   8   8   8   8   8
#     4  10  22  43  67  88 116 166 216 258 305 356
#     4  11  23  40  61  91 128 163 204 253 310 381
#     4  11  23  39  61  91 126 164 204 253 313 371
#     4  11  21  39  64  89 123 165 203 254 311 366
#     4  12  25  38  61  95 128 166 203 251 318 371
#     4  10  20  34  56  89 125 157 195 248 304 364
#     4  10  23  43  64  90 122 156 214 266 297 358
#
# _framework density 20.325174000000001
#
# number of rings (size 3 to 8) (size 9 to 14) (size 15 to 20)
#    0.000    1.286    2.857    3.000    2.000    4.571 
#    0.000    2.143    0.000    1.714    0.000    0.000 
#    0.000    0.000    0.000    0.000    0.000    0.000 
#
# Total GULP energy -347213.086819 kJ/mol
# GULP energy per Si atom -12400.467386 kJ/mol
# Density = 2.027891 g / cm^3
# Si number density = 20.325174 Si / 1000 Ang^3
#
#
#
# Elastic Constant Matrix: (Units=GPa)
#
#
# Indices 1 2 3 4 5 6 
#
# 1 99.6528 39.5329 17.1525 0.0000 3.6497 0.0000
# 2 39.5329 50.1062 18.2056 0.0000 -3.7866 0.0000
# 3 17.1525 18.2056 66.2208 0.0000 -7.7284 0.0000
# 4 0.0000 0.0000 0.0000 21.7051 0.0000 3.0252
# 5 3.6497 -3.7866 -7.7284 0.0000 31.7012 0.0000
# 6 0.0000 0.0000 0.0000 3.0252 0.0000 20.8628
#
#
#
# Elastic Compliance Matrix: (Units=1/GPa)
#
#
# Indices 1 2 3 4 5 6 
#
# 1 0.014977 -0.011687 -0.001061 0.000000 -0.003379 0.000000
# 2 -0.011687 0.031336 -0.005140 0.000000 0.003835 0.000000
# 3 -0.001061 -0.005140 0.017222 0.000000 0.003707 0.000000
# 4 0.000000 0.000000 0.000000 0.047022 0.000000 -0.006818
# 5 -0.003379 0.003835 0.003707 0.000000 0.033295 0.000000
# 6 0.000000 0.000000 0.000000 -0.006818 0.000000 0.048921
#
#
# Mechanical properties :
#
#
# Convention : Reuss Voigt Hill
#
# Bulk Modulus (GPa) = 36.02428 40.64019 38.33223
# Shear Modulus (GPa) = 21.02590 24.25975 22.64282
#
# Velocity S-wave (km/s) = 3.21982 3.45857 3.34133
# Velocity P-wave (km/s) = 5.62009 5.99895 5.81261
#
# Compressibility (1/GPa) = 0.02775906
#
# Stress axis : x y z
#
# Youngs Moduli (GPa) = 66.76715 31.91240 58.06695
#
# Poissons Ratio (x) = 0.37295 0.06160
# Poissons Ratio (y) = 0.78030 0.29847
# Poissons Ratio (z) = 0.07083 0.16404
#
# Static dielectric constant tensor:
#      x y z
#    x 3.714880 0.000000 0.005530 
#    y 0.000000 3.545920 0.000000 
#    z 0.005530 0.000000 3.666140 
# 
# 
# High freq. dielectric constant tensor:
#      x y z
#    x 1.794100 0.000000 -0.000540 
#    y 0.000000 1.780910 0.000000 
#    z -0.000540 0.000000 1.799080 
# 
# From -- ./inp_files/145514.got.cif
#   From: 2010.06.25/outbox.cif.g09.slc.cpg/sg12_73_cif.got.tgz:145514.got - 2010.06.28 00:19:55.
