data_PCOD8098854
_publ_section_title
;
Structure prediction by ZEFSAII (Michael W. Deem and Ramdas Pophale) SiO2 
 PCOD8098854
Probable space group: C 2/M
;
_chemical_formula_sum "Si O2"
_cell_formula_units_Z 64
_cell_length_a 31.323634
_cell_length_b 8.802444
_cell_length_c 25.142894
_cell_angle_alpha 90.000000
_cell_angle_beta 149.479143
_cell_angle_gamma 90.000000
_cell_volume 3520.690336
_symmetry_space_group_name_H-M "C 2/M"
_symmetry_group_IT_number 12
_symmetry_cell_setting 'monoclinic'
loop_
_space_group_symop_operation_xyz
x,y,z
-x,y,-z
-x,-y,-z
x,-y,z
1/2+x,1/2+y,z
1/2-x,1/2+y,-z
1/2-x,1/2-y,-z
1/2+x,1/2-y,z
loop_
_atom_site_type_symbol
_atom_site_label
_atom_site_fract_x
_atom_site_fract_y
_atom_site_fract_z
Si Si1 0.415145 0.322974 0.435338
Si Si2 0.050395 0.179722 0.207910
Si Si3 0.243780 0.178836 0.232538
Si Si4 0.613501 0.676950 0.473522
Si Si5 0.284291 0.321739 0.677787
Si Si6 0.630084 0.678305 0.017132
Si Si7 0.505431 0.179240 0.267284
Si Si8 0.829663 0.821042 0.057450
O O1 0.500000 0.258235 0.500000
O O2 0.405619 0.500000 0.413795
O O3 0.336718 0.242814 0.322979
O O4 0.417436 0.287157 0.500252
O O5 0.129355 0.227485 0.257198
O O6 0.966199 0.237392 0.087358
O O7 0.057220 0.260108 0.272192
O O8 0.046238 0.000000 0.213598
O O9 0.208467 0.223941 0.252542
O O10 0.249288 0.000000 0.231575
O O11 0.181468 0.251649 0.121374
O O12 0.605812 0.500000 0.450838
O O13 0.709931 0.728553 0.570029
O O14 0.555736 0.776546 0.373735
O O15 0.266017 0.500000 0.651430
O O16 0.627986 0.500000 0.023537
O O17 0.675326 0.720389 0.010333
O O18 0.413681 0.252943 0.173030
O O19 0.495811 0.000000 0.253172
O O20 0.831097 0.000000 0.068326
O O21 0.750000 0.750000 0.000000
#
# Coordination Sequence:
#
# PCOD8098854 Si02
#       8
#     8   8   8   8   8   8   8   8
#     4   9  19  35  52  72  99 131 167 205 249 302
#     4   9  18  34  53  74 103 136 169 207 252 302
#     4   9  17  31  51  76 103 130 164 205 250 299
#     4  10  20  35  54  74 101 135 168 209 258 305
#     4   9  18  32  52  77 103 132 168 209 251 301
#     4   8  16  31  51  75 103 133 166 206 249 296
#     4  11  22  36  54  76 102 133 172 215 256 301
#     4  10  20  36  55  77 106 138 173 211 253 300
#
# _framework density 18.178252000000001
#
# number of rings (size 3 to 8) (size 9 to 14) (size 15 to 20)
#    0.000    2.625    0.000    2.625    0.000    3.250 
#    0.000    8.125    0.000    0.000    0.000    7.000 
#    0.000    0.000    0.000    0.000    0.000    0.000 
#
# Total GULP energy -396817.824027 kJ/mol
# GULP energy per Si atom -12400.557001 kJ/mol
# Density = 1.813688 g / cm^3
# Si number density = 18.178252 Si / 1000 Ang^3
#
#
#
# Elastic Constant Matrix: (Units=GPa)
#
#
# Indices 1 2 3 4 5 6 
#
# 1 121.5322 42.6743 80.6512 0.0000 25.4082 0.0000
# 2 42.6743 56.5599 46.6534 0.0000 5.6442 0.0000
# 3 80.6512 46.6534 138.5872 0.0000 -0.8719 0.0000
# 4 0.0000 0.0000 0.0000 26.7947 0.0000 4.5327
# 5 25.4082 5.6442 -0.8719 0.0000 32.3760 0.0000
# 6 0.0000 0.0000 0.0000 4.5327 0.0000 24.8818
#
#
#
# Elastic Compliance Matrix: (Units=1/GPa)
#
#
# Indices 1 2 3 4 5 6 
#
# 1 0.019634 -0.005318 -0.009729 0.000000 -0.014743 0.000000
# 2 -0.005318 0.026588 -0.005859 0.000000 -0.000619 0.000000
# 3 -0.009729 -0.005859 0.014907 0.000000 0.009058 0.000000
# 4 0.000000 0.000000 0.000000 0.038507 0.000000 -0.007015
# 5 -0.014743 -0.000619 0.009058 0.000000 0.042809 0.000000
# 6 0.000000 0.000000 0.000000 -0.007015 0.000000 0.041468
#
#
# Mechanical properties :
#
#
# Convention : Reuss Voigt Hill
#
# Bulk Modulus (GPa) = 51.76933 72.95968 62.36450
# Shear Modulus (GPa) = 21.53648 26.59054 24.06351
#
# Velocity S-wave (km/s) = 3.44574 3.82876 3.64229
# Velocity P-wave (km/s) = 6.66118 7.73102 7.21596
#
# Compressibility (1/GPa) = 0.01931646
#
# Stress axis : x y z
#
# Youngs Moduli (GPa) = 50.93196 37.61125 67.08366
#
# Poissons Ratio (x) = 0.20001 0.65263
# Poissons Ratio (y) = 0.27085 0.39308
# Poissons Ratio (z) = 0.49550 0.22038
#
# Static dielectric constant tensor:
#      x y z
#    x 3.429990 0.000000 0.006580 
#    y 0.000000 3.215790 0.000000 
#    z 0.006580 0.000000 3.598470 
# 
# 
# High freq. dielectric constant tensor:
#      x y z
#    x 1.704580 0.000000 0.001920 
#    y 0.000000 1.691910 0.000000 
#    z 0.001920 0.000000 1.711690 
# 
# From -- ./inp_files/353590.got.cif
#   From: 2010.06.25/outbox.cif.g09.slc.cpg/sg12_177_cif.got.tgz:353590.got - 2010.06.28 00:19:55.
