data_PCOD8098403
_publ_section_title
;
Structure prediction by ZEFSAII (Michael W. Deem and Ramdas Pophale) SiO2 
 PCOD8098403
Probable space group: C 2/M
;
_chemical_formula_sum "Si O2"
_cell_formula_units_Z 40
_cell_length_a 28.289834
_cell_length_b 7.452739
_cell_length_c 26.353746
_cell_angle_alpha 90.000000
_cell_angle_beta 21.466279
_cell_angle_gamma 90.000000
_cell_volume 2033.361793
_symmetry_space_group_name_H-M "C 2/M"
_symmetry_group_IT_number 12
_symmetry_cell_setting 'monoclinic'
loop_
_space_group_symop_operation_xyz
x,y,z
-x,y,-z
-x,-y,-z
x,-y,z
1/2+x,1/2+y,z
1/2-x,1/2+y,-z
1/2-x,1/2-y,-z
1/2+x,1/2-y,z
loop_
_atom_site_type_symbol
_atom_site_label
_atom_site_fract_x
_atom_site_fract_y
_atom_site_fract_z
Si Si1 0.152232 0.500000 0.406189
Si Si2 0.000052 0.299759 0.820000
Si Si3 0.763604 0.213142 0.870513
Si Si4 0.734425 0.286900 0.400800
Si Si5 0.346316 0.000000 0.711312
Si Si6 0.501546 0.291383 0.292476
O O1 0.208345 0.681100 0.375035
O O2 0.198189 0.500000 0.302336
O O3 0.999221 0.500000 0.564012
O O4 0.000800 0.500000 0.840072
O O5 0.131074 0.211619 0.710511
O O6 0.997448 0.307007 0.762037
O O7 0.870778 0.211596 0.972108
O O8 0.789503 0.318964 0.792806
O O9 0.872959 0.267235 0.801620
O O10 0.765883 0.000000 0.857198
O O11 0.732064 0.500000 0.392065
O O12 0.625299 0.233033 0.550286
O O13 0.501907 0.500000 0.280249
#
# Coordination Sequence:
#
# PCOD8098403 Si02
#       6
#     4   8   8   8   4   8
#     4  11  24  41  67  91 111 157 207 253 310 346
#     4  10  22  36  58  87 123 166 194 232 303 356
#     4  10  22  40  58  88 125 154 198 250 292 356
#     4  10  22  40  58  88 125 154 198 250 292 356
#     4  11  24  41  67  91 111 157 207 253 310 346
#     4  10  20  34  56  87 121 164 198 236 293 346
#
# _framework density 19.671856999999999
#
# number of rings (size 3 to 8) (size 9 to 14) (size 15 to 20)
#    0.000    1.800    2.000    1.200    5.600    0.800 
#    0.000    4.000    0.000    3.600    0.000    0.000 
#    0.000    0.000    0.000    0.000    0.000    0.000 
#
# Total GULP energy -248000.346273 kJ/mol
# GULP energy per Si atom -12400.017314 kJ/mol
# Density = 1.962708 g / cm^3
# Si number density = 19.671857 Si / 1000 Ang^3
#
#
#
# Elastic Constant Matrix: (Units=GPa)
#
#
# Indices 1 2 3 4 5 6 
#
# 1 155.1185 49.7703 91.7487 0.5201 17.1587 1.6774
# 2 49.7703 72.7842 35.3422 1.7662 5.6993 5.5022
# 3 91.7487 35.3422 174.6048 0.4088 -14.8281 1.3625
# 4 0.5201 1.7662 0.4088 -16.7574 -1.6347 -76.8215
# 5 17.1587 5.6993 -14.8281 -1.6347 18.1052 -5.2246
# 6 1.6774 5.5022 1.3625 -76.8215 -5.2246 -248.6346
#
#
#
# Elastic Compliance Matrix: (Units=1/GPa)
#
#
# Indices 1 2 3 4 5 6 
#
# 1 0.015475 -0.004684 -0.008918 -0.000035 -0.020385 0.000391
# 2 -0.004684 0.017709 -0.001304 -0.000175 -0.002089 0.000451
# 3 -0.008918 -0.001304 0.012276 0.000091 0.018796 -0.000445
# 4 -0.000035 -0.000175 0.000091 0.143301 0.000321 -0.044287
# 5 -0.020385 -0.002089 0.018796 0.000321 0.090035 -0.002072
# 6 0.000391 0.000451 -0.000445 -0.044287 -0.002072 0.009715
#
#
# Mechanical properties :
#
#
# Convention : Reuss Voigt Hill
#
# Bulk Modulus (GPa) = 63.89919 84.02555 73.96237
# Shear Modulus (GPa) = 15.45407 -34.41428 -9.48011
#
# Velocity S-wave (km/s) = 2.80588 -4.18714 -2.19763
# Velocity P-wave (km/s) = 6.56128 4.40796 5.58930
#
# Compressibility (1/GPa) = 0.01564965
#
# Stress axis : x y z
#
# Youngs Moduli (GPa) = 64.62035 56.46837 81.45669
#
# Poissons Ratio (x) = 0.26451 0.72640
# Poissons Ratio (y) = 0.30269 0.10619
# Poissons Ratio (z) = 0.57626 0.07361
#
# Static dielectric constant tensor:
#      x y z
#    x 3.433150 -0.000140 -0.141920 
#    y -0.000140 3.488050 0.000200 
#    z -0.141920 0.000200 3.925990 
# 
# 
# High freq. dielectric constant tensor:
#      x y z
#    x 1.750200 0.000000 -0.008280 
#    y 0.000000 1.769970 0.000010 
#    z -0.008280 0.000010 1.779970 
# 
# From -- ./inp_files/53973.got.cif
#   From: 2010.06.25/outbox.cif.g09.slc.cpg/sg12_27_cif.got.tgz:53973.got - 2010.06.28 00:19:55.
