data_PCOD8098172
_publ_section_title
;
Structure prediction by ZEFSAII (Michael W. Deem and Ramdas Pophale) SiO2 
 PCOD8098172
Probable space group: C 2/M
;
_chemical_formula_sum "Si O2"
_cell_formula_units_Z 64
_cell_length_a 21.803917
_cell_length_b 14.413361
_cell_length_c 29.145663
_cell_angle_alpha 90.000000
_cell_angle_beta 158.937801
_cell_angle_gamma 90.000000
_cell_volume 3291.767039
_symmetry_space_group_name_H-M "C 2/M"
_symmetry_group_IT_number 12
_symmetry_cell_setting 'monoclinic'
loop_
_space_group_symop_operation_xyz
x,y,z
-x,y,-z
-x,-y,-z
x,-y,z
1/2+x,1/2+y,z
1/2-x,1/2+y,-z
1/2-x,1/2-y,-z
1/2+x,1/2-y,z
loop_
_atom_site_type_symbol
_atom_site_label
_atom_site_fract_x
_atom_site_fract_y
_atom_site_fract_z
Si Si1 0.255697 0.109235 0.455545
Si Si2 0.413303 0.266029 0.827328
Si Si3 0.581815 0.106115 0.734639
Si Si4 0.218534 0.894616 0.039747
Si Si5 0.380556 0.608547 0.214647
Si Si6 0.182095 0.392561 0.604468
Si Si7 0.142733 0.606891 0.962089
Si Si8 0.806166 0.256929 0.850197
O O1 0.395109 0.144937 0.590048
O O2 0.321740 0.137893 0.451286
O O3 0.069359 0.150375 0.337153
O O4 0.234932 0.000000 0.443758
O O5 0.318847 0.327621 0.724034
O O6 0.474346 0.169546 0.847580
O O7 0.292138 0.239930 0.785282
O O8 0.575064 0.325125 0.958562
O O9 0.611874 0.117181 0.810305
O O10 0.733811 0.157973 0.814790
O O11 0.596282 0.000000 0.728501
O O12 0.260105 0.867770 0.016758
O O13 0.150460 0.000000 0.995491
O O14 0.381524 0.500000 0.226747
O O15 0.304873 0.660123 0.205912
O O16 0.269426 0.630170 0.092123
O O17 0.238436 0.500000 0.649152
O O18 0.000000 0.375160 0.500000
O O19 0.084252 0.500000 0.921622
O O20 0.000000 0.271216 0.000000
#
# Coordination Sequence:
#
# PCOD8098172 Si02
#       8
#     8   8   8   8   8   8   8   8
#     4   9  19  38  62  87 114 151 196 235 286 347
#     4  12  22  36  57  81 116 149 189 239 288 339
#     4  10  21  37  57  84 121 153 183 231 287 349
#     4  10  20  34  55  86 116 149 186 228 293 352
#     4  10  21  39  61  83 111 151 198 252 291 323
#     4  10  21  38  61  90 119 149 188 233 286 349
#     4  10  21  37  58  83 111 145 191 241 291 342
#     4  12  23  37  52  84 116 150 198 233 282 350
#
# _framework density 19.442444999999999
#
# number of rings (size 3 to 8) (size 9 to 14) (size 15 to 20)
#    0.000    1.625    2.500    2.250    0.000    6.500 
#    0.000    1.250    0.000    0.375    0.000    0.000 
#    0.000    0.000    0.000    0.000    0.000    0.000 
#
# Total GULP energy -396831.156963 kJ/mol
# GULP energy per Si atom -12400.973655 kJ/mol
# Density = 1.939819 g / cm^3
# Si number density = 19.442445 Si / 1000 Ang^3
#
#
#
# Elastic Constant Matrix: (Units=GPa)
#
#
# Indices 1 2 3 4 5 6 
#
# 1 122.1785 48.6226 45.8936 0.0114 4.0972 0.0098
# 2 48.6226 80.5530 50.2484 0.0701 6.1670 -0.0019
# 3 45.8936 50.2484 105.7664 0.2105 -0.1571 0.0365
# 4 0.0114 0.0701 0.2105 27.0199 -0.0151 9.2660
# 5 4.0972 6.1670 -0.1571 -0.0151 32.6007 -0.0076
# 6 0.0098 -0.0019 0.0365 9.2660 -0.0076 25.2347
#
#
#
# Elastic Compliance Matrix: (Units=1/GPa)
#
#
# Indices 1 2 3 4 5 6 
#
# 1 0.011170 -0.005238 -0.002359 0.000031 -0.000424 -0.000013
# 2 -0.005238 0.020479 -0.007461 0.000001 -0.003252 0.000013
# 3 -0.002359 -0.007461 0.014026 -0.000093 0.001775 0.000015
# 4 0.000031 0.000001 -0.000093 0.042342 0.000011 -0.015548
# 5 -0.000424 -0.003252 0.001775 0.000011 0.031351 0.000003
# 6 -0.000013 0.000013 0.000015 -0.015548 0.000003 0.045337
#
#
# Mechanical properties :
#
#
# Convention : Reuss Voigt Hill
#
# Bulk Modulus (GPa) = 64.27499 66.44744 65.36121
# Shear Modulus (GPa) = 24.99900 27.88663 26.44282
#
# Velocity S-wave (km/s) = 3.58969 3.79135 3.69189
# Velocity P-wave (km/s) = 7.09310 7.30865 7.20168
#
# Compressibility (1/GPa) = 0.01555815
#
# Stress axis : x y z
#
# Youngs Moduli (GPa) = 89.52862 48.82961 71.29669
#
# Poissons Ratio (x) = 0.25578 0.16817
# Poissons Ratio (y) = 0.46898 0.53197
# Poissons Ratio (z) = 0.21117 0.36434
#
# Static dielectric constant tensor:
#      x y z
#    x 3.632960 -0.000020 -0.024170 
#    y -0.000020 3.515550 -0.000280 
#    z -0.024170 -0.000280 3.640480 
# 
# 
# High freq. dielectric constant tensor:
#      x y z
#    x 1.759980 0.000000 -0.004270 
#    y 0.000000 1.754370 -0.000020 
#    z -0.004270 -0.000020 1.749840 
# 
# From -- ./inp_files/381518.got.cif
#   From: 2010.06.25/outbox.cif.g09.slc.cpg/sg12_191_cif.got.tgz:381518.got - 2010.06.28 00:19:55.
