data_PCOD8098227
_publ_section_title
;
Structure prediction by ZEFSAII (Michael W. Deem and Ramdas Pophale) SiO2 
 PCOD8098227
Probable space group: C 2/M
;
_chemical_formula_sum "Si O2"
_cell_formula_units_Z 56
_cell_length_a 30.093106
_cell_length_b 9.245171
_cell_length_c 18.810374
_cell_angle_alpha 90.000000
_cell_angle_beta 34.065525
_cell_angle_gamma 90.000000
_cell_volume 2931.409445
_symmetry_space_group_name_H-M "C 2/M"
_symmetry_group_IT_number 12
_symmetry_cell_setting 'monoclinic'
loop_
_space_group_symop_operation_xyz
x,y,z
-x,y,-z
-x,-y,-z
x,-y,z
1/2+x,1/2+y,z
1/2-x,1/2+y,-z
1/2-x,1/2-y,-z
1/2+x,1/2-y,z
loop_
_atom_site_type_symbol
_atom_site_label
_atom_site_fract_x
_atom_site_fract_y
_atom_site_fract_z
Si Si1 0.792717 0.333002 0.346446
Si Si2 0.353723 0.831489 0.418525
Si Si3 0.781792 0.672211 0.887015
Si Si4 0.576712 0.830848 0.939372
Si Si5 0.630558 0.337763 0.002680
Si Si6 0.495492 0.661036 0.288821
Si Si7 0.056369 0.168011 0.360565
O O1 0.768945 0.500000 0.380405
O O2 0.712701 0.242121 0.444302
O O3 0.840477 0.289091 0.354006
O O4 0.845972 0.294905 0.208717
O O5 0.439525 0.777839 0.326851
O O6 0.348710 0.000000 0.438466
O O7 0.788392 0.500000 0.892896
O O8 0.865218 0.734241 0.748747
O O9 0.750000 0.750000 0.000000
O O10 0.720377 0.704658 0.903979
O O11 0.563365 0.000000 0.968597
O O12 0.500000 0.766326 0.000000
O O13 0.589483 0.763827 0.999403
O O14 0.627214 0.500000 0.976523
O O15 0.582274 0.324302 0.139962
O O16 0.460861 0.500000 0.321696
O O17 0.502858 0.692798 0.362167
O O18 0.000000 0.217729 0.500000
O O19 0.081970 0.000000 0.334306
#
# Coordination Sequence:
#
# PCOD8098227 Si02
#       7
#     8   8   8   8   8   8   8
#     4   9  19  36  54  76 111 150 185 230 286 338
#     4  10  20  34  56  82 107 143 192 235 278 340
#     4  11  22  40  64  89 121 156 199 251 301 359
#     4  10  21  37  57  83 116 150 191 240 283 337
#     4  10  22  38  58  86 118 152 191 240 294 350
#     4  10  20  37  57  81 115 148 185 234 291 349
#     4  10  22  41  63  87 119 158 198 243 300 362
#
# _framework density 19.103438000000001
#
# number of rings (size 3 to 8) (size 9 to 14) (size 15 to 20)
#    0.000    2.000    1.429    1.714    0.000    6.286 
#    0.000    4.286    0.000    0.000    0.000    0.000 
#    0.000    0.000    0.000    0.000    0.000    0.000 
#
# Total GULP energy -347247.200517 kJ/mol
# GULP energy per Si atom -12401.685733 kJ/mol
# Density = 1.905996 g / cm^3
# Si number density = 19.103438 Si / 1000 Ang^3
#
#
#
# Elastic Constant Matrix: (Units=GPa)
#
#
# Indices 1 2 3 4 5 6 
#
# 1 87.6490 36.4182 47.9411 -0.0114 -1.2635 0.0074
# 2 36.4182 66.5116 50.5248 -0.0183 -4.9785 0.0224
# 3 47.9411 50.5248 95.0635 -0.0401 -0.0513 0.0285
# 4 -0.0114 -0.0183 -0.0401 30.6404 0.0092 -7.8659
# 5 -1.2635 -4.9785 -0.0513 0.0092 34.3927 -0.0044
# 6 0.0074 0.0224 0.0285 -7.8659 -0.0044 31.3337
#
#
#
# Elastic Compliance Matrix: (Units=1/GPa)
#
#
# Indices 1 2 3 4 5 6 
#
# 1 0.016541 -0.004570 -0.005913 -0.000003 -0.000063 0.000004
# 2 -0.004570 0.026939 -0.012011 -0.000005 0.003714 -0.000008
# 3 -0.005913 -0.012011 0.019884 0.000016 -0.001926 -0.000004
# 4 -0.000003 -0.000005 0.000016 0.034885 -0.000009 0.008757
# 5 -0.000063 0.003714 -0.001926 -0.000009 0.029608 0.000001
# 6 0.000004 -0.000008 -0.000004 0.008757 0.000001 0.034113
#
#
# Mechanical properties :
#
#
# Convention : Reuss Voigt Hill
#
# Bulk Modulus (GPa) = 54.41814 57.66580 56.04197
# Shear Modulus (GPa) = 23.46483 26.89604 25.18043
#
# Velocity S-wave (km/s) = 3.50852 3.75629 3.63452
# Velocity P-wave (km/s) = 6.70528 7.00461 6.85658
#
# Compressibility (1/GPa) = 0.01837623
#
# Stress axis : x y z
#
# Youngs Moduli (GPa) = 60.45465 37.12022 50.29173
#
# Poissons Ratio (x) = 0.16964 0.29737
# Poissons Ratio (y) = 0.27628 0.60406
# Poissons Ratio (z) = 0.35747 0.44586
#
# Static dielectric constant tensor:
#      x y z
#    x 3.403960 -0.000020 -0.023240 
#    y -0.000020 3.472420 0.000040 
#    z -0.023240 0.000040 3.561960 
# 
# 
# High freq. dielectric constant tensor:
#      x y z
#    x 1.742680 0.000000 -0.004090 
#    y 0.000000 1.740110 0.000000 
#    z -0.004090 0.000000 1.748050 
# 
# From -- ./inp_files/281018.got.cif
#   From: 2010.06.25/outbox.cif.g09.slc.cpg/sg12_141_cif.got.tgz:281018.got - 2010.06.28 00:19:55.
