data_PCOD8098138
_publ_section_title
;
Structure prediction by ZEFSAII (Michael W. Deem and Ramdas Pophale) SiO2 
 PCOD8098138
Probable space group: C 2/M
;
_chemical_formula_sum "Si O2"
_cell_formula_units_Z 48
_cell_length_a 25.028162
_cell_length_b 7.641809
_cell_length_c 13.970992
_cell_angle_alpha 90.000000
_cell_angle_beta 105.433433
_cell_angle_gamma 90.000000
_cell_volume 2575.742893
_symmetry_space_group_name_H-M "C 2/M"
_symmetry_group_IT_number 12
_symmetry_cell_setting 'monoclinic'
loop_
_space_group_symop_operation_xyz
x,y,z
-x,y,-z
-x,-y,-z
x,-y,z
1/2+x,1/2+y,z
1/2-x,1/2+y,-z
1/2-x,1/2-y,-z
1/2+x,1/2-y,z
loop_
_atom_site_type_symbol
_atom_site_label
_atom_site_fract_x
_atom_site_fract_y
_atom_site_fract_z
Si Si1 0.582536 0.000000 0.108134
Si Si2 0.639286 0.295864 0.245932
Si Si3 0.064705 0.201217 0.394961
Si Si4 0.540954 0.000000 0.877769
Si Si5 0.248449 0.804044 0.389724
Si Si6 0.948681 0.205171 0.266053
Si Si7 0.367809 0.296965 0.396910
O O1 0.616145 0.823631 0.149552
O O2 0.524481 0.000000 0.135965
O O3 0.575040 0.000000 0.991473
O O4 0.639335 0.500000 0.213013
O O5 0.600311 0.266722 0.318229
O O6 0.699588 0.215374 0.303994
O O7 0.094988 0.290095 0.500809
O O8 0.002938 0.275024 0.348786
O O9 0.057591 0.000000 0.417931
O O10 0.558851 0.823398 0.831126
O O11 0.250000 0.750000 0.500000
O O12 0.307176 0.787376 0.365699
O O13 0.227559 0.000000 0.381491
O O14 0.895691 0.235750 0.308005
O O15 0.954712 0.000000 0.239593
O O16 0.359081 0.500000 0.415063
#
# Coordination Sequence:
#
# PCOD8098138 Si02
#       7
#     4   8   8   4   8   8   8
#     4  11  24  40  63  86 111 150 183 255 302 332
#     4  10  21  37  57  84 117 151 191 228 284 347
#     4   9  16  32  54  80 119 156 187 220 273 346
#     4  11  24  40  60  91 112 135 204 245 295 351
#     4  11  22  34  53  84 120 156 192 233 272 331
#     4  10  21  38  58  82 119 158 186 237 287 344
#     4  10  20  34  55  84 117 160 194 223 278 344
#
# _framework density 18.635399
#
# number of rings (size 3 to 8) (size 9 to 14) (size 15 to 20)
#    0.000    1.833    3.333    1.000    3.500    2.667 
#    1.500    2.500    0.000    1.000    0.000    0.000 
#    0.000    0.000    0.000    0.000    0.000    0.000 
#
# Total GULP energy -297510.574115 kJ/mol
# GULP energy per Si atom -12396.273921 kJ/mol
# Density = 1.859298 g / cm^3
# Si number density = 18.635399 Si / 1000 Ang^3
#
#
#
# Elastic Constant Matrix: (Units=GPa)
#
#
# Indices 1 2 3 4 5 6 
#
# 1 122.0097 30.7218 53.0652 0.0000 10.4053 0.0000
# 2 30.7218 82.7238 55.4279 0.0000 5.3101 0.0000
# 3 53.0652 55.4279 120.5152 0.0000 14.4178 0.0000
# 4 0.0000 0.0000 0.0000 29.0562 0.0000 -0.4135
# 5 10.4053 5.3101 14.4178 0.0000 24.7545 0.0000
# 6 0.0000 0.0000 0.0000 -0.4135 0.0000 25.3568
#
#
#
# Elastic Compliance Matrix: (Units=1/GPa)
#
#
# Indices 1 2 3 4 5 6 
#
# 1 0.010290 -0.001179 -0.003764 0.000000 -0.001880 0.000000
# 2 -0.001179 0.017631 -0.007736 0.000000 0.001219 0.000000
# 3 -0.003764 -0.007736 0.014108 0.000000 -0.004975 0.000000
# 4 0.000000 0.000000 0.000000 0.034424 0.000000 0.000561
# 5 -0.001880 0.001219 -0.004975 0.000000 0.043823 0.000000
# 6 0.000000 0.000000 0.000000 0.000561 0.000000 0.039446
#
#
# Mechanical properties :
#
#
# Convention : Reuss Voigt Hill
#
# Bulk Modulus (GPa) = 59.97895 67.07540 63.52717
# Shear Modulus (GPa) = 26.22771 28.23575 27.23173
#
# Velocity S-wave (km/s) = 3.75562 3.89674 3.82683
# Velocity P-wave (km/s) = 7.14574 7.50452 7.32732
#
# Compressibility (1/GPa) = 0.01667252
#
# Stress axis : x y z
#
# Youngs Moduli (GPa) = 97.17910 56.71743 70.88129
#
# Poissons Ratio (x) = 0.06687 0.26678
# Poissons Ratio (y) = 0.11457 0.54832
# Poissons Ratio (z) = 0.36576 0.43875
#
# Static dielectric constant tensor:
#      x y z
#    x 3.347950 0.000000 0.094000 
#    y 0.000000 3.532230 0.000000 
#    z 0.094000 0.000000 3.178310 
# 
# 
# High freq. dielectric constant tensor:
#      x y z
#    x 1.728540 0.000000 0.010610 
#    y 0.000000 1.721310 0.000000 
#    z 0.010610 0.000000 1.695360 
# 
# From -- ./inp_files/172963.got.cif
#   From: 2010.06.25/outbox.cif.g09.slc.cpg/sg12_87_cif.got.tgz:172963.got - 2010.06.28 00:19:55.
