data_PCOD8098675
_publ_section_title
;
Structure prediction by ZEFSAII (Michael W. Deem and Ramdas Pophale) SiO2 
 PCOD8098675
Probable space group: C 2/M
;
_chemical_formula_sum "Si O2"
_cell_formula_units_Z 56
_cell_length_a 8.710977
_cell_length_b 13.084300
_cell_length_c 22.328257
_cell_angle_alpha 90.000000
_cell_angle_beta 90.449447
_cell_angle_gamma 90.000000
_cell_volume 2544.830262
_symmetry_space_group_name_H-M "C 2/M"
_symmetry_group_IT_number 12
_symmetry_cell_setting 'monoclinic'
loop_
_space_group_symop_operation_xyz
x,y,z
-x,y,-z
-x,-y,-z
x,-y,z
1/2+x,1/2+y,z
1/2-x,1/2+y,-z
1/2-x,1/2-y,-z
1/2+x,1/2-y,z
loop_
_atom_site_type_symbol
_atom_site_label
_atom_site_fract_x
_atom_site_fract_y
_atom_site_fract_z
Si Si1 0.812142 0.883884 0.892238
Si Si2 0.168698 0.885311 0.520502
Si Si3 0.219911 0.695554 0.595868
Si Si4 0.152640 0.193710 0.870226
Si Si5 0.528568 0.247104 0.320251
Si Si6 0.277115 0.381616 0.255109
Si Si7 0.833903 0.385356 0.982098
O O1 0.681230 0.815567 0.857915
O O2 0.977158 0.833965 0.880384
O O3 0.806336 0.000000 0.866746
O O4 0.782600 0.885147 0.962925
O O5 0.226752 0.814087 0.574112
O O6 0.277486 0.877558 0.461995
O O7 0.000000 0.848912 0.500000
O O8 0.169422 0.000000 0.545199
O O9 0.364643 0.678556 0.639662
O O10 0.068668 0.675931 0.634575
O O11 0.219085 0.126290 0.816530
O O12 0.256294 0.178142 0.929373
O O13 0.424326 0.322201 0.280942
O O14 0.622242 0.171206 0.278014
O O15 0.281075 0.500000 0.274431
O O16 0.861767 0.500000 0.958501
O O17 0.000000 0.336990 0.000000
#
# Coordination Sequence:
#
# PCOD8098675 Si02
#       7
#     8   8   8   8   8   8   8
#     4  11  24  41  65  96 128 167 211 259 327 404
#     4  10  20  34  61  96 127 169 210 248 319 385
#     4  10  20  39  61  91 132 165 204 265 310 372
#     4  12  23  42  67  92 129 169 214 273 328 382
#     4  10  23  42  64  90 127 170 217 269 318 372
#     4  11  25  45  68  93 123 168 223 274 323 376
#     4  10  21  38  63  97 133 171 211 259 329 405
#
# _framework density 22.005398
#
# number of rings (size 3 to 8) (size 9 to 14) (size 15 to 20)
#    0.000    1.429    1.429    3.857    0.000    4.571 
#    0.000    7.857    0.000    0.000    0.000    0.000 
#    0.000    0.000    0.000    0.000    0.000    0.000 
#
# Total GULP energy -347198.351146 kJ/mol
# GULP energy per Si atom -12399.941112 kJ/mol
# Density = 2.195531 g / cm^3
# Si number density = 22.005398 Si / 1000 Ang^3
#
#
#
# Elastic Constant Matrix: (Units=GPa)
#
#
# Indices 1 2 3 4 5 6 
#
# 1 127.1685 55.7195 35.4020 0.0000 -25.8566 0.0000
# 2 55.7195 139.4725 23.0236 0.0000 0.7347 0.0000
# 3 35.4020 23.0236 71.6579 0.0000 -21.2517 0.0000
# 4 0.0000 0.0000 0.0000 14.9517 0.0000 -0.1208
# 5 -25.8566 0.7347 -21.2517 0.0000 29.5951 0.0000
# 6 0.0000 0.0000 0.0000 -0.1208 0.0000 31.5877
#
#
#
# Elastic Compliance Matrix: (Units=1/GPa)
#
#
# Indices 1 2 3 4 5 6 
#
# 1 0.012380 -0.004711 -0.001728 0.000000 0.009692 0.000000
# 2 -0.004711 0.009508 -0.002564 0.000000 -0.006194 0.000000
# 3 -0.001728 -0.002564 0.019318 0.000000 0.012426 0.000000
# 4 0.000000 0.000000 0.000000 0.066884 0.000000 0.000256
# 5 0.009692 -0.006194 0.012426 0.000000 0.051334 0.000000
# 6 0.000000 0.000000 0.000000 0.000256 0.000000 0.031659
#
#
# Mechanical properties :
#
#
# Convention : Reuss Voigt Hill
#
# Bulk Modulus (GPa) = 43.10621 62.95435 53.03028
# Shear Modulus (GPa) = 23.06043 30.17048 26.61546
#
# Velocity S-wave (km/s) = 3.24071 3.70679 3.48155
# Velocity P-wave (km/s) = 5.79952 6.85500 6.34923
#
# Compressibility (1/GPa) = 0.02319851
#
# Stress axis : x y z
#
# Youngs Moduli (GPa) = 80.77821 105.17444 51.76572
#
# Poissons Ratio (x) = 0.49553 0.08944
# Poissons Ratio (y) = 0.38059 0.13273
# Poissons Ratio (z) = 0.13957 0.26968
#
# Static dielectric constant tensor:
#      x y z
#    x 4.062310 0.000000 -0.191180 
#    y 0.000000 4.027690 0.000000 
#    z -0.191180 0.000000 3.978280 
# 
# 
# High freq. dielectric constant tensor:
#      x y z
#    x 1.872990 0.000000 -0.014930 
#    y 0.000000 1.857300 0.000000 
#    z -0.014930 0.000000 1.863720 
# 
# From -- ./inp_files/300171.got.cif
#   From: 2010.06.25/outbox.cif.g09.slc.cpg/sg12_151_cif.got.tgz:300171.got - 2010.06.28 00:19:55.
