data_PCOD8098572
_publ_section_title
;
Structure prediction by ZEFSAII (Michael W. Deem and Ramdas Pophale) SiO2 
 PCOD8098572
Probable space group: C 2/M
;
_chemical_formula_sum "Si O2"
_cell_formula_units_Z 56
_cell_length_a 10.078722
_cell_length_b 24.883469
_cell_length_c 19.588385
_cell_angle_alpha 90.000000
_cell_angle_beta 40.716174
_cell_angle_gamma 90.000000
_cell_volume 3204.576556
_symmetry_space_group_name_H-M "C 2/M"
_symmetry_group_IT_number 12
_symmetry_cell_setting 'monoclinic'
loop_
_space_group_symop_operation_xyz
x,y,z
-x,y,-z
-x,-y,-z
x,-y,z
1/2+x,1/2+y,z
1/2-x,1/2+y,-z
1/2-x,1/2-y,-z
1/2+x,1/2-y,z
loop_
_atom_site_type_symbol
_atom_site_label
_atom_site_fract_x
_atom_site_fract_y
_atom_site_fract_z
Si Si1 0.561767 0.937688 0.551219
Si Si2 0.549937 0.186196 0.054334
Si Si3 0.421611 0.097075 0.200396
Si Si4 0.474733 0.500000 0.090826
Si Si5 0.431829 0.000000 0.948697
Si Si6 0.005521 0.191395 0.920538
Si Si7 0.487996 0.437631 0.581312
Si Si8 0.801351 0.600412 0.774508
O O1 0.500000 0.919303 0.500000
O O2 0.439759 0.902483 0.653361
O O3 0.800980 0.927024 0.463306
O O4 0.510426 0.000000 0.584980
O O5 0.446457 0.154516 0.155893
O O6 0.449186 0.245232 0.098302
O O7 0.500000 0.160908 0.000000
O O8 0.792373 0.182753 0.966252
O O9 0.185082 0.093403 0.310352
O O10 0.556925 0.093655 0.215081
O O11 0.485821 0.052036 0.121843
O O12 0.361523 0.552931 0.160629
O O13 0.500000 0.500000 0.000000
O O14 0.689812 0.500000 0.043863
O O15 0.500000 0.000000 0.000000
O O16 0.185001 0.157552 0.814777
O O17 0.000000 0.169512 0.000000
O O18 0.500000 0.414987 0.500000
O O19 0.426403 0.500000 0.603574
#
# Coordination Sequence:
#
# PCOD8098572 Si02
#       8
#     8   8   8   4   4   8   8   8
#     4  10  22  38  56  85 118 148 191 240 284 341
#     4  10  22  37  57  84 118 150 196 239 280 333
#     4  12  21  37  60  85 114 159 193 233 286 349
#     4  12  22  34  56  86 119 150 185 229 284 357
#     4  12  26  36  50  87 129 150 180 233 297 341
#     4  10  20  38  59  84 113 155 195 236 279 341
#     4  10  20  34  58  82 113 149 193 234 276 340
#     4  12  21  36  63  85 112 155 197 231 287 350
#
# _framework density 17.475009
#
# number of rings (size 3 to 8) (size 9 to 14) (size 15 to 20)
#    0.000    1.143    5.714    1.714    0.000    2.286 
#    0.000    0.000    0.000    1.714    0.000    0.000 
#    0.000    0.000    0.000    0.000    0.000    0.000 
#
# Total GULP energy -347299.456800 kJ/mol
# GULP energy per Si atom -12403.552029 kJ/mol
# Density = 1.743524 g / cm^3
# Si number density = 17.475009 Si / 1000 Ang^3
#
#
#
# Elastic Constant Matrix: (Units=GPa)
#
#
# Indices 1 2 3 4 5 6 
#
# 1 140.9903 28.2800 55.2508 -0.0001 9.1500 0.0000
# 2 28.2800 68.2886 50.0146 0.0000 1.6885 0.0001
# 3 55.2508 50.0146 124.2126 0.0006 1.1295 0.0006
# 4 -0.0001 0.0000 0.0006 23.3544 -0.0001 3.7564
# 5 9.1500 1.6885 1.1295 -0.0001 28.2101 -0.0001
# 6 0.0000 0.0001 0.0006 3.7564 -0.0001 24.1437
#
#
#
# Elastic Compliance Matrix: (Units=1/GPa)
#
#
# Indices 1 2 3 4 5 6 
#
# 1 0.008842 -0.001040 -0.003490 0.000000 -0.002666 0.000000
# 2 -0.001040 0.020914 -0.007953 0.000000 -0.000596 0.000000
# 3 -0.003490 -0.007953 0.012796 0.000000 0.001096 0.000000
# 4 0.000000 0.000000 0.000000 0.043917 0.000000 -0.006833
# 5 -0.002666 -0.000596 0.001096 0.000000 0.036305 0.000000
# 6 0.000000 0.000000 0.000000 -0.006833 0.000000 0.042482
#
#
# Mechanical properties :
#
#
# Convention : Reuss Voigt Hill
#
# Bulk Modulus (GPa) = 56.86479 66.73138 61.79808
# Shear Modulus (GPa) = 25.49938 28.47139 26.98539
#
# Velocity S-wave (km/s) = 3.82408 4.04079 3.93393
# Velocity P-wave (km/s) = 7.21868 7.74857 7.48831
#
# Compressibility (1/GPa) = 0.01758557
#
# Stress axis : x y z
#
# Youngs Moduli (GPa) = 113.09758 47.81498 78.15188
#
# Poissons Ratio (x) = 0.04971 0.27276
# Poissons Ratio (y) = 0.11757 0.62156
# Poissons Ratio (z) = 0.39473 0.38028
#
# Static dielectric constant tensor:
#      x y z
#    x 3.423870 0.000000 -0.038670 
#    y 0.000000 3.187460 0.000000 
#    z -0.038670 0.000000 3.014320 
# 
# 
# High freq. dielectric constant tensor:
#      x y z
#    x 1.693020 0.000000 -0.003500 
#    y 0.000000 1.657040 0.000000 
#    z -0.003500 0.000000 1.671810 
# 
# From -- ./inp_files/260143.got.cif
#   From: 2010.06.25/outbox.cif.g09.slc.cpg/sg12_131_cif.got.tgz:260143.got - 2010.06.28 00:19:55.
