data_PCOD8098740
_publ_section_title
;
Structure prediction by ZEFSAII (Michael W. Deem and Ramdas Pophale) SiO2 
 PCOD8098740
Probable space group: C 2/M
;
_chemical_formula_sum "Si O2"
_cell_formula_units_Z 56
_cell_length_a 17.404259
_cell_length_b 14.567756
_cell_length_c 18.358213
_cell_angle_alpha 90.000000
_cell_angle_beta 136.493717
_cell_angle_gamma 90.000000
_cell_volume 3204.357658
_symmetry_space_group_name_H-M "C 2/M"
_symmetry_group_IT_number 12
_symmetry_cell_setting 'monoclinic'
loop_
_space_group_symop_operation_xyz
x,y,z
-x,y,-z
-x,-y,-z
x,-y,z
1/2+x,1/2+y,z
1/2-x,1/2+y,-z
1/2-x,1/2-y,-z
1/2+x,1/2-y,z
loop_
_atom_site_type_symbol
_atom_site_label
_atom_site_fract_x
_atom_site_fract_y
_atom_site_fract_z
Si Si1 0.056847 0.395095 0.148375
Si Si2 0.317721 0.105237 0.243246
Si Si3 0.232054 0.894454 0.340304
Si Si4 0.330149 0.104007 0.923639
Si Si5 0.921657 0.263893 0.710808
Si Si6 0.182612 0.748847 0.879022
Si Si7 0.075080 0.604058 0.417134
O O1 0.083500 0.500000 0.186398
O O2 0.113551 0.365797 0.112576
O O3 0.109855 0.331762 0.245809
O O4 0.922605 0.381506 0.050792
O O5 0.245855 0.134571 0.264966
O O6 0.284110 0.161323 0.147743
O O7 0.447259 0.121019 0.351278
O O8 0.293032 0.000000 0.206909
O O9 0.144214 0.830901 0.322889
O O10 0.352309 0.883803 0.460594
O O11 0.190456 0.000000 0.317253
O O12 0.219300 0.161731 0.859725
O O13 0.290192 0.000000 0.893177
O O14 0.886306 0.317989 0.613567
O O15 0.052102 0.242002 0.802391
O O16 0.250000 0.750000 0.000000
O O17 0.089210 0.500000 0.394871
#
# Coordination Sequence:
#
# PCOD8098740 Si02
#       7
#     8   8   8   8   8   8   8
#     4   9  17  31  51  71  90 120 165 211 246 281
#     4   9  19  35  55  75  98 133 175 211 245 296
#     4  10  20  35  52  74 104 136 168 205 253 307
#     4   9  18  32  49  67  92 128 165 201 243 288
#     4  11  20  31  51  76 105 131 163 206 255 303
#     4  11  21  33  48  73 102 133 166 204 250 295
#     4   9  18  33  55  79 100 126 167 217 260 294
#
# _framework density 17.476202000000001
#
# number of rings (size 3 to 8) (size 9 to 14) (size 15 to 20)
#    0.000    2.286    1.429    3.000    0.000    3.429 
#    0.000    0.000    0.000    1.714    0.000    0.000 
#    0.000   20.571    0.000    0.000    0.000    0.000 
#
# Total GULP energy -347109.202330 kJ/mol
# GULP energy per Si atom -12396.757226 kJ/mol
# Density = 1.743643 g / cm^3
# Si number density = 17.476202 Si / 1000 Ang^3
#
#
#
# Elastic Constant Matrix: (Units=GPa)
#
#
# Indices 1 2 3 4 5 6 
#
# 1 81.1753 59.6556 29.1235 0.0000 -4.6122 0.0000
# 2 59.6556 87.6822 33.4549 0.0000 -5.9090 0.0000
# 3 29.1235 33.4549 66.7186 0.0000 -10.6753 0.0000
# 4 0.0000 0.0000 0.0000 27.4821 0.0000 -0.1157
# 5 -4.6122 -5.9090 -10.6753 0.0000 20.4262 0.0000
# 6 0.0000 0.0000 0.0000 -0.1157 0.0000 37.1726
#
#
#
# Elastic Compliance Matrix: (Units=1/GPa)
#
#
# Indices 1 2 3 4 5 6 
#
# 1 0.025107 -0.015957 -0.003045 0.000000 -0.000538 0.000000
# 2 -0.015957 0.024247 -0.005071 0.000000 0.000761 0.000000
# 3 -0.003045 -0.005071 0.020205 0.000000 0.008405 0.000000
# 4 0.000000 0.000000 0.000000 0.036388 0.000000 0.000113
# 5 -0.000538 0.000761 0.008405 0.000000 0.053448 0.000000
# 6 0.000000 0.000000 0.000000 0.000113 0.000000 0.026902
#
#
# Mechanical properties :
#
#
# Convention : Reuss Voigt Hill
#
# Bulk Modulus (GPa) = 46.69708 53.33827 50.01767
# Shear Modulus (GPa) = 20.69699 24.57233 22.63466
#
# Velocity S-wave (km/s) = 3.44509 3.75379 3.60275
# Velocity P-wave (km/s) = 6.52712 7.02672 6.78152
#
# Compressibility (1/GPa) = 0.02141462
#
# Stress axis : x y z
#
# Youngs Moduli (GPa) = 39.82908 41.24157 49.49236
#
# Poissons Ratio (x) = 0.65808 0.15068
# Poissons Ratio (y) = 0.63554 0.25100
# Poissons Ratio (z) = 0.12126 0.20915
#
# Static dielectric constant tensor:
#      x y z
#    x 3.263630 0.000000 -0.122290 
#    y 0.000000 3.296880 0.000000 
#    z -0.122290 0.000000 3.136170 
# 
# 
# High freq. dielectric constant tensor:
#      x y z
#    x 1.675820 0.000000 -0.013600 
#    y 0.000000 1.677170 0.000000 
#    z -0.013600 0.000000 1.660010 
# 
# From -- ./inp_files/183528.got.cif
#   From: 2010.06.25/outbox.cif.g09.slc.cpg/sg12_92_cif.got.tgz:183528.got - 2010.06.28 00:19:55.
