data_PCOD8098858
_publ_section_title
;
Structure prediction by ZEFSAII (Michael W. Deem and Ramdas Pophale) SiO2 
 PCOD8098858
Probable space group: C 2/M
;
_chemical_formula_sum "Si O2"
_cell_formula_units_Z 56
_cell_length_a 14.578303
_cell_length_b 9.540259
_cell_length_c 22.827994
_cell_angle_alpha 90.000000
_cell_angle_beta 69.089513
_cell_angle_gamma 90.000000
_cell_volume 2965.831460
_symmetry_space_group_name_H-M "C 2/M"
_symmetry_group_IT_number 12
_symmetry_cell_setting 'monoclinic'
loop_
_space_group_symop_operation_xyz
x,y,z
-x,y,-z
-x,-y,-z
x,-y,z
1/2+x,1/2+y,z
1/2-x,1/2+y,-z
1/2-x,1/2-y,-z
1/2+x,1/2-y,z
loop_
_atom_site_type_symbol
_atom_site_label
_atom_site_fract_x
_atom_site_fract_y
_atom_site_fract_z
Si Si1 0.109925 0.836173 0.992139
Si Si2 0.913679 0.661531 0.438952
Si Si3 0.734666 0.339561 0.706851
Si Si4 0.363854 0.839380 0.573987
Si Si5 0.788695 0.838724 0.911271
Si Si6 0.053294 0.159403 0.676452
Si Si7 0.655425 0.663417 0.230796
O O1 0.133535 0.803371 0.054943
O O2 0.121109 0.000000 0.975176
O O3 0.190029 0.753519 0.935660
O O4 0.000000 0.785248 0.000000
O O5 0.886266 0.500000 0.432611
O O6 0.855318 0.722355 0.509488
O O7 0.892104 0.752991 0.386647
O O8 0.027728 0.677206 0.426538
O O9 0.768876 0.500000 0.709921
O O10 0.790856 0.270433 0.637886
O O11 0.618966 0.332097 0.720136
O O12 0.756471 0.248948 0.759357
O O13 0.333552 0.000000 0.574717
O O14 0.844611 0.805801 0.838252
O O15 0.755300 0.000000 0.922887
O O16 0.946796 0.218420 0.718403
O O17 0.045338 0.000000 0.655963
O O18 0.670782 0.500000 0.240004
#
# Coordination Sequence:
#
# PCOD8098858 Si02
#       7
#     8   8   8   8   8   8   8
#     4   9  18  34  58  86 111 136 171 210 247 294
#     4   9  16  30  52  72  95 131 171 211 262 322
#     4  10  20  35  54  74  98 134 178 218 258 312
#     4   8  15  29  50  73  95 127 170 215 262 313
#     4   9  19  35  54  77 109 144 172 205 251 298
#     4  10  21  34  50  75 104 131 167 219 269 305
#     4  10  21  37  52  72 107 142 170 209 259 301
#
# _framework density 18.881720000000001
#
# number of rings (size 3 to 8) (size 9 to 14) (size 15 to 20)
#    0.000    2.714    1.429    0.857    0.000    3.143 
#    0.000    5.000    0.000    0.000    0.000    0.000 
#    0.000    0.000    0.000    0.000    0.000    0.000 
#
# Total GULP energy -347060.655105 kJ/mol
# GULP energy per Si atom -12395.023397 kJ/mol
# Density = 1.883874 g / cm^3
# Si number density = 18.881720 Si / 1000 Ang^3
#
#
#
# Elastic Constant Matrix: (Units=GPa)
#
#
# Indices 1 2 3 4 5 6 
#
# 1 80.9975 29.9736 28.3250 0.0000 11.5955 0.0000
# 2 29.9736 50.2431 38.3780 0.0000 7.9964 0.0000
# 3 28.3250 38.3780 95.3089 0.0000 13.8855 0.0000
# 4 0.0000 0.0000 0.0000 29.2520 0.0000 3.3423
# 5 11.5955 7.9964 13.8855 0.0000 19.2337 0.0000
# 6 0.0000 0.0000 0.0000 3.3423 0.0000 25.6828
#
#
#
# Elastic Compliance Matrix: (Units=1/GPa)
#
#
# Indices 1 2 3 4 5 6 
#
# 1 0.016549 -0.008418 -0.000654 0.000000 -0.006006 0.000000
# 2 -0.008418 0.033306 -0.010764 0.000000 -0.001001 0.000000
# 3 -0.000654 -0.010764 0.015994 0.000000 -0.006677 0.000000
# 4 0.000000 0.000000 0.000000 0.034702 0.000000 -0.004516
# 5 -0.006006 -0.001001 -0.006677 0.000000 0.060849 0.000000
# 6 0.000000 0.000000 0.000000 -0.004516 0.000000 0.039524
#
#
# Mechanical properties :
#
#
# Convention : Reuss Voigt Hill
#
# Bulk Modulus (GPa) = 38.19929 46.65585 42.42757
# Shear Modulus (GPa) = 20.05442 23.49190 21.77316
#
# Velocity S-wave (km/s) = 3.26253 3.53109 3.39947
# Velocity P-wave (km/s) = 5.87085 6.43335 6.15853
#
# Compressibility (1/GPa) = 0.02617850
#
# Stress axis : x y z
#
# Youngs Moduli (GPa) = 60.42484 30.02439 62.52506
#
# Poissons Ratio (x) = 0.25274 0.04088
# Poissons Ratio (y) = 0.50864 0.67301
# Poissons Ratio (z) = 0.03951 0.32318
#
# Static dielectric constant tensor:
#      x y z
#    x 3.362810 0.000000 0.021010 
#    y 0.000000 3.260130 0.000000 
#    z 0.021010 0.000000 3.530030 
# 
# 
# High freq. dielectric constant tensor:
#      x y z
#    x 1.729570 0.000000 0.003870 
#    y 0.000000 1.709440 0.000000 
#    z 0.003870 0.000000 1.731920 
# 
# From -- ./inp_files/337903.got.cif
#   From: 2010.06.25/outbox.cif.g09.slc.cpg/sg12_169_cif.got.tgz:337903.got - 2010.06.28 00:19:55.
