data_PCOD8098495
_publ_section_title
;
Structure prediction by ZEFSAII (Michael W. Deem and Ramdas Pophale) SiO2 
 PCOD8098495
Probable space group: C 2/M
;
_chemical_formula_sum "Si O2"
_cell_formula_units_Z 64
_cell_length_a 17.349976
_cell_length_b 14.796531
_cell_length_c 24.945440
_cell_angle_alpha 90.000000
_cell_angle_beta 149.615977
_cell_angle_gamma 90.000000
_cell_volume 3239.089652
_symmetry_space_group_name_H-M "C 2/M"
_symmetry_group_IT_number 12
_symmetry_cell_setting 'monoclinic'
loop_
_space_group_symop_operation_xyz
x,y,z
-x,y,-z
-x,-y,-z
x,-y,z
1/2+x,1/2+y,z
1/2-x,1/2+y,-z
1/2-x,1/2-y,-z
1/2+x,1/2-y,z
loop_
_atom_site_type_symbol
_atom_site_label
_atom_site_fract_x
_atom_site_fract_y
_atom_site_fract_z
Si Si1 0.107609 0.896526 0.751994
Si Si2 0.512098 0.893297 0.695575
Si Si3 0.710914 0.604551 0.217865
Si Si4 0.877584 0.745125 0.153744
Si Si5 0.454171 0.268522 0.083384
Si Si6 0.167466 0.606775 0.594473
Si Si7 0.574621 0.898291 0.101581
Si Si8 0.770148 0.105910 0.542292
O O1 0.143668 0.833918 0.823718
O O2 0.241984 0.883481 0.789442
O O3 0.942940 0.871551 0.627107
O O4 0.104935 0.000000 0.771455
O O5 0.647483 0.871118 0.735140
O O6 0.535883 0.835988 0.763704
O O7 0.354403 0.856356 0.574456
O O8 0.506103 0.000000 0.705744
O O9 0.667529 0.500000 0.185640
O O10 0.564500 0.664972 0.115698
O O11 0.742633 0.631791 0.298154
O O12 0.969146 0.778318 0.156424
O O13 0.713692 0.707116 0.037772
O O14 0.499868 0.165106 0.100633
O O15 0.153628 0.500000 0.580232
O O16 0.247502 0.646631 0.588828
O O17 0.000000 0.649540 0.500000
O O18 0.534984 0.000000 0.094874
O O19 0.500000 0.874888 0.000000
O O20 0.739243 0.000000 0.526369
#
# Coordination Sequence:
#
# PCOD8098495 Si02
#       8
#     8   8   8   8   8   8   8   8
#     4  10  20  36  61  87 108 138 187 242 283 321
#     4  10  21  37  57  83 117 154 184 217 275 348
#     4  10  20  34  57  87 117 150 184 222 277 341
#     4  11  24  39  55  81 114 150 188 230 285 336
#     4  11  24  39  57  80 113 149 187 238 281 332
#     4   9  14  26  49  79 114 149 182 218 264 323
#     4  10  20  38  63  83 102 138 190 243 286 322
#     4   9  17  31  54  83 115 147 183 229 277 330
#
# _framework density 19.758637
#
# number of rings (size 3 to 8) (size 9 to 14) (size 15 to 20)
#    0.000    2.000    2.500    1.500    0.000    3.000 
#    0.000    3.750    0.000    0.000    0.000    3.500 
#    0.000    0.000    0.000    0.000    0.000    0.000 
#
# Total GULP energy -396722.003908 kJ/mol
# GULP energy per Si atom -12397.562622 kJ/mol
# Density = 1.971367 g / cm^3
# Si number density = 19.758637 Si / 1000 Ang^3
#
#
#
# Elastic Constant Matrix: (Units=GPa)
#
#
# Indices 1 2 3 4 5 6 
#
# 1 38.8517 6.6674 26.9367 0.0017 5.3073 0.0008
# 2 6.6674 45.2631 16.5550 0.0018 -4.5558 0.0009
# 3 26.9367 16.5550 91.2141 0.0083 6.4876 0.0042
# 4 0.0017 0.0018 0.0083 24.7561 0.0013 -1.0974
# 5 5.3073 -4.5558 6.4876 0.0013 33.8127 0.0003
# 6 0.0008 0.0009 0.0042 -1.0974 0.0003 22.7741
#
#
#
# Elastic Compliance Matrix: (Units=1/GPa)
#
#
# Indices 1 2 3 4 5 6 
#
# 1 0.032876 -0.001881 -0.009107 0.000001 -0.003666 0.000001
# 2 -0.001881 0.024337 -0.004173 0.000000 0.004375 0.000000
# 3 -0.009107 -0.004173 0.014547 -0.000004 -0.001924 -0.000002
# 4 0.000001 0.000000 -0.000004 0.040481 -0.000001 0.001951
# 5 -0.003666 0.004375 -0.001924 -0.000001 0.031109 0.000000
# 6 0.000001 0.000000 -0.000002 0.001951 0.000000 0.044003
#
#
# Mechanical properties :
#
#
# Convention : Reuss Voigt Hill
#
# Bulk Modulus (GPa) = 24.13190 30.62747 27.37969
# Shear Modulus (GPa) = 21.59955 24.61323 23.10639
#
# Velocity S-wave (km/s) = 3.30990 3.53327 3.42341
# Velocity P-wave (km/s) = 5.18142 5.67272 5.43263
#
# Compressibility (1/GPa) = 0.04143892
#
# Stress axis : x y z
#
# Youngs Moduli (GPa) = 30.41698 41.09026 68.74423
#
# Poissons Ratio (x) = 0.07730 0.62603
# Poissons Ratio (y) = 0.05722 0.28685
# Poissons Ratio (z) = 0.27700 0.17146
#
# Static dielectric constant tensor:
#      x y z
#    x 3.545800 0.000000 0.192910 
#    y 0.000000 3.372170 0.000000 
#    z 0.192910 0.000000 3.734400 
# 
# 
# High freq. dielectric constant tensor:
#      x y z
#    x 1.758950 0.000000 0.018940 
#    y 0.000000 1.754100 0.000000 
#    z 0.018940 0.000000 1.774630 
# 
# From -- ./inp_files/183803.got.cif
#   From: 2010.06.25/outbox.cif.g09.slc.cpg/sg12_92_cif.got.tgz:183803.got - 2010.06.28 00:19:55.
