data_PCOD8098628
_publ_section_title
;
Structure prediction by ZEFSAII (Michael W. Deem and Ramdas Pophale) SiO2 
 PCOD8098628
Probable space group: C 2/M
;
_chemical_formula_sum "Si O2"
_cell_formula_units_Z 64
_cell_length_a 18.620807
_cell_length_b 29.559268
_cell_length_c 12.390563
_cell_angle_alpha 90.000000
_cell_angle_beta 29.285865
_cell_angle_gamma 90.000000
_cell_volume 3336.112039
_symmetry_space_group_name_H-M "C 2/M"
_symmetry_group_IT_number 12
_symmetry_cell_setting 'monoclinic'
loop_
_space_group_symop_operation_xyz
x,y,z
-x,y,-z
-x,-y,-z
x,-y,z
1/2+x,1/2+y,z
1/2-x,1/2+y,-z
1/2-x,1/2-y,-z
1/2+x,1/2-y,z
loop_
_atom_site_type_symbol
_atom_site_label
_atom_site_fract_x
_atom_site_fract_y
_atom_site_fract_z
Si Si1 0.347912 0.128304 0.758320
Si Si2 0.344829 0.209554 0.925873
Si Si3 0.459459 0.355740 0.931474
Si Si4 0.862465 0.817433 0.619099
Si Si5 0.433552 0.408356 0.412549
Si Si6 0.105701 0.769558 0.639429
Si Si7 0.758402 0.946945 0.945301
Si Si8 0.147717 0.447426 0.857522
O O1 0.500000 0.120094 0.500000
O O2 0.364234 0.170406 0.815028
O O3 0.216738 0.141148 0.847978
O O4 0.314131 0.081863 0.864475
O O5 0.502931 0.227177 0.751336
O O6 0.250000 0.250000 0.000000
O O7 0.276312 0.186421 0.121411
O O8 0.532141 0.390662 0.752436
O O9 0.518840 0.305451 0.827687
O O10 0.500000 0.369507 0.000000
O O11 0.902927 0.868631 0.537622
O O12 0.832835 0.790698 0.549959
O O13 0.000000 0.794788 0.500000
O O14 0.566851 0.437868 0.285704
O O15 0.285697 0.437874 0.598286
O O16 0.250000 0.750000 0.500000
O O17 0.684579 0.930265 0.930072
O O18 0.730828 0.000000 0.002721
O O19 0.119486 0.500000 0.901096
O O20 0.000000 0.424438 0.000000
#
# Coordination Sequence:
#
# PCOD8098628 Si02
#       8
#     8   8   8   8   8   8   8   8
#     4  11  25  41  64  94 120 164 211 253 310 372
#     4  12  23  39  63  87 119 165 208 249 303 363
#     4  10  23  42  60  84 123 162 205 260 302 360
#     4  11  21  39  61  84 118 155 202 257 293 355
#     4  10  20  39  63  89 116 159 206 247 306 361
#     4  11  26  39  58  86 118 160 205 258 302 354
#     4  10  21  41  67  93 122 161 207 254 305 372
#     4  10  20  34  58  92 127 154 188 247 311 368
#
# _framework density 19.184007000000001
#
# number of rings (size 3 to 8) (size 9 to 14) (size 15 to 20)
#    0.000    1.375    2.500    3.750    5.250    2.250 
#    6.750    0.000    0.000    9.375    0.000    0.000 
#    0.000    0.000    0.000    0.000    0.000    0.000 
#
# Total GULP energy -396772.093651 kJ/mol
# GULP energy per Si atom -12399.127927 kJ/mol
# Density = 1.914034 g / cm^3
# Si number density = 19.184007 Si / 1000 Ang^3
#
#
#
# Elastic Constant Matrix: (Units=GPa)
#
#
# Indices 1 2 3 4 5 6 
#
# 1 150.6981 48.9379 67.5251 0.0004 -18.1551 -0.0006
# 2 48.9379 82.7801 38.0186 0.0004 -2.9118 -0.0001
# 3 67.5251 38.0186 139.1084 0.0008 -15.9641 -0.0008
# 4 0.0004 0.0004 0.0008 23.6203 -0.0005 -5.3782
# 5 -18.1551 -2.9118 -15.9641 -0.0005 38.4258 0.0007
# 6 -0.0006 -0.0001 -0.0008 -5.3782 0.0007 22.5086
#
#
#
# Elastic Compliance Matrix: (Units=1/GPa)
#
#
# Indices 1 2 3 4 5 6 
#
# 1 0.009827 -0.004197 -0.003283 0.000000 0.002961 0.000000
# 2 -0.004197 0.015618 -0.002439 0.000000 -0.001813 0.000000
# 3 -0.003283 -0.002439 0.009713 0.000000 0.002299 0.000000
# 4 0.000000 0.000000 0.000000 0.044772 0.000000 0.010698
# 5 0.002961 -0.001813 0.002299 0.000000 0.028241 -0.000001
# 6 0.000000 0.000000 0.000000 0.010698 -0.000001 0.046984
#
#
# Mechanical properties :
#
#
# Convention : Reuss Voigt Hill
#
# Bulk Modulus (GPa) = 65.28063 75.72776 70.50420
# Shear Modulus (GPa) = 27.76249 31.45127 29.60688
#
# Velocity S-wave (km/s) = 3.80829 4.05341 3.93276
# Velocity P-wave (km/s) = 7.31027 7.84009 7.57981
#
# Compressibility (1/GPa) = 0.01531848
#
# Stress axis : x y z
#
# Youngs Moduli (GPa) = 101.76459 64.02874 102.95767
#
# Poissons Ratio (x) = 0.26875 0.33801
# Poissons Ratio (y) = 0.42714 0.25112
# Poissons Ratio (z) = 0.33410 0.15617
#
# Static dielectric constant tensor:
#      x y z
#    x 3.811340 -0.000150 0.050120 
#    y -0.000150 3.537130 -0.000190 
#    z 0.050120 -0.000190 3.797860 
# 
# 
# High freq. dielectric constant tensor:
#      x y z
#    x 1.750950 0.000000 -0.004020 
#    y 0.000000 1.745300 0.000000 
#    z -0.004020 0.000000 1.749720 
# 
# From -- ./inp_files/161187.got.cif
#   From: 2010.06.25/outbox.cif.g09.slc.cpg/sg12_81_cif.got.tgz:161187.got - 2010.06.28 00:19:55.
