data_PCOD8098483
_publ_section_title
;
Structure prediction by ZEFSAII (Michael W. Deem and Ramdas Pophale) SiO2 
 PCOD8098483
Probable space group: C 2/M
;
_chemical_formula_sum "Si O2"
_cell_formula_units_Z 56
_cell_length_a 34.415840
_cell_length_b 9.088630
_cell_length_c 20.853487
_cell_angle_alpha 90.000000
_cell_angle_beta 27.253968
_cell_angle_gamma 90.000000
_cell_volume 2987.031337
_symmetry_space_group_name_H-M "C 2/M"
_symmetry_group_IT_number 12
_symmetry_cell_setting 'monoclinic'
loop_
_space_group_symop_operation_xyz
x,y,z
-x,y,-z
-x,-y,-z
x,-y,z
1/2+x,1/2+y,z
1/2-x,1/2+y,-z
1/2-x,1/2-y,-z
1/2+x,1/2-y,z
loop_
_atom_site_type_symbol
_atom_site_label
_atom_site_fract_x
_atom_site_fract_y
_atom_site_fract_z
Si Si1 0.016204 0.170600 0.270791
Si Si2 0.850374 0.829591 0.595132
Si Si3 0.593582 0.834027 0.368743
Si Si4 0.163265 0.665920 0.125146
Si Si5 0.753398 0.672784 0.629064
Si Si6 0.917482 0.329944 0.310080
Si Si7 0.583369 0.829096 0.837612
O O1 0.099957 0.254217 0.169583
O O2 0.943467 0.197911 0.429859
O O3 0.986141 0.232629 0.246602
O O4 0.037905 0.000000 0.230829
O O5 0.849092 0.765069 0.668645
O O6 0.780313 0.746251 0.656284
O O7 0.825791 0.000000 0.632981
O O8 0.500000 0.765001 0.500000
O O9 0.631804 0.832667 0.243121
O O10 0.588825 0.000000 0.403890
O O11 0.175770 0.500000 0.081791
O O12 0.250000 0.750000 0.000000
O O13 0.746488 0.500000 0.649921
O O14 0.821866 0.711839 0.472981
O O15 0.662007 0.733234 0.744903
O O16 0.935250 0.500000 0.299811
O O17 0.931000 0.294507 0.215908
O O18 0.605095 0.000000 0.816535
O O19 0.500000 0.783307 0.000000
#
# Coordination Sequence:
#
# PCOD8098483 Si02
#       7
#     8   8   8   8   8   8   8
#     4  10  20  35  57  85 114 145 187 235 280 330
#     4  10  20  34  57  87 115 144 185 236 281 328
#     4  10  20  36  59  84 112 147 187 232 282 331
#     4  11  23  39  58  81 114 152 189 232 280 335
#     4  10  20  35  58  84 112 145 185 230 275 329
#     4   9  19  36  59  84 109 144 186 229 278 331
#     4  10  21  38  58  82 114 147 181 224 278 336
#
# _framework density 18.747710000000001
#
# number of rings (size 3 to 8) (size 9 to 14) (size 15 to 20)
#    0.000    2.000    1.429    2.143    0.000    4.000 
#    2.571    0.000    0.000    0.000    0.000    0.000 
#    0.000    0.000    0.000    0.000    0.000    0.000 
#
# Total GULP energy -347287.028754 kJ/mol
# GULP energy per Si atom -12403.108170 kJ/mol
# Density = 1.870504 g / cm^3
# Si number density = 18.747710 Si / 1000 Ang^3
#
#
#
# Elastic Constant Matrix: (Units=GPa)
#
#
# Indices 1 2 3 4 5 6 
#
# 1 128.4580 77.4419 57.5225 0.0005 -15.6541 0.0006
# 2 77.4419 126.7791 60.2211 -0.0042 -23.0018 0.0016
# 3 57.5225 60.2211 93.6321 -0.0099 -16.4604 -0.0002
# 4 0.0005 -0.0042 -0.0099 29.4874 0.0027 -8.7277
# 5 -15.6541 -23.0018 -16.4604 0.0027 26.5437 0.0001
# 6 0.0006 0.0016 -0.0002 -8.7277 0.0001 37.5821
#
#
#
# Elastic Compliance Matrix: (Units=1/GPa)
#
#
# Indices 1 2 3 4 5 6 
#
# 1 0.013416 -0.006177 -0.004287 -0.000003 -0.000099 -0.000001
# 2 -0.006177 0.015109 -0.004783 0.000000 0.006484 -0.000001
# 3 -0.004287 -0.004783 0.017079 0.000005 0.003918 0.000002
# 4 -0.000003 0.000000 0.000005 0.036416 -0.000002 0.008457
# 5 -0.000099 0.006484 0.003918 -0.000002 0.045664 -0.000001
# 6 -0.000001 -0.000001 0.000002 0.008457 -0.000001 0.028572
#
#
# Mechanical properties :
#
#
# Convention : Reuss Voigt Hill
#
# Bulk Modulus (GPa) = 66.17839 82.13781 74.15810
# Shear Modulus (GPa) = 26.07070 28.96821 27.51945
#
# Velocity S-wave (km/s) = 3.73313 3.93512 3.83545
# Velocity P-wave (km/s) = 7.34559 8.03456 7.69779
#
# Compressibility (1/GPa) = 0.01511067
#
# Stress axis : x y z
#
# Youngs Moduli (GPa) = 74.53918 66.18484 58.55212
#
# Poissons Ratio (x) = 0.40880 0.25099
# Poissons Ratio (y) = 0.46040 0.28007
# Poissons Ratio (z) = 0.31953 0.31658
#
# Static dielectric constant tensor:
#      x y z
#    x 3.458160 0.000000 0.023010 
#    y 0.000000 3.616660 -0.000010 
#    z 0.023010 -0.000010 2.680200 
# 
# 
# High freq. dielectric constant tensor:
#      x y z
#    x 1.736070 0.000000 -0.005830 
#    y 0.000000 1.736140 0.000000 
#    z -0.005830 0.000000 1.712930 
# 
# From -- ./inp_files/275019.got.cif
#   From: 2010.06.25/outbox.cif.g09.slc.cpg/sg12_138_cif.got.tgz:275019.got - 2010.06.28 00:19:55.
