data_PCOD8098845
_publ_section_title
;
Structure prediction by ZEFSAII (Michael W. Deem and Ramdas Pophale) SiO2 
 PCOD8098845
Probable space group: C 2/M
;
_chemical_formula_sum "Si O2"
_cell_formula_units_Z 56
_cell_length_a 19.336025
_cell_length_b 9.113207
_cell_length_c 21.138651
_cell_angle_alpha 90.000000
_cell_angle_beta 123.918667
_cell_angle_gamma 90.000000
_cell_volume 3091.043451
_symmetry_space_group_name_H-M "C 2/M"
_symmetry_group_IT_number 12
_symmetry_cell_setting 'monoclinic'
loop_
_space_group_symop_operation_xyz
x,y,z
-x,y,-z
-x,-y,-z
x,-y,z
1/2+x,1/2+y,z
1/2-x,1/2+y,-z
1/2-x,1/2-y,-z
1/2+x,1/2-y,z
loop_
_atom_site_type_symbol
_atom_site_label
_atom_site_fract_x
_atom_site_fract_y
_atom_site_fract_z
Si Si1 0.829842 0.328953 0.013137
Si Si2 0.792250 0.327466 0.287055
Si Si3 0.787081 0.162240 0.877780
Si Si4 0.257675 0.668962 0.598278
Si Si5 0.880547 0.330043 0.574084
Si Si6 0.096855 0.337392 0.824836
Si Si7 0.046207 0.173864 0.681941
O O1 0.810592 0.500000 0.998204
O O2 0.846486 0.267088 0.950690
O O3 0.750000 0.250000 0.000000
O O4 0.906751 0.299269 0.101443
O O5 0.814967 0.500000 0.293994
O O6 0.719431 0.287480 0.199014
O O7 0.758099 0.283747 0.337916
O O8 0.874888 0.235199 0.315476
O O9 0.693253 0.163984 0.855311
O O10 0.825720 0.000000 0.902440
O O11 0.286272 0.500000 0.607482
O O12 0.172933 0.695153 0.516368
O O13 0.331016 0.770811 0.609700
O O14 0.901548 0.500000 0.595729
O O15 0.964664 0.238912 0.606973
O O16 0.059503 0.500000 0.793652
O O17 0.046726 0.221932 0.756351
O O18 0.045240 0.000000 0.677488
#
# Coordination Sequence:
#
# PCOD8098845 Si02
#       7
#     8   8   8   8   8   8   8
#     4   9  15  22  35  56  85 120 154 189 228 273
#     4   9  18  33  50  70  99 130 159 195 240 284
#     4   8  14  24  39  60  88 121 153 187 228 275
#     4   9  19  36  56  74  93 123 162 198 234 284
#     4  10  20  35  54  73  96 125 157 197 242 286
#     4   8  15  27  40  58  88 124 158 192 234 278
#     4  11  21  31  47  72 100 128 161 200 238 282
#
# _framework density 18.116859000000002
#
# number of rings (size 3 to 8) (size 9 to 14) (size 15 to 20)
#    0.000    2.857    0.000    3.857    0.000    7.429 
#    0.000    2.857    0.000    0.000    0.000    1.000 
#    0.000    8.000    0.000    0.000    0.000    0.000 
#
# Total GULP energy -347008.932886 kJ/mol
# GULP energy per Si atom -12393.176174 kJ/mol
# Density = 1.807562 g / cm^3
# Si number density = 18.116859 Si / 1000 Ang^3
#
#
#
# Elastic Constant Matrix: (Units=GPa)
#
#
# Indices 1 2 3 4 5 6 
#
# 1 28.6530 20.4460 25.5233 0.0000 -18.9837 0.0000
# 2 20.4460 90.6568 29.8378 0.0000 -15.0445 0.0000
# 3 25.5233 29.8378 91.5328 0.0000 -38.0849 0.0000
# 4 0.0000 0.0000 0.0000 31.5385 0.0000 0.7562
# 5 -18.9837 -15.0445 -38.0849 0.0000 22.1277 0.0000
# 6 0.0000 0.0000 0.0000 0.7562 0.0000 21.2472
#
#
#
# Elastic Compliance Matrix: (Units=1/GPa)
#
#
# Indices 1 2 3 4 5 6 
#
# 1 0.105629 -0.011412 0.030800 0.000000 0.135874 0.000000
# 2 -0.011412 0.013760 -0.005229 0.000000 -0.009435 0.000000
# 3 0.030800 -0.005229 0.047756 0.000000 0.105064 0.000000
# 4 0.000000 0.000000 0.000000 0.031734 0.000000 -0.001130
# 5 0.135874 -0.009435 0.105064 0.000000 0.336176 0.000000
# 6 0.000000 0.000000 0.000000 -0.001130 0.000000 0.047105
#
#
# Mechanical properties :
#
#
# Convention : Reuss Voigt Hill
#
# Bulk Modulus (GPa) = 5.11604 40.27299 22.69451
# Shear Modulus (GPa) = 8.07760 23.98502 16.03131
#
# Velocity S-wave (km/s) = 2.11383 3.64250 2.97793
# Velocity P-wave (km/s) = 2.96442 6.32204 4.93741
#
# Compressibility (1/GPa) = 0.19546385
#
# Stress axis : x y z
#
# Youngs Moduli (GPa) = 9.46712 72.67661 20.93969
#
# Poissons Ratio (x) = 0.82936 -0.64495
# Poissons Ratio (y) = 0.10804 0.10949
# Poissons Ratio (z) = -0.29159 0.38003
#
# Static dielectric constant tensor:
#      x y z
#    x 2.836600 0.000000 -0.284660 
#    y 0.000000 3.572110 0.000000 
#    z -0.284660 0.000000 4.218580 
# 
# 
# High freq. dielectric constant tensor:
#      x y z
#    x 1.639900 0.000000 -0.013640 
#    y 0.000000 1.703320 0.000000 
#    z -0.013640 0.000000 1.720750 
# 
# From -- ./inp_files/319346.got.cif
#   From: 2010.06.25/outbox.cif.g09.slc.cpg/sg12_160_cif.got.tgz:319346.got - 2010.06.28 00:19:55.
