data_PCOD8098793
_publ_section_title
;
Structure prediction by ZEFSAII (Michael W. Deem and Ramdas Pophale) SiO2 
 PCOD8098793
Probable space group: C 2/M
;
_chemical_formula_sum "Si O2"
_cell_formula_units_Z 64
_cell_length_a 9.462750
_cell_length_b 22.537568
_cell_length_c 20.988839
_cell_angle_alpha 90.000000
_cell_angle_beta 49.889980
_cell_angle_gamma 90.000000
_cell_volume 3423.463304
_symmetry_space_group_name_H-M "C 2/M"
_symmetry_group_IT_number 12
_symmetry_cell_setting 'monoclinic'
loop_
_space_group_symop_operation_xyz
x,y,z
-x,y,-z
-x,-y,-z
x,-y,z
1/2+x,1/2+y,z
1/2-x,1/2+y,-z
1/2-x,1/2-y,-z
1/2+x,1/2-y,z
loop_
_atom_site_type_symbol
_atom_site_label
_atom_site_fract_x
_atom_site_fract_y
_atom_site_fract_z
Si Si1 0.927421 0.633049 0.897337
Si Si2 0.614845 0.232408 0.906565
Si Si3 0.168801 0.929736 0.628053
Si Si4 0.798546 0.121932 0.917763
Si Si5 0.681214 0.569825 0.482667
Si Si6 0.210160 0.066931 0.207097
Si Si7 0.414883 0.930130 0.674229
Si Si8 0.296554 0.643647 0.158117
O O1 0.772895 0.621147 0.889926
O O2 0.971979 0.702659 0.897273
O O3 0.111814 0.601259 0.819173
O O4 0.859514 0.606728 0.984843
O O5 0.755873 0.182233 0.890841
O O6 0.722190 0.284501 0.837717
O O7 0.500000 0.259290 0.000000
O O8 0.203601 0.903212 0.547426
O O9 0.333112 0.912548 0.628760
O O10 0.974006 0.903814 0.709699
O O11 0.156299 0.000000 0.628857
O O12 0.806474 0.068804 0.864820
O O13 0.990887 0.126625 0.898213
O O14 0.500000 0.596998 0.500000
O O15 0.654119 0.500000 0.497154
O O16 0.866483 0.583813 0.389078
O O17 0.231365 0.000000 0.224134
O O18 0.323422 0.886759 0.752137
O O19 0.376436 0.000000 0.700773
#
# Coordination Sequence:
#
# PCOD8098793 Si02
#       8
#     8   8   8   8   8   8   8   8
#     4  10  22  34  52  79 106 141 185 232 269 303
#     4   9  19  37  57  76 102 138 185 236 275 313
#     4   9  17  33  54  74 102 141 176 209 255 313
#     4  10  20  36  54  76 105 143 187 225 268 315
#     4   9  18  32  55  80 104 136 172 216 266 312
#     4  10  20  35  53  75 108 146 181 214 262 327
#     4  10  21  35  50  78 115 143 173 212 261 326
#     4  12  21  32  54  80 109 137 176 227 280 311
#
# _framework density 18.694519
#
# number of rings (size 3 to 8) (size 9 to 14) (size 15 to 20)
#    0.000    2.125    1.250    3.375    1.750    5.000 
#    0.000    0.000    0.000    4.125    0.000    3.500 
#    0.000    0.000    0.000    0.000    0.000    0.000 
#
# Total GULP energy -396639.602511 kJ/mol
# GULP energy per Si atom -12394.987578 kJ/mol
# Density = 1.865197 g / cm^3
# Si number density = 18.694519 Si / 1000 Ang^3
#
#
#
# Elastic Constant Matrix: (Units=GPa)
#
#
# Indices 1 2 3 4 5 6 
#
# 1 108.0264 15.2557 28.9024 0.0000 -3.3384 0.0000
# 2 15.2557 47.1512 33.4721 0.0000 -0.1339 0.0000
# 3 28.9024 33.4721 97.3638 0.0000 -3.2829 0.0000
# 4 0.0000 0.0000 0.0000 17.9264 0.0000 -1.6775
# 5 -3.3384 -0.1339 -3.2829 0.0000 35.3353 0.0000
# 6 0.0000 0.0000 0.0000 -1.6775 0.0000 16.9763
#
#
#
# Elastic Compliance Matrix: (Units=1/GPa)
#
#
# Indices 1 2 3 4 5 6 
#
# 1 0.010155 -0.001536 -0.002462 0.000000 0.000725 0.000000
# 2 -0.001536 0.028310 -0.009307 0.000000 -0.000903 0.000000
# 3 -0.002462 -0.009307 0.014237 0.000000 0.001055 0.000000
# 4 0.000000 0.000000 0.000000 0.056304 0.000000 0.005564
# 5 0.000725 -0.000903 0.001055 0.000000 0.028463 0.000000
# 6 0.000000 0.000000 0.000000 0.005564 0.000000 0.059455
#
#
# Mechanical properties :
#
#
# Convention : Reuss Voigt Hill
#
# Bulk Modulus (GPa) = 38.32622 45.31132 41.81877
# Shear Modulus (GPa) = 21.53028 25.70835 23.61931
#
# Velocity S-wave (km/s) = 3.39734 3.71237 3.55834
# Velocity P-wave (km/s) = 5.99458 6.53192 6.26901
#
# Compressibility (1/GPa) = 0.02609180
#
# Stress axis : x y z
#
# Youngs Moduli (GPa) = 98.47349 35.32371 70.24073
#
# Poissons Ratio (x) = 0.05425 0.17294
# Poissons Ratio (y) = 0.15123 0.65372
# Poissons Ratio (z) = 0.24245 0.32875
#
# Static dielectric constant tensor:
#      x y z
#    x 3.730260 0.000000 -0.008950 
#    y 0.000000 3.064320 0.000000 
#    z -0.008950 0.000000 3.472420 
# 
# 
# High freq. dielectric constant tensor:
#      x y z
#    x 1.747690 0.000000 -0.005910 
#    y 0.000000 1.673770 0.000000 
#    z -0.005910 0.000000 1.719100 
# 
# From -- ./inp_files/302312.got.cif
#   From: 2010.06.25/outbox.cif.g09.slc.cpg/sg12_152_cif.got.tgz:302312.got - 2010.06.28 00:19:55.
