data_PCOD8098922
_publ_section_title
;
Structure prediction by ZEFSAII (Michael W. Deem and Ramdas Pophale) SiO2 
 PCOD8098922
Probable space group: C 2/M
;
_chemical_formula_sum "Si O2"
_cell_formula_units_Z 64
_cell_length_a 14.147568
_cell_length_b 9.022382
_cell_length_c 29.041317
_cell_angle_alpha 90.000000
_cell_angle_beta 104.920296
_cell_angle_gamma 90.000000
_cell_volume 3581.991216
_symmetry_space_group_name_H-M "C 2/M"
_symmetry_group_IT_number 12
_symmetry_cell_setting 'monoclinic'
loop_
_space_group_symop_operation_xyz
x,y,z
-x,y,-z
-x,-y,-z
x,-y,z
1/2+x,1/2+y,z
1/2-x,1/2+y,-z
1/2-x,1/2-y,-z
1/2+x,1/2-y,z
loop_
_atom_site_type_symbol
_atom_site_label
_atom_site_fract_x
_atom_site_fract_y
_atom_site_fract_z
Si Si1 0.649749 0.675258 0.999994
Si Si2 0.039848 0.174643 0.075375
Si Si3 0.706672 0.327888 0.428688
Si Si4 0.014790 0.674350 0.745557
Si Si5 0.783938 0.825866 0.254309
Si Si6 0.092127 0.667950 0.174551
Si Si7 0.331375 0.675163 0.681070
Si Si8 0.102034 0.325486 0.493616
O O1 0.662430 0.500000 0.000014
O O2 0.617917 0.728721 0.047007
O O3 0.750000 0.750000 0.000000
O O4 0.568256 0.728622 0.952955
O O5 0.068193 0.229677 0.128909
O O6 0.040556 0.000000 0.076620
O O7 0.689227 0.500000 0.435272
O O8 0.699907 0.287385 0.374531
O O9 0.813391 0.278345 0.459981
O O10 0.622479 0.242718 0.446046
O O11 0.017719 0.500000 0.734391
O O12 0.119073 0.748233 0.751477
O O13 0.984222 0.702223 0.794403
O O14 0.937217 0.752744 0.702418
O O15 0.701635 0.799338 0.205423
O O16 0.750784 0.749848 0.297474
O O17 0.800936 0.000000 0.265271
O O18 0.081965 0.500000 0.156628
O O19 0.336141 0.500000 0.691485
O O20 0.095615 0.500000 0.486439
O O21 0.000000 0.261630 0.500000
#
# Coordination Sequence:
#
# PCOD8098922 Si02
#       8
#     8   8   8   8   8   8   8   8
#     4   9  19  35  52  74 102 133 169 209 252 301
#     4   9  19  35  53  73 102 136 169 206 253 306
#     4   9  19  34  51  75 104 133 169 211 255 303
#     4  10  21  37  55  77 105 137 175 218 262 311
#     4  10  21  37  55  78 107 138 174 215 260 313
#     4   9  20  36  53  76 105 134 170 213 255 305
#     4  10  20  35  54  77 107 140 175 217 261 308
#     4   9  18  33  52  74 102 136 171 208 252 302
#
# _framework density 17.867158
#
# number of rings (size 3 to 8) (size 9 to 14) (size 15 to 20)
#    0.000    2.625    0.000    2.625    0.000    7.250 
#    0.000    7.500    0.000    0.000    0.000    0.000 
#    0.000    0.000    0.000    0.000    0.000    0.000 
#
# Total GULP energy -396810.967660 kJ/mol
# GULP energy per Si atom -12400.342739 kJ/mol
# Density = 1.782649 g / cm^3
# Si number density = 17.867158 Si / 1000 Ang^3
#
#
#
# Elastic Constant Matrix: (Units=GPa)
#
#
# Indices 1 2 3 4 5 6 
#
# 1 162.4292 56.7343 60.8159 0.0000 -10.5992 0.0000
# 2 56.7343 71.7581 51.1067 0.0000 -4.0999 0.0000
# 3 60.8159 51.1067 120.5275 0.0000 -2.2950 0.0000
# 4 0.0000 0.0000 0.0000 33.4210 0.0000 -2.7795
# 5 -10.5992 -4.0999 -2.2950 0.0000 13.8965 0.0000
# 6 0.0000 0.0000 0.0000 -2.7795 0.0000 35.0694
#
#
#
# Elastic Compliance Matrix: (Units=1/GPa)
#
#
# Indices 1 2 3 4 5 6 
#
# 1 0.009217 -0.005379 -0.002274 0.000000 0.005068 0.000000
# 2 -0.005379 0.023389 -0.007173 0.000000 0.001614 0.000000
# 3 -0.002274 -0.007173 0.012451 0.000000 -0.001794 0.000000
# 4 0.000000 0.000000 0.000000 0.030120 0.000000 0.002387
# 5 0.005068 0.001614 -0.001794 0.000000 0.076006 0.000000
# 6 0.000000 0.000000 0.000000 0.002387 0.000000 0.028704
#
#
# Mechanical properties :
#
#
# Convention : Reuss Voigt Hill
#
# Bulk Modulus (GPa) = 64.90396 76.89207 70.89801
# Shear Modulus (GPa) = 23.29122 28.88124 26.08623
#
# Velocity S-wave (km/s) = 3.61443 4.02486 3.82515
# Velocity P-wave (km/s) = 7.33645 8.04538 7.69908
#
# Compressibility (1/GPa) = 0.01540738
#
# Stress axis : x y z
#
# Youngs Moduli (GPa) = 108.49318 42.75534 80.31206
#
# Poissons Ratio (x) = 0.22996 0.18260
# Poissons Ratio (y) = 0.58353 0.57607
# Poissons Ratio (z) = 0.24668 0.30668
#
# Static dielectric constant tensor:
#      x y z
#    x 3.507430 0.000000 0.000910 
#    y 0.000000 3.292900 0.000000 
#    z 0.000910 0.000000 3.347400 
# 
# 
# High freq. dielectric constant tensor:
#      x y z
#    x 1.697660 0.000000 -0.001810 
#    y 0.000000 1.693870 0.000000 
#    z -0.001810 0.000000 1.692230 
# 
# From -- ./inp_files/359918.got.cif
#   From: 2010.06.25/outbox.cif.g09.slc.cpg/sg12_180_cif.got.tgz:359918.got - 2010.06.28 00:19:55.
