data_PCOD8098253
_publ_section_title
;
Structure prediction by ZEFSAII (Michael W. Deem and Ramdas Pophale) SiO2 
 PCOD8098253
Probable space group: C 2/M
;
_chemical_formula_sum "Si O2"
_cell_formula_units_Z 56
_cell_length_a 32.779166
_cell_length_b 10.939708
_cell_length_c 8.706354
_cell_angle_alpha 90.000000
_cell_angle_beta 117.655536
_cell_angle_gamma 90.000000
_cell_volume 2765.369196
_symmetry_space_group_name_H-M "C 2/M"
_symmetry_group_IT_number 12
_symmetry_cell_setting 'monoclinic'
loop_
_space_group_symop_operation_xyz
x,y,z
-x,y,-z
-x,-y,-z
x,-y,z
1/2+x,1/2+y,z
1/2-x,1/2+y,-z
1/2-x,1/2-y,-z
1/2+x,1/2-y,z
loop_
_atom_site_type_symbol
_atom_site_label
_atom_site_fract_x
_atom_site_fract_y
_atom_site_fract_z
Si Si1 0.303566 0.360762 0.396290
Si Si2 0.582816 0.637515 0.948227
Si Si3 0.484950 0.360491 0.647918
Si Si4 0.640731 0.791856 0.276062
Si Si5 0.583338 0.134758 0.451006
Si Si6 0.357845 0.263427 0.215565
Si Si7 0.705507 0.863644 0.129963
O O1 0.295662 0.500000 0.426508
O O2 0.323340 0.299816 0.583121
O O3 0.339130 0.349922 0.317627
O O4 0.253892 0.302532 0.265736
O O5 0.592861 0.500000 0.017083
O O6 0.528489 0.659647 0.834222
O O7 0.607846 0.659405 0.829809
O O8 0.600551 0.722673 0.114478
O O9 0.500000 0.343470 0.500000
O O10 0.465011 0.500000 0.636691
O O11 0.449574 0.252444 0.628365
O O12 0.616653 0.874996 0.361961
O O13 0.669691 0.872684 0.208027
O O14 0.613694 0.152120 0.657904
O O15 0.558778 0.000000 0.421785
O O16 0.314730 0.215522 0.043627
O O17 0.714433 0.000000 0.083528
#
# Coordination Sequence:
#
# PCOD8098253 Si02
#       7
#     8   8   8   8   8   8   8
#     4  10  20  34  56  83 111 146 189 236 286 334
#     4  10  20  37  59  84 114 148 189 236 291 345
#     4  10  21  39  62  88 115 148 187 238 292 340
#     4  10  22  37  55  81 115 152 189 231 281 341
#     4  11  23  39  59  86 118 155 193 235 285 342
#     4  10  20  35  56  84 112 147 189 240 283 338
#     4  10  20  36  55  78 111 150 190 234 282 336
#
# _framework density 20.25046
#
# number of rings (size 3 to 8) (size 9 to 14) (size 15 to 20)
#    0.000    1.857    1.429    2.571    0.000    3.714 
#    0.000    3.571    0.000   13.714    0.000    0.000 
#    0.000    0.000    0.000    0.000    0.000    0.000 
#
# Total GULP energy -347133.593605 kJ/mol
# GULP energy per Si atom -12397.628343 kJ/mol
# Density = 2.020437 g / cm^3
# Si number density = 20.250460 Si / 1000 Ang^3
#
#
#
# Elastic Constant Matrix: (Units=GPa)
#
#
# Indices 1 2 3 4 5 6 
#
# 1 52.4804 22.7218 19.4459 0.0000 14.1231 0.0000
# 2 22.7218 98.0752 27.8712 0.0000 21.2370 0.0000
# 3 19.4459 27.8712 102.0230 0.0000 14.4888 0.0000
# 4 0.0000 0.0000 0.0000 9.3356 0.0000 7.8626
# 5 14.1231 21.2370 14.4888 0.0000 28.9599 0.0000
# 6 0.0000 0.0000 0.0000 7.8626 0.0000 22.0858
#
#
#
# Elastic Compliance Matrix: (Units=1/GPa)
#
#
# Indices 1 2 3 4 5 6 
#
# 1 0.023426 -0.002985 -0.002517 0.000000 -0.007976 0.000000
# 2 -0.002985 0.012981 -0.001972 0.000000 -0.007077 0.000000
# 3 -0.002517 -0.001972 0.011239 0.000000 -0.002949 0.000000
# 4 0.000000 0.000000 0.000000 0.152986 0.000000 -0.054463
# 5 -0.007976 -0.007077 -0.002949 0.000000 0.045085 0.000000
# 6 0.000000 0.000000 0.000000 -0.054463 0.000000 0.064667
#
#
# Mechanical properties :
#
#
# Convention : Reuss Voigt Hill
#
# Bulk Modulus (GPa) = 30.58299 43.62847 37.10573
# Shear Modulus (GPa) = 14.87069 24.24559 19.55814
#
# Velocity S-wave (km/s) = 2.71281 3.46394 3.11112
# Velocity P-wave (km/s) = 4.99476 6.13104 5.59184
#
# Compressibility (1/GPa) = 0.03269791
#
# Stress axis : x y z
#
# Youngs Moduli (GPa) = 42.68724 77.03802 88.97546
#
# Poissons Ratio (x) = 0.22995 0.22394
# Poissons Ratio (y) = 0.12742 0.17548
# Poissons Ratio (z) = 0.10744 0.15193
#
# Static dielectric constant tensor:
#      x y z
#    x 3.609750 0.000000 0.126310 
#    y 0.000000 3.456730 0.000000 
#    z 0.126310 0.000000 3.796060 
# 
# 
# High freq. dielectric constant tensor:
#      x y z
#    x 1.786190 0.000000 0.004020 
#    y 0.000000 1.780750 0.000000 
#    z 0.004020 0.000000 1.804570 
# 
# From -- ./inp_files/110540.got.cif
#   From: 2010.06.25/outbox.cif.g09.slc.cpg/sg12_56_cif.got.tgz:110540.got - 2010.06.28 00:19:55.
