data_PCOD8098755
_publ_section_title
;
Structure prediction by ZEFSAII (Michael W. Deem and Ramdas Pophale) SiO2 
 PCOD8098755
Probable space group: C 2/M
;
_chemical_formula_sum "Si O2"
_cell_formula_units_Z 48
_cell_length_a 9.300702
_cell_length_b 25.520556
_cell_length_c 10.961284
_cell_angle_alpha 90.000000
_cell_angle_beta 66.603058
_cell_angle_gamma 90.000000
_cell_volume 2387.832745
_symmetry_space_group_name_H-M "C 2/M"
_symmetry_group_IT_number 12
_symmetry_cell_setting 'monoclinic'
loop_
_space_group_symop_operation_xyz
x,y,z
-x,y,-z
-x,-y,-z
x,-y,z
1/2+x,1/2+y,z
1/2-x,1/2+y,-z
1/2-x,1/2-y,-z
1/2+x,1/2-y,z
loop_
_atom_site_type_symbol
_atom_site_label
_atom_site_fract_x
_atom_site_fract_y
_atom_site_fract_z
Si Si1 0.986853 0.939476 0.364833
Si Si2 0.197357 0.239245 0.252661
Si Si3 0.777661 0.847741 0.142993
Si Si4 0.121369 0.289559 0.586813
Si Si5 0.890600 0.138361 0.856844
Si Si6 0.840494 0.607024 0.584516
O O1 0.116006 0.906872 0.243894
O O2 0.000000 0.921763 0.500000
O O3 0.809198 0.929289 0.382766
O O4 0.028181 0.000000 0.332582
O O5 0.272503 0.284524 0.143500
O O6 0.335533 0.210134 0.282746
O O7 0.117128 0.195559 0.197779
O O8 0.056510 0.268193 0.377635
O O9 0.647842 0.872090 0.278491
O O10 0.941426 0.867191 0.139101
O O11 0.759965 0.868165 0.008533
O O12 0.250000 0.250000 0.500000
O O13 0.156434 0.344736 0.511489
O O14 0.000000 0.574635 0.500000
#
# Coordination Sequence:
#
# PCOD8098755 Si02
#       6
#     8   8   8   8   8   8
#     4  10  22  42  65  86 107 143 194 246 292 334
#     4  12  20  34  53  80 118 162 193 225 279 336
#     4  10  20  35  52  82 119 157 182 232 276 344
#     4  12  20  31  52  81 115 154 193 231 273 332
#     4  10  21  37  56  82 117 150 193 233 284 335
#     4  11  20  36  57  85 120 147 187 241 285 334
#
# _framework density 20.10191
#
# number of rings (size 3 to 8) (size 9 to 14) (size 15 to 20)
#    0.000    1.167    5.000    3.000    0.000    0.333 
#    0.000    6.667    0.000    0.000    0.000    2.333 
#    0.000    0.000    0.000    0.000    0.000    0.000 
#
# Total GULP energy -297362.024614 kJ/mol
# GULP energy per Si atom -12390.084359 kJ/mol
# Density = 2.005616 g / cm^3
# Si number density = 20.101910 Si / 1000 Ang^3
#
#
#
# Elastic Constant Matrix: (Units=GPa)
#
#
# Indices 1 2 3 4 5 6 
#
# 1 46.0078 4.8588 12.5690 0.0000 -2.0298 0.0000
# 2 4.8588 67.0082 58.5975 0.0000 8.3817 0.0000
# 3 12.5690 58.5975 153.2379 0.0000 2.8700 0.0000
# 4 0.0000 0.0000 0.0000 20.3602 0.0000 -0.1106
# 5 -2.0298 8.3817 2.8700 0.0000 22.9955 0.0000
# 6 0.0000 0.0000 0.0000 -0.1106 0.0000 24.6793
#
#
#
# Elastic Compliance Matrix: (Units=1/GPa)
#
#
# Indices 1 2 3 4 5 6 
#
# 1 0.022352 -0.000408 -0.001721 0.000000 0.002336 0.000000
# 2 -0.000408 0.023655 -0.008871 0.000000 -0.007551 0.000000
# 3 -0.001721 -0.008871 0.010025 0.000000 0.001830 0.000000
# 4 0.000000 0.000000 0.000000 0.049117 0.000000 0.000220
# 5 0.002336 -0.007551 0.001830 0.000000 0.046217 0.000000
# 6 0.000000 0.000000 0.000000 0.000220 0.000000 0.040521
#
#
# Mechanical properties :
#
#
# Convention : Reuss Voigt Hill
#
# Bulk Modulus (GPa) = 29.38400 46.47828 37.93114
# Shear Modulus (GPa) = 22.19961 26.28890 24.24425
#
# Velocity S-wave (km/s) = 3.32679 3.62025 3.47662
# Velocity P-wave (km/s) = 5.42272 6.37546 5.91829
#
# Compressibility (1/GPa) = 0.03403213
#
# Stress axis : x y z
#
# Youngs Moduli (GPa) = 44.73910 42.27461 99.75267
#
# Poissons Ratio (x) = 0.01724 0.17169
# Poissons Ratio (y) = 0.01825 0.88487
# Poissons Ratio (z) = 0.07700 0.37500
#
# Static dielectric constant tensor:
#      x y z
#    x 3.122960 0.000000 -0.035950 
#    y 0.000000 3.258950 0.000000 
#    z -0.035950 0.000000 4.532110 
# 
# 
# High freq. dielectric constant tensor:
#      x y z
#    x 1.772990 0.000000 0.004870 
#    y 0.000000 1.749080 0.000000 
#    z 0.004870 0.000000 1.799750 
# 
# From -- ./inp_files/122450.got.cif
#   From: 2010.06.25/outbox.cif.g09.slc.cpg/sg12_62_cif.got.tgz:122450.got - 2010.06.28 00:19:55.
