data_PCOD8098971
_publ_section_title
;
Structure prediction by ZEFSAII (Michael W. Deem and Ramdas Pophale) SiO2 
 PCOD8098971
Probable space group: C 2/M
;
_chemical_formula_sum "Si O2"
_cell_formula_units_Z 56
_cell_length_a 17.797314
_cell_length_b 17.726146
_cell_length_c 9.949478
_cell_angle_alpha 90.000000
_cell_angle_beta 101.359329
_cell_angle_gamma 90.000000
_cell_volume 3077.353304
_symmetry_space_group_name_H-M "C 2/M"
_symmetry_group_IT_number 12
_symmetry_cell_setting 'monoclinic'
loop_
_space_group_symop_operation_xyz
x,y,z
-x,y,-z
-x,-y,-z
x,-y,z
1/2+x,1/2+y,z
1/2-x,1/2+y,-z
1/2-x,1/2-y,-z
1/2+x,1/2-y,z
loop_
_atom_site_type_symbol
_atom_site_label
_atom_site_fract_x
_atom_site_fract_y
_atom_site_fract_z
Si Si1 0.920548 0.085424 0.535784
Si Si2 0.465542 0.162768 0.849587
Si Si3 0.765386 0.086171 0.353757
Si Si4 0.671089 0.085731 0.083010
Si Si5 0.612333 0.090914 0.784787
Si Si6 0.638125 0.723232 0.349485
Si Si7 0.801101 0.674401 0.418513
O O1 0.856843 0.092521 0.396110
O O2 0.901294 0.141194 0.651511
O O3 0.000000 0.110312 0.500000
O O4 0.923401 0.000000 0.594003
O O5 0.410390 0.093527 0.870224
O O6 0.528836 0.129729 0.769621
O O7 0.414602 0.228416 0.766727
O O8 0.500000 0.196700 0.000000
O O9 0.737004 0.122893 0.201516
O O10 0.724571 0.125468 0.463626
O O11 0.737407 0.000000 0.348344
O O12 0.692432 0.000000 0.069411
O O13 0.664186 0.119093 0.929723
O O14 0.652527 0.121797 0.666125
O O15 0.603957 0.000000 0.774917
O O16 0.725254 0.711838 0.323434
O O17 0.644000 0.760258 0.501570
#
# Coordination Sequence:
#
# PCOD8098971 Si02
#       7
#     8   8   8   8   8   8   8
#     4   9  19  34  54  77  99 132 181 234 281 324
#     4  10  20  36  54  79 116 153 185 216 270 335
#     4   9  16  31  55  78 105 144 182 218 263 323
#     4   9  17  33  54  77 113 155 187 214 257 330
#     4  10  21  35  55  86 117 148 184 227 273 317
#     4  10  21  36  55  75 110 143 180 223 283 326
#     4  10  20  35  54  79 110 142 181 229 269 322
#
# _framework density 18.197455000000001
#
# number of rings (size 3 to 8) (size 9 to 14) (size 15 to 20)
#    0.000    2.429    1.429    0.857    2.000    2.286 
#    0.000    5.000    0.000    0.429    0.000    0.000 
#    0.000    0.000    0.000    0.000    0.000    0.000 
#
# Total GULP energy -346918.936701 kJ/mol
# GULP energy per Si atom -12389.962025 kJ/mol
# Density = 1.815604 g / cm^3
# Si number density = 18.197455 Si / 1000 Ang^3
#
#
#
# Elastic Constant Matrix: (Units=GPa)
#
#
# Indices 1 2 3 4 5 6 
#
# 1 87.2488 31.5747 41.9401 0.0000 5.7947 0.0000
# 2 31.5747 71.4694 27.9630 0.0000 2.3894 0.0000
# 3 41.9401 27.9630 69.5736 0.0000 6.1005 0.0000
# 4 0.0000 0.0000 0.0000 21.0864 0.0000 3.1794
# 5 5.7947 2.3894 6.1005 0.0000 25.0925 0.0000
# 6 0.0000 0.0000 0.0000 3.1794 0.0000 30.1293
#
#
#
# Elastic Compliance Matrix: (Units=1/GPa)
#
#
# Indices 1 2 3 4 5 6 
#
# 1 0.017187 -0.004201 -0.008541 0.000000 -0.001492 0.000000
# 2 -0.004201 0.017630 -0.004589 0.000000 0.000407 0.000000
# 3 -0.008541 -0.004589 0.021616 0.000000 -0.002846 0.000000
# 4 0.000000 0.000000 0.000000 0.048191 0.000000 -0.005085
# 5 -0.001492 0.000407 -0.002846 0.000000 0.040850 0.000000
# 6 0.000000 0.000000 0.000000 -0.005085 0.000000 0.033727
#
#
# Mechanical properties :
#
#
# Convention : Reuss Voigt Hill
#
# Bulk Modulus (GPa) = 45.93461 47.91636 46.92549
# Shear Modulus (GPa) = 22.61223 23.71589 23.16406
#
# Velocity S-wave (km/s) = 3.52888 3.61398 3.57168
# Velocity P-wave (km/s) = 6.47311 6.61838 6.54615
#
# Compressibility (1/GPa) = 0.02177008
#
# Stress axis : x y z
#
# Youngs Moduli (GPa) = 58.18489 56.72160 46.26255
#
# Poissons Ratio (x) = 0.23831 0.39512
# Poissons Ratio (y) = 0.24445 0.21230
# Poissons Ratio (z) = 0.49695 0.26029
#
# Static dielectric constant tensor:
#      x y z
#    x 3.495290 0.000000 0.320060 
#    y 0.000000 3.443660 0.000000 
#    z 0.320060 0.000000 3.372770 
# 
# 
# High freq. dielectric constant tensor:
#      x y z
#    x 1.703270 0.000000 0.020110 
#    y 0.000000 1.706570 0.000000 
#    z 0.020110 0.000000 1.684530 
# 
# From -- ./inp_files/76877.got.cif
#   From: 2010.06.25/outbox.cif.g09.slc.cpg/sg12_39_cif.got.tgz:76877.got - 2010.06.28 00:19:55.
