data_PCOD8098034
_publ_section_title
;
Structure prediction by ZEFSAII (Michael W. Deem and Ramdas Pophale) SiO2 
 PCOD8098034
Probable space group: C 2/M
;
_chemical_formula_sum "Si O2"
_cell_formula_units_Z 60
_cell_length_a 14.868989
_cell_length_b 16.052659
_cell_length_c 29.622415
_cell_angle_alpha 90.000000
_cell_angle_beta 153.477386
_cell_angle_gamma 90.000000
_cell_volume 3157.329792
_symmetry_space_group_name_H-M "C 2/M"
_symmetry_group_IT_number 12
_symmetry_cell_setting 'monoclinic'
loop_
_space_group_symop_operation_xyz
x,y,z
-x,y,-z
-x,-y,-z
x,-y,z
1/2+x,1/2+y,z
1/2-x,1/2+y,-z
1/2-x,1/2-y,-z
1/2+x,1/2-y,z
loop_
_atom_site_type_symbol
_atom_site_label
_atom_site_fract_x
_atom_site_fract_y
_atom_site_fract_z
Si Si1 0.500000 0.217780 0.500000
Si Si2 0.397866 0.819788 0.082239
Si Si3 0.717241 0.093334 0.660609
Si Si4 0.067841 0.597252 0.077603
Si Si5 0.778551 0.189455 0.777357
Si Si6 0.503093 0.407404 0.708029
Si Si7 0.838141 0.244457 0.589438
Si Si8 0.945558 0.096916 0.026889
O O1 0.562582 0.159009 0.569898
O O2 0.678199 0.274157 0.557114
O O3 0.411019 0.884040 0.046466
O O4 0.611876 0.775587 0.190709
O O5 0.250000 0.750000 0.000000
O O6 0.287210 0.871612 0.072157
O O7 0.783613 0.122522 0.739715
O O8 0.914118 0.090263 0.718171
O O9 0.621470 0.000000 0.620298
O O10 0.098592 0.500000 0.083704
O O11 0.279823 0.636018 0.188642
O O12 0.000000 0.639264 0.000000
O O13 0.546134 0.204822 0.687204
O O14 0.899360 0.150670 0.873525
O O15 0.516085 0.500000 0.692899
O O16 0.373509 0.353282 0.615127
O O17 0.750000 0.250000 0.500000
O O18 0.962758 0.000000 0.047728
O O19 0.000000 0.112928 0.000000
#
# Coordination Sequence:
#
# PCOD8098034 Si02
#       8
#     4   8   8   8   8   8   8   8
#     4  10  21  36  60  84 119 156 190 246 299 344
#     4  10  22  36  55  83 116 148 191 239 288 347
#     4  10  20  35  57  84 114 148 192 242 295 349
#     4  10  20  34  55  82 113 149 183 231 294 353
#     4  11  22  38  59  89 117 155 198 244 298 354
#     4   9  20  36  56  84 116 148 189 237 292 353
#     4  11  21  40  57  88 122 155 198 239 295 351
#     4  10  23  42  60  82 114 159 206 243 285 343
#
# _framework density 19.003399000000002
#
# number of rings (size 3 to 8) (size 9 to 14) (size 15 to 20)
#    0.000    1.867    2.667    1.000    3.733    4.800 
#    0.000    0.000    0.000    0.000    0.000    2.333 
#    0.000    0.000    0.000    0.000    0.000    0.000 
#
# Total GULP energy -371779.252313 kJ/mol
# GULP energy per Si atom -12392.641744 kJ/mol
# Density = 1.896015 g / cm^3
# Si number density = 19.003399 Si / 1000 Ang^3
#
#
#
# Elastic Constant Matrix: (Units=GPa)
#
#
# Indices 1 2 3 4 5 6 
#
# 1 131.9337 49.0574 56.2372 -0.0012 9.8348 0.0002
# 2 49.0574 60.0180 34.0198 0.0014 1.2614 -0.0002
# 3 56.2372 34.0198 97.1635 0.0087 6.8333 -0.0004
# 4 -0.0012 0.0014 0.0087 24.5950 0.0004 -2.1824
# 5 9.8348 1.2614 6.8333 0.0004 36.3013 -0.0001
# 6 0.0002 -0.0002 -0.0004 -2.1824 -0.0001 29.3454
#
#
#
# Elastic Compliance Matrix: (Units=1/GPa)
#
#
# Indices 1 2 3 4 5 6 
#
# 1 0.012461 -0.007661 -0.004369 0.000003 -0.002287 0.000000
# 2 -0.007661 0.025512 -0.004644 0.000000 0.002063 0.000000
# 3 -0.004369 -0.004644 0.014545 -0.000005 -0.001393 0.000000
# 4 0.000003 0.000000 -0.000005 0.040929 0.000000 0.003044
# 5 -0.002287 0.002063 -0.001393 0.000000 0.028357 0.000000
# 6 0.000000 0.000000 0.000000 0.003044 0.000000 0.034303
#
#
# Mechanical properties :
#
#
# Convention : Reuss Voigt Hill
#
# Bulk Modulus (GPa) = 52.16327 63.08265 57.62296
# Shear Modulus (GPa) = 25.53045 28.03505 26.78275
#
# Velocity S-wave (km/s) = 3.66931 3.84508 3.75823
# Velocity P-wave (km/s) = 6.74246 7.27877 7.01574
#
# Compressibility (1/GPa) = 0.01917058
#
# Stress axis : x y z
#
# Youngs Moduli (GPa) = 80.25078 39.19695 68.75394
#
# Poissons Ratio (x) = 0.30027 0.30040
# Poissons Ratio (y) = 0.61477 0.31928
# Poissons Ratio (z) = 0.35063 0.18202
#
# Static dielectric constant tensor:
#      x y z
#    x 3.617450 0.000000 0.303950 
#    y 0.000000 3.632220 -0.000010 
#    z 0.303950 -0.000010 3.671230 
# 
# 
# High freq. dielectric constant tensor:
#      x y z
#    x 1.743910 0.000000 0.015090 
#    y 0.000000 1.724540 0.000000 
#    z 0.015090 0.000000 1.737900 
# 
# From -- ./inp_files/376515.got.cif
#   From: 2010.06.25/outbox.cif.g09.slc.cpg/sg12_189_cif.got.tgz:376515.got - 2010.06.28 00:19:55.
