data_PCOD8098789
_publ_section_title
;
Structure prediction by ZEFSAII (Michael W. Deem and Ramdas Pophale) SiO2 
 PCOD8098789
Probable space group: C 2/M
;
_chemical_formula_sum "Si O2"
_cell_formula_units_Z 48
_cell_length_a 29.191986
_cell_length_b 9.103830
_cell_length_c 19.087813
_cell_angle_alpha 90.000000
_cell_angle_beta 31.043125
_cell_angle_gamma 90.000000
_cell_volume 2615.934397
_symmetry_space_group_name_H-M "C 2/M"
_symmetry_group_IT_number 12
_symmetry_cell_setting 'monoclinic'
loop_
_space_group_symop_operation_xyz
x,y,z
-x,y,-z
-x,-y,-z
x,-y,z
1/2+x,1/2+y,z
1/2-x,1/2+y,-z
1/2-x,1/2-y,-z
1/2+x,1/2-y,z
loop_
_atom_site_type_symbol
_atom_site_label
_atom_site_fract_x
_atom_site_fract_y
_atom_site_fract_z
Si Si1 0.907165 0.672505 0.147271
Si Si2 0.156168 0.672452 0.617785
Si Si3 0.759498 0.673174 0.095514
Si Si4 0.083496 0.171431 0.580299
Si Si5 0.257739 0.674566 0.724837
Si Si6 0.118674 0.830060 0.166002
O O1 0.907901 0.500000 0.132030
O O2 0.897736 0.707892 0.241242
O O3 0.824930 0.740064 0.211069
O O4 0.000000 0.743193 0.000000
O O5 0.171499 0.500000 0.587530
O O6 0.250000 0.750000 0.500000
O O7 0.098691 0.736082 0.630161
O O8 0.773288 0.500000 0.079532
O O9 0.745989 0.736969 0.191330
O O10 0.673220 0.718760 0.163374
O O11 0.847940 0.741581 0.945625
O O12 0.150812 0.225563 0.431702
O O13 0.984158 0.203400 0.683855
O O14 0.098674 0.000000 0.577641
O O15 0.254279 0.500000 0.730858
O O16 0.134807 0.000000 0.128388
#
# Coordination Sequence:
#
# PCOD8098789 Si02
#       6
#     8   8   8   8   8   8
#     4   9  18  31  49  75 103 130 166 213 256 293
#     4  11  21  35  56  78 105 138 172 211 256 306
#     4   9  18  33  55  78 101 134 177 215 254 310
#     4  10  20  35  53  75 106 138 172 213 260 306
#     4   9  17  31  51  74 101 134 173 217 254 296
#     4   9  19  34  52  77 107 136 166 214 269 309
#
# _framework density 18.349083
#
# number of rings (size 3 to 8) (size 9 to 14) (size 15 to 20)
#    0.000    2.500    1.667    0.500    2.333    1.333 
#    0.000    4.167    0.000    2.000    0.000    5.833 
#    0.000    0.000    0.000    0.000    0.000    0.000 
#
# Total GULP energy -297600.806473 kJ/mol
# GULP energy per Si atom -12400.033603 kJ/mol
# Density = 1.830732 g / cm^3
# Si number density = 18.349083 Si / 1000 Ang^3
#
#
#
# Elastic Constant Matrix: (Units=GPa)
#
#
# Indices 1 2 3 4 5 6 
#
# 1 112.9748 26.4022 79.4472 -0.0027 11.8843 0.0006
# 2 26.4022 34.1140 33.8633 -0.0121 4.3165 0.0039
# 3 79.4472 33.8633 171.8733 -0.0064 0.1638 0.0019
# 4 -0.0027 -0.0121 -0.0064 23.7228 0.0045 1.3885
# 5 11.8843 4.3165 0.1638 0.0045 37.6794 -0.0007
# 6 0.0006 0.0039 0.0019 1.3885 -0.0007 24.7021
#
#
#
# Elastic Compliance Matrix: (Units=1/GPa)
#
#
# Indices 1 2 3 4 5 6 
#
# 1 0.014437 -0.005038 -0.005677 -0.000002 -0.003952 0.000001
# 2 -0.005038 0.038857 -0.005324 0.000019 -0.002839 -0.000007
# 3 -0.005677 -0.005324 0.009489 -0.000001 0.002359 0.000000
# 4 -0.000002 0.000019 -0.000001 0.042293 -0.000007 -0.002377
# 5 -0.003952 -0.002839 0.002359 -0.000007 0.028101 0.000002
# 6 0.000001 -0.000007 0.000000 -0.002377 0.000002 0.040616
#
#
# Mechanical properties :
#
#
# Convention : Reuss Voigt Hill
#
# Bulk Modulus (GPa) = 32.56857 66.48750 49.52804
# Shear Modulus (GPa) = 23.13680 29.17082 26.15381
#
# Velocity S-wave (km/s) = 3.55480 3.99152 3.77947
# Velocity P-wave (km/s) = 5.88530 7.58659 6.78945
#
# Compressibility (1/GPa) = 0.03070445
#
# Stress axis : x y z
#
# Youngs Moduli (GPa) = 69.26755 25.73542 105.38383
#
# Poissons Ratio (x) = 0.12965 0.59826
# Poissons Ratio (y) = 0.34897 0.56109
# Poissons Ratio (z) = 0.39323 0.13702
#
# Static dielectric constant tensor:
#      x y z
#    x 3.792970 0.000000 0.112140 
#    y 0.000000 3.099810 0.000010 
#    z 0.112140 0.000010 3.675720 
# 
# 
# High freq. dielectric constant tensor:
#      x y z
#    x 1.718250 0.000000 -0.000990 
#    y 0.000000 1.672030 0.000000 
#    z -0.000990 0.000000 1.722600 
# 
# From -- ./inp_files/244872.got.cif
#   From: 2010.06.25/outbox.cif.g09.slc.cpg/sg12_123_cif.got.tgz:244872.got - 2010.06.28 00:19:55.
