data_PCOD8098307
_publ_section_title
;
Structure prediction by ZEFSAII (Michael W. Deem and Ramdas Pophale) SiO2 
 PCOD8098307
Probable space group: C 2/M
;
_chemical_formula_sum "Si O2"
_cell_formula_units_Z 48
_cell_length_a 30.010341
_cell_length_b 8.953134
_cell_length_c 8.734923
_cell_angle_alpha 90.000000
_cell_angle_beta 94.406845
_cell_angle_gamma 90.000000
_cell_volume 2340.018209
_symmetry_space_group_name_H-M "C 2/M"
_symmetry_group_IT_number 12
_symmetry_cell_setting 'monoclinic'
loop_
_space_group_symop_operation_xyz
x,y,z
-x,y,-z
-x,-y,-z
x,-y,z
1/2+x,1/2+y,z
1/2-x,1/2+y,-z
1/2-x,1/2-y,-z
1/2+x,1/2-y,z
loop_
_atom_site_type_symbol
_atom_site_label
_atom_site_fract_x
_atom_site_fract_y
_atom_site_fract_z
Si Si1 0.734583 0.326908 0.841762
Si Si2 0.344073 0.175993 0.352897
Si Si3 0.011772 0.668543 0.180684
Si Si4 0.902235 0.826449 0.873546
Si Si5 0.924850 0.174576 0.228002
Si Si6 0.676366 0.828865 0.307444
O O1 0.724917 0.500000 0.871665
O O2 0.689100 0.251427 0.775835
O O3 0.772115 0.304447 0.722173
O O4 0.750000 0.250000 0.000000
O O5 0.393517 0.240114 0.339780
O O6 0.329188 0.220264 0.519090
O O7 0.343710 0.000000 0.325190
O O8 0.012572 0.500000 0.244179
O O9 0.060452 0.741013 0.217114
O O10 0.974949 0.763031 0.263572
O O11 0.000000 0.673158 0.000000
O O12 0.853497 0.773870 0.809575
O O13 0.908450 0.000000 0.842388
O O14 0.907106 0.790130 0.053539
O O15 0.924816 0.000000 0.264684
O O16 0.661648 0.000000 0.278562
#
# Coordination Sequence:
#
# PCOD8098307 Si02
#       6
#     8   8   8   8   8   8
#     4  11  23  40  62  87 113 144 184 230 278 329
#     4  11  23  39  58  82 113 149 187 228 277 331
#     4   9  17  31  54  82 112 147 186 230 279 328
#     4  10  20  34  56  84 113 146 186 232 279 329
#     4  10  20  35  56  84 115 147 187 233 279 329
#     4  10  23  40  57  80 113 150 186 227 277 332
#
# _framework density 20.51266
#
# number of rings (size 3 to 8) (size 9 to 14) (size 15 to 20)
#    0.000    1.833    0.000    4.000    0.000    9.333 
#    0.000    0.833    0.000    5.000    0.000    0.000 
#    0.000    0.000    0.000    0.000    0.000    0.000 
#
# Total GULP energy -297744.916353 kJ/mol
# GULP energy per Si atom -12406.038181 kJ/mol
# Density = 2.046597 g / cm^3
# Si number density = 20.512660 Si / 1000 Ang^3
#
#
#
# Elastic Constant Matrix: (Units=GPa)
#
#
# Indices 1 2 3 4 5 6 
#
# 1 74.4889 27.7269 2.7186 0.0000 -22.4907 0.0000
# 2 27.7269 107.0045 28.0578 0.0000 -14.2946 0.0000
# 3 2.7186 28.0578 50.8038 0.0000 -20.3493 0.0000
# 4 0.0000 0.0000 0.0000 25.3584 0.0000 -0.8218
# 5 -22.4907 -14.2946 -20.3493 0.0000 31.6345 0.0000
# 6 0.0000 0.0000 0.0000 -0.8218 0.0000 44.9606
#
#
#
# Elastic Compliance Matrix: (Units=1/GPa)
#
#
# Indices 1 2 3 4 5 6 
#
# 1 0.020488 -0.005271 0.009019 0.000000 0.017986 0.000000
# 2 -0.005271 0.012332 -0.007810 0.000000 -0.003199 0.000000
# 3 0.009019 -0.007810 0.033231 0.000000 0.024259 0.000000
# 4 0.000000 0.000000 0.000000 0.039458 0.000000 0.000721
# 5 0.017986 -0.003199 0.024259 0.000000 0.058558 0.000000
# 6 0.000000 0.000000 0.000000 0.000721 0.000000 0.022255
#
#
# Mechanical properties :
#
#
# Convention : Reuss Voigt Hill
#
# Bulk Modulus (GPa) = 17.26306 38.81156 28.03731
# Shear Modulus (GPa) = 23.39130 31.97695 27.68413
#
# Velocity S-wave (km/s) = 3.38055 3.95256 3.67769
# Velocity P-wave (km/s) = 4.86534 6.30810 5.63310
#
# Compressibility (1/GPa) = 0.05792715
#
# Stress axis : x y z
#
# Youngs Moduli (GPa) = 48.80854 81.09186 30.09233
#
# Poissons Ratio (x) = 0.42744 -0.27140
# Poissons Ratio (y) = 0.25727 0.23501
# Poissons Ratio (z) = -0.44020 0.63331
#
# Static dielectric constant tensor:
#      x y z
#    x 3.833820 0.000000 -0.190880 
#    y 0.000000 3.802580 0.000000 
#    z -0.190880 0.000000 3.474930 
# 
# 
# High freq. dielectric constant tensor:
#      x y z
#    x 1.815370 0.000000 -0.012020 
#    y 0.000000 1.813000 0.000000 
#    z -0.012020 0.000000 1.780260 
# 
# From -- ./inp_files/108561.got.cif
#   From: 2010.06.25/outbox.cif.g09.slc.cpg/sg12_55_cif.got.tgz:108561.got - 2010.06.28 00:19:55.
