data_PCOD8098501
_publ_section_title
;
Structure prediction by ZEFSAII (Michael W. Deem and Ramdas Pophale) SiO2 
 PCOD8098501
Probable space group: C 2/M
;
_chemical_formula_sum "Si O2"
_cell_formula_units_Z 40
_cell_length_a 21.002350
_cell_length_b 8.671641
_cell_length_c 10.536598
_cell_angle_alpha 90.000000
_cell_angle_beta 98.602732
_cell_angle_gamma 90.000000
_cell_volume 1897.386296
_symmetry_space_group_name_H-M "C 2/M"
_symmetry_group_IT_number 12
_symmetry_cell_setting 'monoclinic'
loop_
_space_group_symop_operation_xyz
x,y,z
-x,y,-z
-x,-y,-z
x,-y,z
1/2+x,1/2+y,z
1/2-x,1/2+y,-z
1/2-x,1/2-y,-z
1/2+x,1/2-y,z
loop_
_atom_site_type_symbol
_atom_site_label
_atom_site_fract_x
_atom_site_fract_y
_atom_site_fract_z
Si Si1 0.949640 0.816050 0.090693
Si Si2 0.816061 0.319606 0.965254
Si Si3 0.325112 0.326314 0.430525
Si Si4 0.298927 0.675728 0.698839
Si Si5 0.535995 0.323983 0.628603
O O1 0.977836 0.756449 0.235059
O O2 0.943490 0.000000 0.086896
O O3 0.878458 0.749059 0.052242
O O4 0.000000 0.756813 0.000000
O O5 0.814149 0.500000 0.989241
O O6 0.822856 0.285832 0.817656
O O7 0.750000 0.250000 0.000000
O O8 0.296644 0.500000 0.411739
O O9 0.340279 0.291023 0.583638
O O10 0.275432 0.205413 0.357591
O O11 0.388312 0.309800 0.367358
O O12 0.306881 0.500000 0.747461
O O13 0.500000 0.237761 0.500000
O O14 0.511894 0.500000 0.621573
#
# Coordination Sequence:
#
# PCOD8098501 Si02
#       5
#     8   8   8   8   8
#     4  10  22  39  63  94 128 164 206 253 307 373
#     4  12  25  41  63  88 121 161 208 259 318 378
#     4   9  18  33  56  85 119 156 200 249 299 358
#     4  10  20  34  57  87 118 153 198 251 309 367
#     4   9  18  33  57  85 114 153 198 243 289 349
#
# _framework density 21.081631999999999
#
# number of rings (size 3 to 8) (size 9 to 14) (size 15 to 20)
#    0.000    2.000    0.000    3.600    2.800    2.800 
#    0.000    0.000    0.000    1.200    0.000    0.000 
#    0.000    0.000    0.000    0.000    0.000    0.000 
#
# Total GULP energy -247933.032622 kJ/mol
# GULP energy per Si atom -12396.651631 kJ/mol
# Density = 2.103365 g / cm^3
# Si number density = 21.081632 Si / 1000 Ang^3
#
#
#
# Elastic Constant Matrix: (Units=GPa)
#
#
# Indices 1 2 3 4 5 6 
#
# 1 86.4242 25.6714 58.4510 0.0000 -5.7689 0.0000
# 2 25.6714 53.9374 24.6603 0.0000 -1.3477 0.0000
# 3 58.4510 24.6603 176.8219 0.0000 -11.7731 0.0000
# 4 0.0000 0.0000 0.0000 27.1505 0.0000 5.1590
# 5 -5.7689 -1.3477 -11.7731 0.0000 30.4847 0.0000
# 6 0.0000 0.0000 0.0000 5.1590 0.0000 23.5981
#
#
#
# Elastic Compliance Matrix: (Units=1/GPa)
#
#
# Indices 1 2 3 4 5 6 
#
# 1 0.016422 -0.005704 -0.004560 0.000000 0.001094 0.000000
# 2 -0.005704 0.021785 -0.001191 0.000000 -0.000576 0.000000
# 3 -0.004560 -0.001191 0.007460 0.000000 0.001965 0.000000
# 4 0.000000 0.000000 0.000000 0.038428 0.000000 -0.008401
# 5 0.001094 -0.000576 0.001965 0.000000 0.033744 0.000000
# 6 0.000000 0.000000 0.000000 -0.008401 0.000000 0.044213
#
#
# Mechanical properties :
#
#
# Convention : Reuss Voigt Hill
#
# Bulk Modulus (GPa) = 43.94323 59.41657 51.67990
# Shear Modulus (GPa) = 25.96749 30.14004 28.05377
#
# Velocity S-wave (km/s) = 3.51345 3.78522 3.65186
# Velocity P-wave (km/s) = 6.11136 6.88106 6.50760
#
# Compressibility (1/GPa) = 0.02275663
#
# Stress axis : x y z
#
# Youngs Moduli (GPa) = 60.89234 45.90327 134.05088
#
# Poissons Ratio (x) = 0.26183 0.61131
# Poissons Ratio (y) = 0.34732 0.15967
# Poissons Ratio (z) = 0.27769 0.05467
#
# Static dielectric constant tensor:
#      x y z
#    x 3.684780 0.000000 -0.187940 
#    y 0.000000 3.570690 0.000000 
#    z -0.187940 0.000000 4.225720 
# 
# 
# High freq. dielectric constant tensor:
#      x y z
#    x 1.820690 0.000000 -0.011490 
#    y 0.000000 1.789910 0.000000 
#    z -0.011490 0.000000 1.849630 
# 
# From -- ./inp_files/162724.got.cif
#   From: 2010.06.25/outbox.cif.g09.slc.cpg/sg12_82_cif.got.tgz:162724.got - 2010.06.28 00:19:55.
