data_PCOD8098386
_publ_section_title
;
Structure prediction by ZEFSAII (Michael W. Deem and Ramdas Pophale) SiO2 
 PCOD8098386
Probable space group: C 2/M
;
_chemical_formula_sum "Si O2"
_cell_formula_units_Z 64
_cell_length_a 18.276046
_cell_length_b 15.037045
_cell_length_c 11.667077
_cell_angle_alpha 90.000000
_cell_angle_beta 86.696937
_cell_angle_gamma 90.000000
_cell_volume 3200.993034
_symmetry_space_group_name_H-M "C 2/M"
_symmetry_group_IT_number 12
_symmetry_cell_setting 'monoclinic'
loop_
_space_group_symop_operation_xyz
x,y,z
-x,y,-z
-x,-y,-z
x,-y,z
1/2+x,1/2+y,z
1/2-x,1/2+y,-z
1/2-x,1/2-y,-z
1/2+x,1/2-y,z
loop_
_atom_site_type_symbol
_atom_site_label
_atom_site_fract_x
_atom_site_fract_y
_atom_site_fract_z
Si Si1 0.858888 0.897102 0.120001
Si Si2 0.712821 0.099249 0.264565
Si Si3 0.410575 0.762829 0.730352
Si Si4 0.929209 0.745156 0.242537
Si Si5 0.239364 0.855016 0.492269
Si Si6 0.310876 0.900349 0.247768
Si Si7 0.080177 0.817373 0.505752
Si Si8 0.161208 0.898584 0.144237
O O1 0.784732 0.869473 0.191249
O O2 0.921529 0.833030 0.164427
O O3 0.879779 0.000000 0.142505
O O4 0.850437 0.877983 0.987441
O O5 0.648506 0.163972 0.229335
O O6 0.727559 0.099689 0.398605
O O7 0.690273 0.000000 0.229673
O O8 0.488005 0.790115 0.778747
O O9 0.416693 0.758689 0.592097
O O10 0.389587 0.664833 0.775821
O O11 0.875207 0.667036 0.208888
O O12 0.912105 0.768660 0.374615
O O13 0.250000 0.750000 0.500000
O O14 0.282015 0.891655 0.379631
O O15 0.152257 0.880135 0.487490
O O16 0.245818 0.880222 0.165150
O O17 0.341178 0.000000 0.228493
O O18 0.000000 0.866877 0.500000
O O19 0.139537 0.000000 0.176135
#
# Coordination Sequence:
#
# PCOD8098386 Si02
#       8
#     8   8   8   8   8   8   8   8
#     4  10  22  40  62  87 113 145 191 246 299 350
#     4  11  22  36  58  88 118 154 198 239 281 339
#     4  11  22  38  59  84 119 158 190 233 291 346
#     4  11  22  38  59  84 119 158 190 233 291 346
#     4  12  17  34  61  84 114 152 196 239 282 332
#     4  11  22  36  58  88 118 154 198 239 281 339
#     4  10  20  34  56  86 120 151 184 230 289 347
#     4  10  22  40  62  87 113 145 191 246 299 350
#
# _framework density 19.993794999999999
#
# number of rings (size 3 to 8) (size 9 to 14) (size 15 to 20)
#    0.000    1.250    5.000    1.125    0.000    3.500 
#    0.000    1.875    0.000    7.500    0.000    5.250 
#    0.000    0.000    0.000    0.000    0.000    0.000 
#
# Total GULP energy -396802.169251 kJ/mol
# GULP energy per Si atom -12400.067789 kJ/mol
# Density = 1.994829 g / cm^3
# Si number density = 19.993795 Si / 1000 Ang^3
#
#
#
# Elastic Constant Matrix: (Units=GPa)
#
#
# Indices 1 2 3 4 5 6 
#
# 1 109.8457 37.3887 9.0341 0.0000 16.3522 0.0000
# 2 37.3887 78.2083 22.4262 0.0000 10.2878 0.0000
# 3 9.0341 22.4262 71.3158 0.0000 15.1057 0.0000
# 4 0.0000 0.0000 0.0000 15.8476 0.0000 3.4648
# 5 16.3522 10.2878 15.1057 0.0000 13.5073 0.0000
# 6 0.0000 0.0000 0.0000 3.4648 0.0000 20.6626
#
#
#
# Elastic Compliance Matrix: (Units=1/GPa)
#
#
# Indices 1 2 3 4 5 6 
#
# 1 0.012829 -0.005041 0.003193 0.000000 -0.015262 0.000000
# 2 -0.005041 0.016648 -0.004198 0.000000 -0.001882 0.000000
# 3 0.003193 -0.004198 0.019760 0.000000 -0.022766 0.000000
# 4 0.000000 0.000000 0.000000 0.065502 0.000000 -0.010984
# 5 -0.015262 -0.001882 -0.022766 0.000000 0.119405 0.000000
# 6 0.000000 0.000000 0.000000 -0.010984 0.000000 0.050238
#
#
# Mechanical properties :
#
#
# Convention : Reuss Voigt Hill
#
# Bulk Modulus (GPa) = 26.92180 44.11865 35.52023
# Shear Modulus (GPa) = 16.18880 22.70489 19.44684
#
# Velocity S-wave (km/s) = 2.84859 3.37352 3.12211
# Velocity P-wave (km/s) = 4.93088 6.10641 5.54986
#
# Compressibility (1/GPa) = 0.03714462
#
# Stress axis : x y z
#
# Youngs Moduli (GPa) = 77.94908 60.06873 50.60740
#
# Poissons Ratio (x) = 0.30280 -0.16158
# Poissons Ratio (y) = 0.39294 0.21244
# Poissons Ratio (z) = -0.24888 0.25215
#
# Static dielectric constant tensor:
#      x y z
#    x 3.862330 0.000000 0.112290 
#    y 0.000000 3.549060 0.000000 
#    z 0.112290 0.000000 3.655570 
# 
# 
# High freq. dielectric constant tensor:
#      x y z
#    x 1.782110 0.000000 0.007370 
#    y 0.000000 1.763780 0.000000 
#    z 0.007370 0.000000 1.781490 
# 
# From -- ./inp_files/156656.got.cif
#   From: 2010.06.25/outbox.cif.g09.slc.cpg/sg12_79_cif.got.tgz:156656.got - 2010.06.28 00:19:55.
