data_PCOD8098071
_publ_section_title
;
Structure prediction by ZEFSAII (Michael W. Deem and Ramdas Pophale) SiO2 
 PCOD8098071
Probable space group: C 2/M
;
_chemical_formula_sum "Si O2"
_cell_formula_units_Z 64
_cell_length_a 14.312997
_cell_length_b 16.927637
_cell_length_c 14.806856
_cell_angle_alpha 90.000000
_cell_angle_beta 76.449082
_cell_angle_gamma 90.000000
_cell_volume 3487.614270
_symmetry_space_group_name_H-M "C 2/M"
_symmetry_group_IT_number 12
_symmetry_cell_setting 'monoclinic'
loop_
_space_group_symop_operation_xyz
x,y,z
-x,y,-z
-x,-y,-z
x,-y,z
1/2+x,1/2+y,z
1/2-x,1/2+y,-z
1/2-x,1/2-y,-z
1/2+x,1/2-y,z
loop_
_atom_site_type_symbol
_atom_site_label
_atom_site_fract_x
_atom_site_fract_y
_atom_site_fract_z
Si Si1 0.239657 0.325679 0.797149
Si Si2 0.604464 0.407793 0.351138
Si Si3 0.228921 0.691586 0.084589
Si Si4 0.887291 0.406861 0.018624
Si Si5 0.891808 0.231336 0.520570
Si Si6 0.706562 0.276631 0.646034
Si Si7 0.915198 0.910308 0.080646
Si Si8 0.420166 0.412063 0.282913
O O1 0.314212 0.389627 0.741796
O O2 0.297812 0.249886 0.826124
O O3 0.179663 0.290417 0.726003
O O4 0.168158 0.367014 0.884396
O O5 0.608145 0.500000 0.374145
O O6 0.614534 0.359755 0.442672
O O7 0.503369 0.381185 0.330410
O O8 0.146534 0.630964 0.069574
O O9 0.322330 0.642698 0.090515
O O10 0.250000 0.750000 0.000000
O O11 0.865016 0.500000 0.023451
O O12 0.000000 0.389668 0.000000
O O13 0.821335 0.280359 0.602685
O O14 0.853590 0.243377 0.429142
O O15 0.000000 0.264691 0.500000
O O16 0.676793 0.362335 0.687190
O O17 0.957136 0.907648 0.172097
O O18 0.889521 0.000000 0.057440
O O19 0.000000 0.875261 0.000000
O O20 0.390914 0.500000 0.316718
#
# Coordination Sequence:
#
# PCOD8098071 Si02
#       8
#     8   8   8   8   8   8   8   8
#     4  10  21  37  55  82 112 146 189 230 274 328
#     4  10  21  35  57  86 113 144 182 230 286 336
#     4  10  21  34  52  77 106 144 184 226 270 317
#     4  10  22  39  56  76 107 151 195 232 269 312
#     4  10  20  36  59  82 113 148 176 225 284 335
#     4  10  20  37  55  84 114 143 184 222 277 338
#     4  10  21  35  53  79 113 149 181 223 276 328
#     4  10  20  34  55  83 113 146 182 225 275 330
#
# _framework density 18.350653000000001
#
# number of rings (size 3 to 8) (size 9 to 14) (size 15 to 20)
#    0.000    2.000    2.500    0.750    3.500    3.750 
#    0.000    0.000    0.000    0.375    0.000    0.000 
#    0.000    0.000    0.000    0.000    0.000    0.000 
#
# Total GULP energy -396611.503191 kJ/mol
# GULP energy per Si atom -12394.109475 kJ/mol
# Density = 1.830889 g / cm^3
# Si number density = 18.350653 Si / 1000 Ang^3
#
#
#
# Elastic Constant Matrix: (Units=GPa)
#
#
# Indices 1 2 3 4 5 6 
#
# 1 96.7829 45.4711 31.5667 0.0000 1.0056 0.0000
# 2 45.4711 88.1838 34.3704 0.0000 4.4805 0.0000
# 3 31.5667 34.3704 82.0708 0.0000 9.0216 0.0000
# 4 0.0000 0.0000 0.0000 28.0353 0.0000 0.2080
# 5 1.0056 4.4805 9.0216 0.0000 31.5994 0.0000
# 6 0.0000 0.0000 0.0000 0.2080 0.0000 28.4412
#
#
#
# Elastic Compliance Matrix: (Units=1/GPa)
#
#
# Indices 1 2 3 4 5 6 
#
# 1 0.014226 -0.006230 -0.003004 0.000000 0.001288 0.000000
# 2 -0.006230 0.016283 -0.004327 0.000000 -0.000875 0.000000
# 3 -0.003004 -0.004327 0.015563 0.000000 -0.003734 0.000000
# 4 0.000000 0.000000 0.000000 0.035671 0.000000 -0.000261
# 5 0.001288 -0.000875 -0.003734 0.000000 0.032795 0.000000
# 6 0.000000 0.000000 0.000000 -0.000261 0.000000 0.035162
#
#
# Mechanical properties :
#
#
# Convention : Reuss Voigt Hill
#
# Bulk Modulus (GPa) = 52.77137 54.42822 53.59980
# Shear Modulus (GPa) = 27.30165 27.99047 27.64606
#
# Velocity S-wave (km/s) = 3.86135 3.90976 3.88563
# Velocity P-wave (km/s) = 6.97852 7.07857 7.02872
#
# Compressibility (1/GPa) = 0.01894967
#
# Stress axis : x y z
#
# Youngs Moduli (GPa) = 70.29442 61.41272 64.25656
#
# Poissons Ratio (x) = 0.38260 0.19304
# Poissons Ratio (y) = 0.43793 0.27803
# Poissons Ratio (z) = 0.21118 0.26572
#
# Static dielectric constant tensor:
#      x y z
#    x 3.420830 0.000000 0.127170 
#    y 0.000000 3.449220 0.000000 
#    z 0.127170 0.000000 3.682010 
# 
# 
# High freq. dielectric constant tensor:
#      x y z
#    x 1.701160 0.000000 0.008690 
#    y 0.000000 1.707660 0.000000 
#    z 0.008690 0.000000 1.724270 
# 
# From -- ./inp_files/215899.got.cif
#   From: 2010.06.25/outbox.cif.g09.slc.cpg/sg12_108_cif.got.tgz:215899.got - 2010.06.28 00:19:55.
