data_PCOD8098737
_publ_section_title
;
Structure prediction by ZEFSAII (Michael W. Deem and Ramdas Pophale) SiO2 
 PCOD8098737
Probable space group: C 2/M
;
_chemical_formula_sum "Si O2"
_cell_formula_units_Z 56
_cell_length_a 24.183411
_cell_length_b 9.332347
_cell_length_c 29.181527
_cell_angle_alpha 90.000000
_cell_angle_beta 151.403521
_cell_angle_gamma 90.000000
_cell_volume 3152.270920
_symmetry_space_group_name_H-M "C 2/M"
_symmetry_group_IT_number 12
_symmetry_cell_setting 'monoclinic'
loop_
_space_group_symop_operation_xyz
x,y,z
-x,y,-z
-x,-y,-z
x,-y,z
1/2+x,1/2+y,z
1/2-x,1/2+y,-z
1/2-x,1/2-y,-z
1/2+x,1/2-y,z
loop_
_atom_site_type_symbol
_atom_site_label
_atom_site_fract_x
_atom_site_fract_y
_atom_site_fract_z
Si Si1 0.675282 0.332151 0.552784
Si Si2 0.247617 0.667735 0.289428
Si Si3 0.894336 0.166955 0.217358
Si Si4 0.388460 0.664222 0.682983
Si Si5 0.574584 0.331110 0.655799
Si Si6 0.963977 0.163465 0.838606
Si Si7 0.773495 0.831785 0.970230
O O1 0.683545 0.500000 0.549231
O O2 0.693427 0.295064 0.619278
O O3 0.773909 0.258866 0.593678
O O4 0.551609 0.267902 0.447894
O O5 0.227879 0.500000 0.268950
O O6 0.330141 0.731211 0.309838
O O7 0.122267 0.740576 0.194007
O O8 0.888281 0.209432 0.266042
O O9 0.804073 0.267822 0.126312
O O10 0.023943 0.198706 0.294428
O O11 0.863264 0.000000 0.186113
O O12 0.349189 0.500000 0.653673
O O13 0.454359 0.703022 0.777967
O O14 0.567047 0.500000 0.643170
O O15 0.928376 0.000000 0.821061
O O16 0.094540 0.192960 0.949202
O O17 0.747122 0.000000 0.958119
O O18 0.750000 0.750000 0.000000
#
# Coordination Sequence:
#
# PCOD8098737 Si02
#       7
#     8   8   8   8   8   8   8
#     4   9  17  30  51  77 101 131 174 218 255 296
#     4   9  17  31  53  78 100 131 176 218 251 293
#     4  10  20  35  52  73 104 141 172 207 257 308
#     4   9  17  31  48  71 102 133 165 206 258 308
#     4   9  18  33  52  73 103 139 174 213 258 300
#     4   9  18  33  51  74 102 130 161 205 259 305
#     4  11  21  35  56  80 104 132 168 209 255 306
#
# _framework density 17.764970999999999
#
# number of rings (size 3 to 8) (size 9 to 14) (size 15 to 20)
#    0.000    2.571    1.429    0.857    0.000    4.000 
#    0.000    2.857    0.000    7.714    0.000    0.000 
#    0.000    0.000    0.000    0.000    0.000    0.000 
#
# Total GULP energy -347223.965025 kJ/mol
# GULP energy per Si atom -12400.855894 kJ/mol
# Density = 1.772454 g / cm^3
# Si number density = 17.764971 Si / 1000 Ang^3
#
#
#
# Elastic Constant Matrix: (Units=GPa)
#
#
# Indices 1 2 3 4 5 6 
#
# 1 94.6280 44.8558 59.2791 -0.0024 9.9193 -0.0002
# 2 44.8558 62.9388 57.9584 -0.0003 7.0814 0.0004
# 3 59.2791 57.9584 114.7627 0.0008 13.3402 -0.0003
# 4 -0.0024 -0.0003 0.0008 29.1385 0.0004 6.0898
# 5 9.9193 7.0814 13.3402 0.0004 22.6945 0.0002
# 6 -0.0002 0.0004 -0.0003 6.0898 0.0002 22.6969
#
#
#
# Elastic Compliance Matrix: (Units=1/GPa)
#
#
# Indices 1 2 3 4 5 6 
#
# 1 0.017542 -0.007748 -0.004870 0.000002 -0.002387 0.000000
# 2 -0.007748 0.033129 -0.012795 0.000000 0.000570 -0.000001
# 3 -0.004870 -0.012795 0.018225 -0.000001 -0.004592 0.000001
# 4 0.000002 0.000000 -0.000001 0.036358 -0.000001 -0.009755
# 5 -0.002387 0.000570 -0.004592 -0.000001 0.047628 0.000000
# 6 0.000000 -0.000001 0.000001 -0.009755 0.000000 0.046676
#
#
# Mechanical properties :
#
#
# Convention : Reuss Voigt Hill
#
# Bulk Modulus (GPa) = 55.34608 66.27954 60.81281
# Shear Modulus (GPa) = 19.50017 22.25506 20.87761
#
# Velocity S-wave (km/s) = 3.31671 3.54326 3.43186
# Velocity P-wave (km/s) = 6.77419 7.35729 7.07175
#
# Compressibility (1/GPa) = 0.01806813
#
# Stress axis : x y z
#
# Youngs Moduli (GPa) = 57.00671 30.18500 54.86945
#
# Poissons Ratio (x) = 0.23388 0.26724
# Poissons Ratio (y) = 0.44170 0.70206
# Poissons Ratio (z) = 0.27765 0.38622
#
# Static dielectric constant tensor:
#      x y z
#    x 3.327460 0.000000 0.160080 
#    y 0.000000 3.149360 0.000000 
#    z 0.160080 0.000000 3.325300 
# 
# 
# High freq. dielectric constant tensor:
#      x y z
#    x 1.682180 0.000000 0.013720 
#    y 0.000000 1.669340 0.000000 
#    z 0.013720 0.000000 1.685970 
# 
# From -- ./inp_files/239270.got.cif
#   From: 2010.06.25/outbox.cif.g09.slc.cpg/sg12_120_cif.got.tgz:239270.got - 2010.06.28 00:19:55.
