data_PCOD8098610
_publ_section_title
;
Structure prediction by ZEFSAII (Michael W. Deem and Ramdas Pophale) SiO2 
 PCOD8098610
Probable space group: C 2/M
;
_chemical_formula_sum "Si O2"
_cell_formula_units_Z 52
_cell_length_a 25.088288
_cell_length_b 17.132713
_cell_length_c 10.684281
_cell_angle_alpha 90.000000
_cell_angle_beta 34.495611
_cell_angle_gamma 90.000000
_cell_volume 2600.890603
_symmetry_space_group_name_H-M "C 2/M"
_symmetry_group_IT_number 12
_symmetry_cell_setting 'monoclinic'
loop_
_space_group_symop_operation_xyz
x,y,z
-x,y,-z
-x,-y,-z
x,-y,z
1/2+x,1/2+y,z
1/2-x,1/2+y,-z
1/2-x,1/2-y,-z
1/2+x,1/2-y,z
loop_
_atom_site_type_symbol
_atom_site_label
_atom_site_fract_x
_atom_site_fract_y
_atom_site_fract_z
Si Si1 0.131938 0.351013 0.561109
Si Si2 0.839781 0.807080 0.178419
Si Si3 0.968673 0.796940 0.319063
Si Si4 0.841269 0.628646 0.219282
Si Si5 0.000000 0.713670 0.500000
Si Si6 0.863250 0.912613 0.369578
Si Si7 0.532738 0.912739 0.255692
O O1 0.241982 0.340565 0.311378
O O2 0.077347 0.268465 0.681179
O O3 0.122852 0.394901 0.711945
O O4 0.079155 0.401754 0.556239
O O5 0.819372 0.720639 0.267855
O O6 0.878500 0.861640 0.215019
O O7 0.918683 0.803111 0.917659
O O8 0.946544 0.770644 0.505701
O O9 0.922186 0.879041 0.373209
O O10 0.744570 0.584560 0.377843
O O11 0.916015 0.602078 0.973740
O O12 0.933965 0.652854 0.707803
O O13 0.899150 0.000000 0.273264
O O14 0.551843 0.000000 0.269867
#
# Coordination Sequence:
#
# PCOD8098610 Si02
#       7
#     8   8   8   8   4   8   8
#     4  10  20  34  58  89 118 151 185 230 290 357
#     4  11  20  36  62  88 119 151 192 232 287 361
#     4  11  21  38  60  84 113 159 203 236 281 338
#     4  11  19  36  62  91 121 151 187 231 289 363
#     4  10  23  40  61  80 110 158 208 244 275 336
#     4  11  23  37  60  92 124 149 184 241 298 347
#     4  11  23  38  59  87 121 152 189 244 298 338
#
# _framework density 19.993151999999998
#
# number of rings (size 3 to 8) (size 9 to 14) (size 15 to 20)
#    0.000    1.231    6.154    2.538    0.000    4.923 
#    0.000    7.308    0.000    0.000    0.000    0.000 
#    0.000    0.000    0.000    0.000    0.000    0.000 
#
# Total GULP energy -322236.440218 kJ/mol
# GULP energy per Si atom -12393.709239 kJ/mol
# Density = 1.994765 g / cm^3
# Si number density = 19.993152 Si / 1000 Ang^3
#
#
#
# Elastic Constant Matrix: (Units=GPa)
#
#
# Indices 1 2 3 4 5 6 
#
# 1 88.0782 32.8047 53.2680 0.0000 8.3203 0.0000
# 2 32.8047 120.2953 15.2685 0.0000 8.2811 0.0000
# 3 53.2680 15.2685 90.8789 0.0000 -6.5717 0.0000
# 4 0.0000 0.0000 0.0000 10.7015 0.0000 -3.2152
# 5 8.3203 8.2811 -6.5717 0.0000 20.4374 0.0000
# 6 0.0000 0.0000 0.0000 -3.2152 0.0000 23.5816
#
#
#
# Elastic Compliance Matrix: (Units=1/GPa)
#
#
# Indices 1 2 3 4 5 6 
#
# 1 0.021491 -0.003439 -0.012849 0.000000 -0.011487 0.000000
# 2 -0.003439 0.009375 0.000273 0.000000 -0.002311 0.000000
# 3 -0.012849 0.000273 0.019309 0.000000 0.011329 0.000000
# 4 0.000000 0.000000 0.000000 0.097437 0.000000 0.013285
# 5 -0.011487 -0.002311 0.011329 0.000000 0.058186 0.000000
# 6 0.000000 0.000000 0.000000 0.013285 0.000000 0.044217
#
#
# Mechanical properties :
#
#
# Convention : Reuss Voigt Hill
#
# Bulk Modulus (GPa) = 55.11315 55.77052 55.44183
# Shear Modulus (GPa) = 17.35560 24.13818 20.74689
#
# Velocity S-wave (km/s) = 2.94951 3.47842 3.22483
# Velocity P-wave (km/s) = 6.26301 6.63988 6.45420
#
# Compressibility (1/GPa) = 0.01814449
#
# Stress axis : x y z
#
# Youngs Moduli (GPa) = 46.53197 106.66651 51.79048
#
# Poissons Ratio (x) = 0.36680 0.66548
# Poissons Ratio (y) = 0.16001 -0.01416
# Poissons Ratio (z) = 0.59791 -0.02917
#
# Static dielectric constant tensor:
#      x y z
#    x 3.541610 0.000000 -0.101390 
#    y 0.000000 3.686640 0.000000 
#    z -0.101390 0.000000 3.534680 
# 
# 
# High freq. dielectric constant tensor:
#      x y z
#    x 1.759910 0.000000 -0.006420 
#    y 0.000000 1.776510 0.000000 
#    z -0.006420 0.000000 1.765770 
# 
# From -- ./inp_files/184319.got.cif
#   From: 2010.06.25/outbox.cif.g09.slc.cpg/sg12_93_cif.got.tgz:184319.got - 2010.06.28 00:19:55.
