data_PCOD8098237
_publ_section_title
;
Structure prediction by ZEFSAII (Michael W. Deem and Ramdas Pophale) SiO2 
 PCOD8098237
Probable space group: C 2/M
;
_chemical_formula_sum "Si O2"
_cell_formula_units_Z 36
_cell_length_a 14.766431
_cell_length_b 9.302537
_cell_length_c 28.089749
_cell_angle_alpha 90.000000
_cell_angle_beta 153.982030
_cell_angle_gamma 90.000000
_cell_volume 1692.567228
_symmetry_space_group_name_H-M "C 2/M"
_symmetry_group_IT_number 12
_symmetry_cell_setting 'monoclinic'
loop_
_space_group_symop_operation_xyz
x,y,z
-x,y,-z
-x,-y,-z
x,-y,z
1/2+x,1/2+y,z
1/2-x,1/2+y,-z
1/2-x,1/2-y,-z
1/2+x,1/2-y,z
loop_
_atom_site_type_symbol
_atom_site_label
_atom_site_fract_x
_atom_site_fract_y
_atom_site_fract_z
Si Si1 0.355464 0.833309 0.886783
Si Si2 0.657030 0.671923 0.208575
Si Si3 0.000000 0.764871 0.500000
Si Si4 0.947724 0.161030 0.579888
Si Si5 0.441410 0.336450 0.734993
O O1 0.453984 0.737985 0.890448
O O2 0.125453 0.768660 0.790304
O O3 0.351103 0.000000 0.868889
O O4 0.500000 0.809979 0.000000
O O5 0.677730 0.500000 0.215457
O O6 0.547754 0.723935 0.205788
O O7 0.878698 0.746827 0.312586
O O8 0.020336 0.858010 0.461879
O O9 0.211983 0.673258 0.604061
O O10 0.750000 0.250000 0.500000
O O11 0.938271 0.000000 0.597154
O O12 0.505810 0.500000 0.769539
#
# Coordination Sequence:
#
# PCOD8098237 Si02
#       5
#     8   8   4   8   8
#     4  10  21  38  59  82 111 148 188 232 284 340
#     4  10  21  37  56  80 110 145 187 234 282 332
#     4  10  20  34  56  82 113 150 189 230 275 328
#     4  11  22  36  55  82 116 151 188 230 278 334
#     4   9  19  35  55  81 113 148 186 229 280 335
#
# _framework density 21.269463999999999
#
# number of rings (size 3 to 8) (size 9 to 14) (size 15 to 20)
#    0.000    2.000    0.000    3.333    0.000    5.778 
#    0.000    5.556    0.000    0.000    0.000    0.000 
#    0.000    0.000    0.000    0.000    0.000    0.000 
#
# Total GULP energy -223011.724925 kJ/mol
# GULP energy per Si atom -12389.540274 kJ/mol
# Density = 2.122105 g / cm^3
# Si number density = 21.269464 Si / 1000 Ang^3
#
#
#
# Elastic Constant Matrix: (Units=GPa)
#
#
# Indices 1 2 3 4 5 6 
#
# 1 87.8828 27.7559 29.6140 0.0004 -17.6611 0.0000
# 2 27.7559 94.7833 16.0275 0.0002 -13.8867 0.0000
# 3 29.6140 16.0275 67.7563 0.0006 -12.2495 -0.0002
# 4 0.0004 0.0002 0.0006 25.6522 -0.0003 -6.8755
# 5 -17.6611 -13.8867 -12.2495 -0.0003 39.7453 -0.0001
# 6 0.0000 0.0000 -0.0002 -6.8755 -0.0001 25.6317
#
#
#
# Elastic Compliance Matrix: (Units=1/GPa)
#
#
# Indices 1 2 3 4 5 6 
#
# 1 0.014803 -0.002892 -0.005061 0.000000 0.004008 0.000000
# 2 -0.002892 0.011958 -0.001103 0.000000 0.002553 0.000000
# 3 -0.005061 -0.001103 0.017744 0.000000 0.002834 0.000000
# 4 0.000000 0.000000 0.000000 0.042003 0.000000 0.011267
# 5 0.004008 0.002553 0.002834 0.000000 0.028706 0.000000
# 6 0.000000 0.000000 0.000000 0.011267 0.000000 0.042037
#
#
# Mechanical properties :
#
#
# Convention : Reuss Voigt Hill
#
# Bulk Modulus (GPa) = 37.88955 44.13525 41.01240
# Shear Modulus (GPa) = 27.15015 30.00750 28.57883
#
# Velocity S-wave (km/s) = 3.57667 3.76017 3.66957
# Velocity P-wave (km/s) = 5.90842 6.29662 6.10561
#
# Compressibility (1/GPa) = 0.02639250
#
# Stress axis : x y z
#
# Youngs Moduli (GPa) = 67.55386 83.62750 56.35623
#
# Poissons Ratio (x) = 0.24184 0.28524
# Poissons Ratio (y) = 0.19536 0.06217
# Poissons Ratio (z) = 0.34191 0.09225
#
# Static dielectric constant tensor:
#      x y z
#    x 4.350420 0.000000 -0.336120 
#    y 0.000000 3.581930 -0.000010 
#    z -0.336120 -0.000010 3.443340 
# 
# 
# High freq. dielectric constant tensor:
#      x y z
#    x 1.853930 0.000000 -0.013020 
#    y 0.000000 1.807850 0.000000 
#    z -0.013020 0.000000 1.828240 
# 
# From -- ./inp_files/360394.got.cif
#   From: 2010.06.25/outbox.cif.g09.slc.cpg/sg12_181_cif.got.tgz:360394.got - 2010.06.28 00:19:55.
