data_PCOD8098009
_publ_section_title
;
Structure prediction by ZEFSAII (Michael W. Deem and Ramdas Pophale) SiO2 
 PCOD8098009
Probable space group: C 2/M
;
_chemical_formula_sum "Si O2"
_cell_formula_units_Z 56
_cell_length_a 15.271020
_cell_length_b 9.021887
_cell_length_c 24.442368
_cell_angle_alpha 90.000000
_cell_angle_beta 61.193778
_cell_angle_gamma 90.000000
_cell_volume 2950.794050
_symmetry_space_group_name_H-M "C 2/M"
_symmetry_group_IT_number 12
_symmetry_cell_setting 'monoclinic'
loop_
_space_group_symop_operation_xyz
x,y,z
-x,y,-z
-x,-y,-z
x,-y,z
1/2+x,1/2+y,z
1/2-x,1/2+y,-z
1/2-x,1/2-y,-z
1/2+x,1/2-y,z
loop_
_atom_site_type_symbol
_atom_site_label
_atom_site_fract_x
_atom_site_fract_y
_atom_site_fract_z
Si Si1 0.905242 0.324102 0.791878
Si Si2 0.578848 0.673768 0.430493
Si Si3 0.319162 0.324273 0.121986
Si Si4 0.016324 0.329168 0.865799
Si Si5 0.839866 0.328716 0.003420
Si Si6 0.997413 0.324443 0.348609
Si Si7 0.226748 0.326432 0.563655
O O1 0.905902 0.500000 0.791708
O O2 0.792291 0.267045 0.831916
O O3 0.968871 0.266500 0.824200
O O4 0.953077 0.261828 0.721704
O O5 0.500000 0.726463 0.500000
O O6 0.567721 0.500000 0.422939
O O7 0.557501 0.757838 0.381058
O O8 0.690320 0.717401 0.416330
O O9 0.323727 0.500000 0.113410
O O10 0.387381 0.271656 0.151744
O O11 0.360281 0.247972 0.054997
O O12 0.049252 0.500000 0.849550
O O13 0.938867 0.311155 0.938240
O O14 0.812272 0.500000 0.020532
O O15 0.750000 0.250000 0.000000
O O16 0.006678 0.500000 0.349425
O O17 0.881690 0.274330 0.382828
O O18 0.229994 0.500000 0.551452
O O19 0.250000 0.250000 0.500000
#
# Coordination Sequence:
#
# PCOD8098009 Si02
#       7
#     8   8   8   8   8   8   8
#     4   9  20  40  58  77 114 154 187 230 285 333
#     4  10  20  35  55  82 116 144 171 226 289 331
#     4  11  22  38  59  85 116 152 191 238 287 335
#     4  10  21  39  60  83 114 153 190 234 287 339
#     4  11  21  36  60  88 116 150 191 237 289 339
#     4  10  21  37  59  83 108 147 194 230 268 336
#     4  10  20  34  55  82 109 142 180 222 276 332
#
# _framework density 18.977941999999999
#
# number of rings (size 3 to 8) (size 9 to 14) (size 15 to 20)
#    0.000    1.857    2.857    1.286    0.000    4.857 
#    0.000    3.571    0.000    0.000    0.000    0.000 
#    0.000    0.000    0.000    0.000    0.000    0.000 
#
# Total GULP energy -347285.422944 kJ/mol
# GULP energy per Si atom -12403.050819 kJ/mol
# Density = 1.893475 g / cm^3
# Si number density = 18.977942 Si / 1000 Ang^3
#
#
#
# Elastic Constant Matrix: (Units=GPa)
#
#
# Indices 1 2 3 4 5 6 
#
# 1 168.1913 46.3396 73.5557 0.0000 14.1337 0.0000
# 2 46.3396 54.5103 39.7665 0.0000 3.6169 0.0001
# 3 73.5557 39.7665 144.7353 0.0000 16.2570 0.0000
# 4 0.0000 0.0000 0.0000 22.3637 0.0000 5.9118
# 5 14.1337 3.6169 16.2570 0.0000 19.7660 0.0000
# 6 0.0000 0.0001 0.0000 5.9118 0.0000 36.0766
#
#
#
# Elastic Compliance Matrix: (Units=1/GPa)
#
#
# Indices 1 2 3 4 5 6 
#
# 1 0.008860 -0.005373 -0.002672 0.000000 -0.003154 0.000000
# 2 -0.005373 0.026224 -0.004811 0.000000 0.003001 0.000000
# 3 -0.002672 -0.004811 0.010220 0.000000 -0.005614 0.000000
# 4 0.000000 0.000000 0.000000 0.046740 0.000000 -0.007659
# 5 -0.003154 0.003001 -0.005614 0.000000 0.056916 0.000000
# 6 0.000000 0.000000 0.000000 -0.007659 0.000000 0.028974
#
#
# Mechanical properties :
#
#
# Convention : Reuss Voigt Hill
#
# Bulk Modulus (GPa) = 51.04632 76.30671 63.67652
# Shear Modulus (GPa) = 23.78957 29.49292 26.64125
#
# Velocity S-wave (km/s) = 3.54437 3.94644 3.75080
# Velocity P-wave (km/s) = 6.61107 7.81417 7.23766
#
# Compressibility (1/GPa) = 0.01959005
#
# Stress axis : x y z
#
# Youngs Moduli (GPa) = 112.87215 38.13328 97.85047
#
# Poissons Ratio (x) = 0.20489 0.26145
# Poissons Ratio (y) = 0.60647 0.47081
# Poissons Ratio (z) = 0.30159 0.18348
#
# Static dielectric constant tensor:
#      x y z
#    x 3.819230 0.000000 -0.010960 
#    y 0.000000 3.318840 0.000000 
#    z -0.010960 0.000000 3.696320 
# 
# 
# High freq. dielectric constant tensor:
#      x y z
#    x 1.755680 0.000000 0.001010 
#    y 0.000000 1.720310 0.000000 
#    z 0.001010 0.000000 1.735880 
# 
# From -- ./inp_files/338483.got.cif
#   From: 2010.06.25/outbox.cif.g09.slc.cpg/sg12_170_cif.got.tgz:338483.got - 2010.06.28 00:19:55.
