data_PCOD8098700
_publ_section_title
;
Structure prediction by ZEFSAII (Michael W. Deem and Ramdas Pophale) SiO2 
 PCOD8098700
Probable space group: C 2/M
;
_chemical_formula_sum "Si O2"
_cell_formula_units_Z 64
_cell_length_a 24.717938
_cell_length_b 9.078723
_cell_length_c 19.226483
_cell_angle_alpha 90.000000
_cell_angle_beta 115.650043
_cell_angle_gamma 90.000000
_cell_volume 3889.383830
_symmetry_space_group_name_H-M "C 2/M"
_symmetry_group_IT_number 12
_symmetry_cell_setting 'monoclinic'
loop_
_space_group_symop_operation_xyz
x,y,z
-x,y,-z
-x,-y,-z
x,-y,z
1/2+x,1/2+y,z
1/2-x,1/2+y,-z
1/2-x,1/2-y,-z
1/2+x,1/2-y,z
loop_
_atom_site_type_symbol
_atom_site_label
_atom_site_fract_x
_atom_site_fract_y
_atom_site_fract_z
Si Si1 0.003859 0.324887 0.824241
Si Si2 0.948763 0.828043 0.918261
Si Si3 0.996320 0.325476 0.665581
Si Si4 0.121073 0.325846 0.666134
Si Si5 0.205045 0.826510 0.814487
Si Si6 0.323519 0.668921 0.919429
Si Si7 0.560416 0.825454 0.499391
Si Si8 0.628598 0.670882 0.904870
O O1 0.003838 0.500000 0.827955
O O2 0.069601 0.268082 0.880387
O O3 0.955033 0.260995 0.850098
O O4 0.985741 0.265038 0.737313
O O5 0.884889 0.789283 0.915175
O O6 0.956129 0.000000 0.906232
O O7 0.000000 0.775278 0.000000
O O8 0.996382 0.500000 0.667329
O O9 0.942298 0.270362 0.583042
O O10 0.061345 0.273863 0.673914
O O11 0.130932 0.500000 0.678949
O O12 0.178054 0.243146 0.729458
O O13 0.115409 0.277496 0.580659
O O14 0.272657 0.772675 0.860363
O O15 0.165770 0.775647 0.858718
O O16 0.205372 0.000000 0.806915
O O17 0.306030 0.500000 0.895496
O O18 0.329885 0.697842 0.005075
O O19 0.500000 0.763593 0.500000
O O20 0.558519 0.000000 0.498893
O O21 0.609496 0.500000 0.889180
#
# Coordination Sequence:
#
# PCOD8098700 Si02
#       8
#     8   8   8   8   8   8   8   8
#     4  11  20  29  49  77 101 125 156 201 243 280
#     4  10  20  37  55  68  90 126 164 201 242 286
#     4   8  14  25  42  70 100 124 156 195 234 274
#     4   9  15  27  47  68  94 129 164 191 223 282
#     4  11  22  32  47  72 102 128 155 200 245 284
#     4  10  21  37  54  66  86 127 171 203 232 281
#     4   7  11  21  41  66  92 124 159 192 223 268
#     4  10  20  35  50  67  95 131 164 193 236 288
#
# _framework density 16.455048000000001
#
# number of rings (size 3 to 8) (size 9 to 14) (size 15 to 20)
#    0.000    2.500    2.500    2.625    0.000    1.750 
#    0.000    0.000    0.000    4.875    0.000    0.875 
#    0.000    0.000    0.000    0.000    0.000    0.000 
#
# Total GULP energy -396568.506265 kJ/mol
# GULP energy per Si atom -12392.765821 kJ/mol
# Density = 1.641760 g / cm^3
# Si number density = 16.455048 Si / 1000 Ang^3
#
#
#
# Elastic Constant Matrix: (Units=GPa)
#
#
# Indices 1 2 3 4 5 6 
#
# 1 55.0934 24.6373 39.4965 0.0000 2.9806 0.0000
# 2 24.6373 41.8116 36.5493 0.0000 3.0102 0.0000
# 3 39.4965 36.5493 137.6281 0.0000 -0.1418 0.0000
# 4 0.0000 0.0000 0.0000 18.4144 0.0000 0.0642
# 5 2.9806 3.0102 -0.1418 0.0000 18.9189 0.0000
# 6 0.0000 0.0000 0.0000 0.0642 0.0000 23.3346
#
#
#
# Elastic Compliance Matrix: (Units=1/GPa)
#
#
# Indices 1 2 3 4 5 6 
#
# 1 0.026758 -0.011563 -0.004611 0.000000 -0.002410 0.000000
# 2 -0.011563 0.036628 -0.006413 0.000000 -0.004054 0.000000
# 3 -0.004611 -0.006413 0.010294 0.000000 0.001824 0.000000
# 4 0.000000 0.000000 0.000000 0.054306 0.000000 -0.000149
# 5 -0.002410 -0.004054 0.001824 0.000000 0.053896 0.000000
# 6 0.000000 0.000000 0.000000 -0.000149 0.000000 0.042855
#
#
# Mechanical properties :
#
#
# Convention : Reuss Voigt Hill
#
# Bulk Modulus (GPa) = 35.07970 48.43327 41.75649
# Shear Modulus (GPa) = 17.89472 21.05689 19.47581
#
# Velocity S-wave (km/s) = 3.30129 3.58112 3.44405
# Velocity P-wave (km/s) = 5.99134 6.82618 6.42234
#
# Compressibility (1/GPa) = 0.02850651
#
# Stress axis : x y z
#
# Youngs Moduli (GPa) = 37.37249 27.30154 97.14321
#
# Poissons Ratio (x) = 0.31569 0.44790
# Poissons Ratio (y) = 0.43214 0.62298
# Poissons Ratio (z) = 0.17231 0.17508
#
# Static dielectric constant tensor:
#      x y z
#    x 2.873230 0.000000 -0.212640 
#    y 0.000000 2.859540 0.000000 
#    z -0.212640 0.000000 3.601680 
# 
# 
# High freq. dielectric constant tensor:
#      x y z
#    x 1.594310 0.000000 -0.007330 
#    y 0.000000 1.611710 0.000000 
#    z -0.007330 0.000000 1.648930 
# 
# From -- ./inp_files/323782.got.cif
#   From: 2010.06.25/outbox.cif.g09.slc.cpg/sg12_162_cif.got.tgz:323782.got - 2010.06.28 00:19:55.
