data_PCOD8098932
_publ_section_title
;
Structure prediction by ZEFSAII (Michael W. Deem and Ramdas Pophale) SiO2 
 PCOD8098932
Probable space group: C 2/M
;
_chemical_formula_sum "Si O2"
_cell_formula_units_Z 64
_cell_length_a 30.853038
_cell_length_b 8.532062
_cell_length_c 12.184571
_cell_angle_alpha 90.000000
_cell_angle_beta 101.204507
_cell_angle_gamma 90.000000
_cell_volume 3146.332149
_symmetry_space_group_name_H-M "C 2/M"
_symmetry_group_IT_number 12
_symmetry_cell_setting 'monoclinic'
loop_
_space_group_symop_operation_xyz
x,y,z
-x,y,-z
-x,-y,-z
x,-y,z
1/2+x,1/2+y,z
1/2-x,1/2+y,-z
1/2-x,1/2-y,-z
1/2+x,1/2-y,z
loop_
_atom_site_type_symbol
_atom_site_label
_atom_site_fract_x
_atom_site_fract_y
_atom_site_fract_z
Si Si1 0.206028 0.814058 0.658677
Si Si2 0.786490 0.177810 0.094139
Si Si3 0.033791 0.683275 0.425041
Si Si4 0.563735 0.313920 0.021467
Si Si5 0.701617 0.314482 0.317410
Si Si6 0.497900 0.315833 0.814260
Si Si7 0.658226 0.319530 0.079336
Si Si8 0.635622 0.185556 0.462797
O O1 0.206891 0.744963 0.783506
O O2 0.252452 0.767704 0.623148
O O3 0.164008 0.731406 0.583252
O O4 0.199145 0.000000 0.648245
O O5 0.773155 0.000000 0.108693
O O6 0.750000 0.250000 0.000000
O O7 0.829953 0.198430 0.042462
O O8 0.037229 0.500000 0.446930
O O9 0.010699 0.718024 0.298512
O O10 0.084746 0.748933 0.452146
O O11 0.000000 0.755926 0.500000
O O12 0.565271 0.500000 0.029207
O O13 0.545542 0.273001 0.890512
O O14 0.535006 0.253665 0.108320
O O15 0.611166 0.234073 0.063582
O O16 0.708438 0.500000 0.330827
O O17 0.692229 0.253292 0.187514
O O18 0.659815 0.265111 0.370707
O O19 0.492699 0.500000 0.785579
O O20 0.653190 0.500000 0.109820
O O21 0.635660 0.000000 0.445560
#
# Coordination Sequence:
#
# PCOD8098932 Si02
#       8
#     8   8   8   8   8   8   8   8
#     4  11  23  38  58  85 119 154 192 238 282 332
#     4  10  20  35  54  77 108 146 184 223 268 321
#     4  10  23  42  60  79 111 152 188 231 289 345
#     4   8  15  29  51  83 116 141 174 223 278 329
#     4  11  21  36  61  87 116 152 192 236 284 340
#     4   9  17  32  57  84 110 142 180 227 276 329
#     4   9  17  30  52  81 112 148 183 219 271 330
#     4  11  24  41  60  82 111 148 193 241 287 340
#
# _framework density 20.341145000000001
#
# number of rings (size 3 to 8) (size 9 to 14) (size 15 to 20)
#    0.000    2.125    1.250    3.000    0.000    3.750 
#    0.000    2.500    0.000    2.250    0.000    0.000 
#    0.000    0.000    0.000    0.000    0.000    0.000 
#
# Total GULP energy -396465.991489 kJ/mol
# GULP energy per Si atom -12389.562234 kJ/mol
# Density = 2.029485 g / cm^3
# Si number density = 20.341145 Si / 1000 Ang^3
#
#
#
# Elastic Constant Matrix: (Units=GPa)
#
#
# Indices 1 2 3 4 5 6 
#
# 1 98.3640 11.2516 42.8445 0.0000 8.8895 0.0000
# 2 11.2516 27.6380 8.7406 0.0000 -3.1966 0.0000
# 3 42.8445 8.7406 134.5362 0.0000 5.7759 0.0000
# 4 0.0000 0.0000 0.0000 25.2451 0.0000 2.3037
# 5 8.8895 -3.1966 5.7759 0.0000 25.1709 0.0000
# 6 0.0000 0.0000 0.0000 2.3037 0.0000 20.2394
#
#
#
# Elastic Compliance Matrix: (Units=1/GPa)
#
#
# Indices 1 2 3 4 5 6 
#
# 1 0.012604 -0.004498 -0.003541 0.000000 -0.004210 0.000000
# 2 -0.004498 0.039258 -0.001414 0.000000 0.006899 0.000000
# 3 -0.003541 -0.001414 0.008692 0.000000 -0.000924 0.000000
# 4 0.000000 0.000000 0.000000 0.040027 0.000000 -0.004556
# 5 -0.004210 0.006899 -0.000924 0.000000 0.042303 0.000000
# 6 0.000000 0.000000 0.000000 -0.004556 0.000000 0.049927
#
#
# Mechanical properties :
#
#
# Convention : Reuss Voigt Hill
#
# Bulk Modulus (GPa) = 24.01089 42.91240 33.46165
# Shear Modulus (GPa) = 22.16305 27.31117 24.73711
#
# Velocity S-wave (km/s) = 3.30444 3.66820 3.49106
# Velocity P-wave (km/s) = 5.13701 6.25165 5.72154
#
# Compressibility (1/GPa) = 0.04164776
#
# Stress axis : x y z
#
# Youngs Moduli (GPa) = 79.34258 25.47227 115.04731
#
# Poissons Ratio (x) = 0.11458 0.40736
# Poissons Ratio (y) = 0.35689 0.16270
# Poissons Ratio (z) = 0.28093 0.03602
#
# Static dielectric constant tensor:
#      x y z
#    x 4.335390 0.000000 -0.106020 
#    y 0.000000 3.256930 0.000000 
#    z -0.106020 0.000000 3.982710 
# 
# 
# High freq. dielectric constant tensor:
#      x y z
#    x 1.802340 0.000000 0.005260 
#    y 0.000000 1.759940 0.000000 
#    z 0.005260 0.000000 1.805710 
# 
# From -- ./inp_files/187410.got.cif
#   From: 2010.06.25/outbox.cif.g09.slc.cpg/sg12_94_cif.got.tgz:187410.got - 2010.06.28 00:19:55.
