data_PCOD8098233
_publ_section_title
;
Structure prediction by ZEFSAII (Michael W. Deem and Ramdas Pophale) SiO2 
 PCOD8098233
Probable space group: C 2/M
;
_chemical_formula_sum "Si O2"
_cell_formula_units_Z 56
_cell_length_a 29.208468
_cell_length_b 9.022590
_cell_length_c 20.291419
_cell_angle_alpha 90.000000
_cell_angle_beta 147.700655
_cell_angle_gamma 90.000000
_cell_volume 2857.408220
_symmetry_space_group_name_H-M "C 2/M"
_symmetry_group_IT_number 12
_symmetry_cell_setting 'monoclinic'
loop_
_space_group_symop_operation_xyz
x,y,z
-x,y,-z
-x,-y,-z
x,-y,z
1/2+x,1/2+y,z
1/2-x,1/2+y,-z
1/2-x,1/2-y,-z
1/2+x,1/2-y,z
loop_
_atom_site_type_symbol
_atom_site_label
_atom_site_fract_x
_atom_site_fract_y
_atom_site_fract_z
Si Si1 0.935413 0.327323 0.779529
Si Si2 0.049798 0.327131 0.737790
Si Si3 0.766332 0.328853 0.819651
Si Si4 0.638458 0.168690 0.450163
Si Si5 0.599534 0.675582 0.930733
Si Si6 0.293451 0.174302 0.706228
Si Si7 0.921144 0.170243 0.359918
O O1 0.961714 0.500000 0.813154
O O2 0.876319 0.294541 0.644457
O O3 0.882332 0.278562 0.779516
O O4 0.021734 0.232174 0.881848
O O5 0.070448 0.500000 0.771542
O O6 0.095435 0.241380 0.852638
O O7 0.087746 0.269183 0.715791
O O8 0.948232 0.297354 0.615186
O O9 0.793916 0.500000 0.862398
O O10 0.793282 0.266427 0.780666
O O11 0.664527 0.310602 0.701896
O O12 0.811829 0.228915 0.929648
O O13 0.713014 0.270174 0.567437
O O14 0.667122 0.000000 0.494664
O O15 0.597163 0.500000 0.923567
O O16 0.283926 0.000000 0.694969
O O17 0.000000 0.227859 0.500000
O O18 0.936099 0.000000 0.357018
#
# Coordination Sequence:
#
# PCOD8098233 Si02
#       7
#     8   8   8   8   8   8   8
#     4   9  19  36  56  81 113 148 186 228 278 332
#     4  10  21  38  60  84 113 149 186 229 281 332
#     4  10  22  39  57  80 113 149 184 228 277 326
#     4   9  18  32  52  81 115 145 178 228 282 329
#     4  11  23  39  59  82 108 144 190 234 278 329
#     4  10  20  34  56  82 110 150 191 227 274 330
#     4  10  21  38  61  89 118 147 183 226 272 327
#
# _framework density 19.598178999999998
#
# number of rings (size 3 to 8) (size 9 to 14) (size 15 to 20)
#    0.000    2.143    0.000    3.857    0.000    7.143 
#    0.000    2.857    0.000    0.000    0.000    0.000 
#    0.000    0.000    0.000    0.000    0.000    0.000 
#
# Total GULP energy -347306.909862 kJ/mol
# GULP energy per Si atom -12403.818209 kJ/mol
# Density = 1.955357 g / cm^3
# Si number density = 19.598179 Si / 1000 Ang^3
#
#
#
# Elastic Constant Matrix: (Units=GPa)
#
#
# Indices 1 2 3 4 5 6 
#
# 1 126.0308 42.0324 37.8207 0.0000 -9.9068 0.0000
# 2 42.0324 77.9021 41.4801 0.0000 -3.2189 0.0000
# 3 37.8207 41.4801 104.2045 0.0000 -3.5749 0.0000
# 4 0.0000 0.0000 0.0000 33.4806 0.0000 1.2241
# 5 -9.9068 -3.2189 -3.5749 0.0000 15.6759 0.0000
# 6 0.0000 0.0000 0.0000 1.2241 0.0000 27.0157
#
#
#
# Elastic Compliance Matrix: (Units=1/GPa)
#
#
# Indices 1 2 3 4 5 6 
#
# 1 0.010362 -0.004401 -0.001830 0.000000 0.005228 0.000000
# 2 -0.004401 0.018213 -0.005664 0.000000 -0.000333 0.000000
# 3 -0.001830 -0.005664 0.012534 0.000000 0.000539 0.000000
# 4 0.000000 0.000000 0.000000 0.029918 0.000000 -0.001356
# 5 0.005228 -0.000333 0.000539 0.000000 0.067150 0.000000
# 6 0.000000 0.000000 0.000000 -0.001356 0.000000 0.037077
#
#
# Mechanical properties :
#
#
# Convention : Reuss Voigt Hill
#
# Bulk Modulus (GPa) = 57.73721 61.20042 59.46881
# Shear Modulus (GPa) = 24.41198 27.68805 26.05002
#
# Velocity S-wave (km/s) = 3.53317 3.76278 3.64978
# Velocity P-wave (km/s) = 6.79477 7.08332 6.94054
#
# Compressibility (1/GPa) = 0.01731985
#
# Stress axis : x y z
#
# Youngs Moduli (GPa) = 96.50379 54.90492 79.78370
#
# Poissons Ratio (x) = 0.24162 0.14599
# Poissons Ratio (y) = 0.42468 0.45192
# Poissons Ratio (z) = 0.17659 0.31100
#
# Static dielectric constant tensor:
#      x y z
#    x 3.820620 0.000000 -0.002490 
#    y 0.000000 3.448580 0.000000 
#    z -0.002490 0.000000 3.417060 
# 
# 
# High freq. dielectric constant tensor:
#      x y z
#    x 1.771810 0.000000 0.000160 
#    y 0.000000 1.754010 0.000000 
#    z 0.000160 0.000000 1.760160 
# 
# From -- ./inp_files/329667.got.cif
#   From: 2010.06.25/outbox.cif.g09.slc.cpg/sg12_165_cif.got.tgz:329667.got - 2010.06.28 00:19:55.
