data_PCOD8098959
_publ_section_title
;
Structure prediction by ZEFSAII (Michael W. Deem and Ramdas Pophale) SiO2 
 PCOD8098959
Probable space group: C 2/M
;
_chemical_formula_sum "Si O2"
_cell_formula_units_Z 56
_cell_length_a 20.073616
_cell_length_b 9.676840
_cell_length_c 14.710686
_cell_angle_alpha 90.000000
_cell_angle_beta 89.934398
_cell_angle_gamma 90.000000
_cell_volume 2857.536676
_symmetry_space_group_name_H-M "C 2/M"
_symmetry_group_IT_number 12
_symmetry_cell_setting 'monoclinic'
loop_
_space_group_symop_operation_xyz
x,y,z
-x,y,-z
-x,-y,-z
x,-y,z
1/2+x,1/2+y,z
1/2-x,1/2+y,-z
1/2-x,1/2-y,-z
1/2+x,1/2-y,z
loop_
_atom_site_type_symbol
_atom_site_label
_atom_site_fract_x
_atom_site_fract_y
_atom_site_fract_z
Si Si1 0.866622 0.349563 0.345909
Si Si2 0.682837 0.662627 0.139278
Si Si3 0.331382 0.838307 0.142097
Si Si4 0.688454 0.653546 0.510195
Si Si5 0.510976 0.151847 0.398152
Si Si6 0.421809 0.336752 0.014606
Si Si7 0.383418 0.346277 0.679682
O O1 0.837281 0.500000 0.378862
O O2 0.834611 0.313297 0.249735
O O3 0.858078 0.225243 0.416092
O O4 0.945391 0.364244 0.338178
O O5 0.690009 0.500000 0.142483
O O6 0.757289 0.716774 0.112206
O O7 0.662211 0.716131 0.239598
O O8 0.624125 0.708156 0.070871
O O9 0.390539 0.748305 0.098057
O O10 0.342188 0.000000 0.117519
O O11 0.706784 0.500000 0.544560
O O12 0.750000 0.750000 0.500000
O O13 0.656631 0.645870 0.412367
O O14 0.500000 0.213894 0.500000
O O15 0.554228 0.249080 0.334811
O O16 0.544831 0.000000 0.410240
O O17 0.415939 0.500000 0.034378
O O18 0.500000 0.296868 0.000000
O O19 0.408695 0.500000 0.706982
#
# Coordination Sequence:
#
# PCOD8098959 Si02
#       7
#     8   8   8   8   8   8   8
#     4  10  21  37  56  80 113 151 189 232 285 340
#     4   9  19  38  60  83 113 150 187 233 290 339
#     4  10  21  39  63  85 112 150 192 236 283 340
#     4  11  22  35  54  81 112 149 192 236 280 333
#     4  10  20  35  54  78 113 152 187 233 291 335
#     4  10  22  39  60  87 117 147 183 232 291 347
#     4  10  21  36  57  82 110 148 194 232 276 341
#
# _framework density 19.597299
#
# number of rings (size 3 to 8) (size 9 to 14) (size 15 to 20)
#    0.000    2.000    1.429    1.714    2.000    4.571 
#    0.000    1.429    0.000    0.000    0.000    0.000 
#    0.000    0.000    0.000    0.000    0.000    0.000 
#
# Total GULP energy -346992.778542 kJ/mol
# GULP energy per Si atom -12392.599234 kJ/mol
# Density = 1.955269 g / cm^3
# Si number density = 19.597299 Si / 1000 Ang^3
#
#
#
# Elastic Constant Matrix: (Units=GPa)
#
#
# Indices 1 2 3 4 5 6 
#
# 1 119.2577 39.8141 32.7174 0.0000 -1.5774 0.0000
# 2 39.8141 91.3063 34.9041 0.0000 -12.5057 0.0000
# 3 32.7174 34.9041 77.3079 0.0000 -2.5104 0.0000
# 4 0.0000 0.0000 0.0000 6.8636 0.0000 3.3666
# 5 -1.5774 -12.5057 -2.5104 0.0000 35.7073 0.0000
# 6 0.0000 0.0000 0.0000 3.3666 0.0000 25.5816
#
#
#
# Elastic Compliance Matrix: (Units=1/GPa)
#
#
# Indices 1 2 3 4 5 6 
#
# 1 0.010331 -0.003574 -0.002791 0.000000 -0.000991 0.000000
# 2 -0.003574 0.015141 -0.005168 0.000000 0.004782 0.000000
# 3 -0.002791 -0.005168 0.016425 0.000000 -0.000779 0.000000
# 4 0.000000 0.000000 0.000000 0.155750 0.000000 -0.020497
# 5 -0.000991 0.004782 -0.000779 0.000000 0.029582 0.000000
# 6 0.000000 0.000000 0.000000 -0.020497 0.000000 0.041788
#
#
# Mechanical properties :
#
#
# Convention : Reuss Voigt Hill
#
# Bulk Modulus (GPa) = 53.10476 55.86034 54.48255
# Shear Modulus (GPa) = 16.75833 25.65958 21.20896
#
# Velocity S-wave (km/s) = 2.92744 3.62241 3.29331
# Velocity P-wave (km/s) = 6.21155 6.78688 6.50558
#
# Compressibility (1/GPa) = 0.01883070
#
# Stress axis : x y z
#
# Youngs Moduli (GPa) = 96.79801 66.04523 60.88427
#
# Poissons Ratio (x) = 0.23603 0.16991
# Poissons Ratio (y) = 0.34593 0.31468
# Poissons Ratio (z) = 0.27014 0.34135
#
# Static dielectric constant tensor:
#      x y z
#    x 3.722980 0.000000 -0.007000 
#    y 0.000000 4.368970 0.000000 
#    z -0.007000 0.000000 3.550500 
# 
# 
# High freq. dielectric constant tensor:
#      x y z
#    x 1.769640 0.000000 0.005440 
#    y 0.000000 1.749800 0.000000 
#    z 0.005440 0.000000 1.760240 
# 
# From -- ./inp_files/230917.got.cif
#   From: 2010.06.25/outbox.cif.g09.slc.cpg/sg12_116_cif.got.tgz:230917.got - 2010.06.28 00:19:55.
