data_PCOD8098098
_publ_section_title
;
Structure prediction by ZEFSAII (Michael W. Deem and Ramdas Pophale) SiO2 
 PCOD8098098
Probable space group: C 2/M
;
_chemical_formula_sum "Si O2"
_cell_formula_units_Z 56
_cell_length_a 24.885535
_cell_length_b 8.497247
_cell_length_c 16.584742
_cell_angle_alpha 90.000000
_cell_angle_beta 120.221496
_cell_angle_gamma 90.000000
_cell_volume 3030.336962
_symmetry_space_group_name_H-M "C 2/M"
_symmetry_group_IT_number 12
_symmetry_cell_setting 'monoclinic'
loop_
_space_group_symop_operation_xyz
x,y,z
-x,y,-z
-x,-y,-z
x,-y,z
1/2+x,1/2+y,z
1/2-x,1/2+y,-z
1/2-x,1/2-y,-z
1/2+x,1/2-y,z
loop_
_atom_site_type_symbol
_atom_site_label
_atom_site_fract_x
_atom_site_fract_y
_atom_site_fract_z
Si Si1 0.841320 0.183206 0.592421
Si Si2 0.192014 0.316228 0.907465
Si Si3 0.721625 0.182991 0.601710
Si Si4 0.073294 0.817251 0.902255
Si Si5 0.882101 0.315494 0.899325
Si Si6 0.237895 0.817631 0.782596
Si Si7 0.942151 0.316791 0.777474
O O1 0.787632 0.236567 0.614158
O O2 0.833142 0.276847 0.502518
O O3 0.907893 0.223788 0.680165
O O4 0.835964 0.000000 0.568977
O O5 0.184915 0.500000 0.920588
O O6 0.130867 0.227229 0.889892
O O7 0.201027 0.286149 0.819624
O O8 0.250000 0.250000 0.000000
O O9 0.709938 0.280755 0.674012
O O10 0.720990 0.000000 0.622563
O O11 0.014828 0.718349 0.826605
O O12 0.058174 0.000000 0.881779
O O13 0.086580 0.779568 0.005122
O O14 0.891844 0.500000 0.922538
O O15 0.810055 0.269860 0.839490
O O16 0.915752 0.259477 0.843446
O O17 0.228583 0.000000 0.796302
O O18 0.928898 0.500000 0.755355
#
# Coordination Sequence:
#
# PCOD8098098 Si02
#       7
#     8   8   8   8   8   8   8
#     4  10  20  34  55  83 116 150 190 235 283 338
#     4  12  24  40  60  83 111 149 193 239 285 333
#     4  10  20  34  55  84 117 151 189 233 285 339
#     4  12  25  39  57  82 114 153 195 237 282 338
#     4  10  21  36  56  82 116 154 190 230 283 340
#     4  11  21  36  59  86 117 150 187 236 287 336
#     4  11  22  38  58  82 116 155 192 233 285 342
#
# _framework density 18.479793999999998
#
# number of rings (size 3 to 8) (size 9 to 14) (size 15 to 20)
#    0.000    1.143    2.857    4.714    0.000    4.571 
#    0.000    0.000    0.000    0.857    0.000    6.000 
#    0.000    0.000    0.000    0.000    0.000    0.000 
#
# Total GULP energy -347413.349276 kJ/mol
# GULP energy per Si atom -12407.619617 kJ/mol
# Density = 1.843773 g / cm^3
# Si number density = 18.479794 Si / 1000 Ang^3
#
#
#
# Elastic Constant Matrix: (Units=GPa)
#
#
# Indices 1 2 3 4 5 6 
#
# 1 78.7812 4.9875 39.6499 0.0000 9.6352 0.0000
# 2 4.9875 56.2125 13.7958 0.0000 -1.3741 0.0000
# 3 39.6499 13.7958 113.4951 0.0000 -1.3279 0.0000
# 4 0.0000 0.0000 0.0000 35.8123 0.0000 -0.5042
# 5 9.6352 -1.3741 -1.3279 0.0000 20.4824 0.0000
# 6 0.0000 0.0000 0.0000 -0.5042 0.0000 27.4904
#
#
#
# Elastic Compliance Matrix: (Units=1/GPa)
#
#
# Indices 1 2 3 4 5 6 
#
# 1 0.016685 -0.000235 -0.005897 0.000000 -0.008247 0.000000
# 2 -0.000235 0.018364 -0.002136 0.000000 0.001204 0.000000
# 3 -0.005897 -0.002136 0.011170 0.000000 0.003355 0.000000
# 4 0.000000 0.000000 0.000000 0.027931 0.000000 0.000512
# 5 -0.008247 0.001204 0.003355 0.000000 0.053000 0.000000
# 6 0.000000 0.000000 0.000000 0.000512 0.000000 0.036386
#
#
# Mechanical properties :
#
#
# Convention : Reuss Voigt Hill
#
# Bulk Modulus (GPa) = 33.68889 40.59502 37.14196
# Shear Modulus (GPa) = 26.32065 29.42739 27.87402
#
# Velocity S-wave (km/s) = 3.77808 3.99483 3.88796
# Velocity P-wave (km/s) = 6.10750 6.57975 6.34802
#
# Compressibility (1/GPa) = 0.02968337
#
# Stress axis : x y z
#
# Youngs Moduli (GPa) = 59.93529 54.45394 89.52607
#
# Poissons Ratio (x) = 0.01278 0.52792
# Poissons Ratio (y) = 0.01407 0.19124
# Poissons Ratio (z) = 0.35343 0.11632
#
# Static dielectric constant tensor:
#      x y z
#    x 3.316720 0.000000 -0.031130 
#    y 0.000000 3.462010 0.000000 
#    z -0.031130 0.000000 3.339530 
# 
# 
# High freq. dielectric constant tensor:
#      x y z
#    x 1.696420 0.000000 -0.002630 
#    y 0.000000 1.728030 0.000000 
#    z -0.002630 0.000000 1.719470 
# 
# From -- ./inp_files/238937.got.cif
#   From: 2010.06.25/outbox.cif.g09.slc.cpg/sg12_120_cif.got.tgz:238937.got - 2010.06.28 00:19:55.
