data_PCOD8098884
_publ_section_title
;
Structure prediction by ZEFSAII (Michael W. Deem and Ramdas Pophale) SiO2 
 PCOD8098884
Probable space group: C 2/M
;
_chemical_formula_sum "Si O2"
_cell_formula_units_Z 64
_cell_length_a 18.867826
_cell_length_b 9.250305
_cell_length_c 20.509456
_cell_angle_alpha 90.000000
_cell_angle_beta 81.426561
_cell_angle_gamma 90.000000
_cell_volume 3539.580190
_symmetry_space_group_name_H-M "C 2/M"
_symmetry_group_IT_number 12
_symmetry_cell_setting 'monoclinic'
loop_
_space_group_symop_operation_xyz
x,y,z
-x,y,-z
-x,-y,-z
x,-y,z
1/2+x,1/2+y,z
1/2-x,1/2+y,-z
1/2-x,1/2-y,-z
1/2+x,1/2-y,z
loop_
_atom_site_type_symbol
_atom_site_label
_atom_site_fract_x
_atom_site_fract_y
_atom_site_fract_z
Si Si1 0.441733 0.171972 0.366906
Si Si2 0.591275 0.828517 0.399309
Si Si3 0.451973 0.170861 0.218892
Si Si4 0.825816 0.329015 0.484087
Si Si5 0.697086 0.831985 0.814147
Si Si6 0.101647 0.336171 0.150610
Si Si7 0.811887 0.337517 0.729011
Si Si8 0.721618 0.670764 0.067113
O O1 0.510957 0.231744 0.397387
O O2 0.443042 0.235614 0.293128
O O3 0.367751 0.218951 0.412601
O O4 0.445047 0.000000 0.365171
O O5 0.621406 0.779702 0.464856
O O6 0.645136 0.767328 0.336936
O O7 0.588719 0.000000 0.393655
O O8 0.385234 0.214917 0.182670
O O9 0.522054 0.228991 0.171594
O O10 0.460304 0.000000 0.224936
O O11 0.811517 0.500000 0.488372
O O12 0.750000 0.250000 0.500000
O O13 0.741095 0.754626 0.751198
O O14 0.723506 0.788646 0.882430
O O15 0.707973 0.000000 0.800203
O O16 0.101003 0.500000 0.122403
O O17 0.137100 0.334442 0.216035
O O18 0.143042 0.232148 0.094833
O O19 0.787322 0.500000 0.716148
O O20 0.716599 0.500000 0.055761
O O21 0.750000 0.750000 0.000000
#
# Coordination Sequence:
#
# PCOD8098884 Si02
#       8
#     8   8   8   8   8   8   8   8
#     4   9  16  29  50  73  95 129 173 211 247 295
#     4   9  16  29  48  71  97 126 169 214 249 292
#     4   9  16  29  50  76 102 127 163 209 253 294
#     4  10  21  33  48  71 100 132 169 214 259 301
#     4   9  19  32  49  75 105 130 159 202 246 290
#     4   9  16  30  53  77  99 126 163 205 245 289
#     4   9  16  28  48  72  96 127 164 203 247 295
#     4  10  20  35  54  76 103 135 168 198 235 288
#
# _framework density 18.081240000000001
#
# number of rings (size 3 to 8) (size 9 to 14) (size 15 to 20)
#    0.000    2.750    1.250    0.750    1.750    2.000 
#    0.000    1.250    0.000    6.750    0.000    0.000 
#    0.000    0.000    0.000    0.000    0.000    0.000 
#
# Total GULP energy -396681.691647 kJ/mol
# GULP energy per Si atom -12396.302864 kJ/mol
# Density = 1.804009 g / cm^3
# Si number density = 18.081240 Si / 1000 Ang^3
#
#
#
# Elastic Constant Matrix: (Units=GPa)
#
#
# Indices 1 2 3 4 5 6 
#
# 1 159.7910 39.2661 70.4703 0.0000 -19.4160 0.0000
# 2 39.2661 39.5217 35.4953 0.0000 -8.0812 0.0000
# 3 70.4703 35.4953 108.9916 0.0000 -25.3934 0.0000
# 4 0.0000 0.0000 0.0000 17.3487 0.0000 -5.5476
# 5 -19.4160 -8.0812 -25.3934 0.0000 28.7781 0.0000
# 6 0.0000 0.0000 0.0000 -5.5476 0.0000 25.4888
#
#
#
# Elastic Compliance Matrix: (Units=1/GPa)
#
#
# Indices 1 2 3 4 5 6 
#
# 1 0.009589 -0.005604 -0.004071 0.000000 0.001304 0.000000
# 2 -0.005604 0.039040 -0.009337 0.000000 -0.001057 0.000000
# 3 -0.004071 -0.009337 0.017116 0.000000 0.009734 0.000000
# 4 0.000000 0.000000 0.000000 0.061953 0.000000 0.013484
# 5 0.001304 -0.001057 0.009734 0.000000 0.043921 0.000000
# 6 0.000000 0.000000 0.000000 0.013484 0.000000 0.042168
#
#
# Mechanical properties :
#
#
# Convention : Reuss Voigt Hill
#
# Bulk Modulus (GPa) = 36.07430 66.52975 51.30203
# Shear Modulus (GPa) = 19.15329 25.19462 22.17396
#
# Velocity S-wave (km/s) = 3.25821 3.73689 3.50573
# Velocity P-wave (km/s) = 5.84372 7.44943 6.69489
#
# Compressibility (1/GPa) = 0.02772056
#
# Stress axis : x y z
#
# Youngs Moduli (GPa) = 104.28423 25.61467 58.42467
#
# Poissons Ratio (x) = 0.14355 0.23786
# Poissons Ratio (y) = 0.58443 0.54551
# Poissons Ratio (z) = 0.42457 0.23916
#
# Static dielectric constant tensor:
#      x y z
#    x 3.593910 0.000000 -0.104320 
#    y 0.000000 3.008710 0.000000 
#    z -0.104320 0.000000 3.383030 
# 
# 
# High freq. dielectric constant tensor:
#      x y z
#    x 1.709200 0.000000 -0.009790 
#    y 0.000000 1.653050 0.000000 
#    z -0.009790 0.000000 1.697640 
# 
# From -- ./inp_files/314014.got.cif
#   From: 2010.06.25/outbox.cif.g09.slc.cpg/sg12_158_cif.got.tgz:314014.got - 2010.06.28 00:19:55.
