data_PCOD8098012
_publ_section_title
;
Structure prediction by ZEFSAII (Michael W. Deem and Ramdas Pophale) SiO2 
 PCOD8098012
Probable space group: C 2/M
;
_chemical_formula_sum "Si O2"
_cell_formula_units_Z 64
_cell_length_a 25.513233
_cell_length_b 13.312481
_cell_length_c 14.655228
_cell_angle_alpha 90.000000
_cell_angle_beta 42.441347
_cell_angle_gamma 90.000000
_cell_volume 3359.036682
_symmetry_space_group_name_H-M "C 2/M"
_symmetry_group_IT_number 12
_symmetry_cell_setting 'monoclinic'
loop_
_space_group_symop_operation_xyz
x,y,z
-x,y,-z
-x,-y,-z
x,-y,z
1/2+x,1/2+y,z
1/2-x,1/2+y,-z
1/2-x,1/2-y,-z
1/2+x,1/2-y,z
loop_
_atom_site_type_symbol
_atom_site_label
_atom_site_fract_x
_atom_site_fract_y
_atom_site_fract_z
Si Si1 0.308471 0.794926 0.044439
Si Si2 0.716560 0.116882 0.733180
Si Si3 0.680028 0.385445 0.089461
Si Si4 0.133726 0.765471 0.501430
Si Si5 0.940744 0.388401 0.502192
Si Si6 0.619594 0.115637 0.679655
Si Si7 0.490446 0.616438 0.618830
Si Si8 0.036387 0.390790 0.193154
O O1 0.294713 0.679830 0.031587
O O2 0.393696 0.813985 0.893950
O O3 0.310643 0.811769 0.149667
O O4 0.242842 0.867563 0.088195
O O5 0.801888 0.149593 0.591876
O O6 0.655671 0.136716 0.731453
O O7 0.718923 0.000000 0.758844
O O8 0.682849 0.500000 0.053566
O O9 0.596444 0.356958 0.238070
O O10 0.132702 0.686448 0.416474
O O11 0.151636 0.700477 0.569093
O O12 0.049398 0.820064 0.607189
O O13 0.912397 0.500000 0.566622
O O14 0.000000 0.344394 0.500000
O O15 0.985530 0.387607 0.349429
O O16 0.526018 0.128909 0.807845
O O17 0.639291 0.000000 0.622227
O O18 0.500000 0.644212 0.500000
O O19 0.509460 0.500000 0.610200
O O20 0.074952 0.500000 0.130668
#
# Coordination Sequence:
#
# PCOD8098012 Si02
#       8
#     8   8   8   8   8   8   8   8
#     4  11  22  36  54  77 106 144 179 214 261 313
#     4  11  23  37  54  78 106 137 180 227 266 312
#     4  10  21  36  53  78 112 143 175 216 261 313
#     4  11  19  33  55  79 105 138 174 215 268 319
#     4   9  18  31  50  78 108 137 171 212 259 317
#     4   9  20  37  56  80 107 134 171 224 275 317
#     4  10  20  34  55  82 110 141 177 217 260 311
#     4   9  17  32  53  75 101 135 174 215 262 311
#
# _framework density 19.053082
#
# number of rings (size 3 to 8) (size 9 to 14) (size 15 to 20)
#    0.000    2.000    0.000    5.625    0.000    3.500 
#    0.000    4.375    0.000    1.500    0.000    2.625 
#    0.000    0.000    0.000    0.000    0.000    0.000 
#
# Total GULP energy -396582.963162 kJ/mol
# GULP energy per Si atom -12393.217599 kJ/mol
# Density = 1.900972 g / cm^3
# Si number density = 19.053082 Si / 1000 Ang^3
#
#
#
# Elastic Constant Matrix: (Units=GPa)
#
#
# Indices 1 2 3 4 5 6 
#
# 1 133.1504 48.8006 35.4162 0.0000 1.4103 0.0000
# 2 48.8006 94.2682 29.8542 0.0000 5.4630 0.0000
# 3 35.4162 29.8542 57.1639 0.0000 -4.2551 0.0000
# 4 0.0000 0.0000 0.0000 23.0121 0.0000 -1.5476
# 5 1.4103 5.4630 -4.2551 0.0000 30.2043 0.0000
# 6 0.0000 0.0000 0.0000 -1.5476 0.0000 29.3196
#
#
#
# Elastic Compliance Matrix: (Units=1/GPa)
#
#
# Indices 1 2 3 4 5 6 
#
# 1 0.010051 -0.003835 -0.004252 0.000000 -0.000375 0.000000
# 2 -0.003835 0.014501 -0.005436 0.000000 -0.003210 0.000000
# 3 -0.004252 -0.005436 0.023299 0.000000 0.004464 0.000000
# 4 0.000000 0.000000 0.000000 0.043610 0.000000 0.002302
# 5 -0.000375 -0.003210 0.004464 0.000000 0.034335 0.000000
# 6 0.000000 0.000000 0.000000 0.002302 0.000000 0.034228
#
#
# Mechanical properties :
#
#
# Convention : Reuss Voigt Hill
#
# Bulk Modulus (GPa) = 48.06601 56.96941 52.51771
# Shear Modulus (GPa) = 25.77248 27.87464 26.82356
#
# Velocity S-wave (km/s) = 3.68185 3.82907 3.75618
# Velocity P-wave (km/s) = 6.58460 7.03664 6.81437
#
# Compressibility (1/GPa) = 0.02080472
#
# Stress axis : x y z
#
# Youngs Moduli (GPa) = 99.49506 68.96179 42.91950
#
# Poissons Ratio (x) = 0.26445 0.18250
# Poissons Ratio (y) = 0.38153 0.23332
# Poissons Ratio (z) = 0.42307 0.37489
#
# Static dielectric constant tensor:
#      x y z
#    x 3.750850 0.000000 -0.168960 
#    y 0.000000 3.867230 0.000000 
#    z -0.168960 0.000000 3.183570 
# 
# 
# High freq. dielectric constant tensor:
#      x y z
#    x 1.745270 0.000000 -0.012580 
#    y 0.000000 1.755860 0.000000 
#    z -0.012580 0.000000 1.710770 
# 
# From -- ./inp_files/240677.got.cif
#   From: 2010.06.25/outbox.cif.g09.slc.cpg/sg12_121_cif.got.tgz:240677.got - 2010.06.28 00:19:55.
