data_PCOD8098393
_publ_section_title
;
Structure prediction by ZEFSAII (Michael W. Deem and Ramdas Pophale) SiO2 
 PCOD8098393
Probable space group: C 2/M
;
_chemical_formula_sum "Si O2"
_cell_formula_units_Z 40
_cell_length_a 9.552351
_cell_length_b 22.303144
_cell_length_c 8.703200
_cell_angle_alpha 90.000000
_cell_angle_beta 92.053799
_cell_angle_gamma 90.000000
_cell_volume 1853.003550
_symmetry_space_group_name_H-M "C 2/M"
_symmetry_group_IT_number 12
_symmetry_cell_setting 'monoclinic'
loop_
_space_group_symop_operation_xyz
x,y,z
-x,y,-z
-x,-y,-z
x,-y,z
1/2+x,1/2+y,z
1/2-x,1/2+y,-z
1/2-x,1/2-y,-z
1/2+x,1/2-y,z
loop_
_atom_site_type_symbol
_atom_site_label
_atom_site_fract_x
_atom_site_fract_y
_atom_site_fract_z
Si Si1 0.050386 0.804465 0.177538
Si Si2 0.724606 0.912312 0.328938
Si Si3 0.015350 0.935633 0.180600
Si Si4 0.514677 0.000000 0.178820
Si Si5 0.767917 0.776806 0.332763
Si Si6 0.340246 0.000000 0.433475
O O1 0.186409 0.763689 0.205516
O O2 0.095692 0.873415 0.222569
O O3 0.929514 0.781326 0.288113
O O4 0.000000 0.800634 0.000000
O O5 0.862518 0.929800 0.244273
O O6 0.698225 0.841958 0.334930
O O7 0.735014 0.940352 0.501863
O O8 0.594937 0.939997 0.231757
O O9 0.082812 0.000000 0.244797
O O10 0.000000 0.941615 0.000000
O O11 0.357248 0.000000 0.248814
O O12 0.500000 0.000000 0.000000
O O13 0.750000 0.750000 0.500000
O O14 0.500000 0.000000 0.500000
#
# Coordination Sequence:
#
# PCOD8098393 Si02
#       6
#     8   8   8   4   8   4
#     4  10  22  39  61  94 124 164 210 260 312 369
#     4   9  18  36  58  81 115 158 197 250 307 360
#     4   9  16  32  61  86 113 154 195 248 306 364
#     4  10  20  34  56  87 115 149 204 254 311 369
#     4  11  23  39  64  88 126 167 212 255 312 378
#     4   8  16  32  52  75 106 145 193 238 300 351
#
# _framework density 21.586575
#
# number of rings (size 3 to 8) (size 9 to 14) (size 15 to 20)
#    0.000    2.600    2.000    1.200    0.000    5.600 
#    0.000    6.000    4.400    2.400    0.000    0.000 
#    0.000    0.000    0.000    0.000    0.000    0.000 
#
# Total GULP energy -247796.452427 kJ/mol
# GULP energy per Si atom -12389.822621 kJ/mol
# Density = 2.153744 g / cm^3
# Si number density = 21.586575 Si / 1000 Ang^3
#
#
#
# Elastic Constant Matrix: (Units=GPa)
#
#
# Indices 1 2 3 4 5 6 
#
# 1 26.1854 35.1708 7.7591 0.0000 -9.7854 0.0000
# 2 35.1708 204.4158 33.3476 0.0000 1.7143 0.0000
# 3 7.7591 33.3476 128.2159 0.0000 -23.0470 0.0000
# 4 0.0000 0.0000 0.0000 29.5956 0.0000 -5.9322
# 5 -9.7854 1.7143 -23.0470 0.0000 34.8963 0.0000
# 6 0.0000 0.0000 0.0000 -5.9322 0.0000 26.5008
#
#
#
# Elastic Compliance Matrix: (Units=1/GPa)
#
#
# Indices 1 2 3 4 5 6 
#
# 1 0.058778 -0.010692 0.002588 0.000000 0.018717 0.000000
# 2 -0.010692 0.007105 -0.002045 0.000000 -0.004698 0.000000
# 3 0.002588 -0.002045 0.009444 0.000000 0.007064 0.000000
# 4 0.000000 0.000000 0.000000 0.035376 0.000000 0.007919
# 5 0.018717 -0.004698 0.007064 0.000000 0.038801 0.000000
# 6 0.000000 0.000000 0.000000 0.007919 0.000000 0.039507
#
#
# Mechanical properties :
#
#
# Convention : Reuss Voigt Hill
#
# Bulk Modulus (GPa) = 18.17238 56.81912 37.49575
# Shear Modulus (GPa) = 21.96329 37.03450 29.49890
#
# Velocity S-wave (km/s) = 3.19321 4.14651 3.70068
# Velocity P-wave (km/s) = 4.69384 7.02163 5.97225
#
# Compressibility (1/GPa) = 0.05502857
#
# Stress axis : x y z
#
# Youngs Moduli (GPa) = 17.01319 140.75179 105.88295
#
# Poissons Ratio (x) = 1.50495 -0.27406
# Poissons Ratio (y) = 0.18191 0.21656
# Poissons Ratio (z) = -0.04404 0.28788
#
# Static dielectric constant tensor:
#      x y z
#    x 3.735940 0.000000 -0.455550 
#    y 0.000000 4.716200 0.000000 
#    z -0.455550 0.000000 4.266120 
# 
# 
# High freq. dielectric constant tensor:
#      x y z
#    x 1.825730 0.000000 -0.028650 
#    y 0.000000 1.866450 0.000000 
#    z -0.028650 0.000000 1.857510 
# 
# From -- ./inp_files/48630.got.cif
#   From: 2010.06.25/outbox.cif.g09.slc.cpg/sg12_25_cif.got.tgz:48630.got - 2010.06.28 00:19:55.
