data_PCOD8098224
_publ_section_title
;
Structure prediction by ZEFSAII (Michael W. Deem and Ramdas Pophale) SiO2 
 PCOD8098224
Probable space group: C 2/M
;
_chemical_formula_sum "Si O2"
_cell_formula_units_Z 52
_cell_length_a 15.778274
_cell_length_b 9.691097
_cell_length_c 15.978350
_cell_angle_alpha 90.000000
_cell_angle_beta 87.455609
_cell_angle_gamma 90.000000
_cell_volume 2440.821351
_symmetry_space_group_name_H-M "C 2/M"
_symmetry_group_IT_number 12
_symmetry_cell_setting 'monoclinic'
loop_
_space_group_symop_operation_xyz
x,y,z
-x,y,-z
-x,-y,-z
x,-y,z
1/2+x,1/2+y,z
1/2-x,1/2+y,-z
1/2-x,1/2-y,-z
1/2+x,1/2-y,z
loop_
_atom_site_type_symbol
_atom_site_label
_atom_site_fract_x
_atom_site_fract_y
_atom_site_fract_z
Si Si1 0.143326 0.662377 0.580515
Si Si2 0.834460 0.158934 0.583403
Si Si3 0.151461 0.351356 0.068193
Si Si4 0.500000 0.274723 0.000000
Si Si5 0.778149 0.347575 0.121476
Si Si6 0.499615 0.657081 0.324676
Si Si7 0.085241 0.148803 0.836812
O O1 0.121150 0.500000 0.572886
O O2 0.144976 0.732607 0.489815
O O3 0.237007 0.681346 0.619158
O O4 0.069480 0.738235 0.634715
O O5 0.903333 0.191023 0.653366
O O6 0.844128 0.000000 0.551408
O O7 0.163172 0.500000 0.110917
O O8 0.052708 0.322227 0.060209
O O9 0.190656 0.236970 0.127941
O O10 0.193724 0.353890 0.975356
O O11 0.556075 0.365876 0.934992
O O12 0.763467 0.500000 0.159669
O O13 0.847157 0.271388 0.176220
O O14 0.477348 0.500000 0.353532
O O15 0.492371 0.673518 0.224224
O O16 0.128119 0.000000 0.814979
#
# Coordination Sequence:
#
# PCOD8098224 Si02
#       7
#     8   8   8   4   8   8   8
#     4  10  20  35  59  91 122 153 192 239 286 341
#     4   9  19  37  60  86 119 158 195 230 282 352
#     4   9  17  31  52  75 100 130 170 223 281 338
#     4  10  20  34  56  82 106 140 194 246 290 338
#     4   9  18  32  51  74  99 132 174 222 277 337
#     4  10  21  38  58  82 117 159 197 237 294 354
#     4  10  21  37  56  77 108 147 192 242 292 348
#
# _framework density 21.304303999999998
#
# number of rings (size 3 to 8) (size 9 to 14) (size 15 to 20)
#    0.000    2.462    0.000    1.846    0.000    8.615 
#    2.769    0.000    0.000    0.000    0.000    0.000 
#    0.000    0.000    0.000    0.000    0.000    0.000 
#
# Total GULP energy -322131.178122 kJ/mol
# GULP energy per Si atom -12389.660697 kJ/mol
# Density = 2.125581 g / cm^3
# Si number density = 21.304304 Si / 1000 Ang^3
#
#
#
# Elastic Constant Matrix: (Units=GPa)
#
#
# Indices 1 2 3 4 5 6 
#
# 1 121.8409 64.0603 38.9205 0.0000 43.0214 0.0000
# 2 64.0603 162.9676 37.4138 0.0000 31.6045 0.0000
# 3 38.9205 37.4138 65.0139 0.0000 27.6025 0.0000
# 4 0.0000 0.0000 0.0000 22.4073 0.0000 7.5093
# 5 43.0214 31.6045 27.6025 0.0000 39.5140 0.0000
# 6 0.0000 0.0000 0.0000 7.5093 0.0000 25.6345
#
#
#
# Elastic Compliance Matrix: (Units=1/GPa)
#
#
# Indices 1 2 3 4 5 6 
#
# 1 0.014725 -0.002964 -0.001861 0.000000 -0.012361 0.000000
# 2 -0.002964 0.008141 -0.002155 0.000000 -0.001779 0.000000
# 3 -0.001861 -0.002155 0.022950 0.000000 -0.012281 0.000000
# 4 0.000000 0.000000 0.000000 0.049487 0.000000 -0.014496
# 5 -0.012361 -0.001779 -0.012281 0.000000 0.048768 0.000000
# 6 0.000000 0.000000 0.000000 -0.014496 0.000000 0.043256
#
#
# Mechanical properties :
#
#
# Convention : Reuss Voigt Hill
#
# Bulk Modulus (GPa) = 31.39207 70.06794 50.73000
# Shear Modulus (GPa) = 23.59531 31.47301 27.53416
#
# Velocity S-wave (km/s) = 3.33158 3.84775 3.59893
# Velocity P-wave (km/s) = 5.43749 7.25952 6.41354
#
# Compressibility (1/GPa) = 0.03185518
#
# Stress axis : x y z
#
# Youngs Moduli (GPa) = 67.91220 122.83507 43.57254
#
# Poissons Ratio (x) = 0.36403 0.08111
# Poissons Ratio (y) = 0.20126 0.09392
# Poissons Ratio (z) = 0.12641 0.26477
#
# Static dielectric constant tensor:
#      x y z
#    x 3.944000 0.000000 0.309260 
#    y 0.000000 4.102410 0.000000 
#    z 0.309260 0.000000 3.520090 
# 
# 
# High freq. dielectric constant tensor:
#      x y z
#    x 1.830490 0.000000 0.028270 
#    y 0.000000 1.845620 0.000000 
#    z 0.028270 0.000000 1.801200 
# 
# From -- ./inp_files/274438.got.cif
#   From: 2010.06.25/outbox.cif.g09.slc.cpg/sg12_138_cif.got.tgz:274438.got - 2010.06.28 00:19:55.
