data_PCOD8098401
_publ_section_title
;
Structure prediction by ZEFSAII (Michael W. Deem and Ramdas Pophale) SiO2 
 PCOD8098401
Probable space group: C 2/M
;
_chemical_formula_sum "Si O2"
_cell_formula_units_Z 64
_cell_length_a 30.585612
_cell_length_b 8.929254
_cell_length_c 16.590237
_cell_angle_alpha 90.000000
_cell_angle_beta 135.794568
_cell_angle_gamma 90.000000
_cell_volume 3159.096687
_symmetry_space_group_name_H-M "C 2/M"
_symmetry_group_IT_number 12
_symmetry_cell_setting 'monoclinic'
loop_
_space_group_symop_operation_xyz
x,y,z
-x,y,-z
-x,-y,-z
x,-y,z
1/2+x,1/2+y,z
1/2-x,1/2+y,-z
1/2-x,1/2-y,-z
1/2+x,1/2-y,z
loop_
_atom_site_type_symbol
_atom_site_label
_atom_site_fract_x
_atom_site_fract_y
_atom_site_fract_z
Si Si1 0.221206 0.826933 0.637784
Si Si2 0.494312 0.823882 0.244717
Si Si3 0.119665 0.172403 0.371061
Si Si4 0.094563 0.674073 0.015189
Si Si5 0.325405 0.827279 0.267347
Si Si6 0.188875 0.168780 0.032137
Si Si7 0.148301 0.176694 0.229091
Si Si8 0.102977 0.826865 0.771418
O O1 0.182923 0.806208 0.504853
O O2 0.180749 0.757131 0.656295
O O3 0.286476 0.742885 0.715211
O O4 0.234433 0.000000 0.673969
O O5 0.565904 0.772794 0.339759
O O6 0.459047 0.742712 0.271118
O O7 0.488905 0.000000 0.251846
O O8 0.463635 0.777908 0.118198
O O9 0.133311 0.231377 0.299244
O O10 0.097544 0.000000 0.341280
O O11 0.093167 0.500000 0.033792
O O12 0.158905 0.713315 0.054145
O O13 0.092728 0.764205 0.097101
O O14 0.263124 0.807437 0.130988
O O15 0.382877 0.755728 0.293895
O O16 0.340467 0.000000 0.304575
O O17 0.171345 0.000000 0.037535
O O18 0.162869 0.197310 0.908473
O O19 0.153138 0.000000 0.230674
O O20 0.090052 0.000000 0.736544
#
# Coordination Sequence:
#
# PCOD8098401 Si02
#       8
#     8   8   8   8   8   8   8   8
#     4  11  23  40  61  87 118 152 194 242 293 346
#     4  10  22  40  61  86 118 155 197 242 289 341
#     4  10  24  43  62  84 113 154 199 243 292 347
#     4  10  20  34  56  87 121 155 190 236 288 345
#     4  11  21  34  55  86 120 153 193 237 287 345
#     4   9  18  32  52  81 118 156 190 230 284 344
#     4  11  22  38  61  89 119 151 191 239 295 351
#     4  10  20  35  57  84 117 157 195 234 286 344
#
# _framework density 20.258955
#
# number of rings (size 3 to 8) (size 9 to 14) (size 15 to 20)
#    0.000    1.750    1.250    3.000    0.000    5.000 
#    0.000    3.125    0.000    3.750    0.000    0.000 
#    0.000    0.000    0.000    0.000    0.000    0.000 
#
# Total GULP energy -396932.575850 kJ/mol
# GULP energy per Si atom -12404.142995 kJ/mol
# Density = 2.021284 g / cm^3
# Si number density = 20.258955 Si / 1000 Ang^3
#
#
#
# Elastic Constant Matrix: (Units=GPa)
#
#
# Indices 1 2 3 4 5 6 
#
# 1 72.4834 24.1086 13.9247 0.0000 -13.5997 0.0000
# 2 24.1086 81.8768 13.2316 0.0000 -4.0371 0.0000
# 3 13.9247 13.2316 27.2524 0.0000 -2.2724 0.0000
# 4 0.0000 0.0000 0.0000 29.7656 0.0000 -0.8531
# 5 -13.5997 -4.0371 -2.2724 0.0000 28.2976 0.0000
# 6 0.0000 0.0000 0.0000 -0.8531 0.0000 31.9257
#
#
#
# Elastic Compliance Matrix: (Units=1/GPa)
#
#
# Indices 1 2 3 4 5 6 
#
# 1 0.017719 -0.003784 -0.006595 0.000000 0.007446 0.000000
# 2 -0.003784 0.014116 -0.004937 0.000000 -0.000201 0.000000
# 3 -0.006595 -0.004937 0.042422 0.000000 -0.000467 0.000000
# 4 0.000000 0.000000 0.000000 0.033622 0.000000 0.000898
# 5 0.007446 -0.000201 -0.000467 0.000000 0.038851 0.000000
# 6 0.000000 0.000000 0.000000 0.000898 0.000000 0.031347
#
#
# Mechanical properties :
#
#
# Convention : Reuss Voigt Hill
#
# Bulk Modulus (GPa) = 22.92322 31.57138 27.24730
# Shear Modulus (GPa) = 22.39644 26.68762 24.54203
#
# Velocity S-wave (km/s) = 3.32853 3.63343 3.48432
# Velocity P-wave (km/s) = 5.10997 5.76370 5.44665
#
# Compressibility (1/GPa) = 0.04362388
#
# Stress axis : x y z
#
# Youngs Moduli (GPa) = 56.43626 70.84351 23.57281
#
# Poissons Ratio (x) = 0.26810 0.15547
# Poissons Ratio (y) = 0.21358 0.11637
# Poissons Ratio (z) = 0.37222 0.34972
#
# Static dielectric constant tensor:
#      x y z
#    x 3.491360 0.000000 -0.168700 
#    y 0.000000 3.707780 0.000000 
#    z -0.168700 0.000000 3.678800 
# 
# 
# High freq. dielectric constant tensor:
#      x y z
#    x 1.783340 0.000000 -0.011080 
#    y 0.000000 1.799770 0.000000 
#    z -0.011080 0.000000 1.783540 
# 
# From -- ./inp_files/250052.got.cif
#   From: 2010.06.25/outbox.cif.g09.slc.cpg/sg12_126_cif.got.tgz:250052.got - 2010.06.28 00:19:55.
