data_PCOD8098999
_publ_section_title
;
Structure prediction by ZEFSAII (Michael W. Deem and Ramdas Pophale) SiO2 
 PCOD8098999
Probable space group: C 2/M
;
_chemical_formula_sum "Si O2"
_cell_formula_units_Z 56
_cell_length_a 30.353248
_cell_length_b 9.143857
_cell_length_c 23.861623
_cell_angle_alpha 90.000000
_cell_angle_beta 151.538762
_cell_angle_gamma 90.000000
_cell_volume 3156.137447
_symmetry_space_group_name_H-M "C 2/M"
_symmetry_group_IT_number 12
_symmetry_cell_setting 'monoclinic'
loop_
_space_group_symop_operation_xyz
x,y,z
-x,y,-z
-x,-y,-z
x,-y,z
1/2+x,1/2+y,z
1/2-x,1/2+y,-z
1/2-x,1/2-y,-z
1/2+x,1/2-y,z
loop_
_atom_site_type_symbol
_atom_site_label
_atom_site_fract_x
_atom_site_fract_y
_atom_site_fract_z
Si Si1 0.730485 0.329052 0.642312
Si Si2 0.257426 0.669840 0.788221
Si Si3 0.525508 0.330790 0.376315
Si Si4 0.610431 0.164371 0.261919
Si Si5 0.061134 0.331018 0.619227
Si Si6 0.000012 0.827186 0.220989
Si Si7 0.407621 0.834974 0.026208
O O1 0.743524 0.500000 0.671369
O O2 0.736221 0.234878 0.704256
O O3 0.633071 0.295799 0.504615
O O4 0.809693 0.273149 0.688567
O O5 0.281505 0.500000 0.808706
O O6 0.168880 0.694324 0.728434
O O7 0.343893 0.751388 0.911484
O O8 0.505229 0.500000 0.363164
O O9 0.461879 0.245649 0.348469
O O10 0.496745 0.281305 0.282030
O O11 0.596184 0.267223 0.300851
O O12 0.512378 0.162217 0.118402
O O13 0.636179 0.000000 0.310565
O O14 0.035319 0.500000 0.596808
O O15 0.000000 0.263766 0.500000
O O16 0.912542 0.750687 0.091680
O O17 0.995180 0.000000 0.207398
O O18 0.370543 0.000000 0.994270
#
# Coordination Sequence:
#
# PCOD8098999 Si02
#       7
#     8   8   8   8   8   8   8
#     4  10  20  35  54  81 113 146 181 220 267 323
#     4  11  22  36  56  82 110 140 179 227 275 319
#     4  10  21  35  57  84 111 143 181 223 269 320
#     4   8  18  35  54  78 109 146 185 217 263 321
#     4  10  21  38  56  79 111 142 175 222 275 324
#     4   9  18  35  55  80 112 142 179 226 268 311
#     4   9  19  37  57  78 107 147 184 220 266 319
#
# _framework density 17.743206000000001
#
# number of rings (size 3 to 8) (size 9 to 14) (size 15 to 20)
#    0.857    1.571    1.429    0.857    0.000    4.286 
#    0.000    3.571    0.000    0.000    0.000    0.000 
#    0.000    0.000    0.000    0.000    0.000    0.000 
#
# Total GULP energy -347070.854725 kJ/mol
# GULP energy per Si atom -12395.387669 kJ/mol
# Density = 1.770282 g / cm^3
# Si number density = 17.743206 Si / 1000 Ang^3
#
#
#
# Elastic Constant Matrix: (Units=GPa)
#
#
# Indices 1 2 3 4 5 6 
#
# 1 -9.2919 38.0411 -29.6705 0.0000 44.6213 0.0000
# 2 38.0411 79.5499 18.6244 0.0000 -12.8979 0.0000
# 3 -29.6705 18.6244 19.6806 0.0000 4.5800 0.0000
# 4 0.0000 0.0000 0.0000 28.1564 0.0000 -5.0676
# 5 44.6213 -12.8979 4.5800 0.0000 -7.7114 0.0000
# 6 0.0000 0.0000 0.0000 -5.0676 0.0000 28.6639
#
#
#
# Elastic Compliance Matrix: (Units=1/GPa)
#
#
# Indices 1 2 3 4 5 6 
#
# 1 0.004244 0.001553 -0.000160 0.000000 0.021864 0.000000
# 2 0.001553 0.011011 -0.005170 0.000000 -0.012502 0.000000
# 3 -0.000160 -0.005170 0.047149 0.000000 0.035726 0.000000
# 4 0.000000 0.000000 0.000000 0.036683 0.000000 0.006485
# 5 0.021864 -0.012502 0.035726 0.000000 0.038967 0.000000
# 6 0.000000 0.000000 0.000000 0.006485 0.000000 0.036034
#
#
# Mechanical properties :
#
#
# Convention : Reuss Voigt Hill
#
# Bulk Modulus (GPa) = 18.23109 15.99205 17.11157
# Shear Modulus (GPa) = 25.00931 14.01802 19.51367
#
# Velocity S-wave (km/s) = 3.75842 2.81383 3.31989
# Velocity P-wave (km/s) = 5.39737 4.42600 4.93564
#
# Compressibility (1/GPa) = 0.05485137
#
# Stress axis : x y z
#
# Youngs Moduli (GPa) = 235.63436 90.81434 21.20920
#
# Poissons Ratio (x) = -0.14103 0.00339
# Poissons Ratio (y) = -0.36593 0.10965
# Poissons Ratio (z) = 0.03763 0.46950
#
# Static dielectric constant tensor:
#      x y z
#    x 3.189440 0.000000 0.030650 
#    y 0.000000 3.305240 0.000000 
#    z 0.030650 0.000000 3.216590 
# 
# 
# High freq. dielectric constant tensor:
#      x y z
#    x 1.677280 0.000000 -0.000760 
#    y 0.000000 1.691430 0.000000 
#    z -0.000760 0.000000 1.679020 
# 
# From -- ./inp_files/329651.got.cif
#   From: 2010.06.25/outbox.cif.g09.slc.cpg/sg12_165_cif.got.tgz:329651.got - 2010.06.28 00:19:55.
