data_PCOD8098744
_publ_section_title
;
Structure prediction by ZEFSAII (Michael W. Deem and Ramdas Pophale) SiO2 
 PCOD8098744
Probable space group: C 2/M
;
_chemical_formula_sum "Si O2"
_cell_formula_units_Z 44
_cell_length_a 14.515656
_cell_length_b 29.495643
_cell_length_c 6.916443
_cell_angle_alpha 90.000000
_cell_angle_beta 127.911245
_cell_angle_gamma 90.000000
_cell_volume 2336.330370
_symmetry_space_group_name_H-M "C 2/M"
_symmetry_group_IT_number 12
_symmetry_cell_setting 'monoclinic'
loop_
_space_group_symop_operation_xyz
x,y,z
-x,y,-z
-x,-y,-z
x,-y,z
1/2+x,1/2+y,z
1/2-x,1/2+y,-z
1/2-x,1/2-y,-z
1/2+x,1/2-y,z
loop_
_atom_site_type_symbol
_atom_site_label
_atom_site_fract_x
_atom_site_fract_y
_atom_site_fract_z
Si Si1 0.879787 0.108854 0.437336
Si Si2 0.162661 0.814410 0.339552
Si Si3 0.747881 0.124961 0.878991
Si Si4 0.634634 0.447323 0.223938
Si Si5 0.000000 0.663610 0.500000
Si Si6 0.090552 0.284968 0.263077
O O1 0.907905 0.150512 0.618417
O O2 0.833918 0.068217 0.515998
O O3 0.000000 0.092256 0.500000
O O4 0.788422 0.122846 0.153841
O O5 0.188561 0.834420 0.158589
O O6 0.087396 0.769115 0.227796
O O7 0.281264 0.804352 0.610175
O O8 0.779532 0.077850 0.814998
O O9 0.607590 0.131611 0.703404
O O10 0.661938 0.500000 0.239108
O O11 0.500000 0.436027 0.000000
O O12 0.046536 0.700312 0.412027
O O13 0.000000 0.307844 0.000000
#
# Coordination Sequence:
#
# PCOD8098744 Si02
#       6
#     8   8   8   8   4   8
#     4  11  21  33  57  84 109 144 180 223 278 330
#     4   9  22  34  49  79 110 143 187 227 275 312
#     4  10  21  39  57  82 111 148 182 225 274 327
#     4  10  21  38  58  86 116 139 173 225 279 331
#     4  10  22  38  59  78 108 150 195 224 264 322
#     4  10  20  35  52  74 107 149 187 232 267 313
#
# _framework density 18.832953
#
# number of rings (size 3 to 8) (size 9 to 14) (size 15 to 20)
#    0.000    2.000    1.818    1.091    3.818    1.091 
#    0.000    5.909    0.000    1.091    0.000    0.000 
#    0.000    0.000    0.000    0.000    0.000    0.000 
#
# Total GULP energy -272699.011833 kJ/mol
# GULP energy per Si atom -12395.409629 kJ/mol
# Density = 1.879009 g / cm^3
# Si number density = 18.832953 Si / 1000 Ang^3
#
#
#
# Elastic Constant Matrix: (Units=GPa)
#
#
# Indices 1 2 3 4 5 6 
#
# 1 72.3605 27.6005 23.9496 0.0000 4.5736 0.0000
# 2 27.6005 103.3250 20.7825 0.0000 -0.6544 0.0000
# 3 23.9496 20.7825 113.3203 0.0000 6.8784 0.0000
# 4 0.0000 0.0000 0.0000 15.8515 0.0000 -0.6048
# 5 4.5736 -0.6544 6.8784 0.0000 29.0093 0.0000
# 6 0.0000 0.0000 0.0000 -0.6048 0.0000 -7.0033
#
#
#
# Elastic Compliance Matrix: (Units=1/GPa)
#
#
# Indices 1 2 3 4 5 6 
#
# 1 0.016276 -0.003835 -0.002613 0.000000 -0.002033 0.000000
# 2 -0.003835 0.010965 -0.001271 0.000000 0.001153 0.000000
# 3 -0.002613 -0.001271 0.009727 0.000000 -0.001923 0.000000
# 4 0.000000 0.000000 0.000000 0.062878 0.000000 -0.005431
# 5 -0.002033 0.001153 -0.001923 0.000000 0.035274 0.000000
# 6 0.000000 0.000000 0.000000 -0.005431 0.000000 -0.142321
#
#
# Mechanical properties :
#
#
# Convention : Reuss Voigt Hill
#
# Bulk Modulus (GPa) = 46.44530 48.18565 47.31548
# Shear Modulus (GPa) = 324.38564 22.01637 173.20100
#
# Velocity S-wave (km/s) = 13.13840 3.42282 9.60035
# Velocity P-wave (km/s) = 15.96471 6.42358 12.16829
#
# Compressibility (1/GPa) = 0.02153070
#
# Stress axis : x y z
#
# Youngs Moduli (GPa) = 61.44085 91.19548 102.81151
#
# Poissons Ratio (x) = 0.34973 0.26866
# Poissons Ratio (y) = 0.23562 0.13062
# Poissons Ratio (z) = 0.16055 0.11587
#
# Static dielectric constant tensor:
#      x y z
#    x 3.447530 0.000000 0.036640 
#    y 0.000000 3.343860 0.000000 
#    z 0.036640 0.000000 3.746530 
# 
# 
# High freq. dielectric constant tensor:
#      x y z
#    x 1.727530 0.000000 -0.004470 
#    y 0.000000 1.718820 0.000000 
#    z -0.004470 0.000000 1.739280 
# 
# From -- ./inp_files/12993.got.cif
#   From: 2010.06.25/outbox.cif.g09.slc.cpg/sg12_7_cif.got.tgz:12993.got - 2010.06.28 00:19:55.
