data_PCOD8098647
_publ_section_title
;
Structure prediction by ZEFSAII (Michael W. Deem and Ramdas Pophale) SiO2 
 PCOD8098647
Probable space group: C 2/M
;
_chemical_formula_sum "Si O2"
_cell_formula_units_Z 64
_cell_length_a 14.576828
_cell_length_b 15.159315
_cell_length_c 17.134219
_cell_angle_alpha 90.000000
_cell_angle_beta 130.593798
_cell_angle_gamma 90.000000
_cell_volume 2875.042023
_symmetry_space_group_name_H-M "C 2/M"
_symmetry_group_IT_number 12
_symmetry_cell_setting 'monoclinic'
loop_
_space_group_symop_operation_xyz
x,y,z
-x,y,-z
-x,-y,-z
x,-y,z
1/2+x,1/2+y,z
1/2-x,1/2+y,-z
1/2-x,1/2-y,-z
1/2+x,1/2-y,z
loop_
_atom_site_type_symbol
_atom_site_label
_atom_site_fract_x
_atom_site_fract_y
_atom_site_fract_z
Si Si1 0.516184 0.600365 0.291816
Si Si2 0.731641 0.605098 0.510971
Si Si3 0.972749 0.604571 0.569104
Si Si4 0.676858 0.715707 0.068281
Si Si5 0.746579 0.099775 0.162259
Si Si6 0.355855 0.861411 0.731666
Si Si7 0.549865 0.683078 0.153544
Si Si8 0.896207 0.598336 0.207059
O O1 0.515065 0.500000 0.315228
O O2 0.612745 0.646726 0.403580
O O3 0.383271 0.637289 0.237144
O O4 0.550366 0.606201 0.218593
O O5 0.729597 0.500000 0.505610
O O6 0.746369 0.634750 0.608780
O O7 0.845333 0.643751 0.526349
O O8 0.962952 0.500000 0.557181
O O9 0.077808 0.628635 0.689344
O O10 0.000000 0.647202 0.500000
O O11 0.675346 0.822544 0.077234
O O12 0.628021 0.665296 0.118983
O O13 0.805445 0.670590 0.119344
O O14 0.589242 0.699438 0.947051
O O15 0.693227 0.090236 0.218929
O O16 0.735810 0.000000 0.118321
O O17 0.390615 0.761954 0.766662
O O18 0.476658 0.909110 0.767916
O O19 0.838124 0.500000 0.171991
#
# Coordination Sequence:
#
# PCOD8098647 Si02
#       8
#     8   8   8   8   8   8   8   8
#     4  10  22  37  59  88 119 159 198 232 290 362
#     4   9  18  33  54  85 119 152 192 239 289 347
#     4   8  15  28  49  80 117 155 192 231 279 337
#     4  10  23  42  62  86 119 154 197 248 301 351
#     4  10  21  40  63  86 115 156 203 247 292 346
#     4  10  20  38  61  85 118 154 199 249 294 341
#     4  10  23  42  60  83 118 156 193 248 300 349
#     4  10  20  34  59  92 119 153 194 238 296 355
#
# _framework density 22.260543999999999
#
# number of rings (size 3 to 8) (size 9 to 14) (size 15 to 20)
#    0.000    2.375    0.000    2.625    1.750    4.000 
#    0.000   10.625    0.000    0.000    0.000    0.000 
#    0.000    0.000    0.000    0.000    0.000    0.000 
#
# Total GULP energy -396565.789056 kJ/mol
# GULP energy per Si atom -12392.680908 kJ/mol
# Density = 2.220988 g / cm^3
# Si number density = 22.260544 Si / 1000 Ang^3
#
#
#
# Elastic Constant Matrix: (Units=GPa)
#
#
# Indices 1 2 3 4 5 6 
#
# 1 64.2439 9.8738 15.6613 0.0000 2.3947 0.0000
# 2 9.8738 42.9865 12.2418 0.0000 2.1239 0.0000
# 3 15.6613 12.2418 104.0724 0.0000 10.1977 0.0000
# 4 0.0000 0.0000 0.0000 -1.8530 0.0000 11.7725
# 5 2.3947 2.1239 10.1977 0.0000 27.2686 0.0000
# 6 0.0000 0.0000 0.0000 11.7725 0.0000 17.4133
#
#
#
# Elastic Compliance Matrix: (Units=1/GPa)
#
#
# Indices 1 2 3 4 5 6 
#
# 1 0.016579 -0.003195 -0.002077 0.000000 -0.000430 0.000000
# 2 -0.003195 0.024704 -0.002350 0.000000 -0.000765 0.000000
# 3 -0.002077 -0.002350 0.010548 0.000000 -0.003579 0.000000
# 4 0.000000 0.000000 0.000000 -0.101917 0.000000 0.068902
# 5 -0.000430 -0.000765 -0.003579 0.000000 0.038108 0.000000
# 6 0.000000 0.000000 0.000000 0.068902 0.000000 0.010845
#
#
# Mechanical properties :
#
#
# Convention : Reuss Voigt Hill
#
# Bulk Modulus (GPa) = 27.33221 31.87297 29.60259
# Shear Modulus (GPa) = 190.05054 20.13418 105.09236
#
# Velocity S-wave (km/s) = 9.24991 3.01072 6.87842
# Velocity P-wave (km/s) = 11.24216 5.14151 8.74132
#
# Compressibility (1/GPa) = 0.03658686
#
# Stress axis : x y z
#
# Youngs Moduli (GPa) = 60.31679 40.47903 94.80116
#
# Poissons Ratio (x) = 0.12935 0.19689
# Poissons Ratio (y) = 0.19274 0.22279
# Poissons Ratio (z) = 0.12527 0.09513
#
# Static dielectric constant tensor:
#      x y z
#    x 4.228270 0.000000 0.087720 
#    y 0.000000 3.649810 0.000000 
#    z 0.087720 0.000000 4.212770 
# 
# 
# High freq. dielectric constant tensor:
#      x y z
#    x 1.874100 0.000000 0.000220 
#    y 0.000000 1.856700 0.000000 
#    z 0.000220 0.000000 1.877190 
# 
# From -- ./inp_files/270719.got.cif
#   From: 2010.06.25/outbox.cif.g09.slc.cpg/sg12_136_cif.got.tgz:270719.got - 2010.06.28 00:19:55.
