data_PCOD8098212
_publ_section_title
;
Structure prediction by ZEFSAII (Michael W. Deem and Ramdas Pophale) SiO2 
 PCOD8098212
Probable space group: C 2/M
;
_chemical_formula_sum "Si O2"
_cell_formula_units_Z 40
_cell_length_a 22.858233
_cell_length_b 8.501500
_cell_length_c 13.519229
_cell_angle_alpha 90.000000
_cell_angle_beta 54.026266
_cell_angle_gamma 90.000000
_cell_volume 2126.142473
_symmetry_space_group_name_H-M "C 2/M"
_symmetry_group_IT_number 12
_symmetry_cell_setting 'monoclinic'
loop_
_space_group_symop_operation_xyz
x,y,z
-x,y,-z
-x,-y,-z
x,-y,z
1/2+x,1/2+y,z
1/2-x,1/2+y,-z
1/2-x,1/2-y,-z
1/2+x,1/2-y,z
loop_
_atom_site_type_symbol
_atom_site_label
_atom_site_fract_x
_atom_site_fract_y
_atom_site_fract_z
Si Si1 0.398560 0.682480 0.650823
Si Si2 0.460498 0.183330 0.401472
Si Si3 0.253791 0.185137 0.106056
Si Si4 0.103055 0.816946 0.946802
Si Si5 0.962675 0.683914 0.175617
O O1 0.414200 0.500000 0.654364
O O2 0.456096 0.781862 0.656285
O O3 0.406800 0.720425 0.526193
O O4 0.319316 0.730564 0.764686
O O5 0.444180 0.234820 0.305558
O O6 0.446174 0.000000 0.431294
O O7 0.316833 0.268834 0.103609
O O8 0.267273 0.000000 0.090470
O O9 0.250000 0.250000 0.000000
O O10 0.090512 0.779312 0.843679
O O11 0.090945 0.000000 0.978509
O O12 0.046184 0.721991 0.070034
O O13 0.949956 0.500000 0.171544
#
# Coordination Sequence:
#
# PCOD8098212 Si02
#       5
#     8   8   8   8   8
#     4  10  21  35  54  79 108 140 176 218 263 313
#     4  10  20  34  56  81 106 139 177 217 264 313
#     4  11  23  38  56  80 109 142 177 218 268 318
#     4  11  22  35  55  82 109 141 179 220 265 317
#     4  10  20  36  57  80 108 142 178 221 266 313
#
# _framework density 18.813414999999999
#
# number of rings (size 3 to 8) (size 9 to 14) (size 15 to 20)
#    0.000    1.600    0.000    7.800    0.000    9.600 
#    0.000    1.000    0.000    0.000    0.000    0.000 
#    0.000    0.000    0.000    0.000    0.000    0.000 
#
# Total GULP energy -248079.110744 kJ/mol
# GULP energy per Si atom -12403.955537 kJ/mol
# Density = 1.877059 g / cm^3
# Si number density = 18.813415 Si / 1000 Ang^3
#
#
#
# Elastic Constant Matrix: (Units=GPa)
#
#
# Indices 1 2 3 4 5 6 
#
# 1 107.7941 21.5684 71.8522 0.0000 2.5093 0.0000
# 2 21.5684 47.8868 22.9412 0.0000 6.2190 0.0000
# 3 71.8522 22.9412 117.8264 0.0000 9.1051 0.0000
# 4 0.0000 0.0000 0.0000 29.4397 0.0000 0.9942
# 5 2.5093 6.2190 9.1051 0.0000 29.4698 0.0000
# 6 0.0000 0.0000 0.0000 0.9942 0.0000 32.4284
#
#
#
# Elastic Compliance Matrix: (Units=1/GPa)
#
#
# Indices 1 2 3 4 5 6 
#
# 1 0.016093 -0.003031 -0.009391 0.000000 0.002171 0.000000
# 2 -0.003031 0.023972 -0.002508 0.000000 -0.004026 0.000000
# 3 -0.009391 -0.002508 0.014957 0.000000 -0.003292 0.000000
# 4 0.000000 0.000000 0.000000 0.034003 0.000000 -0.001043
# 5 0.002171 -0.004026 -0.003292 0.000000 0.035615 0.000000
# 6 0.000000 0.000000 0.000000 -0.001043 0.000000 0.030869
#
#
# Mechanical properties :
#
#
# Convention : Reuss Voigt Hill
#
# Bulk Modulus (GPa) = 39.74397 56.24787 47.99592
# Shear Modulus (GPa) = 25.80564 28.74394 27.27479
#
# Velocity S-wave (km/s) = 3.70761 3.91300 3.81169
# Velocity P-wave (km/s) = 6.28488 7.09775 6.70365
#
# Compressibility (1/GPa) = 0.02516105
#
# Stress axis : x y z
#
# Youngs Moduli (GPa) = 62.13969 41.71516 66.85992
#
# Poissons Ratio (x) = 0.12644 0.62789
# Poissons Ratio (y) = 0.18835 0.16768
# Poissons Ratio (z) = 0.58357 0.10462
#
# Static dielectric constant tensor:
#      x y z
#    x 3.455310 0.000000 0.132420 
#    y 0.000000 3.668820 0.000000 
#    z 0.132420 0.000000 3.566790 
# 
# 
# High freq. dielectric constant tensor:
#      x y z
#    x 1.726750 0.000000 0.012210 
#    y 0.000000 1.746490 0.000000 
#    z 0.012210 0.000000 1.730710 
# 
# From -- ./inp_files/229643.got.cif
#   From: 2010.06.25/outbox.cif.g09.slc.cpg/sg12_115_cif.got.tgz:229643.got - 2010.06.28 00:19:55.
