data_PCOD8098544
_publ_section_title
;
Structure prediction by ZEFSAII (Michael W. Deem and Ramdas Pophale) SiO2 
 PCOD8098544
Probable space group: C 2/M
;
_chemical_formula_sum "Si O2"
_cell_formula_units_Z 56
_cell_length_a 15.016367
_cell_length_b 8.544617
_cell_length_c 21.215936
_cell_angle_alpha 90.000000
_cell_angle_beta 87.023263
_cell_angle_gamma 90.000000
_cell_volume 2718.524698
_symmetry_space_group_name_H-M "C 2/M"
_symmetry_group_IT_number 12
_symmetry_cell_setting 'monoclinic'
loop_
_space_group_symop_operation_xyz
x,y,z
-x,y,-z
-x,-y,-z
x,-y,z
1/2+x,1/2+y,z
1/2-x,1/2+y,-z
1/2-x,1/2-y,-z
1/2+x,1/2-y,z
loop_
_atom_site_type_symbol
_atom_site_label
_atom_site_fract_x
_atom_site_fract_y
_atom_site_fract_z
Si Si1 0.336435 0.315555 0.572815
Si Si2 0.329977 0.316924 0.141566
Si Si3 0.136966 0.314610 0.559978
Si Si4 0.850776 0.816007 0.881746
Si Si5 0.520166 0.184956 0.345650
Si Si6 0.507810 0.816203 0.796080
Si Si7 0.395751 0.181293 0.010955
O O1 0.340567 0.500000 0.571460
O O2 0.234138 0.255909 0.579578
O O3 0.384454 0.250660 0.508533
O O4 0.387146 0.253203 0.632320
O O5 0.333981 0.500000 0.155883
O O6 0.230138 0.253277 0.156478
O O7 0.391498 0.225240 0.188965
O O8 0.360501 0.284657 0.069364
O O9 0.133735 0.500000 0.556585
O O10 0.063009 0.248929 0.610833
O O11 0.943116 0.778534 0.844309
O O12 0.840359 0.000000 0.890901
O O13 0.845686 0.734618 0.949936
O O14 0.508552 0.239914 0.274450
O O15 0.523248 0.000000 0.350313
O O16 0.490659 0.000000 0.805719
O O17 0.374727 0.000000 0.025428
O O18 0.500000 0.212088 0.000000
#
# Coordination Sequence:
#
# PCOD8098544 Si02
#       7
#     8   8   8   8   8   8   8
#     4  10  20  34  57  89 120 150 193 245 290 342
#     4  12  25  42  65  92 123 159 202 249 304 362
#     4   9  19  37  58  83 117 156 193 234 293 353
#     4  12  25  42  65  91 122 160 202 248 304 363
#     4  10  22  39  60  83 115 158 197 238 292 355
#     4  11  24  43  62  87 121 159 206 254 302 357
#     4  11  22  39  66  94 125 158 195 248 305 359
#
# _framework density 20.599409000000001
#
# number of rings (size 3 to 8) (size 9 to 14) (size 15 to 20)
#    0.000    1.286    1.429    4.714    0.000    5.714 
#    0.000    1.429    0.000    0.000    0.000    0.000 
#    0.000    0.000    0.000    0.000    0.000    0.000 
#
# Total GULP energy -347386.260543 kJ/mol
# GULP energy per Si atom -12406.652162 kJ/mol
# Density = 2.055252 g / cm^3
# Si number density = 20.599409 Si / 1000 Ang^3
#
#
#
# Elastic Constant Matrix: (Units=GPa)
#
#
# Indices 1 2 3 4 5 6 
#
# 1 83.6631 18.8617 31.1464 0.0000 29.3509 0.0000
# 2 18.8617 36.0484 14.2759 0.0000 0.1614 0.0000
# 3 31.1464 14.2759 90.3947 0.0000 22.3065 0.0000
# 4 0.0000 0.0000 0.0000 26.3849 0.0000 5.5523
# 5 29.3509 0.1614 22.3065 0.0000 29.7828 0.0000
# 6 0.0000 0.0000 0.0000 5.5523 0.0000 34.7174
#
#
#
# Elastic Compliance Matrix: (Units=1/GPa)
#
#
# Indices 1 2 3 4 5 6 
#
# 1 0.022229 -0.011300 -0.000594 0.000000 -0.021401 0.000000
# 2 -0.011300 0.035749 -0.005462 0.000000 0.015033 0.000000
# 3 -0.000594 -0.005462 0.014694 0.000000 -0.010391 0.000000
# 4 0.000000 0.000000 0.000000 0.039220 0.000000 -0.006272
# 5 -0.021401 0.015033 -0.010391 0.000000 0.062368 0.000000
# 6 0.000000 0.000000 0.000000 -0.006272 0.000000 0.029807
#
#
# Mechanical properties :
#
#
# Convention : Reuss Voigt Hill
#
# Bulk Modulus (GPa) = 26.34319 37.63047 31.98683
# Shear Modulus (GPa) = 19.88607 27.89852 23.89229
#
# Velocity S-wave (km/s) = 3.11041 3.68412 3.40936
# Velocity P-wave (km/s) = 5.07106 6.03361 5.57315
#
# Compressibility (1/GPa) = 0.03796047
#
# Stress axis : x y z
#
# Youngs Moduli (GPa) = 44.98568 27.97295 68.05590
#
# Poissons Ratio (x) = 0.31610 0.04040
# Poissons Ratio (y) = 0.50835 0.37172
# Poissons Ratio (z) = 0.02670 0.15279
#
# Static dielectric constant tensor:
#      x y z
#    x 4.039620 0.000000 0.086380 
#    y 0.000000 3.628230 0.000000 
#    z 0.086380 0.000000 3.721440 
# 
# 
# High freq. dielectric constant tensor:
#      x y z
#    x 1.821620 0.000000 0.008880 
#    y 0.000000 1.806330 0.000000 
#    z 0.008880 0.000000 1.798320 
# 
# From -- ./inp_files/308949.got.cif
#   From: 2010.06.25/outbox.cif.g09.slc.cpg/sg12_155_cif.got.tgz:308949.got - 2010.06.28 00:19:55.
