data_PCOD8098396
_publ_section_title
;
Structure prediction by ZEFSAII (Michael W. Deem and Ramdas Pophale) SiO2 
 PCOD8098396
Probable space group: C 2/M
;
_chemical_formula_sum "Si O2"
_cell_formula_units_Z 64
_cell_length_a 29.424462
_cell_length_b 8.809227
_cell_length_c 15.037571
_cell_angle_alpha 90.000000
_cell_angle_beta 59.059654
_cell_angle_gamma 90.000000
_cell_volume 3343.189459
_symmetry_space_group_name_H-M "C 2/M"
_symmetry_group_IT_number 12
_symmetry_cell_setting 'monoclinic'
loop_
_space_group_symop_operation_xyz
x,y,z
-x,y,-z
-x,-y,-z
x,-y,z
1/2+x,1/2+y,z
1/2-x,1/2+y,-z
1/2-x,1/2-y,-z
1/2+x,1/2-y,z
loop_
_atom_site_type_symbol
_atom_site_label
_atom_site_fract_x
_atom_site_fract_y
_atom_site_fract_z
Si Si1 0.251079 0.679310 0.227227
Si Si2 0.858430 0.678321 0.074708
Si Si3 0.553196 0.321190 0.493833
Si Si4 0.911750 0.322821 0.835987
Si Si5 0.467158 0.180039 0.301964
Si Si6 0.727521 0.174247 0.609590
Si Si7 0.145688 0.821830 0.266911
Si Si8 0.392103 0.173346 0.227700
O O1 0.253722 0.500000 0.229012
O O2 0.301916 0.740205 0.122312
O O3 0.248126 0.744239 0.329377
O O4 0.199359 0.730060 0.226150
O O5 0.846799 0.500000 0.099861
O O6 0.889395 0.743761 0.130759
O O7 0.894108 0.712225 0.953924
O O8 0.500000 0.259411 0.500000
O O9 0.549460 0.500000 0.510847
O O10 0.559888 0.244802 0.582585
O O11 0.603349 0.273411 0.384275
O O12 0.905024 0.500000 0.819335
O O13 0.876409 0.221791 0.807124
O O14 0.972125 0.268682 0.765619
O O15 0.436013 0.249825 0.247711
O O16 0.461342 0.000000 0.310370
O O17 0.750000 0.250000 0.500000
O O18 0.664531 0.191431 0.668657
O O19 0.745328 0.000000 0.595821
O O20 0.157369 0.000000 0.258186
O O21 0.408914 0.000000 0.199725
#
# Coordination Sequence:
#
# PCOD8098396 Si02
#       8
#     8   8   8   8   8   8   8   8
#     4  11  23  39  59  84 113 146 191 242 290 342
#     4   9  19  39  61  81 114 152 188 234 284 341
#     4  10  21  38  56  78 111 152 190 228 281 341
#     4  10  21  36  58  87 114 147 191 236 284 338
#     4  10  20  34  56  87 117 147 186 232 282 334
#     4  10  20  36  56  82 116 154 194 235 282 337
#     4  11  23  39  59  82 113 152 191 234 287 346
#     4   8  17  34  55  81 113 148 185 227 276 330
#
# _framework density 19.143395999999999
#
# number of rings (size 3 to 8) (size 9 to 14) (size 15 to 20)
#    0.000    2.125    1.250    2.625    1.750    2.750 
#    0.000    5.000    0.000    0.000    0.000    5.250 
#    0.000    0.000    0.000    0.000    0.000    0.000 
#
# Total GULP energy -396849.137543 kJ/mol
# GULP energy per Si atom -12401.535548 kJ/mol
# Density = 1.909982 g / cm^3
# Si number density = 19.143396 Si / 1000 Ang^3
#
#
#
# Elastic Constant Matrix: (Units=GPa)
#
#
# Indices 1 2 3 4 5 6 
#
# 1 117.5229 26.7582 31.1595 0.0000 20.9483 0.0000
# 2 26.7582 64.2886 30.7941 0.0000 5.2647 0.0000
# 3 31.1595 30.7941 109.6445 0.0000 15.3422 0.0000
# 4 0.0000 0.0000 0.0000 26.3968 0.0000 3.5400
# 5 20.9483 5.2647 15.3422 0.0000 19.6111 0.0000
# 6 0.0000 0.0000 0.0000 3.5400 0.0000 21.5516
#
#
#
# Elastic Compliance Matrix: (Units=1/GPa)
#
#
# Indices 1 2 3 4 5 6 
#
# 1 0.011409 -0.003509 -0.000767 0.000000 -0.010644 0.000000
# 2 -0.003509 0.019069 -0.004679 0.000000 0.002290 0.000000
# 3 -0.000767 -0.004679 0.011636 0.000000 -0.007027 0.000000
# 4 0.000000 0.000000 0.000000 0.038737 0.000000 -0.006363
# 5 -0.010644 0.002290 -0.007027 0.000000 0.067245 0.000000
# 6 0.000000 0.000000 0.000000 -0.006363 0.000000 0.047445
#
#
# Mechanical properties :
#
#
# Convention : Reuss Voigt Hill
#
# Bulk Modulus (GPa) = 41.31700 52.09774 46.70737
# Shear Modulus (GPa) = 22.57149 27.02820 24.79984
#
# Velocity S-wave (km/s) = 3.43749 3.76158 3.60318
# Velocity P-wave (km/s) = 6.11432 6.79261 6.46237
#
# Compressibility (1/GPa) = 0.02420311
#
# Stress axis : x y z
#
# Youngs Moduli (GPa) = 87.65200 52.44084 85.94202
#
# Poissons Ratio (x) = 0.18404 0.06593
# Poissons Ratio (y) = 0.30761 0.40210
# Poissons Ratio (z) = 0.06724 0.24535
#
# Static dielectric constant tensor:
#      x y z
#    x 3.727150 0.000000 0.094760 
#    y 0.000000 3.357570 0.000000 
#    z 0.094760 0.000000 3.524740 
# 
# 
# High freq. dielectric constant tensor:
#      x y z
#    x 1.752740 0.000000 0.005360 
#    y 0.000000 1.727480 0.000000 
#    z 0.005360 0.000000 1.750000 
# 
# From -- ./inp_files/243766.got.cif
#   From: 2010.06.25/outbox.cif.g09.slc.cpg/sg12_122_cif.got.tgz:243766.got - 2010.06.28 00:19:55.
