data_PCOD8098048
_publ_section_title
;
Structure prediction by ZEFSAII (Michael W. Deem and Ramdas Pophale) SiO2 
 PCOD8098048
Probable space group: C 2/M
;
_chemical_formula_sum "Si O2"
_cell_formula_units_Z 64
_cell_length_a 32.128209
_cell_length_b 8.697396
_cell_length_c 16.131561
_cell_angle_alpha 90.000000
_cell_angle_beta 46.640509
_cell_angle_gamma 90.000000
_cell_volume 3277.348079
_symmetry_space_group_name_H-M "C 2/M"
_symmetry_group_IT_number 12
_symmetry_cell_setting 'monoclinic'
loop_
_space_group_symop_operation_xyz
x,y,z
-x,y,-z
-x,-y,-z
x,-y,z
1/2+x,1/2+y,z
1/2-x,1/2+y,-z
1/2-x,1/2-y,-z
1/2+x,1/2-y,z
loop_
_atom_site_type_symbol
_atom_site_label
_atom_site_fract_x
_atom_site_fract_y
_atom_site_fract_z
Si Si1 0.260570 0.678263 0.397326
Si Si2 0.927412 0.681306 0.363107
Si Si3 0.875229 0.676094 0.258092
Si Si4 0.829174 0.819480 0.602673
Si Si5 0.669029 0.320429 0.069907
Si Si6 0.214542 0.322267 0.171439
Si Si7 0.546320 0.319412 0.165923
Si Si8 0.942507 0.166214 0.035408
O O1 0.244434 0.500000 0.417640
O O2 0.250000 0.750000 0.500000
O O3 0.326781 0.708506 0.291033
O O4 0.223137 0.763047 0.380877
O O5 0.927899 0.500000 0.368696
O O6 0.900639 0.733766 0.311242
O O7 0.888901 0.746066 0.490604
O O8 0.992442 0.739827 0.284600
O O9 0.854401 0.500000 0.293959
O O10 0.918935 0.694948 0.123426
O O11 0.814209 0.777316 0.717225
O O12 0.835824 0.000000 0.585294
O O13 0.671256 0.500000 0.091159
O O14 0.681711 0.217275 0.132073
O O15 0.606384 0.270317 0.124741
O O16 0.717401 0.286788 0.933249
O O17 0.205255 0.500000 0.206245
O O18 0.536299 0.500000 0.186123
O O19 0.548630 0.264189 0.067927
O O20 0.908180 0.000000 0.077159
O O21 0.000000 0.118080 0.000000
#
# Coordination Sequence:
#
# PCOD8098048 Si02
#       8
#     8   8   8   8   8   8   8   8
#     4  12  24  39  59  84 118 158 203 249 296 353
#     4  11  23  39  59  84 121 163 204 252 302 354
#     4  11  23  37  54  80 117 160 203 251 300 349
#     4  12  25  41  63  90 121 160 203 249 301 362
#     4   9  20  40  65  92 123 158 195 243 305 366
#     4  10  21  40  66  94 124 156 195 247 302 362
#     4  10  21  38  60  88 120 160 206 250 302 362
#     4  10  20  34  55  82 116 159 204 245 294 353
#
# _framework density 19.527985000000001
#
# number of rings (size 3 to 8) (size 9 to 14) (size 15 to 20)
#    0.000    1.375    2.500    3.375    1.750    2.750 
#    0.000    0.625    0.000    3.750    0.000    0.000 
#    0.000    0.000    0.000    0.000    0.000    0.000 
#
# Total GULP energy -396691.323197 kJ/mol
# GULP energy per Si atom -12396.603850 kJ/mol
# Density = 1.948354 g / cm^3
# Si number density = 19.527985 Si / 1000 Ang^3
#
#
#
# Elastic Constant Matrix: (Units=GPa)
#
#
# Indices 1 2 3 4 5 6 
#
# 1 103.5166 33.1716 53.3001 0.0000 -17.8892 0.0003
# 2 33.1716 74.9740 44.7123 -0.0001 -7.1053 0.0001
# 3 53.3001 44.7123 129.5636 -0.0001 -8.7596 0.0000
# 4 0.0000 -0.0001 -0.0001 37.1519 -0.0001 -0.5700
# 5 -17.8892 -7.1053 -8.7596 -0.0001 30.2231 0.0000
# 6 0.0003 0.0001 0.0000 -0.5700 0.0000 29.0422
#
#
#
# Elastic Compliance Matrix: (Units=1/GPa)
#
#
# Indices 1 2 3 4 5 6 
#
# 1 0.013904 -0.003020 -0.004253 0.000000 0.006287 0.000000
# 2 -0.003020 0.017610 -0.004769 0.000000 0.000970 0.000000
# 3 -0.004253 -0.004769 0.011085 0.000000 -0.000426 0.000000
# 4 0.000000 0.000000 0.000000 0.026925 0.000000 0.000528
# 5 0.006287 0.000970 -0.000426 0.000000 0.036914 0.000000
# 6 0.000000 0.000000 0.000000 0.000528 0.000000 0.034443
#
#
# Mechanical properties :
#
#
# Convention : Reuss Voigt Hill
#
# Bulk Modulus (GPa) = 54.00856 63.38025 58.69440
# Shear Modulus (GPa) = 29.21647 31.07479 30.14563
#
# Velocity S-wave (km/s) = 3.87218 3.99343 3.93328
# Velocity P-wave (km/s) = 6.90716 7.33416 7.12386
#
# Compressibility (1/GPa) = 0.01851558
#
# Stress axis : x y z
#
# Youngs Moduli (GPa) = 71.92056 56.78482 90.21301
#
# Poissons Ratio (x) = 0.17147 0.38365
# Poissons Ratio (y) = 0.21718 0.43027
# Poissons Ratio (z) = 0.30586 0.27083
#
# Static dielectric constant tensor:
#      x y z
#    x 3.320530 0.000000 -0.117580 
#    y 0.000000 3.479350 0.000000 
#    z -0.117580 0.000000 3.592950 
# 
# 
# High freq. dielectric constant tensor:
#      x y z
#    x 1.749360 0.000000 -0.007770 
#    y 0.000000 1.765760 0.000000 
#    z -0.007770 0.000000 1.766200 
# 
# From -- ./inp_files/249803.got.cif
#   From: 2010.06.25/outbox.cif.g09.slc.cpg/sg12_125_cif.got.tgz:249803.got - 2010.06.28 00:19:55.
