data_PCOD8098709
_publ_section_title
;
Structure prediction by ZEFSAII (Michael W. Deem and Ramdas Pophale) SiO2 
 PCOD8098709
Probable space group: C 2/M
;
_chemical_formula_sum "Si O2"
_cell_formula_units_Z 56
_cell_length_a 19.758789
_cell_length_b 9.141902
_cell_length_c 19.065612
_cell_angle_alpha 90.000000
_cell_angle_beta 66.157565
_cell_angle_gamma 90.000000
_cell_volume 3149.978418
_symmetry_space_group_name_H-M "C 2/M"
_symmetry_group_IT_number 12
_symmetry_cell_setting 'monoclinic'
loop_
_space_group_symop_operation_xyz
x,y,z
-x,y,-z
-x,-y,-z
x,-y,z
1/2+x,1/2+y,z
1/2-x,1/2+y,-z
1/2-x,1/2-y,-z
1/2+x,1/2-y,z
loop_
_atom_site_type_symbol
_atom_site_label
_atom_site_fract_x
_atom_site_fract_y
_atom_site_fract_z
Si Si1 0.177999 0.672636 0.210851
Si Si2 0.529586 0.826041 0.199019
Si Si3 0.377525 0.172342 0.326722
Si Si4 0.678480 0.832163 0.507302
Si Si5 0.444503 0.170275 0.966869
Si Si6 0.771330 0.670576 0.657968
Si Si7 0.723915 0.829293 0.941493
O O1 0.188608 0.500000 0.193723
O O2 0.096423 0.724521 0.221522
O O3 0.189647 0.718636 0.286557
O O4 0.239026 0.758544 0.141466
O O5 0.451963 0.763387 0.260651
O O6 0.544016 0.760308 0.115268
O O7 0.527298 0.000000 0.198584
O O8 0.384502 0.206725 0.408417
O O9 0.305520 0.244861 0.321952
O O10 0.371175 0.000000 0.315403
O O11 0.750000 0.750000 0.500000
O O12 0.666943 0.795367 0.429377
O O13 0.698056 0.000000 0.506956
O O14 0.462850 0.000000 0.952057
O O15 0.500000 0.243557 0.000000
O O16 0.363027 0.196896 0.030112
O O17 0.751064 0.500000 0.668173
O O18 0.743703 0.000000 0.938474
O O19 0.750000 0.750000 0.000000
#
# Coordination Sequence:
#
# PCOD8098709 Si02
#       7
#     8   8   8   8   8   8   8
#     4  10  20  35  51  70  99 134 165 197 242 294
#     4   9  17  31  48  68  97 130 161 199 245 287
#     4   9  17  29  51  75  96 124 167 210 239 282
#     4   8  14  27  45  70  97 125 159 198 243 289
#     4   9  18  31  49  72  96 124 158 196 240 287
#     4   9  18  31  49  71 101 132 159 197 250 298
#     4  11  21  35  56  76  97 129 165 201 241 289
#
# _framework density 17.777899999999999
#
# number of rings (size 3 to 8) (size 9 to 14) (size 15 to 20)
#    0.000    2.714    1.429    0.429    2.000    0.571 
#    0.000    1.429    0.000    6.000    0.000    0.000 
#    0.000   12.571    0.000    0.000    0.000    0.000 
#
# Total GULP energy -346908.188098 kJ/mol
# GULP energy per Si atom -12389.578146 kJ/mol
# Density = 1.773744 g / cm^3
# Si number density = 17.777900 Si / 1000 Ang^3
#
#
#
# Elastic Constant Matrix: (Units=GPa)
#
#
# Indices 1 2 3 4 5 6 
#
# 1 127.6899 25.8807 79.3405 0.0000 15.5444 0.0000
# 2 25.8807 29.6966 26.5644 0.0000 4.3818 0.0001
# 3 79.3405 26.5644 145.3795 0.0000 16.0323 0.0000
# 4 0.0000 0.0000 0.0000 23.2714 0.0000 -0.6670
# 5 15.5444 4.3818 16.0323 0.0000 32.0673 0.0000
# 6 0.0000 0.0001 0.0000 -0.6670 0.0000 17.8175
#
#
#
# Elastic Compliance Matrix: (Units=1/GPa)
#
#
# Indices 1 2 3 4 5 6 
#
# 1 0.012832 -0.005728 -0.005669 0.000000 -0.002603 0.000000
# 2 -0.005728 0.042923 -0.004632 0.000000 -0.000773 0.000000
# 3 -0.005669 -0.004632 0.011056 0.000000 -0.002146 0.000000
# 4 0.000000 0.000000 0.000000 0.043017 0.000000 0.001610
# 5 -0.002603 -0.000773 -0.002146 0.000000 0.033625 0.000000
# 6 0.000000 0.000000 0.000000 0.001610 0.000000 0.056185
#
#
# Mechanical properties :
#
#
# Convention : Reuss Voigt Hill
#
# Bulk Modulus (GPa) = 28.77475 62.92636 45.85055
# Shear Modulus (GPa) = 20.55244 26.02992 23.29118
#
# Velocity S-wave (km/s) = 3.40379 3.83060 3.62348
# Velocity P-wave (km/s) = 5.62748 7.41872 6.58429
#
# Compressibility (1/GPa) = 0.03475269
#
# Stress axis : x y z
#
# Youngs Moduli (GPa) = 77.93067 23.29748 90.45147
#
# Poissons Ratio (x) = 0.13344 0.51280
# Poissons Ratio (y) = 0.44636 0.41897
# Poissons Ratio (z) = 0.44182 0.10791
#
# Static dielectric constant tensor:
#      x y z
#    x 3.361710 0.000000 -0.050260 
#    y 0.000000 3.061690 0.000000 
#    z -0.050260 0.000000 5.251930 
# 
# 
# High freq. dielectric constant tensor:
#      x y z
#    x 1.672180 0.000000 0.009140 
#    y 0.000000 1.656180 0.000000 
#    z 0.009140 0.000000 1.709580 
# 
# From -- ./inp_files/313715.got.cif
#   From: 2010.06.25/outbox.cif.g09.slc.cpg/sg12_157_cif.got.tgz:313715.got - 2010.06.28 00:19:55.
