data_PCOD8098578
_publ_section_title
;
Structure prediction by ZEFSAII (Michael W. Deem and Ramdas Pophale) SiO2 
 PCOD8098578
Probable space group: C 2/M
;
_chemical_formula_sum "Si O2"
_cell_formula_units_Z 64
_cell_length_a 23.624158
_cell_length_b 17.448144
_cell_length_c 21.422010
_cell_angle_alpha 90.000000
_cell_angle_beta 19.979341
_cell_angle_gamma 90.000000
_cell_volume 3017.081222
_symmetry_space_group_name_H-M "C 2/M"
_symmetry_group_IT_number 12
_symmetry_cell_setting 'monoclinic'
loop_
_space_group_symop_operation_xyz
x,y,z
-x,y,-z
-x,-y,-z
x,-y,z
1/2+x,1/2+y,z
1/2-x,1/2+y,-z
1/2-x,1/2-y,-z
1/2+x,1/2-y,z
loop_
_atom_site_type_symbol
_atom_site_label
_atom_site_fract_x
_atom_site_fract_y
_atom_site_fract_z
Si Si1 0.848954 0.912346 0.919747
Si Si2 0.697474 0.689016 0.839938
Si Si3 0.387448 0.818982 0.763918
Si Si4 0.173804 0.356601 0.880162
Si Si5 0.477661 0.347324 0.661722
Si Si6 0.135858 0.413996 0.432450
Si Si7 0.180388 0.413233 0.742166
Si Si8 0.973573 0.915416 0.138106
O O1 0.939428 0.898792 0.761067
O O2 0.975302 0.893055 0.844971
O O3 0.787819 0.000000 0.985743
O O4 0.691762 0.854836 0.090884
O O5 0.748199 0.704019 0.858941
O O6 0.666762 0.775489 0.848846
O O7 0.831689 0.643682 0.659143
O O8 0.530550 0.639624 0.021943
O O9 0.489892 0.741692 0.671257
O O10 0.480176 0.887337 0.632816
O O11 0.331443 0.363066 0.762926
O O12 0.194858 0.417226 0.802424
O O13 0.994707 0.373736 0.098591
O O14 0.659613 0.367880 0.448969
O O15 0.108620 0.500000 0.434208
O O16 0.277259 0.412691 0.338197
O O17 0.184194 0.500000 0.712442
O O18 0.043774 0.000000 0.049429
#
# Coordination Sequence:
#
# PCOD8098578 Si02
#       8
#     8   8   8   8   8   8   8   8
#     4  10  21  41  62  81 115 161 204 249 300 353
#     4  10  20  34  58  84 118 159 197 241 297 360
#     4  10  22  38  57  85 122 154 199 253 300 351
#     4  10  23  40  62  94 126 153 195 251 307 361
#     4  11  23  42  66  90 118 162 206 245 302 363
#     4  11  21  33  55  89 122 160 202 243 298 362
#     4  11  24  40  62  93 124 155 194 250 311 364
#     4   9  20  35  53  82 119 156 197 245 292 344
#
# _framework density 21.212554000000001
#
# number of rings (size 3 to 8) (size 9 to 14) (size 15 to 20)
#    0.000    1.750    0.000    4.125    5.250    7.500 
#    2.250    0.625    0.000    0.000    0.000    0.000 
#    0.000    0.000    0.000    0.000    0.000    0.000 
#
# Total GULP energy -396534.487340 kJ/mol
# GULP energy per Si atom -12391.702729 kJ/mol
# Density = 2.116427 g / cm^3
# Si number density = 21.212554 Si / 1000 Ang^3
#
#
#
# Elastic Constant Matrix: (Units=GPa)
#
#
# Indices 1 2 3 4 5 6 
#
# 1 48.1861 17.3395 22.7753 -0.0234 7.4547 0.0000
# 2 17.3395 124.8988 37.8857 0.0283 -1.2894 -0.0072
# 3 22.7753 37.8857 129.9404 0.0242 1.0693 -0.0021
# 4 -0.0234 0.0283 0.0242 36.7314 0.0228 7.3824
# 5 7.4547 -1.2894 1.0693 0.0228 26.4179 -0.0043
# 6 0.0000 -0.0072 -0.0021 7.3824 -0.0043 19.5557
#
#
#
# Elastic Compliance Matrix: (Units=1/GPa)
#
#
# Indices 1 2 3 4 5 6 
#
# 1 0.024329 -0.002382 -0.003513 0.000026 -0.006839 -0.000013
# 2 -0.002382 0.009024 -0.002223 -0.000009 0.001203 0.000007
# 3 -0.003513 -0.002223 0.008956 -0.000007 0.000520 0.000003
# 4 0.000026 -0.000009 -0.000007 0.029460 -0.000035 -0.011121
# 5 -0.006839 0.001203 0.000520 -0.000035 0.039821 0.000022
# 6 -0.000013 0.000007 0.000003 -0.011121 0.000022 0.055334
#
#
# Mechanical properties :
#
#
# Convention : Reuss Voigt Hill
#
# Bulk Modulus (GPa) = 38.35796 51.00291 44.68043
# Shear Modulus (GPa) = 26.06178 31.54266 28.80222
#
# Velocity S-wave (km/s) = 3.50894 3.86032 3.68882
# Velocity P-wave (km/s) = 5.87698 6.63064 6.26515
#
# Compressibility (1/GPa) = 0.02607021
#
# Stress axis : x y z
#
# Youngs Moduli (GPa) = 41.10344 110.81467 111.66182
#
# Poissons Ratio (x) = 0.26401 0.39231
# Poissons Ratio (y) = 0.09793 0.24827
# Poissons Ratio (z) = 0.14441 0.24638
#
# Static dielectric constant tensor:
#      x y z
#    x 3.655540 -0.000090 -0.110660 
#    y -0.000090 4.182810 0.000210 
#    z -0.110660 0.000210 3.733170 
# 
# 
# High freq. dielectric constant tensor:
#      x y z
#    x 1.812550 -0.000010 -0.009070 
#    y -0.000010 1.846450 0.000010 
#    z -0.009070 0.000010 1.827470 
# 
# From -- ./inp_files/326074.got.cif
#   From: 2010.06.25/outbox.cif.g09.slc.cpg/sg12_164_cif.got.tgz:326074.got - 2010.06.28 00:19:55.
