data_PCOD8098651
_publ_section_title
;
Structure prediction by ZEFSAII (Michael W. Deem and Ramdas Pophale) SiO2 
 PCOD8098651
Probable space group: C 2/M
;
_chemical_formula_sum "Si O2"
_cell_formula_units_Z 40
_cell_length_a 8.995314
_cell_length_b 22.146184
_cell_length_c 11.853626
_cell_angle_alpha 90.000000
_cell_angle_beta 126.044366
_cell_angle_gamma 90.000000
_cell_volume 1909.323729
_symmetry_space_group_name_H-M "C 2/M"
_symmetry_group_IT_number 12
_symmetry_cell_setting 'monoclinic'
loop_
_space_group_symop_operation_xyz
x,y,z
-x,y,-z
-x,-y,-z
x,-y,z
1/2+x,1/2+y,z
1/2-x,1/2+y,-z
1/2-x,1/2-y,-z
1/2+x,1/2-y,z
loop_
_atom_site_type_symbol
_atom_site_label
_atom_site_fract_x
_atom_site_fract_y
_atom_site_fract_z
Si Si1 0.934676 0.665927 0.231141
Si Si2 0.124317 0.879960 0.949590
Si Si3 0.437714 0.431722 0.309399
Si Si4 0.911944 0.234916 0.842788
Si Si5 0.794430 0.571567 0.586449
O O1 0.792456 0.707532 0.237466
O O2 0.087844 0.710460 0.245839
O O3 0.027516 0.614675 0.351975
O O4 0.830569 0.630212 0.084434
O O5 0.122021 0.927665 0.847379
O O6 0.046148 0.818443 0.859644
O O7 0.000000 0.901699 0.000000
O O8 0.456509 0.500000 0.355505
O O9 0.281051 0.407391 0.323810
O O10 0.643440 0.406847 0.426360
O O11 0.000000 0.257581 0.000000
O O12 0.848577 0.500000 0.602034
#
# Coordination Sequence:
#
# PCOD8098651 Si02
#       5
#     8   8   8   8   8
#     4  10  20  34  60  84 114 148 191 235 272 341
#     4   9  19  35  55  83 115 147 186 232 281 336
#     4   9  19  37  58  80 114 152 186 233 288 334
#     4   9  19  34  52  85 116 150 181 228 291 333
#     4   9  20  37  58  83 112 151 189 230 285 336
#
# _framework density 20.949826000000002
#
# number of rings (size 3 to 8) (size 9 to 14) (size 15 to 20)
#    0.000    3.200    0.000    3.600    5.600    1.200 
#    0.000   10.000    0.000   10.200    0.000    0.000 
#    0.000    0.000    0.000    0.000    0.000    0.000 
#
# Total GULP energy -247776.813993 kJ/mol
# GULP energy per Si atom -12388.840700 kJ/mol
# Density = 2.090214 g / cm^3
# Si number density = 20.949826 Si / 1000 Ang^3
#
#
#
# Elastic Constant Matrix: (Units=GPa)
#
#
# Indices 1 2 3 4 5 6 
#
# 1 51.8206 21.1196 29.6750 0.0000 18.1162 0.0000
# 2 21.1196 54.7961 20.0772 0.0000 20.5251 0.0000
# 3 29.6750 20.0772 74.4621 0.0000 14.8044 0.0000
# 4 0.0000 0.0000 0.0000 20.0475 0.0000 10.5685
# 5 18.1162 20.5251 14.8044 0.0000 32.1090 0.0000
# 6 0.0000 0.0000 0.0000 10.5685 0.0000 13.8643
#
#
#
# Elastic Compliance Matrix: (Units=1/GPa)
#
#
# Indices 1 2 3 4 5 6 
#
# 1 0.029482 -0.004564 -0.008578 0.000000 -0.009762 0.000000
# 2 -0.004564 0.025700 -0.002594 0.000000 -0.012657 0.000000
# 3 -0.008578 -0.002594 0.017896 0.000000 -0.001753 0.000000
# 4 0.000000 0.000000 0.000000 0.083394 0.000000 -0.063570
# 5 -0.009762 -0.012657 -0.001753 0.000000 0.045551 0.000000
# 6 0.000000 0.000000 0.000000 -0.063570 0.000000 0.120585
#
#
# Mechanical properties :
#
#
# Convention : Reuss Voigt Hill
#
# Bulk Modulus (GPa) = 24.03463 35.86916 29.95189
# Shear Modulus (GPa) = 13.58882 20.55129 17.07006
#
# Velocity S-wave (km/s) = 2.54960 3.13545 2.85758
# Velocity P-wave (km/s) = 4.49051 5.50152 5.02152
#
# Compressibility (1/GPa) = 0.04160663
#
# Stress axis : x y z
#
# Youngs Moduli (GPa) = 33.91884 38.91056 55.87751
#
# Poissons Ratio (x) = 0.17757 0.47932
# Poissons Ratio (y) = 0.15479 0.14496
# Poissons Ratio (z) = 0.29096 0.10094
#
# Static dielectric constant tensor:
#      x y z
#    x 3.594330 0.000000 0.165340 
#    y 0.000000 3.550600 0.000000 
#    z 0.165340 0.000000 3.521980 
# 
# 
# High freq. dielectric constant tensor:
#      x y z
#    x 1.807410 0.000000 0.011160 
#    y 0.000000 1.806510 0.000000 
#    z 0.011160 0.000000 1.800430 
# 
# From -- ./inp_files/123941.got.cif
#   From: 2010.06.25/outbox.cif.g09.slc.cpg/sg12_62_cif.got.tgz:123941.got - 2010.06.28 00:19:55.
