data_PCOD8098507
_publ_section_title
;
Structure prediction by ZEFSAII (Michael W. Deem and Ramdas Pophale) SiO2 
 PCOD8098507
Probable space group: C 2/M
;
_chemical_formula_sum "Si O2"
_cell_formula_units_Z 48
_cell_length_a 9.816094
_cell_length_b 27.650310
_cell_length_c 16.482984
_cell_angle_alpha 90.000000
_cell_angle_beta 33.114393
_cell_angle_gamma 90.000000
_cell_volume 2444.081001
_symmetry_space_group_name_H-M "C 2/M"
_symmetry_group_IT_number 12
_symmetry_cell_setting 'monoclinic'
loop_
_space_group_symop_operation_xyz
x,y,z
-x,y,-z
-x,-y,-z
x,-y,z
1/2+x,1/2+y,z
1/2-x,1/2+y,-z
1/2-x,1/2-y,-z
1/2+x,1/2-y,z
loop_
_atom_site_type_symbol
_atom_site_label
_atom_site_fract_x
_atom_site_fract_y
_atom_site_fract_z
Si Si1 0.076226 0.446178 0.869937
Si Si2 0.463855 0.846058 0.349578
Si Si3 0.241142 0.274296 0.664854
Si Si4 0.772220 0.891126 0.061942
Si Si5 0.436637 0.358326 0.682050
Si Si6 0.450206 0.324898 0.195603
O O1 0.165091 0.500000 0.800596
O O2 0.294182 0.408555 0.741739
O O3 0.821509 0.432913 0.950389
O O4 0.000000 0.444171 0.000000
O O5 0.411642 0.792997 0.337666
O O6 0.544974 0.879296 0.234501
O O7 0.212997 0.867922 0.511658
O O8 0.674049 0.845120 0.314108
O O9 0.500000 0.252305 0.500000
O O10 0.294403 0.317078 0.702125
O O11 0.073178 0.233298 0.791249
O O12 0.000000 0.912466 0.000000
O O13 0.859727 0.842608 0.969274
O O14 0.446938 0.343812 0.770657
#
# Coordination Sequence:
#
# PCOD8098507 Si02
#       6
#     8   8   8   8   8   8
#     4  11  23  43  67  90 115 152 202 250 303 357
#     4  10  21  37  56  85 127 155 197 247 291 346
#     4  10  20  34  57  87 124 162 204 242 290 347
#     4  10  22  40  59  88 121 155 194 245 302 351
#     4  11  21  38  63  87 119 160 201 247 296 343
#     4  11  21  35  58  87 122 168 200 232 292 356
#
# _framework density 19.639282999999999
#
# number of rings (size 3 to 8) (size 9 to 14) (size 15 to 20)
#    0.000    1.500    3.333    2.500    0.000    3.667 
#    0.000    4.167    0.000    3.000    0.000    0.000 
#    0.000    0.000    0.000    0.000    0.000    0.000 
#
# Total GULP energy -297562.483725 kJ/mol
# GULP energy per Si atom -12398.436822 kJ/mol
# Density = 1.959458 g / cm^3
# Si number density = 19.639283 Si / 1000 Ang^3
#
#
#
# Elastic Constant Matrix: (Units=GPa)
#
#
# Indices 1 2 3 4 5 6 
#
# 1 102.6579 38.5032 12.3570 0.0000 2.7875 0.0000
# 2 38.5032 123.0117 35.5439 0.0000 -3.7101 0.0000
# 3 12.3570 35.5439 64.7404 0.0000 0.5190 0.0001
# 4 0.0000 0.0000 0.0000 14.1375 0.0000 -14.6523
# 5 2.7875 -3.7101 0.5190 0.0000 24.6248 -0.0001
# 6 0.0000 0.0000 0.0001 -14.6523 -0.0001 -4.3631
#
#
#
# Elastic Compliance Matrix: (Units=1/GPa)
#
#
# Indices 1 2 3 4 5 6 
#
# 1 0.011117 -0.003476 -0.000199 0.000000 -0.001778 0.000000
# 2 -0.003476 0.010810 -0.005288 0.000000 0.002134 0.000000
# 3 -0.000199 -0.005288 0.018397 0.000000 -0.001162 0.000000
# 4 0.000000 0.000000 0.000000 0.015787 0.000000 -0.053017
# 5 -0.001778 0.002134 -0.001162 0.000000 0.041157 0.000000
# 6 0.000000 0.000000 0.000000 -0.053017 0.000000 -0.051154
#
#
# Mechanical properties :
#
#
# Convention : Reuss Voigt Hill
#
# Bulk Modulus (GPa) = 44.64943 51.46870 48.05906
# Shear Modulus (GPa) = 69.92441 20.48025 45.20233
#
# Velocity S-wave (km/s) = 5.97341 3.23278 4.80273
# Velocity P-wave (km/s) = 8.38807 6.34022 7.43499
#
# Compressibility (1/GPa) = 0.02239670
#
# Stress axis : x y z
#
# Youngs Moduli (GPa) = 89.95260 92.51010 54.35628
#
# Poissons Ratio (x) = 0.32153 0.01084
# Poissons Ratio (y) = 0.31264 0.28746
# Poissons Ratio (z) = 0.01794 0.48923
#
# Static dielectric constant tensor:
#      x y z
#    x 3.945350 0.000000 -0.010800 
#    y 0.000000 3.418880 0.000000 
#    z -0.010800 0.000000 3.566490 
# 
# 
# High freq. dielectric constant tensor:
#      x y z
#    x 1.793660 0.000000 0.002070 
#    y 0.000000 1.731210 0.000000 
#    z 0.002070 0.000000 1.763650 
# 
# From -- ./inp_files/200143.got.cif
#   From: 2010.06.25/outbox.cif.g09.slc.cpg/sg12_101_cif.got.tgz:200143.got - 2010.06.28 00:19:55.
