data_PCOD8098330
_publ_section_title
;
Structure prediction by ZEFSAII (Michael W. Deem and Ramdas Pophale) SiO2 
 PCOD8098330
Probable space group: C 2/M
;
_chemical_formula_sum "Si O2"
_cell_formula_units_Z 64
_cell_length_a 20.240359
_cell_length_b 9.103835
_cell_length_c 18.578627
_cell_angle_alpha 90.000000
_cell_angle_beta 78.979485
_cell_angle_gamma 90.000000
_cell_volume 3360.257243
_symmetry_space_group_name_H-M "C 2/M"
_symmetry_group_IT_number 12
_symmetry_cell_setting 'monoclinic'
loop_
_space_group_symop_operation_xyz
x,y,z
-x,y,-z
-x,-y,-z
x,-y,z
1/2+x,1/2+y,z
1/2-x,1/2+y,-z
1/2-x,1/2-y,-z
1/2+x,1/2-y,z
loop_
_atom_site_type_symbol
_atom_site_label
_atom_site_fract_x
_atom_site_fract_y
_atom_site_fract_z
Si Si1 0.482434 0.328057 0.221064
Si Si2 0.247090 0.331000 0.075378
Si Si3 0.853007 0.328096 0.647650
Si Si4 0.413614 0.166153 0.365975
Si Si5 0.345995 0.667551 0.176271
Si Si6 0.577133 0.339422 0.490311
Si Si7 0.881756 0.672448 0.806384
Si Si8 0.222759 0.336150 0.686699
O O1 0.492804 0.500000 0.232900
O O2 0.460615 0.254594 0.300844
O O3 0.425641 0.300325 0.170843
O O4 0.552021 0.257355 0.178764
O O5 0.235355 0.500000 0.060733
O O6 0.319136 0.307424 0.100705
O O7 0.183871 0.273775 0.135931
O O8 0.250000 0.250000 0.000000
O O9 0.856048 0.500000 0.632859
O O10 0.904953 0.248543 0.585146
O O11 0.870436 0.286362 0.725743
O O12 0.779260 0.269864 0.642856
O O13 0.408236 0.242316 0.443523
O O14 0.337447 0.162861 0.356511
O O15 0.442623 0.000000 0.366557
O O16 0.330126 0.500000 0.203809
O O17 0.301985 0.777044 0.232023
O O18 0.500000 0.372468 0.500000
O O19 0.613916 0.500000 0.487430
O O20 0.894023 0.500000 0.813751
O O21 0.251580 0.500000 0.692171
#
# Coordination Sequence:
#
# PCOD8098330 Si02
#       8
#     8   8   8   8   8   8   8   8
#     4  10  20  34  59  88 114 150 192 238 283 329
#     4  10  21  39  61  87 116 150 188 230 280 337
#     4  11  22  37  58  80 108 150 189 229 285 341
#     4  10  21  37  56  80 112 150 189 230 285 343
#     4   9  18  37  59  82 116 153 189 227 279 341
#     4  11  24  39  54  77 108 143 188 241 287 332
#     4  10  21  38  59  84 116 150 188 233 282 341
#     4  10  20  34  56  85 111 140 186 238 279 327
#
# _framework density 19.046161000000001
#
# number of rings (size 3 to 8) (size 9 to 14) (size 15 to 20)
#    0.000    1.875    1.250    2.625    0.000    7.500 
#    0.000    0.625    0.000    3.750    0.000    0.000 
#    0.000    0.000    0.000    0.000    0.000    0.000 
#
# Total GULP energy -396764.189805 kJ/mol
# GULP energy per Si atom -12398.880931 kJ/mol
# Density = 1.900281 g / cm^3
# Si number density = 19.046161 Si / 1000 Ang^3
#
#
#
# Elastic Constant Matrix: (Units=GPa)
#
#
# Indices 1 2 3 4 5 6 
#
# 1 97.5173 52.9689 50.4601 0.0000 -6.3639 0.0000
# 2 52.9689 109.4701 61.2869 0.0000 2.0304 0.0000
# 3 50.4601 61.2869 127.8748 0.0000 4.2219 0.0000
# 4 0.0000 0.0000 0.0000 34.9640 0.0000 -3.5556
# 5 -6.3639 2.0304 4.2219 0.0000 19.3881 0.0000
# 6 0.0000 0.0000 0.0000 -3.5556 0.0000 32.3889
#
#
#
# Elastic Compliance Matrix: (Units=1/GPa)
#
#
# Indices 1 2 3 4 5 6 
#
# 1 0.015647 -0.005624 -0.003695 0.000000 0.006530 0.000000
# 2 -0.005624 0.014506 -0.004656 0.000000 -0.002351 0.000000
# 3 -0.003695 -0.004656 0.011617 0.000000 -0.003255 0.000000
# 4 0.000000 0.000000 0.000000 0.028924 0.000000 0.003175
# 5 0.006530 -0.002351 -0.003255 0.000000 0.054676 0.000000
# 6 0.000000 0.000000 0.000000 0.003175 0.000000 0.031223
#
#
# Mechanical properties :
#
#
# Convention : Reuss Voigt Hill
#
# Bulk Modulus (GPa) = 72.34832 73.81043 73.07938
# Shear Modulus (GPa) = 26.43416 28.69127 27.56272
#
# Velocity S-wave (km/s) = 3.72949 3.88546 3.80827
# Velocity P-wave (km/s) = 7.52421 7.67897 7.60199
#
# Compressibility (1/GPa) = 0.01382202
#
# Stress axis : x y z
#
# Youngs Moduli (GPa) = 63.90913 68.93650 86.08168
#
# Poissons Ratio (x) = 0.38768 0.31805
# Poissons Ratio (y) = 0.35941 0.40076
# Poissons Ratio (z) = 0.23613 0.32094
#
# Static dielectric constant tensor:
#      x y z
#    x 3.844600 0.000000 0.171760 
#    y 0.000000 3.684730 0.000000 
#    z 0.171760 0.000000 3.375470 
# 
# 
# High freq. dielectric constant tensor:
#      x y z
#    x 1.747240 0.000000 0.008040 
#    y 0.000000 1.753480 0.000000 
#    z 0.008040 0.000000 1.718390 
# 
# From -- ./inp_files/281338.got.cif
#   From: 2010.06.25/outbox.cif.g09.slc.cpg/sg12_141_cif.got.tgz:281338.got - 2010.06.28 00:19:55.
