data_PCOD8098360
_publ_section_title
;
Structure prediction by ZEFSAII (Michael W. Deem and Ramdas Pophale) SiO2 
 PCOD8098360
Probable space group: C 2/M
;
_chemical_formula_sum "Si O2"
_cell_formula_units_Z 40
_cell_length_a 18.226464
_cell_length_b 18.597784
_cell_length_c 9.670004
_cell_angle_alpha 90.000000
_cell_angle_beta 138.040017
_cell_angle_gamma 90.000000
_cell_volume 2191.613963
_symmetry_space_group_name_H-M "C 2/M"
_symmetry_group_IT_number 12
_symmetry_cell_setting 'monoclinic'
loop_
_space_group_symop_operation_xyz
x,y,z
-x,y,-z
-x,-y,-z
x,-y,z
1/2+x,1/2+y,z
1/2-x,1/2+y,-z
1/2-x,1/2-y,-z
1/2+x,1/2-y,z
loop_
_atom_site_type_symbol
_atom_site_label
_atom_site_fract_x
_atom_site_fract_y
_atom_site_fract_z
Si Si1 0.379157 0.500000 0.199638
Si Si2 0.929190 0.282718 0.267204
Si Si3 0.923753 0.272094 0.768265
Si Si4 0.884701 0.000000 0.535517
Si Si5 0.714584 0.650897 0.577139
Si Si6 0.795167 0.848920 0.108185
O O1 0.397482 0.500000 0.388964
O O2 0.485530 0.500000 0.246909
O O3 0.309944 0.428865 0.071351
O O4 0.900374 0.198006 0.208254
O O5 0.000000 0.298971 0.500000
O O6 0.997455 0.310796 0.231832
O O7 0.815031 0.324300 0.121638
O O8 0.837241 0.332302 0.696639
O O9 0.867732 0.204080 0.616488
O O10 0.000000 0.244345 0.000000
O O11 0.820618 0.069086 0.505864
O O12 0.711806 0.662135 0.737096
#
# Coordination Sequence:
#
# PCOD8098360 Si02
#       6
#     4   8   8   4   8   8
#     4   9  18  32  56  80 113 138 181 229 274 317
#     4  11  21  35  57  82 113 144 185 227 270 320
#     4  11  21  35  55  81 115 147 180 226 275 320
#     4   9  18  34  55  81 109 143 179 230 271 322
#     4  10  20  35  56  83 111 143 187 224 271 329
#     4  10  20  34  56  86 108 144 187 225 268 330
#
# _framework density 18.251390000000001
#
# number of rings (size 3 to 8) (size 9 to 14) (size 15 to 20)
#    0.000    1.800    4.000    1.200    2.800    0.000 
#    0.000    2.500    0.000    2.400    0.000    0.000 
#    0.000    0.000    0.000    0.000    0.000    0.000 
#
# Total GULP energy -247909.143862 kJ/mol
# GULP energy per Si atom -12395.457193 kJ/mol
# Density = 1.820985 g / cm^3
# Si number density = 18.251390 Si / 1000 Ang^3
#
#
#
# Elastic Constant Matrix: (Units=GPa)
#
#
# Indices 1 2 3 4 5 6 
#
# 1 104.8310 43.0975 35.3310 0.0000 16.2508 0.0000
# 2 43.0975 125.6867 36.3008 0.0000 8.8617 0.0000
# 3 35.3310 36.3008 123.9399 0.0000 4.0089 0.0000
# 4 0.0000 0.0000 0.0000 9.1814 0.0000 -5.2153
# 5 16.2508 8.8617 4.0089 0.0000 19.3868 0.0000
# 6 0.0000 0.0000 0.0000 -5.2153 0.0000 3.4580
#
#
#
# Elastic Compliance Matrix: (Units=1/GPa)
#
#
# Indices 1 2 3 4 5 6 
#
# 1 0.013066 -0.003117 -0.002520 0.000000 -0.009007 0.000000
# 2 -0.003117 0.009674 -0.001899 0.000000 -0.001416 0.000000
# 3 -0.002520 -0.001899 0.009309 0.000000 0.001056 0.000000
# 4 0.000000 0.000000 0.000000 0.759931 0.000000 1.146110
# 5 -0.009007 -0.001416 0.001056 0.000000 0.059560 0.000000
# 6 0.000000 0.000000 0.000000 1.146110 0.000000 2.017721
#
#
# Mechanical properties :
#
#
# Convention : Reuss Voigt Hill
#
# Bulk Modulus (GPa) = 58.90832 64.87957 61.89394
# Shear Modulus (GPa) = 1.73011 22.38713 12.05862
#
# Velocity S-wave (km/s) = 0.97467 3.50608 2.57319
# Velocity P-wave (km/s) = 5.79765 7.21215 6.54324
#
# Compressibility (1/GPa) = 0.01697553
#
# Stress axis : x y z
#
# Youngs Moduli (GPa) = 76.53190 103.37519 107.42412
#
# Poissons Ratio (x) = 0.32227 0.27075
# Poissons Ratio (y) = 0.23859 0.20398
# Poissons Ratio (z) = 0.19289 0.19629
#
# Static dielectric constant tensor:
#      x y z
#    x 3.496620 0.000000 0.153540 
#    y 0.000000 3.330090 0.000000 
#    z 0.153540 0.000000 3.326300 
# 
# 
# High freq. dielectric constant tensor:
#      x y z
#    x 1.711800 0.000000 0.017010 
#    y 0.000000 1.689710 0.000000 
#    z 0.017010 0.000000 1.706700 
# 
# From -- ./inp_files/77809.got.cif
#   From: 2010.06.25/outbox.cif.g09.slc.cpg/sg12_39_cif.got.tgz:77809.got - 2010.06.28 00:19:55.
