data_PCOD8098379
_publ_section_title
;
Structure prediction by ZEFSAII (Michael W. Deem and Ramdas Pophale) SiO2 
 PCOD8098379
Probable space group: C 2/M
;
_chemical_formula_sum "Si O2"
_cell_formula_units_Z 56
_cell_length_a 20.349946
_cell_length_b 8.994184
_cell_length_c 29.897763
_cell_angle_alpha 90.000000
_cell_angle_beta 146.499211
_cell_angle_gamma 90.000000
_cell_volume 3020.384665
_symmetry_space_group_name_H-M "C 2/M"
_symmetry_group_IT_number 12
_symmetry_cell_setting 'monoclinic'
loop_
_space_group_symop_operation_xyz
x,y,z
-x,y,-z
-x,-y,-z
x,-y,z
1/2+x,1/2+y,z
1/2-x,1/2+y,-z
1/2-x,1/2-y,-z
1/2+x,1/2-y,z
loop_
_atom_site_type_symbol
_atom_site_label
_atom_site_fract_x
_atom_site_fract_y
_atom_site_fract_z
Si Si1 0.105707 0.328703 0.180612
Si Si2 0.170504 0.324399 0.730389
Si Si3 0.192320 0.675078 0.844824
Si Si4 0.444861 0.827920 0.746017
Si Si5 0.074098 0.174375 0.422091
Si Si6 0.214676 0.826042 0.412868
Si Si7 0.428126 0.174249 0.002182
O O1 0.142692 0.500000 0.193742
O O2 0.219212 0.225345 0.237162
O O3 0.057012 0.300900 0.202354
O O4 0.000379 0.282101 0.087451
O O5 0.153406 0.500000 0.718051
O O6 0.192217 0.270611 0.793460
O O7 0.053943 0.247543 0.644318
O O8 0.207211 0.500000 0.856669
O O9 0.071310 0.729154 0.799547
O O10 0.300640 0.748312 0.932868
O O11 0.339999 0.732768 0.664268
O O12 0.425168 0.000000 0.722222
O O13 0.123027 0.212581 0.400594
O O14 0.160837 0.243294 0.508512
O O15 0.064451 0.000000 0.424984
O O16 0.240139 0.000000 0.423961
O O17 0.406192 0.000000 0.985563
O O18 0.500000 0.234559 0.000000
#
# Coordination Sequence:
#
# PCOD8098379 Si02
#       7
#     8   8   8   8   8   8   8
#     4  10  22  39  58  80 112 153 190 229 283 340
#     4  11  21  35  57  85 114 145 187 236 279 328
#     4  10  21  35  56  83 111 146 186 231 282 332
#     4  10  21  39  58  80 115 153 187 227 282 343
#     4  10  20  34  57  86 115 148 187 229 276 332
#     4  10  20  34  56  86 117 147 184 232 279 327
#     4  10  20  35  56  82 111 145 189 236 278 328
#
# _framework density 18.540685
#
# number of rings (size 3 to 8) (size 9 to 14) (size 15 to 20)
#    0.000    1.857    2.857    1.286    0.000    4.286 
#    0.000    0.714    0.000    4.286    0.000    0.000 
#    0.000    0.000    0.000    0.000    0.000    0.000 
#
# Total GULP energy -347371.647469 kJ/mol
# GULP energy per Si atom -12406.130267 kJ/mol
# Density = 1.849849 g / cm^3
# Si number density = 18.540685 Si / 1000 Ang^3
#
#
#
# Elastic Constant Matrix: (Units=GPa)
#
#
# Indices 1 2 3 4 5 6 
#
# 1 79.0452 29.7751 47.1563 0.0000 1.6894 0.0001
# 2 29.7751 66.2599 54.1087 -0.0001 5.3477 0.0004
# 3 47.1563 54.1087 152.2043 0.0000 6.5163 0.0001
# 4 0.0000 -0.0001 0.0000 40.0466 0.0000 4.3736
# 5 1.6894 5.3477 6.5163 0.0000 30.8169 -0.0001
# 6 0.0001 0.0004 0.0001 4.3736 -0.0001 25.2962
#
#
#
# Elastic Compliance Matrix: (Units=1/GPa)
#
#
# Indices 1 2 3 4 5 6 
#
# 1 0.016450 -0.004592 -0.003491 0.000000 0.000633 0.000000
# 2 -0.004592 0.022685 -0.006543 0.000000 -0.002301 0.000000
# 3 -0.003491 -0.006543 0.010012 0.000000 -0.000790 0.000000
# 4 0.000000 0.000000 0.000000 0.025451 0.000000 -0.004400
# 5 0.000633 -0.002301 -0.000790 0.000000 0.032981 0.000000
# 6 0.000000 0.000000 0.000000 -0.004400 0.000000 0.040293
#
#
# Mechanical properties :
#
#
# Convention : Reuss Voigt Hill
#
# Bulk Modulus (GPa) = 50.26837 62.17664 56.22250
# Shear Modulus (GPa) = 27.21002 30.32989 28.76995
#
# Velocity S-wave (km/s) = 3.83506 4.04896 3.94346
# Velocity P-wave (km/s) = 6.83971 7.44760 7.15012
#
# Compressibility (1/GPa) = 0.01989322
#
# Stress axis : x y z
#
# Youngs Moduli (GPa) = 60.79013 44.08278 99.88382
#
# Poissons Ratio (x) = 0.20244 0.34871
# Poissons Ratio (y) = 0.27917 0.65354
# Poissons Ratio (z) = 0.21223 0.28844
#
# Static dielectric constant tensor:
#      x y z
#    x 3.261910 0.000000 0.023190 
#    y 0.000000 3.327340 0.000000 
#    z 0.023190 0.000000 3.459220 
# 
# 
# High freq. dielectric constant tensor:
#      x y z
#    x 1.702510 0.000000 0.004500 
#    y 0.000000 1.719230 0.000000 
#    z 0.004500 0.000000 1.731250 
# 
# From -- ./inp_files/275510.got.cif
#   From: 2010.06.25/outbox.cif.g09.slc.cpg/sg12_138_cif.got.tgz:275510.got - 2010.06.28 00:19:55.
