data_PCOD8098598
_publ_section_title
;
Structure prediction by ZEFSAII (Michael W. Deem and Ramdas Pophale) SiO2 
 PCOD8098598
Probable space group: C 2/M
;
_chemical_formula_sum "Si O2"
_cell_formula_units_Z 64
_cell_length_a 19.780766
_cell_length_b 9.012606
_cell_length_c 21.361230
_cell_angle_alpha 90.000000
_cell_angle_beta 118.211471
_cell_angle_gamma 90.000000
_cell_volume 3355.819442
_symmetry_space_group_name_H-M "C 2/M"
_symmetry_group_IT_number 12
_symmetry_cell_setting 'monoclinic'
loop_
_space_group_symop_operation_xyz
x,y,z
-x,y,-z
-x,-y,-z
x,-y,z
1/2+x,1/2+y,z
1/2-x,1/2+y,-z
1/2-x,1/2-y,-z
1/2+x,1/2-y,z
loop_
_atom_site_type_symbol
_atom_site_label
_atom_site_fract_x
_atom_site_fract_y
_atom_site_fract_z
Si Si1 0.099183 0.173541 0.794208
Si Si2 0.517415 0.173836 0.938011
Si Si3 0.110636 0.330614 0.437176
Si Si4 0.319279 0.830355 0.661383
Si Si5 0.325735 0.175265 0.059467
Si Si6 0.433437 0.829499 0.343692
Si Si7 0.857261 0.170629 0.422263
Si Si8 0.442674 0.671992 0.794026
O O1 0.158397 0.258231 0.865037
O O2 0.109266 0.235695 0.728705
O O3 0.012757 0.207082 0.778229
O O4 0.118878 0.000000 0.803740
O O5 0.604138 0.215644 0.956295
O O6 0.455864 0.250193 0.866096
O O7 0.503505 0.000000 0.926654
O O8 0.500000 0.232213 0.000000
O O9 0.126258 0.500000 0.465257
O O10 0.164253 0.282887 0.402818
O O11 0.130426 0.220261 0.501451
O O12 0.023991 0.310569 0.376327
O O13 0.230251 0.807363 0.636582
O O14 0.364465 0.729664 0.729925
O O15 0.345550 0.000000 0.682433
O O16 0.313850 0.000000 0.059982
O O17 0.250000 0.250000 0.000000
O O18 0.410214 0.769496 0.401275
O O19 0.408399 0.000000 0.326486
O O20 0.882416 0.000000 0.427538
O O21 0.433972 0.500000 0.803518
#
# Coordination Sequence:
#
# PCOD8098598 Si02
#       8
#     8   8   8   8   8   8   8   8
#     4  10  20  36  59  86 114 146 190 236 281 334
#     4   9  19  37  60  84 112 150 190 227 274 332
#     4  10  21  38  61  83 107 146 193 234 280 339
#     4  10  21  39  59  81 112 151 190 230 280 339
#     4  10  20  36  59  86 116 150 189 231 280 333
#     4  11  22  38  60  83 112 149 189 233 284 338
#     4  11  24  38  55  83 117 150 185 234 288 335
#     4  10  20  34  58  88 114 145 186 237 282 325
#
# _framework density 19.071346999999999
#
# number of rings (size 3 to 8) (size 9 to 14) (size 15 to 20)
#    0.000    1.875    1.250    2.625    0.000    5.750 
#    2.250    0.000    0.000    0.000    0.000    0.000 
#    0.000    0.000    0.000    0.000    0.000    0.000 
#
# Total GULP energy -396978.528060 kJ/mol
# GULP energy per Si atom -12405.579002 kJ/mol
# Density = 1.902794 g / cm^3
# Si number density = 19.071347 Si / 1000 Ang^3
#
#
#
# Elastic Constant Matrix: (Units=GPa)
#
#
# Indices 1 2 3 4 5 6 
#
# 1 40.5234 22.8774 13.5788 0.0000 -5.1712 0.0000
# 2 22.8774 80.7175 46.6651 0.0000 3.9403 0.0000
# 3 13.5788 46.6651 107.9474 0.0000 -1.9661 0.0000
# 4 0.0000 0.0000 0.0000 41.1761 0.0000 1.8485
# 5 -5.1712 3.9403 -1.9661 0.0000 29.3846 0.0000
# 6 0.0000 0.0000 0.0000 1.8485 0.0000 25.5628
#
#
#
# Elastic Compliance Matrix: (Units=1/GPa)
#
#
# Indices 1 2 3 4 5 6 
#
# 1 0.030599 -0.009119 0.000214 0.000000 0.006622 0.000000
# 2 -0.009119 0.019451 -0.007347 0.000000 -0.004705 0.000000
# 3 0.000214 -0.007347 0.012447 0.000000 0.001856 0.000000
# 4 0.000000 0.000000 0.000000 0.024365 0.000000 -0.001762
# 5 0.006622 -0.004705 0.001856 0.000000 0.035952 0.000000
# 6 0.000000 0.000000 0.000000 -0.001762 0.000000 0.039247
#
#
# Mechanical properties :
#
#
# Convention : Reuss Voigt Hill
#
# Bulk Modulus (GPa) = 33.34312 43.93677 38.63994
# Shear Modulus (GPa) = 24.44244 28.96248 26.70246
#
# Velocity S-wave (km/s) = 3.58387 3.90120 3.74590
# Velocity P-wave (km/s) = 5.88616 6.58639 6.24610
#
# Compressibility (1/GPa) = 0.02999120
#
# Stress axis : x y z
#
# Youngs Moduli (GPa) = 32.68095 51.41193 80.34225
#
# Poissons Ratio (x) = 0.46885 -0.01718
# Poissons Ratio (y) = 0.29803 0.59028
# Poissons Ratio (z) = -0.00699 0.37772
#
# Static dielectric constant tensor:
#      x y z
#    x 3.419420 0.000000 -0.035390 
#    y 0.000000 3.527830 0.000000 
#    z -0.035390 0.000000 3.455330 
# 
# 
# High freq. dielectric constant tensor:
#      x y z
#    x 1.730910 0.000000 -0.001370 
#    y 0.000000 1.749350 0.000000 
#    z -0.001370 0.000000 1.747720 
# 
# From -- ./inp_files/320176.got.cif
#   From: 2010.06.25/outbox.cif.g09.slc.cpg/sg12_161_cif.got.tgz:320176.got - 2010.06.28 00:19:55.
