data_PCOD8098818
_publ_section_title
;
Structure prediction by ZEFSAII (Michael W. Deem and Ramdas Pophale) SiO2 
 PCOD8098818
Probable space group: C 2/M
;
_chemical_formula_sum "Si O2"
_cell_formula_units_Z 56
_cell_length_a 29.436143
_cell_length_b 9.781809
_cell_length_c 10.985781
_cell_angle_alpha 90.000000
_cell_angle_beta 65.220900
_cell_angle_gamma 90.000000
_cell_volume 2871.994399
_symmetry_space_group_name_H-M "C 2/M"
_symmetry_group_IT_number 12
_symmetry_cell_setting 'monoclinic'
loop_
_space_group_symop_operation_xyz
x,y,z
-x,y,-z
-x,-y,-z
x,-y,z
1/2+x,1/2+y,z
1/2-x,1/2+y,-z
1/2-x,1/2-y,-z
1/2+x,1/2-y,z
loop_
_atom_site_type_symbol
_atom_site_label
_atom_site_fract_x
_atom_site_fract_y
_atom_site_fract_z
Si Si1 0.475393 0.841176 0.658314
Si Si2 0.177006 0.155217 0.406444
Si Si3 0.268292 0.653273 0.322915
Si Si4 0.966824 0.341408 0.156280
Si Si5 0.787363 0.850417 0.020120
Si Si6 0.125429 0.844265 0.699290
Si Si7 0.121361 0.842021 0.228450
O O1 0.500000 0.804079 0.500000
O O2 0.508467 0.805229 0.740476
O O3 0.426236 0.752514 0.726334
O O4 0.460647 0.000000 0.677045
O O5 0.222601 0.246723 0.406243
O O6 0.128549 0.165570 0.549164
O O7 0.157378 0.205196 0.298333
O O8 0.197065 0.000000 0.378762
O O9 0.255896 0.500000 0.384799
O O10 0.277191 0.651471 0.171423
O O11 0.319948 0.707058 0.320798
O O12 0.951936 0.500000 0.170277
O O13 0.916913 0.252631 0.198706
O O14 0.000000 0.305329 0.000000
O O15 0.777058 0.000000 0.974926
O O16 0.750000 0.750000 0.000000
O O17 0.845713 0.815160 0.929407
O O18 0.114774 0.000000 0.754588
O O19 0.104449 0.000000 0.262165
#
# Coordination Sequence:
#
# PCOD8098818 Si02
#       7
#     8   8   8   8   8   8   8
#     4  10  22  40  61  85 112 144 187 236 283 335
#     4  10  20  36  56  83 116 147 182 226 274 330
#     4  10  21  35  54  82 114 147 186 226 269 329
#     4  10  23  42  60  83 114 147 188 236 284 337
#     4  10  20  35  53  78 112 147 184 227 272 325
#     4  10  22  38  58  83 111 145 187 230 276 331
#     4  10  21  35  56  84 113 144 183 229 277 330
#
# _framework density 19.498645
#
# number of rings (size 3 to 8) (size 9 to 14) (size 15 to 20)
#    0.000    2.000    1.429    1.286    2.000    3.429 
#    0.000    0.000    0.000    0.000    0.000    0.000 
#    0.000    0.000    0.000    0.000    0.000    0.000 
#
# Total GULP energy -347089.735356 kJ/mol
# GULP energy per Si atom -12396.061977 kJ/mol
# Density = 1.945427 g / cm^3
# Si number density = 19.498645 Si / 1000 Ang^3
#
#
#
# Elastic Constant Matrix: (Units=GPa)
#
#
# Indices 1 2 3 4 5 6 
#
# 1 92.9086 61.7703 37.7063 0.0000 -14.0899 0.0000
# 2 61.7703 86.7382 40.3219 0.0000 -24.4184 0.0000
# 3 37.7063 40.3219 84.5343 0.0000 -16.0344 0.0000
# 4 0.0000 0.0000 0.0000 28.3021 0.0000 -12.2245
# 5 -14.0899 -24.4184 -16.0344 0.0000 32.5930 0.0000
# 6 0.0000 0.0000 0.0000 -12.2245 0.0000 39.8628
#
#
#
# Elastic Compliance Matrix: (Units=1/GPa)
#
#
# Indices 1 2 3 4 5 6 
#
# 1 0.021241 -0.014596 -0.003138 0.000000 -0.003296 0.000000
# 2 -0.014596 0.027275 -0.004213 0.000000 0.012051 0.000000
# 3 -0.003138 -0.004213 0.015863 0.000000 0.003291 0.000000
# 4 0.000000 0.000000 0.000000 0.040728 0.000000 0.012490
# 5 -0.003296 0.012051 0.003291 0.000000 0.039904 0.000000
# 6 0.000000 0.000000 0.000000 0.012490 0.000000 0.028916
#
#
# Mechanical properties :
#
#
# Convention : Reuss Voigt Hill
#
# Bulk Modulus (GPa) = 48.81678 60.41980 54.61829
# Shear Modulus (GPa) = 22.25692 28.44374 25.35033
#
# Velocity S-wave (km/s) = 3.38221 3.82351 3.60961
# Velocity P-wave (km/s) = 6.35160 7.10959 6.74126
#
# Compressibility (1/GPa) = 0.02048476
#
# Stress axis : x y z
#
# Youngs Moduli (GPa) = 47.07890 36.66380 63.03994
#
# Poissons Ratio (x) = 0.53515 0.19779
# Poissons Ratio (y) = 0.68717 0.26561
# Poissons Ratio (z) = 0.14771 0.15448
#
# Static dielectric constant tensor:
#      x y z
#    x 3.458700 0.000000 0.047860 
#    y 0.000000 3.646450 0.000000 
#    z 0.047860 0.000000 3.854190 
# 
# 
# High freq. dielectric constant tensor:
#      x y z
#    x 1.749750 0.000000 0.007770 
#    y 0.000000 1.756150 0.000000 
#    z 0.007770 0.000000 1.778690 
# 
# From -- ./inp_files/180738.got.cif
#   From: 2010.06.25/outbox.cif.g09.slc.cpg/sg12_91_cif.got.tgz:180738.got - 2010.06.28 00:19:55.
