data_PCOD8098376
_publ_section_title
;
Structure prediction by ZEFSAII (Michael W. Deem and Ramdas Pophale) SiO2 
 PCOD8098376
Probable space group: C 2/M
;
_chemical_formula_sum "Si O2"
_cell_formula_units_Z 64
_cell_length_a 20.797429
_cell_length_b 19.332493
_cell_length_c 22.561418
_cell_angle_alpha 90.000000
_cell_angle_beta 157.195606
_cell_angle_gamma 90.000000
_cell_volume 3515.865900
_symmetry_space_group_name_H-M "C 2/M"
_symmetry_group_IT_number 12
_symmetry_cell_setting 'monoclinic'
loop_
_space_group_symop_operation_xyz
x,y,z
-x,y,-z
-x,-y,-z
x,-y,z
1/2+x,1/2+y,z
1/2-x,1/2+y,-z
1/2-x,1/2-y,-z
1/2+x,1/2-y,z
loop_
_atom_site_type_symbol
_atom_site_label
_atom_site_fract_x
_atom_site_fract_y
_atom_site_fract_z
Si Si1 0.838476 0.078362 0.072091
Si Si2 0.639387 0.284837 0.572153
Si Si3 0.943524 0.576823 0.075906
Si Si4 0.208051 0.923174 0.575685
Si Si5 0.618831 0.788535 0.429978
Si Si6 0.004948 0.715144 0.072181
Si Si7 0.194093 0.921633 0.427730
Si Si8 0.258902 0.211483 0.070054
O O1 0.027318 0.093037 0.249915
O O2 0.813936 0.000000 0.027971
O O3 0.727521 0.091457 0.035884
O O4 0.784811 0.130565 0.974787
O O5 0.500000 0.262154 0.500000
O O6 0.620386 0.366872 0.543000
O O7 0.615750 0.242418 0.492465
O O8 0.816874 0.266402 0.749990
O O9 0.943094 0.500000 0.046809
O O10 0.092377 0.584046 0.250112
O O11 0.965742 0.633107 0.043139
O O12 0.155485 0.908536 0.463876
O O13 0.150273 0.000000 0.546574
O O14 0.750000 0.750000 0.500000
O O15 0.664883 0.869448 0.474875
O O16 0.441482 0.779479 0.250018
O O17 0.000000 0.737803 0.000000
O O18 0.869152 0.757549 0.992435
O O19 0.257730 0.000000 0.471798
O O20 0.250000 0.250000 0.000000
#
# Coordination Sequence:
#
# PCOD8098376 Si02
#       8
#     8   8   8   8   8   8   8   8
#     4  10  20  34  56  86 116 146 185 233 284 339
#     4  11  23  38  56  81 115 154 194 239 285 340
#     4   9  18  33  53  78 111 152 193 231 275 330
#     4   9  18  33  53  78 111 152 193 231 275 330
#     4  12  23  37  59  85 114 150 192 239 286 338
#     4  11  23  38  56  81 115 154 194 239 285 340
#     4  10  20  34  56  86 116 146 185 233 284 339
#     4  12  23  37  59  85 114 150 192 239 286 338
#
# _framework density 18.203196999999999
#
# number of rings (size 3 to 8) (size 9 to 14) (size 15 to 20)
#    0.000    1.500    2.500    3.750    0.000    3.000 
#    0.000    0.000    0.000    0.750    0.000    0.000 
#    0.000    0.000    0.000    0.000    0.000    0.000 
#
# Total GULP energy -396863.415107 kJ/mol
# GULP energy per Si atom -12401.981722 kJ/mol
# Density = 1.816177 g / cm^3
# Si number density = 18.203197 Si / 1000 Ang^3
#
#
#
# Elastic Constant Matrix: (Units=GPa)
#
#
# Indices 1 2 3 4 5 6 
#
# 1 125.6980 63.3748 62.6827 -0.0033 0.1004 -0.0035
# 2 63.3748 106.7669 59.1787 -0.0359 0.3490 -0.0123
# 3 62.6827 59.1787 130.7421 -0.0339 -0.6076 -0.0157
# 4 -0.0033 -0.0359 -0.0339 28.8437 -0.0079 -0.4170
# 5 0.1004 0.3490 -0.6076 -0.0079 30.9228 -0.0100
# 6 -0.0035 -0.0123 -0.0157 -0.4170 -0.0100 24.4644
#
#
#
# Elastic Compliance Matrix: (Units=1/GPa)
#
#
# Indices 1 2 3 4 5 6 
#
# 1 0.012449 -0.005448 -0.003503 -0.000010 -0.000048 -0.000003
# 2 -0.005448 0.014889 -0.004129 0.000013 -0.000231 0.000004
# 3 -0.003503 -0.004129 0.011198 0.000008 0.000278 0.000005
# 4 -0.000010 0.000013 0.000008 0.034678 0.000009 0.000591
# 5 -0.000048 -0.000231 0.000278 0.000009 0.032347 0.000013
# 6 -0.000003 0.000004 0.000005 0.000591 0.000013 0.040886
#
#
# Mechanical properties :
#
#
# Convention : Reuss Voigt Hill
#
# Bulk Modulus (GPa) = 80.79013 81.51994 81.15503
# Shear Modulus (GPa) = 28.29150 28.71090 28.50120
#
# Velocity S-wave (km/s) = 3.94662 3.97576 3.96122
# Velocity P-wave (km/s) = 8.07753 8.12134 8.09946
#
# Compressibility (1/GPa) = 0.01237775
#
# Stress axis : x y z
#
# Youngs Moduli (GPa) = 80.32682 67.16356 89.30088
#
# Poissons Ratio (x) = 0.36589 0.31281
# Poissons Ratio (y) = 0.43761 0.36868
# Poissons Ratio (z) = 0.28138 0.27729
#
# Static dielectric constant tensor:
#      x y z
#    x 3.054930 -0.000030 -0.035960 
#    y -0.000030 3.728500 -0.000040 
#    z -0.035960 -0.000040 3.446210 
# 
# 
# High freq. dielectric constant tensor:
#      x y z
#    x 1.671760 0.000000 -0.004410 
#    y 0.000000 1.714970 -0.000010 
#    z -0.004410 -0.000010 1.719660 
# 
# From -- ./inp_files/99117.got.cif
#   From: 2010.06.25/outbox.cif.g09.slc.cpg/sg12_50_cif.got.tgz:99117.got - 2010.06.28 00:19:55.
