data_PCOD8098342
_publ_section_title
;
Structure prediction by ZEFSAII (Michael W. Deem and Ramdas Pophale) SiO2 
 PCOD8098342
Probable space group: C 2/M
;
_chemical_formula_sum "Si O2"
_cell_formula_units_Z 56
_cell_length_a 25.478384
_cell_length_b 8.816041
_cell_length_c 14.214482
_cell_angle_alpha 90.000000
_cell_angle_beta 56.786340
_cell_angle_gamma 90.000000
_cell_volume 2671.233761
_symmetry_space_group_name_H-M "C 2/M"
_symmetry_group_IT_number 12
_symmetry_cell_setting 'monoclinic'
loop_
_space_group_symop_operation_xyz
x,y,z
-x,y,-z
-x,-y,-z
x,-y,z
1/2+x,1/2+y,z
1/2-x,1/2+y,-z
1/2-x,1/2-y,-z
1/2+x,1/2-y,z
loop_
_atom_site_type_symbol
_atom_site_label
_atom_site_fract_x
_atom_site_fract_y
_atom_site_fract_z
Si Si1 0.152603 0.673213 0.496796
Si Si2 0.244901 0.679989 0.252985
Si Si3 0.931655 0.679748 0.254265
Si Si4 0.069558 0.833111 0.444578
Si Si5 0.926558 0.677215 0.879353
Si Si6 0.157313 0.168327 0.189542
Si Si7 0.388834 0.321012 0.107219
O O1 0.166467 0.500000 0.503859
O O2 0.213836 0.744377 0.382652
O O3 0.124219 0.743211 0.621378
O O4 0.098149 0.695472 0.474621
O O5 0.235426 0.500000 0.259221
O O6 0.213554 0.746373 0.188920
O O7 0.316514 0.730639 0.184379
O O8 0.923871 0.500000 0.245412
O O9 0.924713 0.770044 0.165001
O O10 0.001953 0.713138 0.226259
O O11 0.097964 0.843901 0.314132
O O12 0.000000 0.780552 0.500000
O O13 0.076118 0.000000 0.487570
O O14 0.914214 0.500000 0.891121
O O15 0.869272 0.748665 0.876380
O O16 0.922454 0.739018 0.988624
O O17 0.181360 0.000000 0.137202
O O18 0.394766 0.500000 0.088533
#
# Coordination Sequence:
#
# PCOD8098342 Si02
#       7
#     8   8   8   8   8   8   8
#     4   9  18  34  56  80 109 144 181 223 270 328
#     4   9  20  39  59  83 115 149 186 226 275 333
#     4  10  22  39  59  85 114 146 186 230 280 334
#     4   9  17  29  47  76 113 146 177 220 273 326
#     4  11  23  39  59  83 113 149 187 230 281 333
#     4  10  20  34  56  85 114 146 185 229 277 330
#     4  11  24  40  59  82 110 148 192 236 278 325
#
# _framework density 20.964098
#
# number of rings (size 3 to 8) (size 9 to 14) (size 15 to 20)
#    0.000    2.143    0.000    2.571    0.000    6.571 
#    0.000    0.000    0.000    0.000    0.000    0.000 
#    0.000    0.000    0.000    0.000    0.000    0.000 
#
# Total GULP energy -346882.799606 kJ/mol
# GULP energy per Si atom -12388.671414 kJ/mol
# Density = 2.091638 g / cm^3
# Si number density = 20.964098 Si / 1000 Ang^3
#
#
#
# Elastic Constant Matrix: (Units=GPa)
#
#
# Indices 1 2 3 4 5 6 
#
# 1 50.8858 20.6567 34.2018 0.0000 -10.3557 0.0000
# 2 20.6567 49.2047 20.0144 0.0000 -1.2180 -0.0001
# 3 34.2018 20.0144 71.8966 0.0000 10.0887 0.0000
# 4 0.0000 0.0000 0.0000 21.7478 0.0000 5.6382
# 5 -10.3557 -1.2180 10.0887 0.0000 36.0671 0.0000
# 6 0.0000 -0.0001 0.0000 5.6382 0.0000 30.9958
#
#
#
# Elastic Compliance Matrix: (Units=1/GPa)
#
#
# Indices 1 2 3 4 5 6 
#
# 1 0.038533 -0.008369 -0.018229 0.000000 0.015880 0.000000
# 2 -0.008369 0.024984 -0.002868 0.000000 -0.000757 0.000000
# 3 -0.018229 -0.002868 0.025113 0.000000 -0.012355 0.000000
# 4 0.000000 0.000000 0.000000 0.048257 0.000000 -0.008778
# 5 0.015880 -0.000757 -0.012355 0.000000 0.035716 0.000000
# 6 0.000000 0.000000 0.000000 -0.008778 0.000000 0.033859
#
#
# Mechanical properties :
#
#
# Convention : Reuss Voigt Hill
#
# Bulk Modulus (GPa) = 33.67142 35.74809 34.70976
# Shear Modulus (GPa) = 18.16238 24.23642 21.19940
#
# Velocity S-wave (km/s) = 2.94659 3.40382 3.18342
# Velocity P-wave (km/s) = 5.26050 5.70413 5.48680
#
# Compressibility (1/GPa) = 0.02969877
#
# Stress axis : x y z
#
# Youngs Moduli (GPa) = 25.95158 40.02511 39.82040
#
# Poissons Ratio (x) = 0.33496 0.72590
# Poissons Ratio (y) = 0.21718 0.11420
# Poissons Ratio (z) = 0.47308 0.11478
#
# Static dielectric constant tensor:
#      x y z
#    x 3.615440 0.000000 -0.166990 
#    y 0.000000 3.732300 0.000000 
#    z -0.166990 0.000000 4.087080 
# 
# 
# High freq. dielectric constant tensor:
#      x y z
#    x 1.813530 0.000000 -0.008820 
#    y 0.000000 1.810820 0.000000 
#    z -0.008820 0.000000 1.831350 
# 
# From -- ./inp_files/238247.got.cif
#   From: 2010.06.25/outbox.cif.g09.slc.cpg/sg12_120_cif.got.tgz:238247.got - 2010.06.28 00:19:55.
