data_PCOD8098053
_publ_section_title
;
Structure prediction by ZEFSAII (Michael W. Deem and Ramdas Pophale) SiO2 
 PCOD8098053
Probable space group: C 2/M
;
_chemical_formula_sum "Si O2"
_cell_formula_units_Z 40
_cell_length_a 10.633597
_cell_length_b 13.432534
_cell_length_c 14.640428
_cell_angle_alpha 90.000000
_cell_angle_beta 106.014807
_cell_angle_gamma 90.000000
_cell_volume 2010.024528
_symmetry_space_group_name_H-M "C 2/M"
_symmetry_group_IT_number 12
_symmetry_cell_setting 'monoclinic'
loop_
_space_group_symop_operation_xyz
x,y,z
-x,y,-z
-x,-y,-z
x,-y,z
1/2+x,1/2+y,z
1/2-x,1/2+y,-z
1/2-x,1/2-y,-z
1/2+x,1/2-y,z
loop_
_atom_site_type_symbol
_atom_site_label
_atom_site_fract_x
_atom_site_fract_y
_atom_site_fract_z
Si Si1 0.919561 0.000000 0.076819
Si Si2 0.861231 0.500000 0.923127
Si Si3 0.666918 0.886875 0.422678
Si Si4 0.694727 0.171175 0.226875
Si Si5 0.473910 0.674431 0.223946
Si Si6 0.081057 0.175601 0.430961
O O1 0.960641 0.904803 0.142180
O O2 0.761414 0.000000 0.029887
O O3 0.000000 0.000000 0.000000
O O4 0.852494 0.594109 0.856955
O O5 0.000000 0.500000 0.000000
O O6 0.723414 0.879119 0.331109
O O7 0.772627 0.862236 0.522159
O O8 0.562903 0.796663 0.414712
O O9 0.611281 0.000000 0.426624
O O10 0.575700 0.246587 0.206803
O O11 0.831071 0.221167 0.220229
O O12 0.531252 0.624442 0.327950
O O13 0.000000 0.136379 0.500000
#
# Coordination Sequence:
#
# PCOD8098053 Si02
#       6
#     4   4   8   8   8   8
#     4  10  24  44  62  86 119 151 194 250 301 347
#     4  10  22  40  65  87 111 149 200 244 300 357
#     4  10  20  34  55  82 121 158 195 233 283 342
#     4  10  20  39  59  88 118 155 193 241 292 349
#     4  10  22  38  61  87 120 156 195 239 291 347
#     4  10  20  34  55  85 120 155 194 237 281 343
#
# _framework density 19.900255000000001
#
# number of rings (size 3 to 8) (size 9 to 14) (size 15 to 20)
#    0.000    2.000    3.000    0.000    1.400    3.200 
#    0.000    4.000    0.000    0.000    0.000    0.000 
#    0.000    0.000    0.000    0.000    0.000    0.000 
#
# Total GULP energy -247782.666170 kJ/mol
# GULP energy per Si atom -12389.133308 kJ/mol
# Density = 1.985496 g / cm^3
# Si number density = 19.900255 Si / 1000 Ang^3
#
#
#
# Elastic Constant Matrix: (Units=GPa)
#
#
# Indices 1 2 3 4 5 6 
#
# 1 139.2814 37.0826 73.1615 0.0000 2.4737 0.0000
# 2 37.0826 74.0334 27.3541 0.0000 3.1983 0.0000
# 3 73.1615 27.3541 128.4854 0.0000 1.6227 0.0000
# 4 0.0000 0.0000 0.0000 22.6377 0.0000 -0.0345
# 5 2.4737 3.1983 1.6227 0.0000 36.7810 0.0000
# 6 0.0000 0.0000 0.0000 -0.0345 0.0000 21.7869
#
#
#
# Elastic Compliance Matrix: (Units=1/GPa)
#
#
# Indices 1 2 3 4 5 6 
#
# 1 0.011010 -0.003463 -0.005529 0.000000 -0.000195 0.000000
# 2 -0.003463 0.015798 -0.001378 0.000000 -0.001080 0.000000
# 3 -0.005529 -0.001378 0.011225 0.000000 -0.000004 0.000000
# 4 0.000000 0.000000 0.000000 0.044174 0.000000 0.000070
# 5 -0.000195 -0.001080 -0.000004 0.000000 0.027295 0.000000
# 6 0.000000 0.000000 0.000000 0.000070 0.000000 0.045899
#
#
# Mechanical properties :
#
#
# Convention : Reuss Voigt Hill
#
# Bulk Modulus (GPa) = 57.83044 68.55516 63.19280
# Shear Modulus (GPa) = 27.48685 29.85457 28.67071
#
# Velocity S-wave (km/s) = 3.72052 3.87746 3.79980
# Velocity P-wave (km/s) = 6.89780 7.38718 7.14668
#
# Compressibility (1/GPa) = 0.01729193
#
# Stress axis : x y z
#
# Youngs Moduli (GPa) = 90.82947 63.30002 89.08855
#
# Poissons Ratio (x) = 0.21922 0.49260
# Poissons Ratio (y) = 0.31456 0.12273
# Poissons Ratio (z) = 0.50222 0.08721
#
# Static dielectric constant tensor:
#      x y z
#    x 3.676350 0.000000 0.010000 
#    y 0.000000 3.519250 0.000000 
#    z 0.010000 0.000000 3.731990 
# 
# 
# High freq. dielectric constant tensor:
#      x y z
#    x 1.772510 0.000000 0.000870 
#    y 0.000000 1.761350 0.000000 
#    z 0.000870 0.000000 1.782100 
# 
# From -- ./inp_files/203291.got.cif
#   From: 2010.06.25/outbox.cif.g09.slc.cpg/sg12_102_cif.got.tgz:203291.got - 2010.06.28 00:19:55.
