data_PCOD8098915
_publ_section_title
;
Structure prediction by ZEFSAII (Michael W. Deem and Ramdas Pophale) SiO2 
 PCOD8098915
Probable space group: C 2/M
;
_chemical_formula_sum "Si O2"
_cell_formula_units_Z 56
_cell_length_a 14.479037
_cell_length_b 8.726532
_cell_length_c 32.036575
_cell_angle_alpha 90.000000
_cell_angle_beta 47.985056
_cell_angle_gamma 90.000000
_cell_volume 3007.453234
_symmetry_space_group_name_H-M "C 2/M"
_symmetry_group_IT_number 12
_symmetry_cell_setting 'monoclinic'
loop_
_space_group_symop_operation_xyz
x,y,z
-x,y,-z
-x,-y,-z
x,-y,z
1/2+x,1/2+y,z
1/2-x,1/2+y,-z
1/2-x,1/2-y,-z
1/2+x,1/2-y,z
loop_
_atom_site_type_symbol
_atom_site_label
_atom_site_fract_x
_atom_site_fract_y
_atom_site_fract_z
Si Si1 0.593414 0.317140 0.269152
Si Si2 0.840566 0.321351 0.439239
Si Si3 0.928501 0.321083 0.932531
Si Si4 0.706321 0.179715 0.856999
Si Si5 0.672042 0.182064 0.651377
Si Si6 0.122238 0.681626 0.349884
Si Si7 0.720870 0.179495 0.944063
O O1 0.591300 0.500000 0.273425
O O2 0.688730 0.254196 0.205372
O O3 0.458674 0.256509 0.295901
O O4 0.642500 0.247659 0.297644
O O5 0.824976 0.500000 0.447715
O O6 0.750000 0.250000 0.500000
O O7 0.801443 0.268544 0.404522
O O8 0.982571 0.273930 0.406394
O O9 0.896459 0.500000 0.936916
O O10 0.854396 0.223042 0.921519
O O11 0.070913 0.284620 0.879553
O O12 0.889123 0.267012 0.991275
O O13 0.710995 0.257295 0.901476
O O14 0.728385 0.000000 0.854288
O O15 0.781954 0.243652 0.646990
O O16 0.661074 0.000000 0.659135
O O17 0.141704 0.500000 0.342977
O O18 0.710005 0.000000 0.941294
#
# Coordination Sequence:
#
# PCOD8098915 Si02
#       7
#     8   8   8   8   8   8   8
#     4  10  20  35  54  77 105 137 175 221 266 310
#     4   9  20  36  55  81 112 140 172 214 255 302
#     4   9  17  31  50  71  97 129 164 204 251 305
#     4   9  18  32  51  74  98 129 169 207 252 309
#     4  10  21  38  57  79 107 142 180 216 258 307
#     4  10  21  38  57  79 107 142 180 216 258 307
#     4   9  17  31  50  71  97 129 164 204 251 305
#
# _framework density 18.620405999999999
#
# number of rings (size 3 to 8) (size 9 to 14) (size 15 to 20)
#    0.000    2.571    0.000    2.571    0.000    6.857 
#    0.000    9.286    0.000    3.429    0.000    0.000 
#    0.000    0.000    0.000    0.000    0.000    0.000 
#
# Total GULP energy -347102.326954 kJ/mol
# GULP energy per Si atom -12396.511677 kJ/mol
# Density = 1.857803 g / cm^3
# Si number density = 18.620406 Si / 1000 Ang^3
#
#
#
# Elastic Constant Matrix: (Units=GPa)
#
#
# Indices 1 2 3 4 5 6 
#
# 1 97.4491 11.9426 53.4632 0.0001 -3.9640 0.0000
# 2 11.9426 29.7970 23.4052 0.0004 -1.1126 0.0000
# 3 53.4632 23.4052 132.1431 0.0001 -15.0137 0.0001
# 4 0.0001 0.0004 0.0001 23.1291 0.0001 -1.2351
# 5 -3.9640 -1.1126 -15.0137 0.0001 20.4606 0.0001
# 6 0.0000 0.0000 0.0001 -1.2351 0.0001 32.4204
#
#
#
# Elastic Compliance Matrix: (Units=1/GPa)
#
#
# Indices 1 2 3 4 5 6 
#
# 1 0.013267 -0.001195 -0.005314 0.000000 -0.001394 0.000000
# 2 -0.001195 0.039287 -0.006828 -0.000001 -0.003105 0.000000
# 3 -0.005314 -0.006828 0.011747 0.000000 0.007219 0.000000
# 4 0.000000 -0.000001 0.000000 0.043324 0.000000 0.001651
# 5 -0.001394 -0.003105 0.007219 0.000000 0.053733 0.000000
# 6 0.000000 0.000000 0.000000 0.001651 0.000000 0.030908
#
#
# Mechanical properties :
#
#
# Convention : Reuss Voigt Hill
#
# Bulk Modulus (GPa) = 26.57708 48.55678 37.56693
# Shear Modulus (GPa) = 21.60000 26.57391 24.08695
#
# Velocity S-wave (km/s) = 3.40960 3.78185 3.60054
# Velocity P-wave (km/s) = 5.45936 6.72336 6.12406
#
# Compressibility (1/GPa) = 0.03762641
#
# Stress axis : x y z
#
# Youngs Moduli (GPa) = 75.37413 25.45403 85.12647
#
# Poissons Ratio (x) = 0.03042 0.45240
# Poissons Ratio (y) = 0.09008 0.58122
# Poissons Ratio (z) = 0.40057 0.17379
#
# Static dielectric constant tensor:
#      x y z
#    x 3.502280 0.000000 0.000640 
#    y 0.000000 3.273700 0.000000 
#    z 0.000640 0.000000 3.206920 
# 
# 
# High freq. dielectric constant tensor:
#      x y z
#    x 1.728280 0.000000 -0.000670 
#    y 0.000000 1.708750 0.000000 
#    z -0.000670 0.000000 1.727350 
# 
# From -- ./inp_files/374952.got.cif
#   From: 2010.06.25/outbox.cif.g09.slc.cpg/sg12_188_cif.got.tgz:374952.got - 2010.06.28 00:19:55.
