data_PCOD8098928
_publ_section_title
;
Structure prediction by ZEFSAII (Michael W. Deem and Ramdas Pophale) SiO2 
 PCOD8098928
Probable space group: C 2/M
;
_chemical_formula_sum "Si O2"
_cell_formula_units_Z 40
_cell_length_a 19.084702
_cell_length_b 8.761810
_cell_length_c 27.634652
_cell_angle_alpha 90.000000
_cell_angle_beta 27.477917
_cell_angle_gamma 90.000000
_cell_volume 2132.146868
_symmetry_space_group_name_H-M "C 2/M"
_symmetry_group_IT_number 12
_symmetry_cell_setting 'monoclinic'
loop_
_space_group_symop_operation_xyz
x,y,z
-x,y,-z
-x,-y,-z
x,-y,z
1/2+x,1/2+y,z
1/2-x,1/2+y,-z
1/2-x,1/2-y,-z
1/2+x,1/2-y,z
loop_
_atom_site_type_symbol
_atom_site_label
_atom_site_fract_x
_atom_site_fract_y
_atom_site_fract_z
Si Si1 0.292200 0.177468 0.759840
Si Si2 0.451311 0.678636 0.940049
Si Si3 0.633445 0.322371 0.382908
Si Si4 0.167605 0.179784 0.165017
Si Si5 0.970662 0.678223 0.205765
O O1 0.382071 0.226329 0.656677
O O2 0.358415 0.274035 0.763527
O O3 0.114754 0.215616 0.862432
O O4 0.319158 0.000000 0.753355
O O5 0.417459 0.500000 0.958847
O O6 0.438756 0.744589 0.893803
O O7 0.329294 0.757478 0.048898
O O8 0.500000 0.268204 0.500000
O O9 0.619433 0.500000 0.378292
O O10 0.792078 0.286801 0.312121
O O11 0.029919 0.251486 0.219191
O O12 0.164026 0.000000 0.161450
O O13 0.006619 0.500000 0.182282
#
# Coordination Sequence:
#
# PCOD8098928 Si02
#       5
#     8   8   8   8   8
#     4  10  21  36  55  80 108 139 177 218 261 312
#     4  10  20  35  54  77 108 144 180 215 256 310
#     4   9  19  38  62  83 103 132 172 218 267 318
#     4  12  23  34  51  77 111 145 178 217 260 307
#     4  10  20  35  55  79 108 140 176 216 260 312
#
# _framework density 18.760434
#
# number of rings (size 3 to 8) (size 9 to 14) (size 15 to 20)
#    0.000    1.800    0.000    4.800    0.000    6.000 
#    0.000    1.000    0.000    0.000    0.000    0.000 
#    0.000    0.000    0.000    0.000    0.000    0.000 
#
# Total GULP energy -248121.615736 kJ/mol
# GULP energy per Si atom -12406.080787 kJ/mol
# Density = 1.871773 g / cm^3
# Si number density = 18.760434 Si / 1000 Ang^3
#
#
#
# Elastic Constant Matrix: (Units=GPa)
#
#
# Indices 1 2 3 4 5 6 
#
# 1 135.1878 60.7377 42.7592 0.0004 16.7240 -0.0021
# 2 60.7377 118.6480 38.2625 -0.0006 10.4954 -0.0036
# 3 42.7592 38.2625 97.8823 -0.0032 19.6207 -0.0003
# 4 0.0004 -0.0006 -0.0032 25.7380 0.0005 4.2772
# 5 16.7240 10.4954 19.6207 0.0005 16.2224 0.0007
# 6 -0.0021 -0.0036 -0.0003 4.2772 0.0007 35.1426
#
#
#
# Elastic Compliance Matrix: (Units=1/GPa)
#
#
# Indices 1 2 3 4 5 6 
#
# 1 0.010654 -0.004358 -0.001735 0.000000 -0.006066 0.000000
# 2 -0.004358 0.011487 -0.002637 0.000000 0.000250 0.000001
# 3 -0.001735 -0.002637 0.014922 0.000002 -0.014554 0.000000
# 4 0.000000 0.000000 0.000002 0.039655 -0.000003 -0.004826
# 5 -0.006066 0.000250 -0.014554 -0.000003 0.085337 -0.000002
# 6 0.000000 0.000001 0.000000 -0.004826 -0.000002 0.029043
#
#
# Mechanical properties :
#
#
# Convention : Reuss Voigt Hill
#
# Bulk Modulus (GPa) = 51.00787 70.58189 60.79488
# Shear Modulus (GPa) = 23.24571 29.41785 26.33178
#
# Velocity S-wave (km/s) = 3.52388 3.96419 3.75050
# Velocity P-wave (km/s) = 6.61854 7.65882 7.15760
#
# Compressibility (1/GPa) = 0.01960482
#
# Stress axis : x y z
#
# Youngs Moduli (GPa) = 93.85967 87.05144 67.01409
#
# Poissons Ratio (x) = 0.37937 0.11625
# Poissons Ratio (y) = 0.40904 0.17670
# Poissons Ratio (z) = 0.16282 0.22954
#
# Static dielectric constant tensor:
#      x y z
#    x 3.512660 0.000000 0.024560 
#    y 0.000000 3.531910 0.000000 
#    z 0.024560 0.000000 3.330360 
# 
# 
# High freq. dielectric constant tensor:
#      x y z
#    x 1.735900 0.000000 0.004560 
#    y 0.000000 1.741080 0.000000 
#    z 0.004560 0.000000 1.711210 
# 
# From -- ./inp_files/151615.got.cif
#   From: 2010.06.25/outbox.cif.g09.slc.cpg/sg12_76_cif.got.tgz:151615.got - 2010.06.28 00:19:55.
