data_PCOD8098170
_publ_section_title
;
Structure prediction by ZEFSAII (Michael W. Deem and Ramdas Pophale) SiO2 
 PCOD8098170
Probable space group: C 2/M
;
_chemical_formula_sum "Si O2"
_cell_formula_units_Z 64
_cell_length_a 21.344271
_cell_length_b 14.438833
_cell_length_c 14.419729
_cell_angle_alpha 90.000000
_cell_angle_beta 43.000057
_cell_angle_gamma 90.000000
_cell_volume 3030.779296
_symmetry_space_group_name_H-M "C 2/M"
_symmetry_group_IT_number 12
_symmetry_cell_setting 'monoclinic'
loop_
_space_group_symop_operation_xyz
x,y,z
-x,y,-z
-x,-y,-z
x,-y,z
1/2+x,1/2+y,z
1/2-x,1/2+y,-z
1/2-x,1/2-y,-z
1/2+x,1/2-y,z
loop_
_atom_site_type_symbol
_atom_site_label
_atom_site_fract_x
_atom_site_fract_y
_atom_site_fract_z
Si Si1 0.364584 0.391820 0.984606
Si Si2 0.691437 0.100984 0.827576
Si Si3 0.427754 0.604931 0.268693
Si Si4 0.948934 0.391027 0.681804
Si Si5 0.170208 0.791269 0.787304
Si Si6 0.614901 0.796381 0.433739
Si Si7 0.210954 0.391370 0.014847
Si Si8 0.617826 0.599407 0.474694
O O1 0.344542 0.500000 0.016862
O O2 0.464936 0.371349 0.835170
O O3 0.356171 0.350624 0.095511
O O4 0.291057 0.345713 0.992256
O O5 0.635697 0.184724 0.839961
O O6 0.780468 0.083937 0.670952
O O7 0.639183 0.000000 0.889951
O O8 0.717832 0.140744 0.901096
O O9 0.415428 0.500000 0.245737
O O10 0.382599 0.673399 0.244604
O O11 0.378347 0.619867 0.419959
O O12 0.954176 0.500000 0.658758
O O13 0.896298 0.345382 0.652387
O O14 0.890463 0.366630 0.836594
O O15 0.052156 0.350183 0.577798
O O16 0.279443 0.797015 0.649544
O O17 0.576569 0.690034 0.468753
O O18 0.228408 0.500000 0.999097
O O19 0.564428 0.500000 0.514922
#
# Coordination Sequence:
#
# PCOD8098170 Si02
#       8
#     8   8   8   8   8   8   8   8
#     4  10  20  36  57  88 120 148 189 240 290 348
#     4   9  20  38  59  85 117 155 195 237 288 346
#     4  10  22  39  60  86 117 152 193 243 295 345
#     4  10  20  36  56  83 122 153 187 238 285 338
#     4  11  21  35  60  89 116 152 191 242 293 346
#     4  10  20  34  55  86 114 152 191 232 285 348
#     4   9  18  36  60  83 117 157 190 230 287 348
#     4   9  20  41  58  79 116 153 193 246 288 336
#
# _framework density 21.116681
#
# number of rings (size 3 to 8) (size 9 to 14) (size 15 to 20)
#    0.000    2.250    1.250    1.500    0.000    6.000 
#    9.000    1.250    0.000    3.000    0.000    0.000 
#    0.000    0.000    0.000    0.000    0.000    0.000 
#
# Total GULP energy -396521.455296 kJ/mol
# GULP energy per Si atom -12391.295478 kJ/mol
# Density = 2.106862 g / cm^3
# Si number density = 21.116681 Si / 1000 Ang^3
#
#
#
# Elastic Constant Matrix: (Units=GPa)
#
#
# Indices 1 2 3 4 5 6 
#
# 1 30.7421 33.8031 34.1183 0.0000 -0.9170 0.0000
# 2 33.8031 124.8773 39.3041 0.0000 -2.2524 0.0000
# 3 34.1183 39.3041 126.7330 0.0000 19.1874 0.0000
# 4 0.0000 0.0000 0.0000 37.1179 0.0000 -5.6592
# 5 -0.9170 -2.2524 19.1874 0.0000 19.6415 0.0000
# 6 0.0000 0.0000 0.0000 -5.6592 0.0000 28.1637
#
#
#
# Elastic Compliance Matrix: (Units=1/GPa)
#
#
# Indices 1 2 3 4 5 6 
#
# 1 0.064200 -0.011958 -0.016220 0.000000 0.017471 0.000000
# 2 -0.011958 0.011430 -0.000516 0.000000 0.001256 0.000000
# 3 -0.016220 -0.000516 0.014717 0.000000 -0.015194 0.000000
# 4 0.000000 0.000000 0.000000 0.027793 0.000000 0.005585
# 5 0.017471 0.001256 -0.015194 0.000000 0.066715 0.000000
# 6 0.000000 0.000000 0.000000 0.005585 0.000000 0.036629
#
#
# Mechanical properties :
#
#
# Convention : Reuss Voigt Hill
#
# Bulk Modulus (GPa) = 30.34015 55.20037 42.77026
# Shear Modulus (GPa) = 17.24990 28.65976 22.95483
#
# Velocity S-wave (km/s) = 2.86122 3.68803 3.30062
# Velocity P-wave (km/s) = 5.03135 6.65829 5.90116
#
# Compressibility (1/GPa) = 0.03295963
#
# Stress axis : x y z
#
# Youngs Moduli (GPa) = 15.57641 87.49114 67.94639
#
# Poissons Ratio (x) = 1.04622 1.10209
# Poissons Ratio (y) = 0.18626 0.03504
# Poissons Ratio (z) = 0.25265 0.04512
#
# Static dielectric constant tensor:
#      x y z
#    x 3.435690 0.000000 0.030420 
#    y 0.000000 4.443340 0.000000 
#    z 0.030420 0.000000 4.033640 
# 
# 
# High freq. dielectric constant tensor:
#      x y z
#    x 1.781290 0.000000 0.008750 
#    y 0.000000 1.848580 0.000000 
#    z 0.008750 0.000000 1.841240 
# 
# From -- ./inp_files/240682.got.cif
#   From: 2010.06.25/outbox.cif.g09.slc.cpg/sg12_121_cif.got.tgz:240682.got - 2010.06.28 00:19:55.
