data_PCOD8098480
_publ_section_title
;
Structure prediction by ZEFSAII (Michael W. Deem and Ramdas Pophale) SiO2 
 PCOD8098480
Probable space group: C 2/M
;
_chemical_formula_sum "Si O2"
_cell_formula_units_Z 56
_cell_length_a 19.413589
_cell_length_b 9.042741
_cell_length_c 27.106258
_cell_angle_alpha 90.000000
_cell_angle_beta 38.633814
_cell_angle_gamma 90.000000
_cell_volume 2970.962348
_symmetry_space_group_name_H-M "C 2/M"
_symmetry_group_IT_number 12
_symmetry_cell_setting 'monoclinic'
loop_
_space_group_symop_operation_xyz
x,y,z
-x,y,-z
-x,-y,-z
x,-y,z
1/2+x,1/2+y,z
1/2-x,1/2+y,-z
1/2-x,1/2-y,-z
1/2+x,1/2-y,z
loop_
_atom_site_type_symbol
_atom_site_label
_atom_site_fract_x
_atom_site_fract_y
_atom_site_fract_z
Si Si1 0.488332 0.172165 0.151755
Si Si2 0.199063 0.668919 0.983287
Si Si3 0.761442 0.826164 0.723122
Si Si4 0.429240 0.824694 0.698691
Si Si5 0.373466 0.170092 0.571602
Si Si6 0.594863 0.325659 0.186016
Si Si7 0.155228 0.669045 0.524223
O O1 0.366808 0.218181 0.202805
O O2 0.526401 0.269809 0.176954
O O3 0.492511 0.000000 0.165266
O O4 0.567159 0.200924 0.059033
O O5 0.222389 0.500000 0.981073
O O6 0.272324 0.710589 0.894058
O O7 0.250000 0.750000 0.000000
O O8 0.820513 0.743815 0.735042
O O9 0.807421 0.775724 0.644756
O O10 0.779852 0.000000 0.719004
O O11 0.447926 0.760964 0.742610
O O12 0.533717 0.774208 0.607271
O O13 0.415884 0.000000 0.708451
O O14 0.500000 0.219114 0.500000
O O15 0.323225 0.192345 0.545611
O O16 0.363755 0.000000 0.595086
O O17 0.573010 0.500000 0.205088
O O18 0.163652 0.500000 0.534943
O O19 0.250000 0.750000 0.500000
#
# Coordination Sequence:
#
# PCOD8098480 Si02
#       7
#     8   8   8   8   8   8   8
#     4   9  19  36  57  83 114 147 181 223 275 329
#     4   8  15  31  54  79 110 144 179 221 270 322
#     4  11  23  37  57  85 112 143 187 231 271 324
#     4  11  23  41  58  77 112 152 183 222 280 332
#     4  10  20  40  61  78 106 147 186 220 271 329
#     4  10  20  34  57  87 112 142 186 230 271 322
#     4  10  23  40  59  81 108 143 182 225 273 326
#
# _framework density 18.849112000000002
#
# number of rings (size 3 to 8) (size 9 to 14) (size 15 to 20)
#    0.000    2.143    1.429    1.286    2.000    3.714 
#    0.000    0.714    0.000    4.286    0.000    0.000 
#    0.000    0.000    0.000    0.000    0.000    0.000 
#
# Total GULP energy -347035.904701 kJ/mol
# GULP energy per Si atom -12394.139454 kJ/mol
# Density = 1.880621 g / cm^3
# Si number density = 18.849112 Si / 1000 Ang^3
#
#
#
# Elastic Constant Matrix: (Units=GPa)
#
#
# Indices 1 2 3 4 5 6 
#
# 1 80.3451 35.2463 22.8178 0.0000 -16.7793 -0.0010
# 2 35.2463 66.4035 33.6382 0.0001 -6.9379 -0.0019
# 3 22.8178 33.6382 65.9991 0.0000 -16.8007 -0.0001
# 4 0.0000 0.0001 0.0000 26.8090 0.0000 0.4434
# 5 -16.7793 -6.9379 -16.8007 0.0000 32.2930 0.0000
# 6 -0.0010 -0.0019 -0.0001 0.4434 0.0000 33.9860
#
#
#
# Elastic Compliance Matrix: (Units=1/GPa)
#
#
# Indices 1 2 3 4 5 6 
#
# 1 0.017795 -0.008778 0.000225 0.000000 0.007477 0.000000
# 2 -0.008778 0.024670 -0.010778 0.000000 -0.004868 0.000001
# 3 0.000225 -0.010778 0.023062 0.000000 0.009800 -0.000001
# 4 0.000000 0.000000 0.000000 0.037309 0.000000 -0.000487
# 5 0.007477 -0.004868 0.009800 0.000000 0.038904 0.000000
# 6 0.000000 0.000001 -0.000001 -0.000487 0.000000 0.029430
#
#
# Mechanical properties :
#
#
# Convention : Reuss Voigt Hill
#
# Bulk Modulus (GPa) = 37.22380 44.01692 40.62036
# Shear Modulus (GPa) = 22.85329 26.68730 24.77029
#
# Velocity S-wave (km/s) = 3.48578 3.76684 3.62903
# Velocity P-wave (km/s) = 5.99934 6.50552 6.25755
#
# Compressibility (1/GPa) = 0.02686454
#
# Stress axis : x y z
#
# Youngs Moduli (GPa) = 56.19632 40.53488 43.36167
#
# Poissons Ratio (x) = 0.35582 -0.00977
# Poissons Ratio (y) = 0.49330 0.46736
# Poissons Ratio (z) = -0.01266 0.43689
#
# Static dielectric constant tensor:
#      x y z
#    x 3.264460 0.000000 -0.088450 
#    y 0.000000 3.421880 0.000000 
#    z -0.088450 0.000000 4.210540 
# 
# 
# High freq. dielectric constant tensor:
#      x y z
#    x 1.713410 0.000000 -0.006150 
#    y 0.000000 1.734720 0.000000 
#    z -0.006150 0.000000 1.748140 
# 
# From -- ./inp_files/362921.got.cif
#   From: 2010.06.25/outbox.cif.g09.slc.cpg/sg12_182_cif.got.tgz:362921.got - 2010.06.28 00:19:55.
