data_PCOD8098069
_publ_section_title
;
Structure prediction by ZEFSAII (Michael W. Deem and Ramdas Pophale) SiO2 
 PCOD8098069
Probable space group: C 2/M
;
_chemical_formula_sum "Si O2"
_cell_formula_units_Z 56
_cell_length_a 16.673800
_cell_length_b 14.038780
_cell_length_c 19.881462
_cell_angle_alpha 90.000000
_cell_angle_beta 143.119191
_cell_angle_gamma 90.000000
_cell_volume 2793.018277
_symmetry_space_group_name_H-M "C 2/M"
_symmetry_group_IT_number 12
_symmetry_cell_setting 'monoclinic'
loop_
_space_group_symop_operation_xyz
x,y,z
-x,y,-z
-x,-y,-z
x,-y,z
1/2+x,1/2+y,z
1/2-x,1/2+y,-z
1/2-x,1/2-y,-z
1/2+x,1/2-y,z
loop_
_atom_site_type_symbol
_atom_site_label
_atom_site_fract_x
_atom_site_fract_y
_atom_site_fract_z
Si Si1 0.942334 0.205648 0.125369
Si Si2 0.596122 0.892988 0.710873
Si Si3 0.972077 0.889273 0.683456
Si Si4 0.182757 0.392863 0.919657
Si Si5 0.761553 0.215065 0.718838
Si Si6 0.101418 0.107570 0.629014
Si Si7 0.682175 0.889302 0.534525
O O1 0.891739 0.314788 0.084036
O O2 0.954330 0.175195 0.211562
O O3 0.081533 0.195934 0.180301
O O4 0.839042 0.134774 0.019468
O O5 0.613215 0.888201 0.801381
O O6 0.709719 0.830336 0.752739
O O7 0.446886 0.855515 0.594053
O O8 0.612944 0.000000 0.695200
O O9 0.813340 0.868390 0.577739
O O10 0.027319 0.860155 0.647675
O O11 0.000256 0.000000 0.718585
O O12 0.168406 0.500000 0.940074
O O13 0.730371 0.327569 0.700894
O O14 0.682900 0.169262 0.603903
O O15 0.000000 0.118438 0.500000
O O16 0.154530 0.000000 0.670666
O O17 0.674868 0.000000 0.548920
#
# Coordination Sequence:
#
# PCOD8098069 Si02
#       7
#     8   8   8   8   8   8   8
#     4  10  22  38  58  81 104 140 184 222 267 322
#     4  10  20  34  55  83 113 142 174 221 278 325
#     4   9  18  35  58  80 107 144 184 224 261 310
#     4  10  22  40  59  79 105 138 180 228 271 316
#     4  11  21  34  54  81 114 145 176 218 268 324
#     4  10  21  35  52  79 115 151 183 217 262 315
#     4   9  18  33  55  83 111 142 180 219 266 322
#
# _framework density 20.049993000000001
#
# number of rings (size 3 to 8) (size 9 to 14) (size 15 to 20)
#    0.000    2.143    0.000    3.000    0.000    5.143 
#    0.000    7.857    0.000    0.000    0.000    8.000 
#    0.000    0.000    0.000    0.000    0.000    0.000 
#
# Total GULP energy -347251.022657 kJ/mol
# GULP energy per Si atom -12401.822238 kJ/mol
# Density = 2.000436 g / cm^3
# Si number density = 20.049993 Si / 1000 Ang^3
#
#
#
# Elastic Constant Matrix: (Units=GPa)
#
#
# Indices 1 2 3 4 5 6 
#
# 1 52.8825 23.4077 12.3322 0.0000 9.3095 -0.0001
# 2 23.4077 100.9855 30.7970 -0.0001 10.2330 -0.0001
# 3 12.3322 30.7970 82.8701 -0.0003 21.9617 -0.0005
# 4 0.0000 -0.0001 -0.0003 23.9772 -0.0001 5.3423
# 5 9.3095 10.2330 21.9617 -0.0001 22.1397 -0.0001
# 6 -0.0001 -0.0001 -0.0005 5.3423 -0.0001 24.6866
#
#
#
# Elastic Compliance Matrix: (Units=1/GPa)
#
#
# Indices 1 2 3 4 5 6 
#
# 1 0.022144 -0.004479 0.000391 0.000000 -0.007629 0.000000
# 2 -0.004479 0.012107 -0.003865 0.000000 0.000121 0.000000
# 3 0.000391 -0.003865 0.017657 0.000000 -0.015893 0.000000
# 4 0.000000 0.000000 0.000000 0.043819 0.000000 -0.009483
# 5 -0.007629 0.000121 -0.015893 0.000000 0.064085 0.000000
# 6 0.000000 0.000000 0.000000 -0.009483 0.000000 0.042560
#
#
# Mechanical properties :
#
#
# Convention : Reuss Voigt Hill
#
# Bulk Modulus (GPa) = 27.77593 41.09018 34.43305
# Shear Modulus (GPa) = 21.71276 25.50744 23.61010
#
# Velocity S-wave (km/s) = 3.29436 3.57065 3.43528
# Velocity P-wave (km/s) = 5.32483 6.12680 5.73984
#
# Compressibility (1/GPa) = 0.03600239
#
# Stress axis : x y z
#
# Youngs Moduli (GPa) = 45.15837 82.59688 56.63430
#
# Poissons Ratio (x) = 0.36996 -0.02214
# Poissons Ratio (y) = 0.20227 0.21889
# Poissons Ratio (z) = -0.01766 0.31923
#
# Static dielectric constant tensor:
#      x y z
#    x 3.428310 0.000000 0.058160 
#    y 0.000000 3.935920 0.000000 
#    z 0.058160 0.000000 3.587870 
# 
# 
# High freq. dielectric constant tensor:
#      x y z
#    x 1.765440 0.000000 0.003260 
#    y 0.000000 1.799760 0.000000 
#    z 0.003260 0.000000 1.776810 
# 
# From -- ./inp_files/143770.got.cif
#   From: 2010.06.25/outbox.cif.g09.slc.cpg/sg12_72_cif.got.tgz:143770.got - 2010.06.28 00:19:55.
