data_PCOD8098476
_publ_section_title
;
Structure prediction by ZEFSAII (Michael W. Deem and Ramdas Pophale) SiO2 
 PCOD8098476
Probable space group: C 2/M
;
_chemical_formula_sum "Si O2"
_cell_formula_units_Z 64
_cell_length_a 21.260416
_cell_length_b 20.593361
_cell_length_c 7.374856
_cell_angle_alpha 90.000000
_cell_angle_beta 63.477472
_cell_angle_gamma 90.000000
_cell_volume 2889.073160
_symmetry_space_group_name_H-M "C 2/M"
_symmetry_group_IT_number 12
_symmetry_cell_setting 'monoclinic'
loop_
_space_group_symop_operation_xyz
x,y,z
-x,y,-z
-x,-y,-z
x,-y,z
1/2+x,1/2+y,z
1/2-x,1/2+y,-z
1/2-x,1/2-y,-z
1/2+x,1/2-y,z
loop_
_atom_site_type_symbol
_atom_site_label
_atom_site_fract_x
_atom_site_fract_y
_atom_site_fract_z
Si Si1 0.776632 0.636589 0.227503
Si Si2 0.410290 0.790485 0.984523
Si Si3 0.648596 0.074199 0.521916
Si Si4 0.947599 0.313772 0.329158
Si Si5 0.975105 0.927257 0.325621
Si Si6 0.374471 0.681858 0.543289
Si Si7 0.264712 0.428218 0.076277
Si Si8 0.602924 0.350255 0.072150
O O1 0.809833 0.600867 0.357015
O O2 0.709711 0.679549 0.377829
O O3 0.832185 0.682364 0.046633
O O4 0.750815 0.584073 0.115394
O O5 0.467597 0.805360 0.747736
O O6 0.408431 0.713883 0.032050
O O7 0.437567 0.824325 0.129044
O O8 0.581734 0.118699 0.552322
O O9 0.695897 0.078574 0.283759
O O10 0.624660 0.000000 0.589733
O O11 0.902874 0.252059 0.450783
O O12 0.039980 0.901303 0.120224
O O13 0.000000 0.929593 0.500000
O O14 0.910018 0.877366 0.383870
O O15 0.953303 0.000000 0.290287
O O16 0.395394 0.673755 0.723902
O O17 0.296553 0.500000 0.045855
O O18 0.323485 0.380876 0.081243
#
# Coordination Sequence:
#
# PCOD8098476 Si02
#       8
#     8   8   8   8   8   8   8   8
#     4  10  23  39  62  88 118 157 197 249 301 354
#     4  10  22  38  59  86 117 155 194 243 310 345
#     4  10  23  42  64  87 117 159 202 247 305 355
#     4  10  22  40  59  85 121 152 199 252 292 356
#     4   9  17  32  53  82 118 157 194 234 288 351
#     4  10  21  34  58  90 114 156 197 243 293 347
#     4  10  22  39  60  90 122 156 197 248 297 355
#     4  10  20  34  57  86 118 155 197 237 293 357
#
# _framework density 22.152432999999998
#
# number of rings (size 3 to 8) (size 9 to 14) (size 15 to 20)
#    0.000    2.125    1.250    0.750    5.250    5.500 
#    0.000    5.625    0.000    2.250    0.000    0.000 
#    0.000    0.000    0.000    0.000    0.000    0.000 
#
# Total GULP energy -396668.534809 kJ/mol
# GULP energy per Si atom -12395.891713 kJ/mol
# Density = 2.210201 g / cm^3
# Si number density = 22.152433 Si / 1000 Ang^3
#
#
#
# Elastic Constant Matrix: (Units=GPa)
#
#
# Indices 1 2 3 4 5 6 
#
# 1 68.5451 38.2748 25.0290 0.0000 -35.2916 0.0000
# 2 38.2748 159.0417 54.1186 0.0000 -39.7503 0.0000
# 3 25.0290 54.1186 70.5905 0.0000 -37.7614 0.0000
# 4 0.0000 0.0000 0.0000 37.0708 0.0000 -6.9562
# 5 -35.2916 -39.7503 -37.7614 0.0000 44.1453 0.0000
# 6 0.0000 0.0000 0.0000 -6.9562 0.0000 31.2389
#
#
#
# Elastic Compliance Matrix: (Units=1/GPa)
#
#
# Indices 1 2 3 4 5 6 
#
# 1 0.025718 -0.002101 0.004569 0.000000 0.022576 0.000000
# 2 -0.002101 0.009046 -0.005036 0.000000 0.002158 0.000000
# 3 0.004569 -0.005036 0.029378 0.000000 0.024248 0.000000
# 4 0.000000 0.000000 0.000000 0.028152 0.000000 0.006269
# 5 0.022576 0.002158 0.024248 0.000000 0.063385 0.000000
# 6 0.000000 0.000000 0.000000 0.006269 0.000000 0.033407
#
#
# Mechanical properties :
#
#
# Convention : Reuss Voigt Hill
#
# Bulk Modulus (GPa) = 16.94753 59.22469 38.08611
# Shear Modulus (GPa) = 23.37636 34.54131 28.95884
#
# Velocity S-wave (km/s) = 3.25199 3.95303 3.61952
# Velocity P-wave (km/s) = 4.66557 6.90133 5.89050
#
# Compressibility (1/GPa) = 0.05900566
#
# Stress axis : x y z
#
# Youngs Moduli (GPa) = 38.88401 110.54123 34.03899
#
# Poissons Ratio (x) = 0.23229 -0.15553
# Poissons Ratio (y) = 0.08171 0.17142
# Poissons Ratio (z) = -0.17767 0.55668
#
# Static dielectric constant tensor:
#      x y z
#    x 3.955040 0.000000 -0.389430 
#    y 0.000000 4.125570 0.000000 
#    z -0.389430 0.000000 4.225320 
# 
# 
# High freq. dielectric constant tensor:
#      x y z
#    x 1.855260 0.000000 -0.011450 
#    y 0.000000 1.871310 0.000000 
#    z -0.011450 0.000000 1.881310 
# 
# From -- ./inp_files/99096.got.cif
#   From: 2010.06.25/outbox.cif.g09.slc.cpg/sg12_50_cif.got.tgz:99096.got - 2010.06.28 00:19:55.
