data_PCOD8098106
_publ_section_title
;
Structure prediction by ZEFSAII (Michael W. Deem and Ramdas Pophale) SiO2 
 PCOD8098106
Probable space group: C 2/M
;
_chemical_formula_sum "Si O2"
_cell_formula_units_Z 64
_cell_length_a 14.524557
_cell_length_b 9.303955
_cell_length_c 28.556451
_cell_angle_alpha 90.000000
_cell_angle_beta 58.091609
_cell_angle_gamma 90.000000
_cell_volume 3275.882683
_symmetry_space_group_name_H-M "C 2/M"
_symmetry_group_IT_number 12
_symmetry_cell_setting 'monoclinic'
loop_
_space_group_symop_operation_xyz
x,y,z
-x,y,-z
-x,-y,-z
x,-y,z
1/2+x,1/2+y,z
1/2-x,1/2+y,-z
1/2-x,1/2-y,-z
1/2+x,1/2-y,z
loop_
_atom_site_type_symbol
_atom_site_label
_atom_site_fract_x
_atom_site_fract_y
_atom_site_fract_z
Si Si1 0.187337 0.335307 0.453161
Si Si2 0.312996 0.164808 0.052707
Si Si3 0.413544 0.332743 0.438945
Si Si4 0.879580 0.663585 0.938556
Si Si5 0.008818 0.337115 0.181666
Si Si6 0.623523 0.167748 0.365758
Si Si7 0.300259 0.330718 0.243477
Si Si8 0.754233 0.331743 0.845718
O O1 0.156149 0.500000 0.472330
O O2 0.311368 0.303787 0.433017
O O3 0.106165 0.236935 0.504864
O O4 0.174021 0.297123 0.402627
O O5 0.205249 0.216586 0.054919
O O6 0.329978 0.256291 0.095471
O O7 0.300912 0.000000 0.071268
O O8 0.407120 0.183011 0.986960
O O9 0.437301 0.500000 0.439640
O O10 0.514739 0.257756 0.386681
O O11 0.833358 0.500000 0.943098
O O12 0.984839 0.681203 0.876881
O O13 0.981623 0.500000 0.203047
O O14 0.914352 0.238331 0.227689
O O15 0.122918 0.289922 0.173809
O O16 0.708844 0.220584 0.304173
O O17 0.596326 0.000000 0.367362
O O18 0.315130 0.500000 0.241655
O O19 0.266722 0.276495 0.201003
O O20 0.733700 0.500000 0.855432
#
# Coordination Sequence:
#
# PCOD8098106 Si02
#       8
#     8   8   8   8   8   8   8   8
#     4   9  19  36  56  79 110 143 170 204 255 307
#     4   9  15  25  47  76  99 126 168 210 251 309
#     4  10  20  34  55  84 112 137 170 211 253 301
#     4   8  15  28  46  71 103 133 161 203 262 317
#     4   9  18  34  54  73  98 133 168 208 260 309
#     4  10  21  37  55  75 104 142 177 211 256 304
#     4  10  22  38  54  74 101 136 179 218 252 301
#     4   9  19  36  53  71 102 138 167 207 265 314
#
# _framework density 19.536719999999999
#
# number of rings (size 3 to 8) (size 9 to 14) (size 15 to 20)
#    0.000    2.750    0.000    1.875    0.000    7.000 
#    0.000    0.625    0.000    3.750    0.000    0.000 
#    0.000    0.000    0.000    0.000    0.000    0.000 
#
# Total GULP energy -396679.450464 kJ/mol
# GULP energy per Si atom -12396.232827 kJ/mol
# Density = 1.949225 g / cm^3
# Si number density = 19.536720 Si / 1000 Ang^3
#
#
#
# Elastic Constant Matrix: (Units=GPa)
#
#
# Indices 1 2 3 4 5 6 
#
# 1 34.7483 14.7121 14.0383 0.0000 -1.2278 0.0000
# 2 14.7121 51.7323 27.0378 0.0000 -7.3901 0.0000
# 3 14.0383 27.0378 86.8948 0.0000 -4.7111 0.0000
# 4 0.0000 0.0000 0.0000 32.7187 0.0000 -6.4332
# 5 -1.2278 -7.3901 -4.7111 0.0000 29.5086 0.0000
# 6 0.0000 0.0000 0.0000 -6.4332 0.0000 22.1636
#
#
#
# Elastic Compliance Matrix: (Units=1/GPa)
#
#
# Indices 1 2 3 4 5 6 
#
# 1 0.033357 -0.008117 -0.002924 0.000000 -0.001112 0.000000
# 2 -0.008117 0.025717 -0.006415 0.000000 0.005079 0.000000
# 3 -0.002924 -0.006415 0.014004 0.000000 0.000507 0.000000
# 4 0.000000 0.000000 0.000000 0.032413 0.000000 0.009408
# 5 -0.001112 0.005079 0.000507 0.000000 0.035195 0.000000
# 6 0.000000 0.000000 0.000000 0.009408 0.000000 0.047850
#
#
# Mechanical properties :
#
#
# Convention : Reuss Voigt Hill
#
# Bulk Modulus (GPa) = 26.20117 31.66129 28.93123
# Shear Modulus (GPa) = 21.17111 24.71732 22.94421
#
# Velocity S-wave (km/s) = 3.29547 3.56078 3.43069
# Velocity P-wave (km/s) = 5.28398 5.75733 5.52573
#
# Compressibility (1/GPa) = 0.03816623
#
# Stress axis : x y z
#
# Youngs Moduli (GPa) = 29.97873 38.88451 71.40731
#
# Poissons Ratio (x) = 0.31563 0.20876
# Poissons Ratio (y) = 0.24334 0.45810
# Poissons Ratio (z) = 0.08764 0.24946
#
# Static dielectric constant tensor:
#      x y z
#    x 3.314230 0.000000 0.100620 
#    y 0.000000 3.489310 0.000000 
#    z 0.100620 0.000000 3.784530 
# 
# 
# High freq. dielectric constant tensor:
#      x y z
#    x 1.741350 0.000000 0.005340 
#    y 0.000000 1.756030 0.000000 
#    z 0.005340 0.000000 1.764830 
# 
# From -- ./inp_files/375000.got.cif
#   From: 2010.06.25/outbox.cif.g09.slc.cpg/sg12_188_cif.got.tgz:375000.got - 2010.06.28 00:19:55.
