data_PCOD8098235
_publ_section_title
;
Structure prediction by ZEFSAII (Michael W. Deem and Ramdas Pophale) SiO2 
 PCOD8098235
Probable space group: C 2/M
;
_chemical_formula_sum "Si O2"
_cell_formula_units_Z 56
_cell_length_a 15.324390
_cell_length_b 8.589137
_cell_length_c 24.458427
_cell_angle_alpha 90.000000
_cell_angle_beta 61.642496
_cell_angle_gamma 90.000000
_cell_volume 2832.986228
_symmetry_space_group_name_H-M "C 2/M"
_symmetry_group_IT_number 12
_symmetry_cell_setting 'monoclinic'
loop_
_space_group_symop_operation_xyz
x,y,z
-x,y,-z
-x,-y,-z
x,-y,z
1/2+x,1/2+y,z
1/2-x,1/2+y,-z
1/2-x,1/2-y,-z
1/2+x,1/2-y,z
loop_
_atom_site_type_symbol
_atom_site_label
_atom_site_fract_x
_atom_site_fract_y
_atom_site_fract_z
Si Si1 0.738609 0.815575 0.847494
Si Si2 0.736308 0.817463 0.630340
Si Si3 0.895110 0.681055 0.505112
Si Si4 0.658594 0.684866 0.291660
Si Si5 0.173593 0.816143 0.065752
Si Si6 0.026116 0.183518 0.931190
Si Si7 0.437061 0.682810 0.377557
O O1 0.791968 0.745909 0.777902
O O2 0.797578 0.751169 0.882952
O O3 0.624838 0.765415 0.881101
O O4 0.743319 0.000000 0.845286
O O5 0.812626 0.784142 0.558937
O O6 0.780626 0.754627 0.674121
O O7 0.634608 0.723101 0.651619
O O8 0.713728 0.000000 0.639271
O O9 0.869113 0.500000 0.520311
O O10 0.895622 0.723561 0.441527
O O11 0.000000 0.725039 0.500000
O O12 0.659449 0.500000 0.289800
O O13 0.546035 0.744767 0.329747
O O14 0.062219 0.764488 0.083221
O O15 0.182496 0.000000 0.060914
O O16 0.250000 0.750000 0.000000
O O17 0.043499 0.000000 0.925386
O O18 0.000000 0.240789 0.000000
O O19 0.437551 0.500000 0.390355
#
# Coordination Sequence:
#
# PCOD8098235 Si02
#       7
#     8   8   8   8   8   8   8
#     4  10  21  38  59  84 111 148 195 235 276 338
#     4  11  22  39  61  85 116 154 194 239 291 343
#     4  11  22  37  60  90 119 149 193 245 289 339
#     4   9  21  40  59  80 114 154 191 234 287 343
#     4  10  20  34  56  82 112 145 182 227 279 335
#     4  10  20  35  55  83 117 147 178 228 289 339
#     4  11  22  39  62  87 116 154 195 238 290 345
#
# _framework density 19.767129000000001
#
# number of rings (size 3 to 8) (size 9 to 14) (size 15 to 20)
#    0.000    1.714    2.857    1.714    0.000    2.571 
#    0.000    4.286    0.000    0.000    0.000    0.000 
#    0.000    0.000    0.000    0.000    0.000    0.000 
#
# Total GULP energy -347300.189588 kJ/mol
# GULP energy per Si atom -12403.578200 kJ/mol
# Density = 1.972214 g / cm^3
# Si number density = 19.767129 Si / 1000 Ang^3
#
#
#
# Elastic Constant Matrix: (Units=GPa)
#
#
# Indices 1 2 3 4 5 6 
#
# 1 173.3250 18.3704 76.1271 0.0000 11.7723 0.0000
# 2 18.3704 24.5017 10.0533 0.0000 0.5269 0.0001
# 3 76.1271 10.0533 156.9868 0.0000 8.2982 0.0000
# 4 0.0000 0.0000 0.0000 13.7634 0.0000 -0.3716
# 5 11.7723 0.5269 8.2982 0.0000 17.2707 0.0000
# 6 0.0000 0.0001 0.0000 -0.3716 0.0000 29.9821
#
#
#
# Elastic Compliance Matrix: (Units=1/GPa)
#
#
# Indices 1 2 3 4 5 6 
#
# 1 0.007987 -0.004518 -0.003389 0.000000 -0.003678 0.000000
# 2 -0.004518 0.044471 -0.000767 0.000000 0.002092 0.000000
# 3 -0.003389 -0.000767 0.008146 0.000000 -0.001580 0.000000
# 4 0.000000 0.000000 0.000000 0.072681 0.000000 0.000901
# 5 -0.003678 0.002092 -0.001580 0.000000 0.061104 0.000000
# 6 0.000000 0.000000 0.000000 0.000901 0.000000 0.033364
#
#
# Mechanical properties :
#
#
# Convention : Reuss Voigt Hill
#
# Bulk Modulus (GPa) = 23.11926 62.65723 42.88824
# Shear Modulus (GPa) = 19.26625 28.88743 24.07684
#
# Velocity S-wave (km/s) = 3.12534 3.82696 3.49381
# Velocity P-wave (km/s) = 4.97442 7.16198 6.16599
#
# Compressibility (1/GPa) = 0.04325399
#
# Stress axis : x y z
#
# Youngs Moduli (GPa) = 125.20610 22.48652 122.75682
#
# Poissons Ratio (x) = 0.10160 0.41606
# Poissons Ratio (y) = 0.56574 0.09419
# Poissons Ratio (z) = 0.42436 0.01725
#
# Static dielectric constant tensor:
#      x y z
#    x 3.953530 0.000000 0.137230 
#    y 0.000000 3.348970 0.000000 
#    z 0.137230 0.000000 3.707150 
# 
# 
# High freq. dielectric constant tensor:
#      x y z
#    x 1.791330 0.000000 0.002190 
#    y 0.000000 1.751220 0.000000 
#    z 0.002190 0.000000 1.766550 
# 
# From -- ./inp_files/308916.got.cif
#   From: 2010.06.25/outbox.cif.g09.slc.cpg/sg12_155_cif.got.tgz:308916.got - 2010.06.28 00:19:55.
