data_PCOD8098243
_publ_section_title
;
Structure prediction by ZEFSAII (Michael W. Deem and Ramdas Pophale) SiO2 
 PCOD8098243
Probable space group: C 2/M
;
_chemical_formula_sum "Si O2"
_cell_formula_units_Z 64
_cell_length_a 20.545104
_cell_length_b 9.029229
_cell_length_c 20.986945
_cell_angle_alpha 90.000000
_cell_angle_beta 59.759126
_cell_angle_gamma 90.000000
_cell_volume 3363.408521
_symmetry_space_group_name_H-M "C 2/M"
_symmetry_group_IT_number 12
_symmetry_cell_setting 'monoclinic'
loop_
_space_group_symop_operation_xyz
x,y,z
-x,y,-z
-x,-y,-z
x,-y,z
1/2+x,1/2+y,z
1/2-x,1/2+y,-z
1/2-x,1/2-y,-z
1/2+x,1/2-y,z
loop_
_atom_site_type_symbol
_atom_site_label
_atom_site_fract_x
_atom_site_fract_y
_atom_site_fract_z
Si Si1 0.780468 0.824079 0.421631
Si Si2 0.530274 0.167172 0.162260
Si Si3 0.293432 0.674092 0.659619
Si Si4 0.846514 0.163621 0.834753
Si Si5 0.063015 0.667986 0.662567
Si Si6 0.953654 0.174716 0.084032
Si Si7 0.060986 0.163614 0.340292
Si Si8 0.795736 0.673584 0.170140
O O1 0.750000 0.750000 0.500000
O O2 0.727508 0.772700 0.390224
O O3 0.865400 0.773025 0.367291
O O4 0.777735 0.000000 0.429136
O O5 0.615055 0.223110 0.135024
O O6 0.479383 0.177817 0.249775
O O7 0.493750 0.268410 0.127254
O O8 0.535581 0.000000 0.134504
O O9 0.285041 0.500000 0.648110
O O10 0.380269 0.713514 0.633961
O O11 0.238201 0.718045 0.744666
O O12 0.893585 0.155120 0.747208
O O13 0.762417 0.215687 0.857815
O O14 0.844580 0.000000 0.866978
O O15 0.087737 0.500000 0.635178
O O16 0.008562 0.722993 0.632093
O O17 0.869955 0.235441 0.119754
O O18 0.949695 0.000000 0.089872
O O19 0.000000 0.229541 0.000000
O O20 0.028770 0.000000 0.372110
O O21 0.814138 0.500000 0.160303
#
# Coordination Sequence:
#
# PCOD8098243 Si02
#       8
#     8   8   8   8   8   8   8   8
#     4  12  25  39  55  76 106 144 183 221 264 312
#     4  10  20  34  56  83 108 138 175 216 262 313
#     4   9  18  35  58  84 112 138 171 216 264 316
#     4   8  15  30  53  81 110 136 167 211 261 312
#     4  10  20  35  56  83 112 138 172 218 262 310
#     4  11  24  38  51  72 105 143 182 225 268 311
#     4   8  15  30  54  82 110 139 169 207 259 314
#     4   9  18  34  58  84 108 138 174 215 264 316
#
# _framework density 19.028314999999999
#
# number of rings (size 3 to 8) (size 9 to 14) (size 15 to 20)
#    0.000    2.375    0.000    4.500    0.000    7.000 
#    0.000    3.750    0.000    3.750    0.000    0.000 
#    0.000    0.000    0.000    0.000    0.000    0.000 
#
# Total GULP energy -396767.459021 kJ/mol
# GULP energy per Si atom -12398.983094 kJ/mol
# Density = 1.898501 g / cm^3
# Si number density = 19.028315 Si / 1000 Ang^3
#
#
#
# Elastic Constant Matrix: (Units=GPa)
#
#
# Indices 1 2 3 4 5 6 
#
# 1 137.0058 54.4370 27.2314 0.0000 6.1281 -0.0011
# 2 54.4370 93.2766 29.4900 -0.0003 2.8762 -0.0021
# 3 27.2314 29.4900 31.9155 0.0001 -3.9629 -0.0002
# 4 0.0000 -0.0003 0.0001 24.9644 0.0002 -1.2848
# 5 6.1281 2.8762 -3.9629 0.0002 -8.6738 -0.0003
# 6 -0.0011 -0.0021 -0.0002 -1.2848 -0.0003 37.6283
#
#
#
# Elastic Compliance Matrix: (Units=1/GPa)
#
#
# Indices 1 2 3 4 5 6 
#
# 1 0.009502 -0.004847 -0.002834 0.000000 0.006401 0.000000
# 2 -0.004847 0.016618 -0.010372 0.000000 0.006825 0.000001
# 3 -0.002834 -0.010372 0.040369 0.000000 -0.023886 -0.000001
# 4 0.000000 0.000000 0.000000 0.040128 0.000001 0.001370
# 5 0.006401 0.006825 -0.023886 0.000001 -0.097592 0.000000
# 6 0.000000 0.000001 -0.000001 0.001370 0.000000 0.026623
#
#
# Mechanical properties :
#
#
# Convention : Reuss Voigt Hill
#
# Bulk Modulus (GPa) = 32.91346 53.83498 43.37422
# Shear Modulus (GPa) = 61.06376 20.85307 40.95841
#
# Velocity S-wave (km/s) = 5.67104 3.31402 4.64454
# Velocity P-wave (km/s) = 7.75987 6.55722 7.18375
#
# Compressibility (1/GPa) = 0.03038271
#
# Stress axis : x y z
#
# Youngs Moduli (GPa) = 105.24434 60.17498 24.77135
#
# Poissons Ratio (x) = 0.29165 0.07020
# Poissons Ratio (y) = 0.51008 0.25694
# Poissons Ratio (z) = 0.29827 0.62416
#
# Static dielectric constant tensor:
#      x y z
#    x 3.792210 0.000000 -0.005900 
#    y 0.000000 3.623670 0.000000 
#    z -0.005900 0.000000 3.218940 
# 
# 
# High freq. dielectric constant tensor:
#      x y z
#    x 1.759230 0.000000 0.001540 
#    y 0.000000 1.741170 0.000000 
#    z 0.001540 0.000000 1.705710 
# 
# From -- ./inp_files/319788.got.cif
#   From: 2010.06.25/outbox.cif.g09.slc.cpg/sg12_160_cif.got.tgz:319788.got - 2010.06.28 00:19:55.
