data_PCOD8098331
_publ_section_title
;
Structure prediction by ZEFSAII (Michael W. Deem and Ramdas Pophale) SiO2 
 PCOD8098331
Probable space group: C 2/M
;
_chemical_formula_sum "Si O2"
_cell_formula_units_Z 56
_cell_length_a 25.581603
_cell_length_b 17.913331
_cell_length_c 18.312095
_cell_angle_alpha 90.000000
_cell_angle_beta 161.040614
_cell_angle_gamma 90.000000
_cell_volume 2726.396198
_symmetry_space_group_name_H-M "C 2/M"
_symmetry_group_IT_number 12
_symmetry_cell_setting 'monoclinic'
loop_
_space_group_symop_operation_xyz
x,y,z
-x,y,-z
-x,-y,-z
x,-y,z
1/2+x,1/2+y,z
1/2-x,1/2+y,-z
1/2-x,1/2-y,-z
1/2+x,1/2-y,z
loop_
_atom_site_type_symbol
_atom_site_label
_atom_site_fract_x
_atom_site_fract_y
_atom_site_fract_z
Si Si1 0.550025 0.417185 0.491520
Si Si2 0.628076 0.716305 0.069108
Si Si3 0.683334 0.916076 0.263981
Si Si4 0.317493 0.915341 0.253615
Si Si5 0.787537 0.869184 0.040202
Si Si6 0.215646 0.257809 0.342052
Si Si7 0.066361 0.725676 0.836232
O O1 0.500000 0.372070 0.500000
O O2 0.594295 0.500000 0.575104
O O3 0.711344 0.387895 0.665862
O O4 0.403282 0.420270 0.240943
O O5 0.699553 0.634312 0.147463
O O6 0.720935 0.751152 0.260659
O O7 0.436584 0.710804 0.830470
O O8 0.650877 0.767647 0.027145
O O9 0.702784 0.846872 0.346655
O O10 0.737199 0.000000 0.363520
O O11 0.500000 0.920424 0.000000
O O12 0.500000 0.884786 0.500000
O O13 0.306598 0.000000 0.268516
O O14 0.265965 0.914284 0.101243
O O15 0.890123 0.796137 0.156205
O O16 0.631014 0.848242 0.881699
O O17 0.372649 0.222003 0.586671
#
# Coordination Sequence:
#
# PCOD8098331 Si02
#       7
#     8   8   8   8   8   8   8
#     4  10  21  35  55  83 117 152 187 234 289 354
#     4  10  22  36  57  85 111 153 190 235 290 341
#     4  10  20  36  57  83 114 156 194 224 282 356
#     4  10  21  40  62  83 110 148 197 248 292 340
#     4  10  20  34  56  85 111 146 189 235 287 344
#     4  11  20  38  57  81 120 153 189 238 285 342
#     4  10  21  34  54  83 115 146 188 235 282 341
#
# _framework density 20.539935
#
# number of rings (size 3 to 8) (size 9 to 14) (size 15 to 20)
#    0.000    1.857    2.857    1.714    2.000    0.000 
#    0.000    1.429    0.000    2.571    0.000    0.000 
#    0.000    0.000    0.000    0.000    0.000    0.000 
#
# Total GULP energy -346987.504496 kJ/mol
# GULP energy per Si atom -12392.410875 kJ/mol
# Density = 2.049319 g / cm^3
# Si number density = 20.539935 Si / 1000 Ang^3
#
#
#
# Elastic Constant Matrix: (Units=GPa)
#
#
# Indices 1 2 3 4 5 6 
#
# 1 68.6104 33.5428 31.7723 0.0001 -1.1796 0.0000
# 2 33.5428 83.1090 29.3806 0.0000 20.4485 -0.0001
# 3 31.7723 29.3806 107.1993 0.0003 13.8715 0.0000
# 4 0.0001 0.0000 0.0003 28.0837 0.0002 4.8048
# 5 -1.1796 20.4485 13.8715 0.0002 40.1172 0.0000
# 6 0.0000 -0.0001 0.0000 4.8048 0.0000 20.6315
#
#
#
# Elastic Compliance Matrix: (Units=1/GPa)
#
#
# Indices 1 2 3 4 5 6 
#
# 1 0.021005 -0.008403 -0.004770 0.000000 0.006550 0.000000
# 2 -0.008403 0.018105 -0.001304 0.000000 -0.009025 0.000000
# 3 -0.004770 -0.001304 0.011548 0.000000 -0.003469 0.000000
# 4 0.000000 0.000000 0.000000 0.037086 0.000000 -0.008637
# 5 0.006550 -0.009025 -0.003469 0.000000 0.030919 0.000000
# 6 0.000000 0.000000 0.000000 -0.008637 0.000000 0.050481
#
#
# Mechanical properties :
#
#
# Convention : Reuss Voigt Hill
#
# Bulk Modulus (GPa) = 46.07282 49.81225 47.94254
# Shear Modulus (GPa) = 24.35080 28.71466 26.53273
#
# Velocity S-wave (km/s) = 3.44689 3.74303 3.59801
# Velocity P-wave (km/s) = 6.19039 6.55625 6.37595
#
# Compressibility (1/GPa) = 0.02170477
#
# Stress axis : x y z
#
# Youngs Moduli (GPa) = 47.60867 55.23285 86.59196
#
# Poissons Ratio (x) = 0.46411 0.41305
# Poissons Ratio (y) = 0.40004 0.11291
# Poissons Ratio (z) = 0.22710 0.07202
#
# Static dielectric constant tensor:
#      x y z
#    x 3.911780 0.000000 0.157050 
#    y 0.000000 3.694670 0.000000 
#    z 0.157050 0.000000 3.677770 
# 
# 
# High freq. dielectric constant tensor:
#      x y z
#    x 1.797460 0.000000 0.011100 
#    y 0.000000 1.784860 0.000000 
#    z 0.011100 0.000000 1.806750 
# 
# From -- ./inp_files/290850.got.cif
#   From: 2010.06.25/outbox.cif.g09.slc.cpg/sg12_146_cif.got.tgz:290850.got - 2010.06.28 00:19:55.
