data_PCOD8098833
_publ_section_title
;
Structure prediction by ZEFSAII (Michael W. Deem and Ramdas Pophale) SiO2 
 PCOD8098833
Probable space group: C 2/M
;
_chemical_formula_sum "Si O2"
_cell_formula_units_Z 64
_cell_length_a 13.160100
_cell_length_b 20.290944
_cell_length_c 13.798070
_cell_angle_alpha 90.000000
_cell_angle_beta 111.046287
_cell_angle_gamma 90.000000
_cell_volume 3438.718951
_symmetry_space_group_name_H-M "C 2/M"
_symmetry_group_IT_number 12
_symmetry_cell_setting 'monoclinic'
loop_
_space_group_symop_operation_xyz
x,y,z
-x,y,-z
-x,-y,-z
x,-y,z
1/2+x,1/2+y,z
1/2-x,1/2+y,-z
1/2-x,1/2-y,-z
1/2+x,1/2-y,z
loop_
_atom_site_type_symbol
_atom_site_label
_atom_site_fract_x
_atom_site_fract_y
_atom_site_fract_z
Si Si1 0.425507 0.705786 0.879916
Si Si2 0.621727 0.424950 0.576412
Si Si3 0.763047 0.301498 0.589677
Si Si4 0.015221 0.319034 0.246408
Si Si5 0.569076 0.076712 0.116022
Si Si6 0.194490 0.253090 0.771873
Si Si7 0.498036 0.570348 0.884279
Si Si8 0.178347 0.109192 0.810928
O O1 0.468619 0.762156 0.825983
O O2 0.299732 0.718247 0.863453
O O3 0.430231 0.634361 0.826823
O O4 0.500000 0.704760 0.000000
O O5 0.500000 0.409890 0.500000
O O6 0.655960 0.500000 0.558784
O O7 0.699108 0.370541 0.551427
O O8 0.627945 0.418839 0.694471
O O9 0.750000 0.250000 0.500000
O O10 0.890622 0.318150 0.640855
O O11 0.721285 0.265068 0.670999
O O12 0.019074 0.388771 0.193353
O O13 0.899488 0.308344 0.258566
O O14 0.693358 0.096709 0.141742
O O15 0.558037 0.000000 0.131635
O O16 0.500000 0.099796 0.000000
O O17 0.155792 0.187113 0.813115
O O18 0.447114 0.500000 0.831673
O O19 0.620328 0.574746 0.882179
O O20 0.500000 0.570057 0.000000
#
# Coordination Sequence:
#
# PCOD8098833 Si02
#       8
#     8   8   8   8   8   8   8   8
#     4  10  20  35  53  80 112 150 192 238 288 342
#     4  10  21  36  61  92 115 148 198 251 306 355
#     4  10  23  37  60  85 120 156 188 249 304 362
#     4  11  21  38  58  84 119 152 196 243 298 354
#     4  11  23  38  60  90 121 159 205 248 297 354
#     4  10  22  36  57  88 112 149 202 242 291 358
#     4  10  21  35  53  79 113 155 194 233 293 354
#     4  11  20  38  61  83 121 156 195 256 296 347
#
# _framework density 18.611581999999999
#
# number of rings (size 3 to 8) (size 9 to 14) (size 15 to 20)
#    0.000    1.625    5.000    1.500    3.500    2.500 
#    0.000    1.875    0.000    0.750    0.000    1.750 
#    0.000    0.000    0.000    0.000    0.000    0.000 
#
# Total GULP energy -396667.717822 kJ/mol
# GULP energy per Si atom -12395.866182 kJ/mol
# Density = 1.856922 g / cm^3
# Si number density = 18.611582 Si / 1000 Ang^3
#
#
#
# Elastic Constant Matrix: (Units=GPa)
#
#
# Indices 1 2 3 4 5 6 
#
# 1 105.8813 39.3045 46.9196 0.0000 16.6116 0.0000
# 2 39.3045 117.8225 37.9159 0.0000 6.5584 0.0000
# 3 46.9196 37.9159 92.7353 0.0000 22.0495 0.0000
# 4 0.0000 0.0000 0.0000 1.8297 0.0000 21.7044
# 5 16.6116 6.5584 22.0495 0.0000 32.1658 0.0000
# 6 0.0000 0.0000 0.0000 21.7044 0.0000 -2.3927
#
#
#
# Elastic Compliance Matrix: (Units=1/GPa)
#
#
# Indices 1 2 3 4 5 6 
#
# 1 0.013009 -0.002627 -0.004824 0.000000 -0.002876 0.000000
# 2 -0.002627 0.010325 -0.003243 0.000000 0.001475 0.000000
# 3 -0.004824 -0.003243 0.016488 0.000000 -0.008150 0.000000
# 4 0.000000 0.000000 0.000000 0.005032 0.000000 0.045649
# 5 -0.002876 0.001475 -0.008150 0.000000 0.037860 0.000000
# 6 0.000000 0.000000 0.000000 0.045649 0.000000 -0.003848
#
#
# Mechanical properties :
#
#
# Convention : Reuss Voigt Hill
#
# Bulk Modulus (GPa) = 54.24870 62.74658 58.49764
# Shear Modulus (GPa) = 46.99340 19.14052 33.06696
#
# Velocity S-wave (km/s) = 5.03034 3.21038 4.21965
# Velocity P-wave (km/s) = 7.93412 6.89412 7.43233
#
# Compressibility (1/GPa) = 0.01843362
#
# Stress axis : x y z
#
# Youngs Moduli (GPa) = 76.87273 96.84976 60.65125
#
# Poissons Ratio (x) = 0.25444 0.29257
# Poissons Ratio (y) = 0.20195 0.19669
# Poissons Ratio (z) = 0.37082 0.31409
#
# Static dielectric constant tensor:
#      x y z
#    x 3.922570 0.000000 0.034380 
#    y 0.000000 4.066910 0.000000 
#    z 0.034380 0.000000 3.369340 
# 
# 
# High freq. dielectric constant tensor:
#      x y z
#    x 1.715940 0.000000 0.008750 
#    y 0.000000 1.740330 0.000000 
#    z 0.008750 0.000000 1.704850 
# 
# From -- ./inp_files/207713.got.cif
#   From: 2010.06.25/outbox.cif.g09.slc.cpg/sg12_104_cif.got.tgz:207713.got - 2010.06.28 00:19:55.
