data_PCOD8098810
_publ_section_title
;
Structure prediction by ZEFSAII (Michael W. Deem and Ramdas Pophale) SiO2 
 PCOD8098810
Probable space group: C 2/M
;
_chemical_formula_sum "Si O2"
_cell_formula_units_Z 56
_cell_length_a 29.815465
_cell_length_b 8.916378
_cell_length_c 12.314986
_cell_angle_alpha 90.000000
_cell_angle_beta 59.612492
_cell_angle_gamma 90.000000
_cell_volume 2824.135348
_symmetry_space_group_name_H-M "C 2/M"
_symmetry_group_IT_number 12
_symmetry_cell_setting 'monoclinic'
loop_
_space_group_symop_operation_xyz
x,y,z
-x,y,-z
-x,-y,-z
x,-y,z
1/2+x,1/2+y,z
1/2-x,1/2+y,-z
1/2-x,1/2-y,-z
1/2+x,1/2-y,z
loop_
_atom_site_type_symbol
_atom_site_label
_atom_site_fract_x
_atom_site_fract_y
_atom_site_fract_z
Si Si1 0.108635 0.178328 0.862946
Si Si2 0.909993 0.679964 0.885778
Si Si3 0.905799 0.676348 0.336258
Si Si4 0.200787 0.660105 0.024040
Si Si5 0.285842 0.836211 0.241679
Si Si6 0.210850 0.676545 0.462065
Si Si7 0.002746 0.322623 0.619205
O O1 0.077612 0.236406 0.794331
O O2 0.167495 0.233718 0.770805
O O3 0.106500 0.000000 0.873318
O O4 0.083586 0.246960 0.003015
O O5 0.909310 0.500000 0.901293
O O6 0.856212 0.735463 0.892801
O O7 0.955540 0.737675 0.751421
O O8 0.910567 0.500000 0.306523
O O9 0.848302 0.723092 0.444694
O O10 0.943860 0.725374 0.387542
O O11 0.201750 0.500000 0.084602
O O12 0.250000 0.750000 0.000000
O O13 0.206866 0.630793 0.891008
O O14 0.230711 0.751164 0.325392
O O15 0.287440 0.000000 0.300588
O O16 0.217587 0.500000 0.447411
O O17 0.250000 0.750000 0.500000
O O18 0.998130 0.500000 0.616793
O O19 0.000000 0.254609 0.500000
#
# Coordination Sequence:
#
# PCOD8098810 Si02
#       7
#     8   8   8   8   8   8   8
#     4  11  21  34  56  84 114 147 187 231 285 349
#     4   9  19  37  60  83 113 149 186 237 291 335
#     4  10  21  36  57  85 116 150 190 238 286 337
#     4   9  19  33  52  79 109 144 183 230 282 335
#     4  10  20  35  53  77 113 150 187 232 282 335
#     4  11  21  32  52  82 117 153 186 226 279 339
#     4   9  19  38  63  87 110 145 196 243 282 333
#
# _framework density 19.829079
#
# number of rings (size 3 to 8) (size 9 to 14) (size 15 to 20)
#    0.000    2.143    1.429    3.000    0.000    5.143 
#    0.000    6.429    0.000    1.714    0.000    0.000 
#    0.000    0.000    0.000    0.000    0.000    0.000 
#
# Total GULP energy -346959.350766 kJ/mol
# GULP energy per Si atom -12391.405385 kJ/mol
# Density = 1.978395 g / cm^3
# Si number density = 19.829079 Si / 1000 Ang^3
#
#
#
# Elastic Constant Matrix: (Units=GPa)
#
#
# Indices 1 2 3 4 5 6 
#
# 1 142.9410 40.1730 70.6427 0.0000 -5.3108 0.0000
# 2 40.1730 77.2883 38.9203 0.0000 -0.6961 0.0000
# 3 70.6427 38.9203 128.5568 0.0000 -16.7910 0.0000
# 4 0.0000 0.0000 0.0000 25.1372 0.0000 0.2215
# 5 -5.3108 -0.6961 -16.7910 0.0000 30.6561 0.0000
# 6 0.0000 0.0000 0.0000 0.2215 0.0000 21.7518
#
#
#
# Elastic Compliance Matrix: (Units=1/GPa)
#
#
# Indices 1 2 3 4 5 6 
#
# 1 0.010154 -0.002848 -0.004843 0.000000 -0.000958 0.000000
# 2 -0.002848 0.016224 -0.003622 0.000000 -0.002109 0.000000
# 3 -0.004843 -0.003622 0.012296 0.000000 0.005813 0.000000
# 4 0.000000 0.000000 0.000000 0.039785 0.000000 -0.000405
# 5 -0.000958 -0.002109 0.005813 0.000000 0.035590 0.000000
# 6 0.000000 0.000000 0.000000 -0.000405 0.000000 0.045977
#
#
# Mechanical properties :
#
#
# Convention : Reuss Voigt Hill
#
# Bulk Modulus (GPa) = 62.31302 72.02867 67.17085
# Shear Modulus (GPa) = 26.59561 28.77905 27.68733
#
# Velocity S-wave (km/s) = 3.66627 3.81380 3.74076
# Velocity P-wave (km/s) = 7.02961 7.46974 7.25301
#
# Compressibility (1/GPa) = 0.01604801
#
# Stress axis : x y z
#
# Youngs Moduli (GPa) = 98.48410 61.63731 81.32975
#
# Poissons Ratio (x) = 0.17553 0.39385
# Poissons Ratio (y) = 0.28047 0.29460
# Poissons Ratio (z) = 0.47692 0.22327
#
# Static dielectric constant tensor:
#      x y z
#    x 3.029450 0.000000 -0.183220 
#    y 0.000000 3.489200 0.000000 
#    z -0.183220 0.000000 4.206090 
# 
# 
# High freq. dielectric constant tensor:
#      x y z
#    x 1.764240 0.000000 -0.003940 
#    y 0.000000 1.752350 0.000000 
#    z -0.003940 0.000000 1.780500 
# 
# From -- ./inp_files/187161.got.cif
#   From: 2010.06.25/outbox.cif.g09.slc.cpg/sg12_94_cif.got.tgz:187161.got - 2010.06.28 00:19:55.
