data_PCOD8098420
_publ_section_title
;
Structure prediction by ZEFSAII (Michael W. Deem and Ramdas Pophale) SiO2 
 PCOD8098420
Probable space group: C 2/M
;
_chemical_formula_sum "Si O2"
_cell_formula_units_Z 56
_cell_length_a 31.241103
_cell_length_b 20.251903
_cell_length_c 9.528897
_cell_angle_alpha 90.000000
_cell_angle_beta 151.930658
_cell_angle_gamma 90.000000
_cell_volume 2836.816184
_symmetry_space_group_name_H-M "C 2/M"
_symmetry_group_IT_number 12
_symmetry_cell_setting 'monoclinic'
loop_
_space_group_symop_operation_xyz
x,y,z
-x,y,-z
-x,-y,-z
x,-y,z
1/2+x,1/2+y,z
1/2-x,1/2+y,-z
1/2-x,1/2-y,-z
1/2+x,1/2-y,z
loop_
_atom_site_type_symbol
_atom_site_label
_atom_site_fract_x
_atom_site_fract_y
_atom_site_fract_z
Si Si1 0.700035 0.073647 0.118404
Si Si2 0.910252 0.741516 0.831664
Si Si3 0.592046 0.205614 0.855024
Si Si4 0.154956 0.875431 0.267710
Si Si5 0.213039 0.926515 0.927580
Si Si6 0.764325 0.178925 0.771264
Si Si7 0.507056 0.573605 0.365404
O O1 0.789284 0.073599 0.475886
O O2 0.730454 0.086248 0.048169
O O3 0.656365 0.000000 0.006721
O O4 0.628141 0.130427 0.950326
O O5 0.853830 0.809086 0.668933
O O6 0.841697 0.693738 0.553586
O O7 0.933052 0.719183 0.055906
O O8 0.000000 0.746999 0.000000
O O9 0.500000 0.214316 0.500000
O O10 0.668904 0.257322 0.023333
O O11 0.210141 0.866070 0.285319
O O12 0.053585 0.895569 0.931813
O O13 0.106259 0.923509 0.586384
O O14 0.235992 0.000000 0.055762
O O15 0.234873 0.866322 0.090875
O O16 0.500000 0.609417 0.500000
O O17 0.470219 0.500000 0.283658
#
# Coordination Sequence:
#
# PCOD8098420 Si02
#       7
#     8   8   8   8   8   8   8
#     4  11  24  43  63  90 129 169 210 261 318 370
#     4  11  25  42  64  96 126 158 211 269 311 374
#     4  11  25  43  66  95 125 169 214 257 314 370
#     4  11  21  38  62  90 126 168 204 252 319 375
#     4  10  24  39  61  96 130 164 210 261 312 376
#     4  11  22  43  66  90 129 164 213 257 307 377
#     4  10  20  34  56  92 128 164 208 249 303 378
#
# _framework density 19.74044
#
# number of rings (size 3 to 8) (size 9 to 14) (size 15 to 20)
#    0.000    1.286    4.286    1.286    8.000    1.429 
#    0.000    2.143    0.000    0.857    0.000    0.000 
#    0.000    0.000    0.000    0.000    0.000    0.000 
#
# Total GULP energy -347084.210588 kJ/mol
# GULP energy per Si atom -12395.864664 kJ/mol
# Density = 1.969551 g / cm^3
# Si number density = 19.740440 Si / 1000 Ang^3
#
#
#
# Elastic Constant Matrix: (Units=GPa)
#
#
# Indices 1 2 3 4 5 6 
#
# 1 65.8538 17.5413 6.2855 0.0000 -22.0479 0.0000
# 2 17.5413 74.0495 12.3829 0.0000 -36.5345 0.0000
# 3 6.2855 12.3829 87.8358 0.0000 -28.1364 0.0000
# 4 0.0000 0.0000 0.0000 28.5058 0.0000 -3.2592
# 5 -22.0479 -36.5345 -28.1364 0.0000 9.8401 0.0000
# 6 0.0000 0.0000 0.0000 -3.2592 0.0000 24.9828
#
#
#
# Elastic Compliance Matrix: (Units=1/GPa)
#
#
# Indices 1 2 3 4 5 6 
#
# 1 0.013715 -0.008752 -0.003725 0.000000 -0.012417 0.000000
# 2 -0.008752 0.004759 -0.007930 0.000000 -0.024616 0.000000
# 3 -0.003725 -0.007930 0.007906 0.000000 -0.015181 0.000000
# 4 0.000000 0.000000 0.000000 0.035612 0.000000 0.004646
# 5 -0.012417 -0.024616 -0.015181 0.000000 -0.061000 0.000000
# 6 0.000000 0.000000 0.000000 0.004646 0.000000 0.040634
#
#
# Mechanical properties :
#
#
# Convention : Reuss Voigt Hill
#
# Bulk Modulus (GPa) = -69.28018 33.35096 -17.96461
# Shear Modulus (GPa) = 64.40974 25.43437 44.92205
#
# Velocity S-wave (km/s) = 5.71832 3.59338 4.77554
# Velocity P-wave (km/s) = 2.90295 5.84362 4.61384
#
# Compressibility (1/GPa) = -0.01443414
#
# Stress axis : x y z
#
# Youngs Moduli (GPa) = 72.91387 210.13793 126.48021
#
# Poissons Ratio (x) = 1.83916 0.47115
# Poissons Ratio (y) = 0.63815 1.00297
# Poissons Ratio (z) = 0.27161 1.66636
#
# Static dielectric constant tensor:
#      x y z
#    x 3.493380 0.000000 -0.143780 
#    y 0.000000 3.806660 0.000000 
#    z -0.143780 0.000000 3.812280 
# 
# 
# High freq. dielectric constant tensor:
#      x y z
#    x 1.764940 0.000000 -0.007830 
#    y 0.000000 1.774850 0.000000 
#    z -0.007830 0.000000 1.768860 
# 
# From -- ./inp_files/113405.got.cif
#   From: 2010.06.25/outbox.cif.g09.slc.cpg/sg12_57_cif.got.tgz:113405.got - 2010.06.28 00:19:55.
