data_PCOD8098513
_publ_section_title
;
Structure prediction by ZEFSAII (Michael W. Deem and Ramdas Pophale) SiO2 
 PCOD8098513
Probable space group: C 2/M
;
_chemical_formula_sum "Si O2"
_cell_formula_units_Z 48
_cell_length_a 20.707821
_cell_length_b 17.831323
_cell_length_c 8.468649
_cell_angle_alpha 90.000000
_cell_angle_beta 125.686474
_cell_angle_gamma 90.000000
_cell_volume 2539.840574
_symmetry_space_group_name_H-M "C 2/M"
_symmetry_group_IT_number 12
_symmetry_cell_setting 'monoclinic'
loop_
_space_group_symop_operation_xyz
x,y,z
-x,y,-z
-x,-y,-z
x,-y,z
1/2+x,1/2+y,z
1/2-x,1/2+y,-z
1/2-x,1/2-y,-z
1/2+x,1/2-y,z
loop_
_atom_site_type_symbol
_atom_site_label
_atom_site_fract_x
_atom_site_fract_y
_atom_site_fract_z
Si Si1 0.805526 0.083973 0.690187
Si Si2 0.227768 0.580733 0.262718
Si Si3 0.419708 0.871583 0.782450
Si Si4 0.321374 0.196770 0.051039
Si Si5 0.862461 0.585741 0.381538
Si Si6 0.909815 0.223157 0.910889
O O1 0.794214 0.099668 0.488347
O O2 0.723206 0.093184 0.663069
O O3 0.865032 0.145092 0.840529
O O4 0.839559 0.000000 0.766545
O O5 0.246560 0.500000 0.211937
O O6 0.142445 0.572185 0.226959
O O7 0.229153 0.642003 0.131231
O O8 0.428954 0.893224 0.610364
O O9 0.383882 0.786539 0.745953
O O10 0.500000 0.876196 0.000000
O O11 0.366193 0.147333 0.247839
O O12 0.250000 0.250000 0.000000
O O13 0.391597 0.241093 0.058541
O O14 0.878084 0.500000 0.343627
O O15 0.000000 0.203279 0.000000
#
# Coordination Sequence:
#
# PCOD8098513 Si02
#       6
#     8   8   8   8   8   8
#     4   9  18  34  57  83 107 146 194 235 282 334
#     4   9  19  33  53  79 110 143 187 235 275 334
#     4   9  19  34  56  82 112 150 191 227 279 335
#     4  11  21  34  57  84 111 148 186 230 286 331
#     4  10  20  34  57  88 116 143 189 239 279 334
#     4  10  21  37  55  80 116 150 189 234 280 338
#
# _framework density 18.898824000000001
#
# number of rings (size 3 to 8) (size 9 to 14) (size 15 to 20)
#    0.000    2.333    1.667    2.000    2.333    3.667 
#    0.000    7.500    0.000   11.500    0.000    2.333 
#    0.000    0.000    0.000    0.000    0.000    0.000 
#
# Total GULP energy -297315.025719 kJ/mol
# GULP energy per Si atom -12388.126072 kJ/mol
# Density = 1.885581 g / cm^3
# Si number density = 18.898824 Si / 1000 Ang^3
#
#
#
# Elastic Constant Matrix: (Units=GPa)
#
#
# Indices 1 2 3 4 5 6 
#
# 1 66.7671 42.6495 39.8872 0.0000 -5.0498 0.0000
# 2 42.6495 137.3303 76.8942 0.0000 -9.5218 0.0000
# 3 39.8872 76.8942 107.4500 0.0000 -15.9556 0.0000
# 4 0.0000 0.0000 0.0000 29.6791 0.0000 -5.6280
# 5 -5.0498 -9.5218 -15.9556 0.0000 24.5646 0.0000
# 6 0.0000 0.0000 0.0000 -5.6280 0.0000 27.0839
#
#
#
# Elastic Compliance Matrix: (Units=1/GPa)
#
#
# Indices 1 2 3 4 5 6 
#
# 1 0.020190 -0.003449 -0.005101 0.000000 -0.000500 0.000000
# 2 -0.003449 0.012763 -0.007995 0.000000 -0.000955 0.000000
# 3 -0.005101 -0.007995 0.018047 0.000000 0.007574 0.000000
# 4 0.000000 0.000000 0.000000 0.035076 0.000000 0.007289
# 5 -0.000500 -0.000955 0.007574 0.000000 0.045156 0.000000
# 6 0.000000 0.000000 0.000000 0.007289 0.000000 0.038437
#
#
# Mechanical properties :
#
#
# Convention : Reuss Voigt Hill
#
# Bulk Modulus (GPa) = 55.83552 70.04546 62.94049
# Shear Modulus (GPa) = 23.95454 26.40663 25.18059
#
# Velocity S-wave (km/s) = 3.56408 3.74205 3.65415
# Velocity P-wave (km/s) = 6.82242 7.47091 7.15402
#
# Compressibility (1/GPa) = 0.01790975
#
# Stress axis : x y z
#
# Youngs Moduli (GPa) = 49.52939 78.34955 55.41186
#
# Poissons Ratio (x) = 0.27020 0.28266
# Poissons Ratio (y) = 0.17081 0.44304
# Poissons Ratio (z) = 0.25265 0.62643
#
# Static dielectric constant tensor:
#      x y z
#    x 3.298450 0.000000 -0.198910 
#    y 0.000000 3.727600 0.000000 
#    z -0.198910 0.000000 3.462360 
# 
# 
# High freq. dielectric constant tensor:
#      x y z
#    x 1.711680 0.000000 -0.014130 
#    y 0.000000 1.752690 0.000000 
#    z -0.014130 0.000000 1.717120 
# 
# From -- ./inp_files/88156.got.cif
#   From: 2010.06.25/outbox.cif.g09.slc.cpg/sg12_45_cif.got.tgz:88156.got - 2010.06.28 00:19:55.
