data_PCOD8098863
_publ_section_title
;
Structure prediction by ZEFSAII (Michael W. Deem and Ramdas Pophale) SiO2 
 PCOD8098863
Probable space group: C 2/M
;
_chemical_formula_sum "Si O2"
_cell_formula_units_Z 64
_cell_length_a 15.127397
_cell_length_b 9.006217
_cell_length_c 28.757453
_cell_angle_alpha 90.000000
_cell_angle_beta 58.429847
_cell_angle_gamma 90.000000
_cell_volume 3338.078239
_symmetry_space_group_name_H-M "C 2/M"
_symmetry_group_IT_number 12
_symmetry_cell_setting 'monoclinic'
loop_
_space_group_symop_operation_xyz
x,y,z
-x,y,-z
-x,-y,-z
x,-y,z
1/2+x,1/2+y,z
1/2-x,1/2+y,-z
1/2-x,1/2-y,-z
1/2+x,1/2-y,z
loop_
_atom_site_type_symbol
_atom_site_label
_atom_site_fract_x
_atom_site_fract_y
_atom_site_fract_z
Si Si1 0.046660 0.324872 0.437444
Si Si2 0.719235 0.825085 0.140484
Si Si3 0.910644 0.328377 0.739148
Si Si4 0.449877 0.677233 0.061221
Si Si5 0.972438 0.824218 0.368786
Si Si6 0.573383 0.667199 0.751882
Si Si7 0.546093 0.330169 0.128323
Si Si8 0.275624 0.330150 0.364175
O O1 0.045405 0.500000 0.427877
O O2 0.974597 0.245722 0.419264
O O3 0.000000 0.284734 0.500000
O O4 0.163416 0.255339 0.402746
O O5 0.691192 0.785993 0.202175
O O6 0.833136 0.761580 0.098202
O O7 0.641050 0.755541 0.124879
O O8 0.712939 0.000000 0.134839
O O9 0.909772 0.500000 0.724753
O O10 0.926270 0.231838 0.688132
O O11 0.005363 0.295204 0.747600
O O12 0.447991 0.500000 0.062731
O O13 0.518571 0.736831 0.085453
O O14 0.500000 0.738673 0.000000
O O15 0.866880 0.766553 0.372469
O O16 0.976561 0.000000 0.371109
O O17 0.536308 0.500000 0.746335
O O18 0.559801 0.681497 0.811164
O O19 0.690487 0.688291 0.699823
O O20 0.581153 0.500000 0.113994
O O21 0.260904 0.500000 0.382191
#
# Coordination Sequence:
#
# PCOD8098863 Si02
#       8
#     8   8   8   8   8   8   8   8
#     4  10  21  36  53  75 102 133 172 212 247 288
#     4   9  18  32  51  74 100 130 162 202 251 297
#     4   9  16  28  49  76 102 126 158 201 250 301
#     4   9  18  32  49  71  99 133 174 209 239 291
#     4  10  20  35  54  75 101 133 166 202 248 299
#     4   8  14  27  48  72  98 127 160 197 243 300
#     4   9  17  30  50  73  96 127 165 204 246 293
#     4   8  16  32  52  72  98 131 161 196 246 299
#
# _framework density 19.172708
#
# number of rings (size 3 to 8) (size 9 to 14) (size 15 to 20)
#    0.000    3.000    0.000    1.500    0.000    2.750 
#    0.000    7.500    0.000    5.250    0.000    0.000 
#    0.000    0.000    0.000    0.000    0.000    0.000 
#
# Total GULP energy -396480.038039 kJ/mol
# GULP energy per Si atom -12390.001189 kJ/mol
# Density = 1.912907 g / cm^3
# Si number density = 19.172708 Si / 1000 Ang^3
#
#
#
# Elastic Constant Matrix: (Units=GPa)
#
#
# Indices 1 2 3 4 5 6 
#
# 1 63.3945 14.0342 32.3532 0.0000 1.0759 0.0000
# 2 14.0342 32.4858 23.4158 0.0000 3.0766 0.0000
# 3 32.3532 23.4158 112.3867 0.0000 3.2597 0.0000
# 4 0.0000 0.0000 0.0000 20.7505 0.0000 4.3710
# 5 1.0759 3.0766 3.2597 0.0000 37.2275 0.0000
# 6 0.0000 0.0000 0.0000 4.3710 0.0000 20.0211
#
#
#
# Elastic Compliance Matrix: (Units=1/GPa)
#
#
# Indices 1 2 3 4 5 6 
#
# 1 0.019176 -0.005089 -0.004468 0.000000 0.000257 0.000000
# 2 -0.005089 0.037777 -0.006336 0.000000 -0.002420 0.000000
# 3 -0.004468 -0.006336 0.011514 0.000000 -0.000355 0.000000
# 4 0.000000 0.000000 0.000000 0.050515 0.000000 -0.011028
# 5 0.000257 -0.002420 -0.000355 0.000000 0.027086 0.000000
# 6 0.000000 0.000000 0.000000 -0.011028 0.000000 0.052355
#
#
# Mechanical properties :
#
#
# Convention : Reuss Voigt Hill
#
# Bulk Modulus (GPa) = 27.25998 38.65260 32.95629
# Shear Modulus (GPa) = 20.62410 24.83076 22.72743
#
# Velocity S-wave (km/s) = 3.28335 3.60267 3.44671
# Velocity P-wave (km/s) = 5.35003 6.12451 5.75032
#
# Compressibility (1/GPa) = 0.03668381
#
# Stress axis : x y z
#
# Youngs Moduli (GPa) = 52.14738 26.47116 86.84825
#
# Poissons Ratio (x) = 0.13470 0.38801
# Poissons Ratio (y) = 0.26535 0.55025
# Poissons Ratio (z) = 0.23298 0.16772
#
# Static dielectric constant tensor:
#      x y z
#    x 3.384240 0.000000 -0.083210 
#    y 0.000000 3.184140 0.000000 
#    z -0.083210 0.000000 3.843840 
# 
# 
# High freq. dielectric constant tensor:
#      x y z
#    x 1.725880 0.000000 0.000590 
#    y 0.000000 1.711490 0.000000 
#    z 0.000590 0.000000 1.757190 
# 
# From -- ./inp_files/375008.got.cif
#   From: 2010.06.25/outbox.cif.g09.slc.cpg/sg12_188_cif.got.tgz:375008.got - 2010.06.28 00:19:55.
