data_PCOD8098081
_publ_section_title
;
Structure prediction by ZEFSAII (Michael W. Deem and Ramdas Pophale) SiO2 
 PCOD8098081
Probable space group: C 2/M
;
_chemical_formula_sum "Si O2"
_cell_formula_units_Z 64
_cell_length_a 26.390329
_cell_length_b 9.146219
_cell_length_c 12.722713
_cell_angle_alpha 90.000000
_cell_angle_beta 88.394824
_cell_angle_gamma 90.000000
_cell_volume 3069.698171
_symmetry_space_group_name_H-M "C 2/M"
_symmetry_group_IT_number 12
_symmetry_cell_setting 'monoclinic'
loop_
_space_group_symop_operation_xyz
x,y,z
-x,y,-z
-x,-y,-z
x,-y,z
1/2+x,1/2+y,z
1/2-x,1/2+y,-z
1/2-x,1/2-y,-z
1/2+x,1/2-y,z
loop_
_atom_site_type_symbol
_atom_site_label
_atom_site_fract_x
_atom_site_fract_y
_atom_site_fract_z
Si Si1 0.390795 0.661126 0.850323
Si Si2 0.825577 0.330903 0.996324
Si Si3 0.409128 0.831429 0.653789
Si Si4 0.527289 0.167813 0.691308
Si Si5 0.276248 0.669250 0.400937
Si Si6 0.389682 0.329667 0.447329
Si Si7 0.505330 0.339075 0.885310
Si Si8 0.262324 0.669016 0.164821
O O1 0.364787 0.500000 0.840322
O O2 0.375021 0.737755 0.961058
O O3 0.378361 0.771234 0.756011
O O4 0.450286 0.637932 0.841243
O O5 0.839038 0.500000 0.012056
O O6 0.788405 0.306075 0.899150
O O7 0.805125 0.268264 0.107325
O O8 0.469765 0.813230 0.655934
O O9 0.385818 0.737961 0.562144
O O10 0.394246 0.000000 0.640611
O O11 0.563782 0.254261 0.612922
O O12 0.536249 0.231376 0.807786
O O13 0.543718 0.000000 0.691030
O O14 0.264833 0.500000 0.420776
O O15 0.250000 0.750000 0.500000
O O16 0.336423 0.700042 0.393047
O O17 0.254895 0.718353 0.287129
O O18 0.402025 0.500000 0.454890
O O19 0.531997 0.500000 0.891508
O O20 0.500000 0.265791 0.000000
O O21 0.279688 0.500000 0.159377
#
# Coordination Sequence:
#
# PCOD8098081 Si02
#       8
#     8   8   8   8   8   8   8   8
#     4  10  20  34  55  83 114 147 186 232 283 338
#     4  10  20  35  59  88 113 145 189 237 289 340
#     4  10  21  37  57  83 116 150 191 238 283 339
#     4  10  21  37  57  83 114 149 189 235 284 336
#     4  10  24  43  61  85 116 153 196 240 289 347
#     4  11  23  38  58  85 113 149 192 234 286 344
#     4   9  19  36  56  79 110 150 188 225 277 337
#     4   9  20  40  60  80 111 149 189 235 289 341
#
# _framework density 20.848956000000001
#
# number of rings (size 3 to 8) (size 9 to 14) (size 15 to 20)
#    0.000    2.125    0.000    2.250    1.750    6.750 
#    0.000    5.000    0.000    0.000    0.000    0.000 
#    0.000    0.000    0.000    0.000    0.000    0.000 
#
# Total GULP energy -396719.017696 kJ/mol
# GULP energy per Si atom -12397.469303 kJ/mol
# Density = 2.080150 g / cm^3
# Si number density = 20.848956 Si / 1000 Ang^3
#
#
#
# Elastic Constant Matrix: (Units=GPa)
#
#
# Indices 1 2 3 4 5 6 
#
# 1 26.0140 29.1022 11.0419 0.0000 -13.5485 0.0000
# 2 29.1022 131.1571 45.8254 0.0000 -16.8661 0.0000
# 3 11.0419 45.8254 126.9202 0.0000 -11.0282 0.0000
# 4 0.0000 0.0000 0.0000 36.5530 0.0000 -11.8037
# 5 -13.5485 -16.8661 -11.0282 0.0000 31.4768 0.0000
# 6 0.0000 0.0000 0.0000 -11.8037 0.0000 22.1645
#
#
#
# Elastic Compliance Matrix: (Units=1/GPa)
#
#
# Indices 1 2 3 4 5 6 
#
# 1 0.061467 -0.011148 0.000472 0.000000 0.020649 0.000000
# 2 -0.011148 0.011182 -0.003057 0.000000 0.000122 0.000000
# 3 0.000472 -0.003057 0.009094 0.000000 0.001751 0.000000
# 4 0.000000 0.000000 0.000000 0.033039 0.000000 0.017595
# 5 0.020649 0.000122 0.001751 0.000000 0.041336 0.000000
# 6 0.000000 0.000000 0.000000 0.017595 0.000000 0.054487
#
#
# Mechanical properties :
#
#
# Convention : Reuss Voigt Hill
#
# Bulk Modulus (GPa) = 18.42446 50.67004 34.54725
# Shear Modulus (GPa) = 19.51880 31.24698 25.38289
#
# Velocity S-wave (km/s) = 3.06306 3.87554 3.49301
# Velocity P-wave (km/s) = 4.62234 6.66203 5.73362
#
# Compressibility (1/GPa) = 0.05427567
#
# Stress axis : x y z
#
# Youngs Moduli (GPa) = 16.26902 89.43087 109.96554
#
# Poissons Ratio (x) = 0.99700 -0.05188
# Poissons Ratio (y) = 0.18137 0.33614
# Poissons Ratio (z) = -0.00768 0.27337
#
# Static dielectric constant tensor:
#      x y z
#    x 3.550040 0.000000 0.009030 
#    y 0.000000 3.951930 0.000000 
#    z 0.009030 0.000000 3.913330 
# 
# 
# High freq. dielectric constant tensor:
#      x y z
#    x 1.797660 0.000000 -0.010250 
#    y 0.000000 1.823340 0.000000 
#    z -0.010250 0.000000 1.824080 
# 
# From -- ./inp_files/187572.got.cif
#   From: 2010.06.25/outbox.cif.g09.slc.cpg/sg12_94_cif.got.tgz:187572.got - 2010.06.28 00:19:55.
