data_PCOD8098044
_publ_section_title
;
Structure prediction by ZEFSAII (Michael W. Deem and Ramdas Pophale) SiO2 
 PCOD8098044
Probable space group: C 2/M
;
_chemical_formula_sum "Si O2"
_cell_formula_units_Z 48
_cell_length_a 9.028791
_cell_length_b 10.564833
_cell_length_c 25.051490
_cell_angle_alpha 90.000000
_cell_angle_beta 97.793771
_cell_angle_gamma 90.000000
_cell_volume 2367.529492
_symmetry_space_group_name_H-M "C 2/M"
_symmetry_group_IT_number 12
_symmetry_cell_setting 'monoclinic'
loop_
_space_group_symop_operation_xyz
x,y,z
-x,y,-z
-x,-y,-z
x,-y,z
1/2+x,1/2+y,z
1/2-x,1/2+y,-z
1/2-x,1/2-y,-z
1/2+x,1/2-y,z
loop_
_atom_site_type_symbol
_atom_site_label
_atom_site_fract_x
_atom_site_fract_y
_atom_site_fract_z
Si Si1 0.574498 0.359681 0.197194
Si Si2 0.514974 0.742109 0.621262
Si Si3 0.721637 0.349242 0.311265
Si Si4 0.814403 0.284744 0.127551
Si Si5 0.399798 0.500000 0.443185
Si Si6 0.945095 0.640944 0.942550
Si Si7 0.057604 0.500000 0.443421
O O1 0.522733 0.500000 0.208538
O O2 0.639583 0.296601 0.254230
O O3 0.704732 0.367585 0.158813
O O4 0.424305 0.292160 0.171351
O O5 0.362782 0.690175 0.638840
O O6 0.622258 0.774974 0.676537
O O7 0.577266 0.628266 0.588687
O O8 0.498310 0.872175 0.587802
O O9 0.745236 0.500000 0.309314
O O10 0.707521 0.199274 0.086298
O O11 0.920805 0.364661 0.093914
O O12 0.500000 0.500000 0.500000
O O13 0.233474 0.500000 0.456002
O O14 0.898631 0.500000 0.955505
O O15 0.000000 0.710390 0.000000
O O16 0.000000 0.500000 0.500000
#
# Coordination Sequence:
#
# PCOD8098044 Si02
#       7
#     8   8   8   8   4   8   4
#     4  10  21  37  58  86 116 154 197 244 301 352
#     4  12  24  44  66  94 126 160 202 252 300 362
#     4  11  23  40  65  91 122 160 201 253 306 361
#     4  10  20  36  56  82 116 154 198 244 290 356
#     4  12  28  44  68  96 126 162 204 246 301 360
#     4  10  20  34  55  82 115 154 196 244 297 347
#     4  12  28  44  68  96 126 162 204 246 301 360
#
# _framework density 20.274298999999999
#
# number of rings (size 3 to 8) (size 9 to 14) (size 15 to 20)
#    0.000    1.167    3.333    3.000    2.333    1.333 
#    0.000    0.000    3.667    8.000    0.000    0.000 
#    0.000    0.000    0.000    0.000    0.000    0.000 
#
# Total GULP energy -297494.320878 kJ/mol
# GULP energy per Si atom -12395.596703 kJ/mol
# Density = 2.022815 g / cm^3
# Si number density = 20.274299 Si / 1000 Ang^3
#
#
#
# Elastic Constant Matrix: (Units=GPa)
#
#
# Indices 1 2 3 4 5 6 
#
# 1 76.8384 16.8240 19.2666 0.0000 18.3444 0.0000
# 2 16.8240 100.3481 40.9770 0.0000 18.0660 0.0000
# 3 19.2666 40.9770 128.3016 0.0000 28.3689 0.0000
# 4 0.0000 0.0000 0.0000 23.1899 0.0000 2.8072
# 5 18.3444 18.0660 28.3689 0.0000 42.3437 0.0000
# 6 0.0000 0.0000 0.0000 2.8072 0.0000 27.1655
#
#
#
# Elastic Compliance Matrix: (Units=1/GPa)
#
#
# Indices 1 2 3 4 5 6 
#
# 1 0.014740 -0.001240 -0.000613 0.000000 -0.005446 0.000000
# 2 -0.001240 0.011867 -0.003056 0.000000 -0.002478 0.000000
# 3 -0.000613 -0.003056 0.009996 0.000000 -0.005128 0.000000
# 4 0.000000 0.000000 0.000000 0.043669 0.000000 -0.004513
# 5 -0.005446 -0.002478 -0.005128 0.000000 0.030468 0.000000
# 6 0.000000 0.000000 0.000000 -0.004513 0.000000 0.037278
#
#
# Mechanical properties :
#
#
# Convention : Reuss Voigt Hill
#
# Bulk Modulus (GPa) = 37.33561 51.06924 44.20242
# Shear Modulus (GPa) = 29.98238 33.76784 31.87511
#
# Velocity S-wave (km/s) = 3.84974 4.08554 3.96939
# Velocity P-wave (km/s) = 6.18190 6.89198 6.54657
#
# Compressibility (1/GPa) = 0.02678408
#
# Stress axis : x y z
#
# Youngs Moduli (GPa) = 67.84369 84.26468 100.04037
#
# Poissons Ratio (x) = 0.10453 0.06134
# Poissons Ratio (y) = 0.08416 0.30571
# Poissons Ratio (z) = 0.04160 0.25751
#
# Static dielectric constant tensor:
#      x y z
#    x 3.805730 0.000000 0.171800 
#    y 0.000000 3.563320 0.000000 
#    z 0.171800 0.000000 3.914390 
# 
# 
# High freq. dielectric constant tensor:
#      x y z
#    x 1.802840 0.000000 0.008020 
#    y 0.000000 1.786580 0.000000 
#    z 0.008020 0.000000 1.808680 
# 
# From -- ./inp_files/332242.got.cif
#   From: 2010.06.25/outbox.cif.g09.slc.cpg/sg12_167_cif.got.tgz:332242.got - 2010.06.28 00:19:55.
