data_PCOD8098899
_publ_section_title
;
Structure prediction by ZEFSAII (Michael W. Deem and Ramdas Pophale) SiO2 
 PCOD8098899
Probable space group: C 2/M
;
_chemical_formula_sum "Si O2"
_cell_formula_units_Z 48
_cell_length_a 15.574766
_cell_length_b 9.211281
_cell_length_c 29.287365
_cell_angle_alpha 90.000000
_cell_angle_beta 35.392844
_cell_angle_gamma 90.000000
_cell_volume 2433.520109
_symmetry_space_group_name_H-M "C 2/M"
_symmetry_group_IT_number 12
_symmetry_cell_setting 'monoclinic'
loop_
_space_group_symop_operation_xyz
x,y,z
-x,y,-z
-x,-y,-z
x,-y,z
1/2+x,1/2+y,z
1/2-x,1/2+y,-z
1/2-x,1/2-y,-z
1/2+x,1/2-y,z
loop_
_atom_site_type_symbol
_atom_site_label
_atom_site_fract_x
_atom_site_fract_y
_atom_site_fract_z
Si Si1 0.896922 0.335351 0.501244
Si Si2 0.092190 0.664613 0.336235
Si Si3 0.439104 0.668731 0.804573
Si Si4 0.117290 0.334623 0.655975
Si Si5 0.593929 0.330277 0.827735
Si Si6 0.383175 0.171074 0.088964
O O1 0.845547 0.500000 0.511811
O O2 0.754707 0.237991 0.571273
O O3 0.000000 0.333928 0.500000
O O4 0.988522 0.261170 0.419657
O O5 0.110087 0.500000 0.345508
O O6 0.255982 0.733021 0.260900
O O7 0.022016 0.675855 0.316943
O O8 0.458454 0.500000 0.784412
O O9 0.571533 0.752643 0.721859
O O10 0.459381 0.694999 0.850281
O O11 0.278238 0.725076 0.858193
O O12 0.158044 0.500000 0.650194
O O13 0.614008 0.500000 0.830731
O O14 0.563478 0.246461 0.887697
O O15 0.383035 0.000000 0.097412
O O16 0.500000 0.216968 0.000000
#
# Coordination Sequence:
#
# PCOD8098899 Si02
#       6
#     8   8   8   8   8   8
#     4  10  20  35  54  76 108 152 197 236 282 340
#     4   9  18  33  53  78 109 145 188 238 282 329
#     4  10  21  38  61  85 114 156 197 232 284 352
#     4  11  21  34  54  81 114 148 190 245 291 330
#     4  10  20  38  62  86 113 151 198 238 278 340
#     4  10  22  40  60  87 122 152 184 235 294 348
#
# _framework density 19.724513999999999
#
# number of rings (size 3 to 8) (size 9 to 14) (size 15 to 20)
#    0.000    2.000    1.667    2.000    0.000    4.667 
#    0.000    1.667    0.000    0.000    0.000    0.000 
#    0.000    0.000    0.000    0.000    0.000    0.000 
#
# Total GULP energy -297592.829045 kJ/mol
# GULP energy per Si atom -12399.701210 kJ/mol
# Density = 1.967962 g / cm^3
# Si number density = 19.724514 Si / 1000 Ang^3
#
#
#
# Elastic Constant Matrix: (Units=GPa)
#
#
# Indices 1 2 3 4 5 6 
#
# 1 83.0801 26.0631 33.2950 0.0000 18.9255 0.0002
# 2 26.0631 56.3446 39.0209 0.0000 9.2440 0.0003
# 3 33.2950 39.0209 127.4697 0.0000 20.4914 0.0001
# 4 0.0000 0.0000 0.0000 25.7719 0.0000 1.9519
# 5 18.9255 9.2440 20.4914 0.0000 29.5721 0.0000
# 6 0.0002 0.0003 0.0001 1.9519 0.0000 27.2581
#
#
#
# Elastic Compliance Matrix: (Units=1/GPa)
#
#
# Indices 1 2 3 4 5 6 
#
# 1 0.015947 -0.005188 -0.001347 0.000000 -0.007650 0.000000
# 2 -0.005188 0.024383 -0.006096 0.000000 -0.000077 0.000000
# 3 -0.001347 -0.006096 0.010824 0.000000 -0.004732 0.000000
# 4 0.000000 0.000000 0.000000 0.039014 0.000000 -0.002794
# 5 -0.007650 -0.000077 -0.004732 0.000000 0.042015 0.000000
# 6 0.000000 0.000000 0.000000 -0.002794 0.000000 0.036886
#
#
# Mechanical properties :
#
#
# Convention : Reuss Voigt Hill
#
# Bulk Modulus (GPa) = 38.62602 51.51693 45.07147
# Shear Modulus (GPa) = 24.63520 27.75479 26.19499
#
# Velocity S-wave (km/s) = 3.53790 3.75523 3.64819
# Velocity P-wave (km/s) = 6.02613 6.70651 6.37540
#
# Compressibility (1/GPa) = 0.02588928
#
# Stress axis : x y z
#
# Youngs Moduli (GPa) = 62.70842 41.01301 92.38849
#
# Poissons Ratio (x) = 0.21279 0.12447
# Poissons Ratio (y) = 0.32535 0.56324
# Poissons Ratio (z) = 0.08448 0.25003
#
# Static dielectric constant tensor:
#      x y z
#    x 3.719580 0.000000 -0.050730 
#    y 0.000000 3.415110 0.000000 
#    z -0.050730 0.000000 3.647480 
# 
# 
# High freq. dielectric constant tensor:
#      x y z
#    x 1.777110 0.000000 0.003550 
#    y 0.000000 1.741560 0.000000 
#    z 0.003550 0.000000 1.772080 
# 
# From -- ./inp_files/313591.got.cif
#   From: 2010.06.25/outbox.cif.g09.slc.cpg/sg12_157_cif.got.tgz:313591.got - 2010.06.28 00:19:55.
