data_PCOD8098275
_publ_section_title
;
Structure prediction by ZEFSAII (Michael W. Deem and Ramdas Pophale) SiO2 
 PCOD8098275
Probable space group: C 2/M
;
_chemical_formula_sum "Si O2"
_cell_formula_units_Z 56
_cell_length_a 28.256104
_cell_length_b 9.268145
_cell_length_c 19.501333
_cell_angle_alpha 90.000000
_cell_angle_beta 37.329687
_cell_angle_gamma 90.000000
_cell_volume 3096.912510
_symmetry_space_group_name_H-M "C 2/M"
_symmetry_group_IT_number 12
_symmetry_cell_setting 'monoclinic'
loop_
_space_group_symop_operation_xyz
x,y,z
-x,y,-z
-x,-y,-z
x,-y,z
1/2+x,1/2+y,z
1/2-x,1/2+y,-z
1/2-x,1/2-y,-z
1/2+x,1/2-y,z
loop_
_atom_site_type_symbol
_atom_site_label
_atom_site_fract_x
_atom_site_fract_y
_atom_site_fract_z
Si Si1 0.059860 0.664574 0.574961
Si Si2 0.617027 0.167496 0.212351
Si Si3 0.954480 0.665502 0.251392
Si Si4 0.256078 0.166187 0.824240
Si Si5 0.710990 0.832710 0.606788
Si Si6 0.394239 0.666666 0.913039
Si Si7 0.799125 0.170561 0.641421
O O1 0.083158 0.500000 0.531844
O O2 0.072967 0.700452 0.639730
O O3 0.113559 0.768174 0.467575
O O4 0.970002 0.694244 0.658635
O O5 0.677512 0.220035 0.199829
O O6 0.632545 0.256645 0.125748
O O7 0.629601 0.000000 0.179300
O O8 0.982639 0.500000 0.214541
O O9 0.882047 0.697260 0.284555
O O10 0.026664 0.765745 0.147079
O O11 0.258381 0.264365 0.754822
O O12 0.270847 0.000000 0.787229
O O13 0.171748 0.188129 0.954387
O O14 0.750000 0.750000 0.500000
O O15 0.746414 0.780615 0.637812
O O16 0.728154 0.000000 0.574295
O O17 0.409018 0.500000 0.879271
O O18 0.803897 0.000000 0.643498
#
# Coordination Sequence:
#
# PCOD8098275 Si02
#       7
#     8   8   8   8   8   8   8
#     4   9  17  32  54  78 105 139 176 215 263 320
#     4   9  19  36  58  80 104 141 183 218 261 321
#     4   9  18  34  56  80 107 141 177 215 265 323
#     4  10  22  39  55  74 107 149 184 215 261 322
#     4  10  20  35  56  82 108 138 178 218 264 320
#     4  10  20  34  56  84 108 135 178 228 269 306
#     4  11  23  35  52  80 111 140 176 223 269 312
#
# _framework density 18.082525
#
# number of rings (size 3 to 8) (size 9 to 14) (size 15 to 20)
#    0.000    2.286    1.429    2.143    0.000    5.714 
#    0.000    3.571    0.000    4.286    0.000    0.000 
#    0.000    0.000    0.000    0.000    0.000    0.000 
#
# Total GULP energy -347280.421633 kJ/mol
# GULP energy per Si atom -12402.872201 kJ/mol
# Density = 1.804137 g / cm^3
# Si number density = 18.082525 Si / 1000 Ang^3
#
#
#
# Elastic Constant Matrix: (Units=GPa)
#
#
# Indices 1 2 3 4 5 6 
#
# 1 83.0124 45.2737 52.9490 -0.0024 -6.1513 -0.0023
# 2 45.2737 86.3644 60.6035 0.0165 3.6235 -0.0111
# 3 52.9490 60.6035 100.6961 -0.0041 0.2016 0.0041
# 4 -0.0024 0.0165 -0.0041 34.7864 -0.0009 0.4235
# 5 -6.1513 3.6235 0.2016 -0.0009 21.1815 0.0000
# 6 -0.0023 -0.0111 0.0041 0.4235 0.0000 26.4949
#
#
#
# Elastic Compliance Matrix: (Units=1/GPa)
#
#
# Indices 1 2 3 4 5 6 
#
# 1 0.020370 -0.005965 -0.007135 0.000004 0.007004 0.000000
# 2 -0.005965 0.022026 -0.010109 -0.000012 -0.005404 0.000011
# 3 -0.007135 -0.010109 0.019768 0.000007 -0.000531 -0.000008
# 4 0.000004 -0.000012 0.000007 0.028752 0.000004 -0.000460
# 5 0.007004 -0.005404 -0.000531 0.000004 0.050175 -0.000002
# 6 0.000000 0.000011 -0.000008 -0.000460 -0.000002 0.037751
#
#
# Mechanical properties :
#
#
# Convention : Reuss Voigt Hill
#
# Bulk Modulus (GPa) = 63.50995 65.30283 64.40639
# Shear Modulus (GPa) = 21.69126 23.90901 22.80013
#
# Velocity S-wave (km/s) = 3.46724 3.64017 3.55476
# Velocity P-wave (km/s) = 7.15734 7.33894 7.24871
#
# Compressibility (1/GPa) = 0.01574556
#
# Stress axis : x y z
#
# Youngs Moduli (GPa) = 49.09253 45.40025 50.58790
#
# Poissons Ratio (x) = 0.27083 0.36093
# Poissons Ratio (y) = 0.29286 0.51138
# Poissons Ratio (z) = 0.35026 0.45894
#
# Static dielectric constant tensor:
#      x y z
#    x 3.488740 -0.000010 -0.185630 
#    y -0.000010 3.335010 0.000010 
#    z -0.185630 0.000010 3.177200 
# 
# 
# High freq. dielectric constant tensor:
#      x y z
#    x 1.700110 0.000000 -0.016030 
#    y 0.000000 1.700940 0.000000 
#    z -0.016030 0.000000 1.691600 
# 
# From -- ./inp_files/287326.got.cif
#   From: 2010.06.25/outbox.cif.g09.slc.cpg/sg12_144_cif.got.tgz:287326.got - 2010.06.28 00:19:55.
