data_PCOD8098682
_publ_section_title
;
Structure prediction by ZEFSAII (Michael W. Deem and Ramdas Pophale) SiO2 
 PCOD8098682
Probable space group: C 2/M
;
_chemical_formula_sum "Si O2"
_cell_formula_units_Z 64
_cell_length_a 18.274107
_cell_length_b 20.546441
_cell_length_c 9.009162
_cell_angle_alpha 90.000000
_cell_angle_beta 79.238227
_cell_angle_gamma 90.000000
_cell_volume 3323.156897
_symmetry_space_group_name_H-M "C 2/M"
_symmetry_group_IT_number 12
_symmetry_cell_setting 'monoclinic'
loop_
_space_group_symop_operation_xyz
x,y,z
-x,y,-z
-x,-y,-z
x,-y,z
1/2+x,1/2+y,z
1/2-x,1/2+y,-z
1/2-x,1/2-y,-z
1/2+x,1/2-y,z
loop_
_atom_site_type_symbol
_atom_site_label
_atom_site_fract_x
_atom_site_fract_y
_atom_site_fract_z
Si Si1 0.814377 0.803102 0.658085
Si Si2 0.058640 0.426750 0.850914
Si Si3 0.234692 0.168811 0.641885
Si Si4 0.469388 0.143289 0.669369
Si Si5 0.323680 0.076230 0.782110
Si Si6 0.313791 0.854185 0.088974
Si Si7 0.896666 0.776944 0.131772
Si Si8 0.051591 0.222687 0.204404
O O1 0.800195 0.839356 0.508641
O O2 0.794921 0.727215 0.634650
O O3 0.763909 0.836118 0.804738
O O4 0.900445 0.812154 0.681739
O O5 0.044419 0.500000 0.809780
O O6 0.144750 0.418323 0.864562
O O7 0.044904 0.381599 0.715195
O O8 0.000000 0.405616 0.000000
O O9 0.273030 0.099776 0.663357
O O10 0.170193 0.180237 0.784629
O O11 0.500000 0.167298 0.500000
O O12 0.409315 0.084797 0.697949
O O13 0.431423 0.201348 0.776127
O O14 0.309579 0.000000 0.824850
O O15 0.300433 0.126710 0.922643
O O16 0.372337 0.796637 0.103216
O O17 0.961385 0.783240 0.234199
O O18 0.921184 0.805140 0.963608
#
# Coordination Sequence:
#
# PCOD8098682 Si02
#       8
#     8   8   8   8   8   8   8   8
#     4  10  22  36  59  83 121 147 195 246 306 359
#     4  11  21  36  54  77 111 157 206 239 275 339
#     4  10  22  38  56  87 114 155 192 249 301 346
#     4  12  25  35  53  81 122 160 199 241 287 345
#     4  12  24  40  58  80 118 166 210 240 284 347
#     4  11  20  36  56  83 111 156 194 245 286 339
#     4  10  20  34  62  83 116 144 188 240 295 354
#     4  11  20  36  57  90 112 155 187 238 300 359
#
# _framework density 19.258794999999999
#
# number of rings (size 3 to 8) (size 9 to 14) (size 15 to 20)
#    0.000    1.125    5.000    1.500    3.500    3.000 
#    0.000    0.625    0.000    0.000    0.000    9.625 
#    0.000    0.000    0.000    0.000    0.000    0.000 
#
# Total GULP energy -396453.456047 kJ/mol
# GULP energy per Si atom -12389.170501 kJ/mol
# Density = 1.921496 g / cm^3
# Si number density = 19.258795 Si / 1000 Ang^3
#
#
#
# Elastic Constant Matrix: (Units=GPa)
#
#
# Indices 1 2 3 4 5 6 
#
# 1 94.3149 27.2837 25.7678 0.0000 29.0137 0.0000
# 2 27.2837 45.5972 16.9315 0.0000 5.4424 0.0000
# 3 25.7678 16.9315 73.2665 0.0000 16.8919 0.0000
# 4 0.0000 0.0000 0.0000 13.8077 0.0000 4.3044
# 5 29.0137 5.4424 16.8919 0.0000 35.0367 0.0000
# 6 0.0000 0.0000 0.0000 4.3044 0.0000 20.2046
#
#
#
# Elastic Compliance Matrix: (Units=1/GPa)
#
#
# Indices 1 2 3 4 5 6 
#
# 1 0.017134 -0.008314 -0.001273 0.000000 -0.012284 0.000000
# 2 -0.008314 0.028068 -0.004663 0.000000 0.004773 0.000000
# 3 -0.001273 -0.004663 0.016610 0.000000 -0.006230 0.000000
# 4 0.000000 0.000000 0.000000 0.077575 0.000000 -0.016527
# 5 -0.012284 0.004773 -0.006230 0.000000 0.040976 0.000000
# 6 0.000000 0.000000 0.000000 -0.016527 0.000000 0.053015
#
#
# Mechanical properties :
#
#
# Convention : Reuss Voigt Hill
#
# Bulk Modulus (GPa) = 30.01764 39.23829 34.62797
# Shear Modulus (GPa) = 18.31630 23.35617 20.83624
#
# Velocity S-wave (km/s) = 3.08727 3.48624 3.29280
# Velocity P-wave (km/s) = 5.32247 6.05174 5.69878
#
# Compressibility (1/GPa) = 0.03331374
#
# Stress axis : x y z
#
# Youngs Moduli (GPa) = 58.36211 35.62831 60.20364
#
# Poissons Ratio (x) = 0.29621 0.07663
# Poissons Ratio (y) = 0.48521 0.28071
# Poissons Ratio (z) = 0.07428 0.16612
#
# Static dielectric constant tensor:
#      x y z
#    x 3.587220 0.000000 0.240160 
#    y 0.000000 3.072810 0.000000 
#    z 0.240160 0.000000 3.640070 
# 
# 
# High freq. dielectric constant tensor:
#      x y z
#    x 1.753460 0.000000 0.016310 
#    y 0.000000 1.695350 0.000000 
#    z 0.016310 0.000000 1.753350 
# 
# From -- ./inp_files/78771.got.cif
#   From: 2010.06.25/outbox.cif.g09.slc.cpg/sg12_40_cif.got.tgz:78771.got - 2010.06.28 00:19:55.
