data_PCOD8098856
_publ_section_title
;
Structure prediction by ZEFSAII (Michael W. Deem and Ramdas Pophale) SiO2 
 PCOD8098856
Probable space group: C 2/M
;
_chemical_formula_sum "Si O2"
_cell_formula_units_Z 64
_cell_length_a 18.786770
_cell_length_b 9.081229
_cell_length_c 34.711929
_cell_angle_alpha 90.000000
_cell_angle_beta 143.761621
_cell_angle_gamma 90.000000
_cell_volume 3500.824187
_symmetry_space_group_name_H-M "C 2/M"
_symmetry_group_IT_number 12
_symmetry_cell_setting 'monoclinic'
loop_
_space_group_symop_operation_xyz
x,y,z
-x,y,-z
-x,-y,-z
x,-y,z
1/2+x,1/2+y,z
1/2-x,1/2+y,-z
1/2-x,1/2-y,-z
1/2+x,1/2-y,z
loop_
_atom_site_type_symbol
_atom_site_label
_atom_site_fract_x
_atom_site_fract_y
_atom_site_fract_z
Si Si1 0.767444 0.169863 0.761101
Si Si2 0.535558 0.332796 0.633899
Si Si3 0.495338 0.171484 0.151797
Si Si4 0.715205 0.669694 0.446114
Si Si5 0.942843 0.330122 0.041547
Si Si6 0.920022 0.828677 0.500827
Si Si7 0.678029 0.670139 0.127164
Si Si8 0.291884 0.326865 0.107640
O O1 0.639402 0.218871 0.689105
O O2 0.870284 0.266196 0.785778
O O3 0.770124 0.196062 0.807825
O O4 0.789441 0.000000 0.760440
O O5 0.584746 0.500000 0.656648
O O6 0.429852 0.314350 0.619996
O O7 0.489110 0.295720 0.570742
O O8 0.440317 0.203122 0.085738
O O9 0.415013 0.255229 0.147546
O O10 0.497316 0.000000 0.162534
O O11 0.752989 0.500000 0.465338
O O12 0.750000 0.750000 0.500000
O O13 0.790545 0.744379 0.444125
O O14 0.974631 0.500000 0.046964
O O15 0.042608 0.231151 0.064208
O O16 0.813996 0.285640 0.968363
O O17 0.000000 0.770955 0.500000
O O18 0.891024 0.000000 0.483300
O O19 0.677081 0.500000 0.114788
O O20 0.764801 0.761280 0.137484
O O21 0.309934 0.500000 0.119008
#
# Coordination Sequence:
#
# PCOD8098856 Si02
#       8
#     8   8   8   8   8   8   8   8
#     4  10  21  37  55  74  98 133 176 214 250 298
#     4   9  18  33  54  77 101 135 175 210 247 295
#     4  10  20  35  54  74 101 135 169 208 255 306
#     4   9  17  30  50  77 106 135 169 206 244 289
#     4   9  19  34  52  75 101 131 165 205 257 312
#     4   9  18  33  53  80 113 142 167 202 250 297
#     4  10  21  35  51  73 100 131 170 213 255 302
#     4  11  21  33  51  76 104 130 163 209 260 311
#
# _framework density 18.281407999999999
#
# number of rings (size 3 to 8) (size 9 to 14) (size 15 to 20)
#    0.000    2.375    0.000    3.375    0.000    7.250 
#    0.000    1.250    0.000    4.500    0.000    0.000 
#    0.000    0.000    0.000    0.000    0.000    0.000 
#
# Total GULP energy -396825.734879 kJ/mol
# GULP energy per Si atom -12400.804215 kJ/mol
# Density = 1.823980 g / cm^3
# Si number density = 18.281408 Si / 1000 Ang^3
#
#
#
# Elastic Constant Matrix: (Units=GPa)
#
#
# Indices 1 2 3 4 5 6 
#
# 1 151.6050 71.3634 35.6208 -0.0001 15.7913 0.0001
# 2 71.3634 103.6206 36.6211 0.0000 10.4724 0.0001
# 3 35.6208 36.6211 56.0678 0.0000 16.4508 0.0000
# 4 -0.0001 0.0000 0.0000 28.4900 0.0000 5.8551
# 5 15.7913 10.4724 16.4508 0.0000 17.3314 0.0000
# 6 0.0001 0.0001 0.0000 5.8551 0.0000 39.5362
#
#
#
# Elastic Compliance Matrix: (Units=1/GPa)
#
#
# Indices 1 2 3 4 5 6 
#
# 1 0.010254 -0.006203 -0.001138 0.000000 -0.004514 0.000000
# 2 -0.006203 0.016301 -0.007587 0.000000 0.003004 0.000000
# 3 -0.001138 -0.007587 0.030305 0.000000 -0.023143 0.000000
# 4 0.000000 0.000000 0.000000 0.036202 0.000000 -0.005361
# 5 -0.004514 0.003004 -0.023143 0.000000 0.081963 0.000000
# 6 0.000000 0.000000 0.000000 -0.005361 0.000000 0.026087
#
#
# Mechanical properties :
#
#
# Convention : Reuss Voigt Hill
#
# Bulk Modulus (GPa) = 37.03491 66.50044 51.76768
# Shear Modulus (GPa) = 20.83598 28.25075 24.54336
#
# Velocity S-wave (km/s) = 3.37966 3.93533 3.66803
# Velocity P-wave (km/s) = 5.96085 7.55672 6.80572
#
# Compressibility (1/GPa) = 0.02700155
#
# Stress axis : x y z
#
# Youngs Moduli (GPa) = 97.52604 61.34751 32.99801
#
# Poissons Ratio (x) = 0.38055 0.03756
# Poissons Ratio (y) = 0.60498 0.25037
# Poissons Ratio (z) = 0.11101 0.46546
#
# Static dielectric constant tensor:
#      x y z
#    x 3.694910 0.000000 0.135810 
#    y 0.000000 3.469300 0.000000 
#    z 0.135810 0.000000 3.119250 
# 
# 
# High freq. dielectric constant tensor:
#      x y z
#    x 1.715220 0.000000 0.011590 
#    y 0.000000 1.719350 0.000000 
#    z 0.011590 0.000000 1.679590 
# 
# From -- ./inp_files/378439.got.cif
#   From: 2010.06.25/outbox.cif.g09.slc.cpg/sg12_190_cif.got.tgz:378439.got - 2010.06.28 00:19:55.
