data_PCOD8098415
_publ_section_title
;
Structure prediction by ZEFSAII (Michael W. Deem and Ramdas Pophale) SiO2 
 PCOD8098415
Probable space group: C 2/M
;
_chemical_formula_sum "Si O2"
_cell_formula_units_Z 44
_cell_length_a 22.366829
_cell_length_b 7.875347
_cell_length_c 15.291227
_cell_angle_alpha 90.000000
_cell_angle_beta 121.119567
_cell_angle_gamma 90.000000
_cell_volume 2305.877318
_symmetry_space_group_name_H-M "C 2/M"
_symmetry_group_IT_number 12
_symmetry_cell_setting 'monoclinic'
loop_
_space_group_symop_operation_xyz
x,y,z
-x,y,-z
-x,-y,-z
x,-y,z
1/2+x,1/2+y,z
1/2-x,1/2+y,-z
1/2-x,1/2-y,-z
1/2+x,1/2-y,z
loop_
_atom_site_type_symbol
_atom_site_label
_atom_site_fract_x
_atom_site_fract_y
_atom_site_fract_z
Si Si1 0.338551 0.311206 0.881256
Si Si2 0.458015 0.000000 0.561345
Si Si3 0.418631 0.316895 0.459636
Si Si4 0.689836 0.304160 0.770123
Si Si5 0.517675 0.000000 0.794495
Si Si6 0.569812 0.000000 0.111074
Si Si7 0.381010 0.305370 0.106766
O O1 0.366014 0.500000 0.876279
O O2 0.258139 0.296658 0.789868
O O3 0.386692 0.170284 0.873457
O O4 0.338005 0.287810 0.985238
O O5 0.500000 0.000000 0.500000
O O6 0.409639 0.169500 0.525776
O O7 0.506424 0.000000 0.682245
O O8 0.500000 0.333914 0.500000
O O9 0.391647 0.500000 0.474776
O O10 0.375883 0.262570 0.341370
O O11 0.710318 0.500000 0.782748
O O12 0.669193 0.249299 0.852291
O O13 0.447178 0.000000 0.798449
O O14 0.555793 0.826520 0.850107
O O15 0.500000 0.000000 0.000000
O O16 0.408464 0.500000 0.141313
#
# Coordination Sequence:
#
# PCOD8098415 Si02
#       7
#     8   4   8   8   4   4   8
#     4  11  23  38  60  89 120 169 210 249 299 358
#     4  10  20  34  56  90 118 146 194 245 304 361
#     4   9  18  33  53  82 122 155 187 237 301 364
#     4  10  20  35  59  91 129 165 194 247 317 373
#     4  12  24  38  66  88 122 170 197 252 311 359
#     4  12  24  46  62  82 127 166 214 256 286 364
#     4  10  21  35  55  91 127 159 199 247 305 372
#
# _framework density 19.081675000000001
#
# number of rings (size 3 to 8) (size 9 to 14) (size 15 to 20)
#    0.000    1.636    2.727    2.727    2.545    3.273 
#    0.000    0.000    0.000    1.091    0.000    0.000 
#    0.000    0.000    0.000    0.000    0.000    0.000 
#
# Total GULP energy -272663.754715 kJ/mol
# GULP energy per Si atom -12393.807033 kJ/mol
# Density = 1.903824 g / cm^3
# Si number density = 19.081675 Si / 1000 Ang^3
#
#
#
# Elastic Constant Matrix: (Units=GPa)
#
#
# Indices 1 2 3 4 5 6 
#
# 1 90.6178 44.8120 35.2773 0.0000 12.0337 0.0000
# 2 44.8120 139.9798 36.0635 0.0000 9.4892 0.0000
# 3 35.2773 36.0635 99.2826 0.0000 15.8817 0.0000
# 4 0.0000 0.0000 0.0000 21.8182 0.0000 -4.7186
# 5 12.0337 9.4892 15.8817 0.0000 19.0463 0.0000
# 6 0.0000 0.0000 0.0000 -4.7186 0.0000 16.8257
#
#
#
# Elastic Compliance Matrix: (Units=1/GPa)
#
#
# Indices 1 2 3 4 5 6 
#
# 1 0.014663 -0.003555 -0.003139 0.000000 -0.004876 0.000000
# 2 -0.003555 0.008796 -0.001835 0.000000 -0.000606 0.000000
# 3 -0.003139 -0.001835 0.013144 0.000000 -0.008063 0.000000
# 4 0.000000 0.000000 0.000000 0.048793 0.000000 0.013683
# 5 -0.004876 -0.000606 -0.008063 0.000000 0.062609 0.000000
# 6 0.000000 0.000000 0.000000 0.013683 0.000000 0.063270
#
#
# Mechanical properties :
#
#
# Convention : Reuss Voigt Hill
#
# Bulk Modulus (GPa) = 51.16346 62.46508 56.81427
# Shear Modulus (GPa) = 21.29054 25.78653 23.53854
#
# Velocity S-wave (km/s) = 3.34392 3.68010 3.51603
# Velocity P-wave (km/s) = 6.46376 7.13191 6.80604
#
# Compressibility (1/GPa) = 0.01954520
#
# Stress axis : x y z
#
# Youngs Moduli (GPa) = 68.20038 113.69168 76.08156
#
# Poissons Ratio (x) = 0.40415 0.23880
# Poissons Ratio (y) = 0.24244 0.13960
# Poissons Ratio (z) = 0.21407 0.20861
#
# Static dielectric constant tensor:
#      x y z
#    x 3.129990 0.000000 0.051140 
#    y 0.000000 4.727200 0.000000 
#    z 0.051140 0.000000 3.471790 
# 
# 
# High freq. dielectric constant tensor:
#      x y z
#    x 1.692240 0.000000 0.015090 
#    y 0.000000 1.772680 0.000000 
#    z 0.015090 0.000000 1.736460 
# 
# From -- ./inp_files/230591.got.cif
#   From: 2010.06.25/outbox.cif.g09.slc.cpg/sg12_116_cif.got.tgz:230591.got - 2010.06.28 00:19:55.
