data_PCOD8098169
_publ_section_title
;
Structure prediction by ZEFSAII (Michael W. Deem and Ramdas Pophale) SiO2 
 PCOD8098169
Probable space group: C 2/M
;
_chemical_formula_sum "Si O2"
_cell_formula_units_Z 48
_cell_length_a 20.557343
_cell_length_b 8.827073
_cell_length_c 14.769337
_cell_angle_alpha 90.000000
_cell_angle_beta 108.659388
_cell_angle_gamma 90.000000
_cell_volume 2539.189869
_symmetry_space_group_name_H-M "C 2/M"
_symmetry_group_IT_number 12
_symmetry_cell_setting 'monoclinic'
loop_
_space_group_symop_operation_xyz
x,y,z
-x,y,-z
-x,-y,-z
x,-y,z
1/2+x,1/2+y,z
1/2-x,1/2+y,-z
1/2-x,1/2-y,-z
1/2+x,1/2-y,z
loop_
_atom_site_type_symbol
_atom_site_label
_atom_site_fract_x
_atom_site_fract_y
_atom_site_fract_z
Si Si1 0.918479 0.321028 0.182368
Si Si2 0.179761 0.820524 0.003009
Si Si3 0.572249 0.323295 0.494854
Si Si4 0.062031 0.177876 0.281279
Si Si5 0.664820 0.820557 0.679345
Si Si6 0.315130 0.320879 0.789644
O O1 0.911516 0.500000 0.167632
O O2 0.884303 0.240717 0.081567
O O3 0.881271 0.264183 0.257111
O O4 0.997136 0.272764 0.219930
O O5 0.184952 0.000000 0.996283
O O6 0.250000 0.750000 0.000000
O O7 0.167758 0.769139 0.101020
O O8 0.500000 0.258921 0.500000
O O9 0.577503 0.500000 0.518217
O O10 0.579131 0.285947 0.392589
O O11 0.634837 0.241944 0.572626
O O12 0.125870 0.238414 0.250974
O O13 0.047465 0.000000 0.260115
O O14 0.741493 0.754422 0.726086
O O15 0.665121 0.000000 0.674998
O O16 0.310925 0.500000 0.782308
#
# Coordination Sequence:
#
# PCOD8098169 Si02
#       6
#     8   8   8   8   8   8
#     4  11  22  37  58  86 116 147 190 236 283 335
#     4  11  21  37  61  87 114 148 193 234 279 336
#     4  10  20  34  55  86 114 142 188 237 280 329
#     4  10  21  39  60  81 114 153 188 231 283 338
#     4  10  20  36  58  82 111 149 190 230 278 340
#     4   9  20  39  59  82 113 151 189 227 280 346
#
# _framework density 18.903666000000001
#
# number of rings (size 3 to 8) (size 9 to 14) (size 15 to 20)
#    0.000    1.833    3.333    1.000    0.000    3.000 
#    0.000    5.833    0.000    0.000    0.000    0.000 
#    0.000    0.000    0.000    0.000    0.000    0.000 
#
# Total GULP energy -297687.544005 kJ/mol
# GULP energy per Si atom -12403.647667 kJ/mol
# Density = 1.886064 g / cm^3
# Si number density = 18.903666 Si / 1000 Ang^3
#
#
#
# Elastic Constant Matrix: (Units=GPa)
#
#
# Indices 1 2 3 4 5 6 
#
# 1 161.6684 33.3677 84.4866 0.0000 -3.6070 0.0000
# 2 33.3677 44.2790 42.6085 0.0000 2.0581 0.0000
# 3 84.4866 42.6085 155.5703 0.0000 5.4494 0.0000
# 4 0.0000 0.0000 0.0000 33.4852 0.0000 7.1332
# 5 -3.6070 2.0581 5.4494 0.0000 40.0433 0.0000
# 6 0.0000 0.0000 0.0000 7.1332 0.0000 27.3688
#
#
#
# Elastic Compliance Matrix: (Units=1/GPa)
#
#
# Indices 1 2 3 4 5 6 
#
# 1 0.008974 -0.002841 -0.004149 0.000000 0.001519 0.000000
# 2 -0.002841 0.031573 -0.007072 0.000000 -0.000916 0.000000
# 3 -0.004149 -0.007072 0.010669 0.000000 -0.001462 0.000000
# 4 0.000000 0.000000 0.000000 0.031620 0.000000 -0.008241
# 5 0.001519 -0.000916 -0.001462 0.000000 0.025356 0.000000
# 6 0.000000 0.000000 0.000000 -0.008241 0.000000 0.038686
#
#
# Mechanical properties :
#
#
# Convention : Reuss Voigt Hill
#
# Bulk Modulus (GPa) = 43.30480 75.82705 59.56592
# Shear Modulus (GPa) = 27.36745 33.58311 30.47528
#
# Velocity S-wave (km/s) = 3.80904 4.21947 4.01950
# Velocity P-wave (km/s) = 6.50407 7.99613 7.28838
#
# Compressibility (1/GPa) = 0.02309213
#
# Stress axis : x y z
#
# Youngs Moduli (GPa) = 111.43613 31.67241 93.72777
#
# Poissons Ratio (x) = 0.08998 0.38883
# Poissons Ratio (y) = 0.31659 0.66289
# Poissons Ratio (z) = 0.46230 0.22400
#
# Static dielectric constant tensor:
#      x y z
#    x 3.844220 0.000000 0.155090 
#    y 0.000000 3.353960 0.000000 
#    z 0.155090 0.000000 3.792380 
# 
# 
# High freq. dielectric constant tensor:
#      x y z
#    x 1.738390 0.000000 0.004990 
#    y 0.000000 1.715300 0.000000 
#    z 0.004990 0.000000 1.748550 
# 
# From -- ./inp_files/229831.got.cif
#   From: 2010.06.25/outbox.cif.g09.slc.cpg/sg12_115_cif.got.tgz:229831.got - 2010.06.28 00:19:55.
