data_PCOD8098439
_publ_section_title
;
Structure prediction by ZEFSAII (Michael W. Deem and Ramdas Pophale) SiO2 
 PCOD8098439
Probable space group: C 2/M
;
_chemical_formula_sum "Si O2"
_cell_formula_units_Z 64
_cell_length_a 20.148381
_cell_length_b 8.932606
_cell_length_c 21.304833
_cell_angle_alpha 90.000000
_cell_angle_beta 64.193212
_cell_angle_gamma 90.000000
_cell_volume 3451.977020
_symmetry_space_group_name_H-M "C 2/M"
_symmetry_group_IT_number 12
_symmetry_cell_setting 'monoclinic'
loop_
_space_group_symop_operation_xyz
x,y,z
-x,y,-z
-x,-y,-z
x,-y,z
1/2+x,1/2+y,z
1/2-x,1/2+y,-z
1/2-x,1/2-y,-z
1/2+x,1/2-y,z
loop_
_atom_site_type_symbol
_atom_site_label
_atom_site_fract_x
_atom_site_fract_y
_atom_site_fract_z
Si Si1 0.422725 0.678285 0.057623
Si Si2 0.975538 0.177409 0.413949
Si Si3 0.110020 0.824632 0.789372
Si Si4 0.775925 0.174881 0.052559
Si Si5 0.261897 0.677090 0.702678
Si Si6 0.335465 0.175825 0.791177
Si Si7 0.510619 0.324132 0.263225
Si Si8 0.887144 0.177319 0.563829
O O1 0.425562 0.500000 0.058306
O O2 0.408356 0.738338 0.133906
O O3 0.356911 0.733996 0.039502
O O4 0.500000 0.743588 0.000000
O O5 0.906059 0.235189 0.485144
O O6 0.970704 0.231704 0.343886
O O7 0.051045 0.239803 0.413436
O O8 0.976019 0.000000 0.414889
O O9 0.181320 0.745806 0.731559
O O10 0.041823 0.786200 0.773068
O O11 0.127074 0.000000 0.784907
O O12 0.719246 0.216509 0.130219
O O13 0.779137 0.000000 0.038837
O O14 0.750000 0.250000 0.000000
O O15 0.255679 0.500000 0.711179
O O16 0.308172 0.736466 0.741986
O O17 0.306300 0.726748 0.621149
O O18 0.415640 0.231201 0.778480
O O19 0.335846 0.000000 0.776659
O O20 0.529671 0.500000 0.258535
O O21 0.892398 0.000000 0.562872
#
# Coordination Sequence:
#
# PCOD8098439 Si02
#       8
#     8   8   8   8   8   8   8   8
#     4   9  18  35  56  76 103 142 178 209 260 323
#     4   8  13  26  47  77 109 135 175 227 272 310
#     4  10  21  37  55  78 111 144 178 223 275 322
#     4  10  22  38  57  81 109 138 173 219 270 322
#     4  11  20  34  57  82 105 142 192 226 260 324
#     4  11  22  37  56  80 115 146 173 224 282 320
#     4  10  20  34  57  84 107 142 191 229 261 322
#     4   8  14  25  48  77 106 138 175 225 272 314
#
# _framework density 18.540099999999999
#
# number of rings (size 3 to 8) (size 9 to 14) (size 15 to 20)
#    0.000    2.375    2.500    1.500    1.750    1.500 
#    0.000    0.625    0.000    3.000    0.000    0.000 
#    0.000    0.000    0.000    0.000    0.000    0.000 
#
# Total GULP energy -396659.488033 kJ/mol
# GULP energy per Si atom -12395.609001 kJ/mol
# Density = 1.849790 g / cm^3
# Si number density = 18.540100 Si / 1000 Ang^3
#
#
#
# Elastic Constant Matrix: (Units=GPa)
#
#
# Indices 1 2 3 4 5 6 
#
# 1 114.8071 30.1009 74.3690 -0.0001 -12.7822 -0.0002
# 2 30.1009 27.3971 29.8867 0.0001 -10.4346 0.0005
# 3 74.3690 29.8867 137.6946 0.0000 -18.1231 -0.0001
# 4 -0.0001 0.0001 0.0000 20.9489 0.0000 -5.2552
# 5 -12.7822 -10.4346 -18.1231 0.0000 35.6324 0.0000
# 6 -0.0002 0.0005 -0.0001 -5.2552 0.0000 25.4945
#
#
#
# Elastic Compliance Matrix: (Units=1/GPa)
#
#
# Indices 1 2 3 4 5 6 
#
# 1 0.015322 -0.010434 -0.006098 0.000000 -0.000660 0.000000
# 2 -0.010434 0.058024 -0.005589 -0.000001 0.010406 -0.000001
# 3 -0.006098 -0.005589 0.012074 0.000000 0.002317 0.000000
# 4 0.000000 -0.000001 0.000000 0.050338 0.000000 0.010376
# 5 -0.000660 0.010406 0.002317 0.000000 0.032053 0.000000
# 6 0.000000 -0.000001 0.000000 0.010376 0.000000 0.041363
#
#
# Mechanical properties :
#
#
# Convention : Reuss Voigt Hill
#
# Bulk Modulus (GPa) = 24.28448 60.95692 42.62070
# Shear Modulus (GPa) = 18.71652 26.11797 22.41724
#
# Velocity S-wave (km/s) = 3.18073 3.75738 3.48102
# Velocity P-wave (km/s) = 5.15909 7.19539 6.26058
#
# Compressibility (1/GPa) = 0.04117856
#
# Stress axis : x y z
#
# Youngs Moduli (GPa) = 65.26358 17.23412 82.82288
#
# Poissons Ratio (x) = 0.17982 0.50504
# Poissons Ratio (y) = 0.68097 0.46290
# Poissons Ratio (z) = 0.39797 0.09632
#
# Static dielectric constant tensor:
#      x y z
#    x 3.412760 0.000000 -0.177770 
#    y 0.000000 3.052890 0.000000 
#    z -0.177770 0.000000 3.992280 
# 
# 
# High freq. dielectric constant tensor:
#      x y z
#    x 1.711630 0.000000 -0.007780 
#    y 0.000000 1.678470 0.000000 
#    z -0.007780 0.000000 1.739400 
# 
# From -- ./inp_files/319815.got.cif
#   From: 2010.06.25/outbox.cif.g09.slc.cpg/sg12_160_cif.got.tgz:319815.got - 2010.06.28 00:19:55.
