data_PCOD8098895
_publ_section_title
;
Structure prediction by ZEFSAII (Michael W. Deem and Ramdas Pophale) SiO2 
 PCOD8098895
Probable space group: C 2/M
;
_chemical_formula_sum "Si O2"
_cell_formula_units_Z 48
_cell_length_a 13.634582
_cell_length_b 13.521724
_cell_length_c 20.227715
_cell_angle_alpha 90.000000
_cell_angle_beta 137.792749
_cell_angle_gamma 90.000000
_cell_volume 2505.359127
_symmetry_space_group_name_H-M "C 2/M"
_symmetry_group_IT_number 12
_symmetry_cell_setting 'monoclinic'
loop_
_space_group_symop_operation_xyz
x,y,z
-x,y,-z
-x,-y,-z
x,-y,z
1/2+x,1/2+y,z
1/2-x,1/2+y,-z
1/2-x,1/2-y,-z
1/2+x,1/2-y,z
loop_
_atom_site_type_symbol
_atom_site_label
_atom_site_fract_x
_atom_site_fract_y
_atom_site_fract_z
Si Si1 0.212145 0.883239 0.415711
Si Si2 0.209292 0.769308 0.286459
Si Si3 0.981056 0.387700 0.743874
Si Si4 0.477535 0.775620 0.611025
Si Si5 0.030250 0.211987 0.939885
Si Si6 0.307210 0.889539 0.031838
O O1 0.182704 0.860222 0.323755
O O2 0.371046 0.841359 0.513007
O O3 0.094096 0.828401 0.403177
O O4 0.201888 0.000000 0.423295
O O5 0.157171 0.668149 0.294447
O O6 0.379004 0.751847 0.358687
O O7 0.122094 0.789169 0.175266
O O8 0.932082 0.500000 0.708744
O O9 0.027373 0.340151 0.698220
O O10 0.120996 0.377848 0.860491
O O11 0.110489 0.318868 0.979209
O O12 0.136925 0.135588 0.955707
O O13 0.000000 0.180459 0.000000
O O14 0.322296 0.000000 0.011123
#
# Coordination Sequence:
#
# PCOD8098895 Si02
#       6
#     8   8   8   8   8   8
#     4  10  22  38  55  78 107 138 172 212 260 311
#     4  10  21  35  53  79 106 135 174 217 260 306
#     4   9  18  34  55  78 105 137 173 213 257 306
#     4  10  20  36  57  79 105 137 173 212 257 311
#     4  10  20  35  54  76 105 139 175 216 259 305
#     4   9  19  35  53  76 107 139 172 213 259 307
#
# _framework density 19.158930999999999
#
# number of rings (size 3 to 8) (size 9 to 14) (size 15 to 20)
#    0.000    2.333    0.000    2.000    0.000    5.333 
#    0.000    0.000    0.000    6.000    0.000    0.000 
#    0.000    0.000    0.000    0.000    0.000    0.000 
#
# Total GULP energy -297639.628375 kJ/mol
# GULP energy per Si atom -12401.651182 kJ/mol
# Density = 1.911532 g / cm^3
# Si number density = 19.158931 Si / 1000 Ang^3
#
#
#
# Elastic Constant Matrix: (Units=GPa)
#
#
# Indices 1 2 3 4 5 6 
#
# 1 63.7086 29.3364 19.8577 0.0000 10.0903 0.0000
# 2 29.3364 124.0599 29.1530 0.0000 12.0418 0.0000
# 3 19.8577 29.1530 55.3745 0.0000 12.5153 0.0000
# 4 0.0000 0.0000 0.0000 23.1098 0.0000 -2.7042
# 5 10.0903 12.0418 12.5153 0.0000 32.5020 0.0000
# 6 0.0000 0.0000 0.0000 -2.7042 0.0000 12.4306
#
#
#
# Elastic Compliance Matrix: (Units=1/GPa)
#
#
# Indices 1 2 3 4 5 6 
#
# 1 0.019022 -0.003153 -0.004481 0.000000 -0.003012 0.000000
# 2 -0.003153 0.009807 -0.003760 0.000000 -0.001207 0.000000
# 3 -0.004481 -0.003760 0.023019 0.000000 -0.006080 0.000000
# 4 0.000000 0.000000 0.000000 0.044402 0.000000 0.009659
# 5 -0.003012 -0.001207 -0.006080 0.000000 0.034491 0.000000
# 6 0.000000 0.000000 0.000000 0.009659 0.000000 0.082548
#
#
# Mechanical properties :
#
#
# Convention : Reuss Voigt Hill
#
# Bulk Modulus (GPa) = 34.40992 44.42637 39.41814
# Shear Modulus (GPa) = 20.34491 24.59488 22.46990
#
# Velocity S-wave (km/s) = 3.26222 3.58680 3.42835
# Velocity P-wave (km/s) = 5.67351 6.35549 6.02416
#
# Compressibility (1/GPa) = 0.02906139
#
# Stress axis : x y z
#
# Youngs Moduli (GPa) = 52.57087 101.97030 43.44214
#
# Poissons Ratio (x) = 0.32149 0.19466
# Poissons Ratio (y) = 0.16575 0.16332
# Poissons Ratio (z) = 0.23556 0.38337
#
# Static dielectric constant tensor:
#      x y z
#    x 3.306130 0.000000 -0.077560 
#    y 0.000000 3.494420 0.000000 
#    z -0.077560 0.000000 3.617820 
# 
# 
# High freq. dielectric constant tensor:
#      x y z
#    x 1.738570 0.000000 -0.001110 
#    y 0.000000 1.739390 0.000000 
#    z -0.001110 0.000000 1.754300 
# 
# From -- ./inp_files/142969.got.cif
#   From: 2010.06.25/outbox.cif.g09.slc.cpg/sg12_72_cif.got.tgz:142969.got - 2010.06.28 00:19:55.
