data_PCOD8098840
_publ_section_title
;
Structure prediction by ZEFSAII (Michael W. Deem and Ramdas Pophale) SiO2 
 PCOD8098840
Probable space group: C 2/M
;
_chemical_formula_sum "Si O2"
_cell_formula_units_Z 44
_cell_length_a 23.282329
_cell_length_b 7.859359
_cell_length_c 11.069952
_cell_angle_alpha 90.000000
_cell_angle_beta 75.365512
_cell_angle_gamma 90.000000
_cell_volume 1959.909265
_symmetry_space_group_name_H-M "C 2/M"
_symmetry_group_IT_number 12
_symmetry_cell_setting 'monoclinic'
loop_
_space_group_symop_operation_xyz
x,y,z
-x,y,-z
-x,-y,-z
x,-y,z
1/2+x,1/2+y,z
1/2-x,1/2+y,-z
1/2-x,1/2-y,-z
1/2+x,1/2-y,z
loop_
_atom_site_type_symbol
_atom_site_label
_atom_site_fract_x
_atom_site_fract_y
_atom_site_fract_z
Si Si1 0.569843 0.000000 0.464178
Si Si2 0.466623 0.682267 0.143303
Si Si3 0.142499 0.190149 0.502387
Si Si4 0.339467 0.802027 0.249755
Si Si5 0.786119 0.193670 0.773669
Si Si6 0.858238 0.500000 0.819627
Si Si7 0.526301 0.000000 0.122262
O O1 0.500000 0.000000 0.500000
O O2 0.590339 0.170992 0.521862
O O3 0.596265 0.000000 0.315635
O O4 0.470425 0.500000 0.210368
O O5 0.398173 0.728539 0.154981
O O6 0.499842 0.830887 0.202303
O O7 0.500000 0.663977 0.000000
O O8 0.172887 0.207556 0.616949
O O9 0.191949 0.222844 0.374615
O O10 0.115772 0.000000 0.502218
O O11 0.284245 0.769551 0.189128
O O12 0.347084 0.000000 0.273039
O O13 0.817741 0.330332 0.844541
O O14 0.799583 0.000000 0.810511
O O15 0.901715 0.500000 0.913777
O O16 0.500000 0.000000 0.000000
#
# Coordination Sequence:
#
# PCOD8098840 Si02
#       7
#     4   8   8   8   8   4   4
#     4  10  22  36  52  80 128 163 206 247 290 356
#     4  10  22  39  60  90 116 149 198 259 311 358
#     4  10  20  35  53  82 125 164 209 244 292 356
#     4  11  20  34  61  90 124 159 207 253 303 358
#     4   9  21  37  55  90 126 166 200 248 296 364
#     4  10  22  38  62  84 123 168 194 245 318 357
#     4  10  22  42  66  90 118 151 205 255 303 368
#
# _framework density 22.450019999999999
#
# number of rings (size 3 to 8) (size 9 to 14) (size 15 to 20)
#    0.000    2.000    1.818    1.091    5.091    1.091 
#    0.000    0.000    0.000    4.364    0.000    0.000 
#    0.000    0.000    0.000    0.000    0.000    0.000 
#
# Total GULP energy -272673.169024 kJ/mol
# GULP energy per Si atom -12394.234956 kJ/mol
# Density = 2.239892 g / cm^3
# Si number density = 22.450020 Si / 1000 Ang^3
#
#
#
# Elastic Constant Matrix: (Units=GPa)
#
#
# Indices 1 2 3 4 5 6 
#
# 1 164.4228 98.1098 17.6464 0.0000 -2.5340 0.0000
# 2 98.1098 217.2357 4.9779 0.0000 5.6021 0.0000
# 3 17.6464 4.9779 28.8678 0.0000 -0.3130 0.0000
# 4 0.0000 0.0000 0.0000 8.3676 0.0000 1.4249
# 5 -2.5340 5.6021 -0.3130 0.0000 31.1065 0.0000
# 6 0.0000 0.0000 0.0000 1.4249 0.0000 30.5325
#
#
#
# Elastic Compliance Matrix: (Units=1/GPa)
#
#
# Indices 1 2 3 4 5 6 
#
# 1 0.009000 -0.003991 -0.004798 0.000000 0.001404 0.000000
# 2 -0.003991 0.006413 0.001318 0.000000 -0.001467 0.000000
# 3 -0.004798 0.001318 0.037344 0.000000 -0.000252 0.000000
# 4 0.000000 0.000000 0.000000 0.120466 0.000000 -0.005622
# 5 0.001404 -0.001467 -0.000252 0.000000 0.032524 0.000000
# 6 0.000000 0.000000 0.000000 -0.005622 0.000000 0.033014
#
#
# Mechanical properties :
#
#
# Convention : Reuss Voigt Hill
#
# Bulk Modulus (GPa) = 26.44492 72.44384 49.44438
# Shear Modulus (GPa) = 18.77530 33.32080 26.04805
#
# Velocity S-wave (km/s) = 2.89505 3.85674 3.40997
# Velocity P-wave (km/s) = 4.79376 7.22299 6.12991
#
# Compressibility (1/GPa) = 0.03781444
#
# Stress axis : x y z
#
# Youngs Moduli (GPa) = 111.11462 155.92658 26.77835
#
# Poissons Ratio (x) = 0.62227 0.12848
# Poissons Ratio (y) = 0.44343 -0.03529
# Poissons Ratio (z) = 0.53313 -0.20546
#
# Static dielectric constant tensor:
#      x y z
#    x 3.994190 0.000000 -0.154210 
#    y 0.000000 5.901400 0.000000 
#    z -0.154210 0.000000 3.654410 
# 
# 
# High freq. dielectric constant tensor:
#      x y z
#    x 1.874630 0.000000 -0.021970 
#    y 0.000000 1.911690 0.000000 
#    z -0.021970 0.000000 1.850120 
# 
# From -- ./inp_files/163167.got.cif
#   From: 2010.06.25/outbox.cif.g09.slc.cpg/sg12_82_cif.got.tgz:163167.got - 2010.06.28 00:19:55.
