data_PCOD8098794
_publ_section_title
;
Structure prediction by ZEFSAII (Michael W. Deem and Ramdas Pophale) SiO2 
 PCOD8098794
Probable space group: C 2/M
;
_chemical_formula_sum "Si O2"
_cell_formula_units_Z 64
_cell_length_a 14.701555
_cell_length_b 8.939578
_cell_length_c 26.444498
_cell_angle_alpha 90.000000
_cell_angle_beta 107.883619
_cell_angle_gamma 90.000000
_cell_volume 3307.558868
_symmetry_space_group_name_H-M "C 2/M"
_symmetry_group_IT_number 12
_symmetry_cell_setting 'monoclinic'
loop_
_space_group_symop_operation_xyz
x,y,z
-x,y,-z
-x,-y,-z
x,-y,z
1/2+x,1/2+y,z
1/2-x,1/2+y,-z
1/2-x,1/2-y,-z
1/2+x,1/2-y,z
loop_
_atom_site_type_symbol
_atom_site_label
_atom_site_fract_x
_atom_site_fract_y
_atom_site_fract_z
Si Si1 0.392406 0.175839 0.493963
Si Si2 0.207741 0.329906 0.754654
Si Si3 0.809487 0.826124 0.874883
Si Si4 0.498645 0.825790 0.940499
Si Si5 0.653952 0.325186 0.309785
Si Si6 0.210740 0.675394 0.420871
Si Si7 0.538823 0.675775 0.772177
Si Si8 0.366597 0.322249 0.109121
O O1 0.500000 0.234707 0.500000
O O2 0.315439 0.251066 0.443641
O O3 0.361214 0.217860 0.545699
O O4 0.387553 0.000000 0.483276
O O5 0.172255 0.500000 0.751652
O O6 0.284327 0.299077 0.811947
O O7 0.253251 0.294614 0.708234
O O8 0.116060 0.225324 0.743920
O O9 0.916248 0.769675 0.900125
O O10 0.741744 0.728915 0.899738
O O11 0.801623 0.000000 0.888272
O O12 0.597423 0.762247 0.934752
O O13 0.486317 0.000000 0.925690
O O14 0.500000 0.795987 0.000000
O O15 0.642372 0.500000 0.320587
O O16 0.660050 0.233425 0.362104
O O17 0.563788 0.263419 0.262589
O O18 0.226612 0.500000 0.420510
O O19 0.537434 0.500000 0.774321
O O20 0.568090 0.735083 0.832686
O O21 0.369780 0.500000 0.102050
#
# Coordination Sequence:
#
# PCOD8098794 Si02
#       8
#     8   8   8   8   8   8   8   8
#     4   9  19  38  60  77 100 138 178 217 265 316
#     4   9  19  35  55  79 106 140 179 215 257 315
#     4  10  20  37  60  83 108 140 181 226 272 324
#     4  11  24  39  55  79 109 141 181 227 275 327
#     4  10  20  35  53  75 111 149 174 207 260 314
#     4  10  21  35  53  81 109 134 175 222 261 307
#     4   9  19  35  55  80 108 140 178 218 261 313
#     4  10  20  37  60  83 109 142 181 224 272 326
#
# _framework density 19.349616999999999
#
# number of rings (size 3 to 8) (size 9 to 14) (size 15 to 20)
#    0.000    2.250    0.000    2.250    0.000    7.250 
#    0.000    5.000    0.000    0.000    0.000    0.000 
#    0.000    0.000    0.000    0.000    0.000    0.000 
#
# Total GULP energy -396867.932634 kJ/mol
# GULP energy per Si atom -12402.122895 kJ/mol
# Density = 1.930558 g / cm^3
# Si number density = 19.349617 Si / 1000 Ang^3
#
#
#
# Elastic Constant Matrix: (Units=GPa)
#
#
# Indices 1 2 3 4 5 6 
#
# 1 76.9109 14.8846 14.7688 0.0000 -7.3084 0.0000
# 2 14.8846 41.4353 25.2478 0.0000 -2.2829 0.0000
# 3 14.7688 25.2478 51.2212 0.0000 -15.9174 0.0000
# 4 0.0000 0.0000 0.0000 32.2650 0.0000 -0.6289
# 5 -7.3084 -2.2829 -15.9174 0.0000 22.0967 0.0000
# 6 0.0000 0.0000 0.0000 -0.6289 0.0000 35.7456
#
#
#
# Elastic Compliance Matrix: (Units=1/GPa)
#
#
# Indices 1 2 3 4 5 6 
#
# 1 0.014374 -0.004487 -0.000772 0.000000 0.003734 0.000000
# 2 -0.004487 0.038185 -0.021598 0.000000 -0.013097 0.000000
# 3 -0.000772 -0.021598 0.038162 0.000000 0.025003 0.000000
# 4 0.000000 0.000000 0.000000 0.031004 0.000000 0.000546
# 5 0.003734 -0.013097 0.025003 0.000000 0.063148 0.000000
# 6 0.000000 0.000000 0.000000 0.000546 0.000000 0.027985
#
#
# Mechanical properties :
#
#
# Convention : Reuss Voigt Hill
#
# Bulk Modulus (GPa) = 27.02328 31.04109 29.03218
# Shear Modulus (GPa) = 17.92707 25.66588 21.79648
#
# Velocity S-wave (km/s) = 3.04712 3.64597 3.35991
# Velocity P-wave (km/s) = 5.13576 5.81388 5.48531
#
# Compressibility (1/GPa) = 0.03700514
#
# Stress axis : x y z
#
# Youngs Moduli (GPa) = 69.57218 26.18849 26.20414
#
# Poissons Ratio (x) = 0.11751 0.02024
# Poissons Ratio (y) = 0.31218 0.56596
# Poissons Ratio (z) = 0.05372 0.56563
#
# Static dielectric constant tensor:
#      x y z
#    x 3.618630 0.000000 -0.025150 
#    y 0.000000 3.467150 0.000000 
#    z -0.025150 0.000000 3.529310 
# 
# 
# High freq. dielectric constant tensor:
#      x y z
#    x 1.759310 0.000000 -0.005410 
#    y 0.000000 1.751360 0.000000 
#    z -0.005410 0.000000 1.746490 
# 
# From -- ./inp_files/359893.got.cif
#   From: 2010.06.25/outbox.cif.g09.slc.cpg/sg12_180_cif.got.tgz:359893.got - 2010.06.28 00:19:55.
