data_PCOD8098441
_publ_section_title
;
Structure prediction by ZEFSAII (Michael W. Deem and Ramdas Pophale) SiO2 
 PCOD8098441
Probable space group: C 2/M
;
_chemical_formula_sum "Si O2"
_cell_formula_units_Z 56
_cell_length_a 17.679317
_cell_length_b 15.214740
_cell_length_c 14.578305
_cell_angle_alpha 90.000000
_cell_angle_beta 132.033767
_cell_angle_gamma 90.000000
_cell_volume 2912.593755
_symmetry_space_group_name_H-M "C 2/M"
_symmetry_group_IT_number 12
_symmetry_cell_setting 'monoclinic'
loop_
_space_group_symop_operation_xyz
x,y,z
-x,y,-z
-x,-y,-z
x,-y,z
1/2+x,1/2+y,z
1/2-x,1/2+y,-z
1/2-x,1/2-y,-z
1/2+x,1/2-y,z
loop_
_atom_site_type_symbol
_atom_site_label
_atom_site_fract_x
_atom_site_fract_y
_atom_site_fract_z
Si Si1 0.656430 0.813342 0.907935
Si Si2 0.206723 0.600105 0.321157
Si Si3 0.051946 0.682996 0.325444
Si Si4 0.982293 0.500000 0.624219
Si Si5 0.676270 0.000000 0.651762
Si Si6 0.765721 0.329797 0.217848
Si Si7 0.894430 0.789901 0.451960
Si Si8 0.381861 0.825499 0.924443
O O1 0.546318 0.765941 0.797452
O O2 0.690895 0.866355 0.844620
O O3 0.750000 0.750000 0.000000
O O4 0.640040 0.864648 0.991032
O O5 0.194132 0.500000 0.346533
O O6 0.144217 0.672540 0.328636
O O7 0.324753 0.627681 0.423249
O O8 0.170638 0.605984 0.186784
O O9 0.007767 0.585597 0.305457
O O10 0.092153 0.727768 0.449456
O O11 0.867671 0.500000 0.487020
O O12 0.073454 0.500000 0.626736
O O13 0.747920 0.084738 0.728855
O O14 0.849234 0.266924 0.332202
O O15 0.662157 0.274015 0.122679
O O16 0.000000 0.828664 0.500000
O O17 0.500000 0.819726 0.000000
#
# Coordination Sequence:
#
# PCOD8098441 Si02
#       8
#     8   8   8   4   4   8   8   8
#     4  10  20  35  56  82 111 147 187 228 275 333
#     4  11  25  40  56  86 119 151 193 241 290 337
#     4  12  20  37  59  89 116 148 186 235 292 343
#     4  11  20  28  56  86 122 136 175 238 297 339
#     4  11  18  32  51  89 118 137 177 238 295 334
#     4  10  20  34  57  84 112 143 183 234 285 339
#     4  11  21  38  63  85 112 151 196 235 289 352
#     4  10  21  39  57  77 107 153 195 227 269 336
#
# _framework density 19.226849000000001
#
# number of rings (size 3 to 8) (size 9 to 14) (size 15 to 20)
#    0.000    1.286    6.429    0.429    0.000    0.571 
#    2.571    0.357    0.000    0.000    1.857    0.000 
#    0.000    0.000    0.000    0.000    0.000    0.000 
#
# Total GULP energy -346929.866801 kJ/mol
# GULP energy per Si atom -12390.352386 kJ/mol
# Density = 1.918309 g / cm^3
# Si number density = 19.226849 Si / 1000 Ang^3
#
#
#
# Elastic Constant Matrix: (Units=GPa)
#
#
# Indices 1 2 3 4 5 6 
#
# 1 104.9675 18.8554 42.9703 0.0000 7.3057 0.0000
# 2 18.8554 58.3113 20.8753 0.0000 14.8318 0.0000
# 3 42.9703 20.8753 93.4223 0.0000 4.6915 0.0000
# 4 0.0000 0.0000 0.0000 19.0472 0.0000 0.0762
# 5 7.3057 14.8318 4.6915 0.0000 39.5788 0.0000
# 6 0.0000 0.0000 0.0000 0.0762 0.0000 22.0098
#
#
#
# Elastic Compliance Matrix: (Units=1/GPa)
#
#
# Indices 1 2 3 4 5 6 
#
# 1 0.011991 -0.001830 -0.005060 0.000000 -0.000928 0.000000
# 2 -0.001830 0.020764 -0.003445 0.000000 -0.007035 0.000000
# 3 -0.005060 -0.003445 0.013771 0.000000 0.000592 0.000000
# 4 0.000000 0.000000 0.000000 0.052502 0.000000 -0.000182
# 5 -0.000928 -0.007035 0.000592 0.000000 0.028003 0.000000
# 6 0.000000 0.000000 0.000000 -0.000182 0.000000 0.045435
#
#
# Mechanical properties :
#
#
# Convention : Reuss Voigt Hill
#
# Bulk Modulus (GPa) = 38.67410 46.90034 42.78722
# Shear Modulus (GPa) = 24.78251 27.72717 26.25484
#
# Velocity S-wave (km/s) = 3.59409 3.80163 3.69932
# Velocity P-wave (km/s) = 6.11405 6.61180 6.36779
#
# Compressibility (1/GPa) = 0.02585710
#
# Stress axis : x y z
#
# Youngs Moduli (GPa) = 83.39243 48.16122 72.61401
#
# Poissons Ratio (x) = 0.08814 0.36743
# Poissons Ratio (y) = 0.15261 0.25013
# Poissons Ratio (z) = 0.42197 0.16590
#
# Static dielectric constant tensor:
#      x y z
#    x 3.813840 0.000000 -0.228280 
#    y 0.000000 3.154970 0.000000 
#    z -0.228280 0.000000 4.002800 
# 
# 
# High freq. dielectric constant tensor:
#      x y z
#    x 1.753500 0.000000 -0.008070 
#    y 0.000000 1.700520 0.000000 
#    z -0.008070 0.000000 1.768620 
# 
# From -- ./inp_files/225432.got.cif
#   From: 2010.06.25/outbox.cif.g09.slc.cpg/sg12_113_cif.got.tgz:225432.got - 2010.06.28 00:19:55.
