data_PCOD8098364
_publ_section_title
;
Structure prediction by ZEFSAII (Michael W. Deem and Ramdas Pophale) SiO2 
 PCOD8098364
Probable space group: C 2/M
;
_chemical_formula_sum "Si O2"
_cell_formula_units_Z 64
_cell_length_a 30.224038
_cell_length_b 9.122257
_cell_length_c 15.479429
_cell_angle_alpha 90.000000
_cell_angle_beta 132.512915
_cell_angle_gamma 90.000000
_cell_volume 3145.943273
_symmetry_space_group_name_H-M "C 2/M"
_symmetry_group_IT_number 12
_symmetry_cell_setting 'monoclinic'
loop_
_space_group_symop_operation_xyz
x,y,z
-x,y,-z
-x,-y,-z
x,-y,z
1/2+x,1/2+y,z
1/2-x,1/2+y,-z
1/2-x,1/2-y,-z
1/2+x,1/2-y,z
loop_
_atom_site_type_symbol
_atom_site_label
_atom_site_fract_x
_atom_site_fract_y
_atom_site_fract_z
Si Si1 0.704936 0.669696 0.581534
Si Si2 0.118441 0.163641 0.625513
Si Si3 0.976244 0.832654 0.635995
Si Si4 0.593842 0.163595 0.755747
Si Si5 0.183090 0.325640 0.167090
Si Si6 0.709830 0.164021 0.014850
Si Si7 0.933248 0.325801 0.893159
Si Si8 0.111431 0.326317 0.352233
O O1 0.701595 0.500000 0.550161
O O2 0.666946 0.700402 0.617196
O O3 0.772773 0.718845 0.695059
O O4 0.676883 0.761993 0.465175
O O5 0.052283 0.176051 0.497002
O O6 0.126224 0.280305 0.711760
O O7 0.128682 0.000000 0.676118
O O8 0.939943 0.730167 0.652494
O O9 0.043396 0.776216 0.718350
O O10 0.975234 0.000000 0.668673
O O11 0.567832 0.000000 0.705516
O O12 0.641386 0.159688 0.894752
O O13 0.182867 0.500000 0.157909
O O14 0.207626 0.262294 0.107843
O O15 0.115393 0.270764 0.099596
O O16 0.736599 0.000000 0.055393
O O17 0.750000 0.250000 0.000000
O O18 0.937395 0.500000 0.899829
O O19 0.907910 0.272080 0.767903
O O20 0.000000 0.260132 0.000000
O O21 0.115696 0.500000 0.363405
#
# Coordination Sequence:
#
# PCOD8098364 Si02
#       8
#     8   8   8   8   8   8   8   8
#     4   9  18  34  57  81 109 148 190 230 276 341
#     4   9  18  33  51  73 105 149 191 224 271 336
#     4  10  21  36  54  76 107 150 191 226 274 343
#     4  11  22  32  50  81 110 140 183 240 291 330
#     4   9  18  35  58  82 110 152 198 231 274 339
#     4  10  22  38  57  81 112 147 188 235 281 335
#     4   9  19  34  57  86 115 149 189 235 280 335
#     4  10  20  34  56  86 114 142 182 237 288 327
#
# _framework density 20.34366
#
# number of rings (size 3 to 8) (size 9 to 14) (size 15 to 20)
#    0.000    2.375    0.000    3.000    1.750    6.500 
#    0.000    0.625    0.000    3.750    0.000    0.000 
#    0.000    0.000    0.000    0.000    0.000    0.000 
#
# Total GULP energy -396681.903387 kJ/mol
# GULP energy per Si atom -12396.309481 kJ/mol
# Density = 2.029736 g / cm^3
# Si number density = 20.343660 Si / 1000 Ang^3
#
#
#
# Elastic Constant Matrix: (Units=GPa)
#
#
# Indices 1 2 3 4 5 6 
#
# 1 90.0760 20.2832 57.4176 0.0000 8.2489 0.0000
# 2 20.2832 58.4336 37.9561 0.0000 -2.0755 0.0000
# 3 57.4176 37.9561 127.4715 0.0000 1.4782 0.0000
# 4 0.0000 0.0000 0.0000 24.0563 0.0000 0.4249
# 5 8.2489 -2.0755 1.4782 0.0000 36.0496 0.0000
# 6 0.0000 0.0000 0.0000 0.4249 0.0000 19.0423
#
#
#
# Elastic Compliance Matrix: (Units=1/GPa)
#
#
# Indices 1 2 3 4 5 6 
#
# 1 0.016045 -0.001270 -0.006809 0.000000 -0.003465 0.000000
# 2 -0.001270 0.021397 -0.005820 0.000000 0.001761 0.000000
# 3 -0.006809 -0.005820 0.012637 0.000000 0.000705 0.000000
# 4 0.000000 0.000000 0.000000 0.041586 0.000000 -0.000928
# 5 -0.003465 0.001761 0.000705 0.000000 0.028605 0.000000
# 6 0.000000 0.000000 0.000000 -0.000928 0.000000 0.052535
#
#
# Mechanical properties :
#
#
# Convention : Reuss Voigt Hill
#
# Bulk Modulus (GPa) = 44.87947 56.36609 50.62278
# Shear Modulus (GPa) = 24.03506 26.51792 25.27649
#
# Velocity S-wave (km/s) = 3.44095 3.61432 3.52870
# Velocity P-wave (km/s) = 6.15593 6.72196 6.44516
#
# Compressibility (1/GPa) = 0.02228190
#
# Stress axis : x y z
#
# Youngs Moduli (GPa) = 62.32319 46.73559 79.13477
#
# Poissons Ratio (x) = 0.05934 0.53884
# Poissons Ratio (y) = 0.07913 0.46054
# Poissons Ratio (z) = 0.42437 0.27199
#
# Static dielectric constant tensor:
#      x y z
#    x 3.660660 0.000000 0.087580 
#    y 0.000000 3.464810 0.000000 
#    z 0.087580 0.000000 3.966970 
# 
# 
# High freq. dielectric constant tensor:
#      x y z
#    x 1.795490 0.000000 0.007220 
#    y 0.000000 1.760850 0.000000 
#    z 0.007220 0.000000 1.803830 
# 
# From -- ./inp_files/250084.got.cif
#   From: 2010.06.25/outbox.cif.g09.slc.cpg/sg12_126_cif.got.tgz:250084.got - 2010.06.28 00:19:55.
