data_PCOD8098076
_publ_section_title
;
Structure prediction by ZEFSAII (Michael W. Deem and Ramdas Pophale) SiO2 
 PCOD8098076
Probable space group: C 2/M
;
_chemical_formula_sum "Si O2"
_cell_formula_units_Z 56
_cell_length_a 29.873954
_cell_length_b 9.051564
_cell_length_c 11.511804
_cell_angle_alpha 90.000000
_cell_angle_beta 64.783875
_cell_angle_gamma 90.000000
_cell_volume 2816.227674
_symmetry_space_group_name_H-M "C 2/M"
_symmetry_group_IT_number 12
_symmetry_cell_setting 'monoclinic'
loop_
_space_group_symop_operation_xyz
x,y,z
-x,y,-z
-x,-y,-z
x,-y,z
1/2+x,1/2+y,z
1/2-x,1/2+y,-z
1/2-x,1/2-y,-z
1/2+x,1/2-y,z
loop_
_atom_site_type_symbol
_atom_site_label
_atom_site_fract_x
_atom_site_fract_y
_atom_site_fract_z
Si Si1 0.055807 0.173625 0.441953
Si Si2 0.317048 0.829239 0.986314
Si Si3 0.103323 0.824734 0.632321
Si Si4 0.016767 0.327178 0.851804
Si Si5 0.232977 0.672865 0.194919
Si Si6 0.294875 0.823774 0.517732
Si Si7 0.076431 0.328411 0.193150
O O1 0.081220 0.222690 0.532793
O O2 0.085481 0.245104 0.303570
O O3 0.000000 0.235245 0.500000
O O4 0.056639 0.000000 0.424415
O O5 0.301588 0.775502 0.873715
O O6 0.375330 0.798410 0.939792
O O7 0.303995 0.000000 0.015222
O O8 0.287339 0.743612 0.119007
O O9 0.065761 0.766938 0.772044
O O10 0.155292 0.743172 0.591591
O O11 0.110166 0.000000 0.636833
O O12 0.027949 0.500000 0.820733
O O13 0.972380 0.271140 0.818071
O O14 0.000000 0.293664 0.000000
O O15 0.241133 0.500000 0.187478
O O16 0.208696 0.723601 0.342943
O O17 0.250000 0.750000 0.500000
O O18 0.294202 0.000000 0.501891
O O19 0.072069 0.500000 0.227156
#
# Coordination Sequence:
#
# PCOD8098076 Si02
#       7
#     8   8   8   8   8   8   8
#     4  10  20  35  56  85 120 152 188 239 293 345
#     4   9  18  33  55  83 114 147 188 237 289 344
#     4  11  23  40  62  88 119 154 194 241 299 354
#     4  10  22  39  57  81 116 156 198 242 291 347
#     4   9  19  36  56  81 113 147 187 238 291 344
#     4  11  24  42  63  87 118 154 199 246 291 346
#     4  10  20  34  55  83 113 151 196 238 287 347
#
# _framework density 19.884754999999998
#
# number of rings (size 3 to 8) (size 9 to 14) (size 15 to 20)
#    0.000    2.000    1.429    1.714    0.000    5.714 
#    0.000    4.286    0.000    0.000    0.000    0.000 
#    0.000    0.000    0.000    0.000    0.000    0.000 
#
# Total GULP energy -347270.914652 kJ/mol
# GULP energy per Si atom -12402.532666 kJ/mol
# Density = 1.983950 g / cm^3
# Si number density = 19.884755 Si / 1000 Ang^3
#
#
#
# Elastic Constant Matrix: (Units=GPa)
#
#
# Indices 1 2 3 4 5 6 
#
# 1 109.2632 42.3902 44.9500 0.0000 -22.5111 0.0000
# 2 42.3902 52.7983 45.0152 0.0000 -5.6535 0.0000
# 3 44.9500 45.0152 111.3392 0.0000 -16.0352 0.0000
# 4 0.0000 0.0000 0.0000 35.7033 0.0000 -5.8166
# 5 -22.5111 -5.6535 -16.0352 0.0000 32.0757 0.0000
# 6 0.0000 0.0000 0.0000 -5.8166 0.0000 29.0222
#
#
#
# Elastic Compliance Matrix: (Units=1/GPa)
#
#
# Indices 1 2 3 4 5 6 
#
# 1 0.015413 -0.010994 -0.000537 0.000000 0.008610 0.000000
# 2 -0.010994 0.036765 -0.011426 0.000000 -0.006948 0.000000
# 3 -0.000537 -0.011426 0.014519 0.000000 0.004867 0.000000
# 4 0.000000 0.000000 0.000000 0.028954 0.000000 0.005803
# 5 0.008610 -0.006948 0.004867 0.000000 0.038428 0.000000
# 6 0.000000 0.000000 0.000000 0.005803 0.000000 0.035619
#
#
# Mechanical properties :
#
#
# Convention : Reuss Voigt Hill
#
# Bulk Modulus (GPa) = 48.12094 59.79016 53.95555
# Shear Modulus (GPa) = 22.46779 28.76323 25.61551
#
# Velocity S-wave (km/s) = 3.36505 3.80741 3.59304
# Velocity P-wave (km/s) = 6.27300 7.03293 6.66381
#
# Compressibility (1/GPa) = 0.02078097
#
# Stress axis : x y z
#
# Youngs Moduli (GPa) = 64.88208 27.19982 68.87417
#
# Poissons Ratio (x) = 0.29904 0.03700
# Poissons Ratio (y) = 0.71333 0.78698
# Poissons Ratio (z) = 0.03486 0.31079
#
# Static dielectric constant tensor:
#      x y z
#    x 3.712980 0.000000 -0.056560 
#    y 0.000000 3.473180 0.000000 
#    z -0.056560 0.000000 3.655550 
# 
# 
# High freq. dielectric constant tensor:
#      x y z
#    x 1.776510 0.000000 -0.011540 
#    y 0.000000 1.767410 0.000000 
#    z -0.011540 0.000000 1.778360 
# 
# From -- ./inp_files/181038.got.cif
#   From: 2010.06.25/outbox.cif.g09.slc.cpg/sg12_91_cif.got.tgz:181038.got - 2010.06.28 00:19:55.
