data_PCOD8098292
_publ_section_title
;
Structure prediction by ZEFSAII (Michael W. Deem and Ramdas Pophale) SiO2 
 PCOD8098292
Probable space group: C 2/M
;
_chemical_formula_sum "Si O2"
_cell_formula_units_Z 64
_cell_length_a 20.719911
_cell_length_b 8.934922
_cell_length_c 23.150261
_cell_angle_alpha 90.000000
_cell_angle_beta 128.817616
_cell_angle_gamma 90.000000
_cell_volume 3339.281133
_symmetry_space_group_name_H-M "C 2/M"
_symmetry_group_IT_number 12
_symmetry_cell_setting 'monoclinic'
loop_
_space_group_symop_operation_xyz
x,y,z
-x,y,-z
-x,-y,-z
x,-y,z
1/2+x,1/2+y,z
1/2-x,1/2+y,-z
1/2-x,1/2-y,-z
1/2+x,1/2-y,z
loop_
_atom_site_type_symbol
_atom_site_label
_atom_site_fract_x
_atom_site_fract_y
_atom_site_fract_z
Si Si1 0.709085 0.827101 0.422792
Si Si2 0.031407 0.824189 0.306138
Si Si3 0.874421 0.172162 0.286947
Si Si4 0.272460 0.331760 0.861208
Si Si5 0.981206 0.673936 0.162381
Si Si6 0.680665 0.824744 0.997987
Si Si7 0.729676 0.669945 0.665427
Si Si8 0.371761 0.333920 0.804879
O O1 0.750000 0.750000 0.500000
O O2 0.618791 0.759305 0.359680
O O3 0.774579 0.807490 0.406236
O O4 0.695405 0.000000 0.429220
O O5 0.969787 0.784617 0.325443
O O6 0.984015 0.772288 0.221881
O O7 0.049729 0.000000 0.313923
O O8 0.812124 0.265475 0.211950
O O9 0.855360 0.198162 0.345237
O O10 0.859750 0.000000 0.262075
O O11 0.251904 0.500000 0.871031
O O12 0.312659 0.235042 0.933862
O O13 0.345848 0.332657 0.856427
O O14 0.980434 0.500000 0.179111
O O15 0.059122 0.709626 0.165865
O O16 0.904216 0.721415 0.080229
O O17 0.693100 0.000000 0.006372
O O18 0.750000 0.750000 0.000000
O O19 0.760385 0.500000 0.695469
O O20 0.794117 0.792645 0.722083
O O21 0.402145 0.500000 0.803480
#
# Coordination Sequence:
#
# PCOD8098292 Si02
#       8
#     8   8   8   8   8   8   8   8
#     4  11  23  39  62  89 119 154 190 233 285 342
#     4  11  22  37  60  89 118 147 189 239 287 343
#     4   9  19  36  60  87 115 153 196 239 285 339
#     4  10  21  36  55  82 115 149 190 240 291 342
#     4  11  23  37  55  80 111 148 191 237 286 342
#     4  11  24  39  55  76 107 149 193 240 293 346
#     4   9  18  36  60  85 115 152 193 232 280 339
#     4  10  20  34  56  84 111 145 188 236 287 338
#
# _framework density 19.165801999999999
#
# number of rings (size 3 to 8) (size 9 to 14) (size 15 to 20)
#    0.000    1.750    1.250    3.000    0.000    7.500 
#    0.000    3.125    0.000    3.750    0.000    0.000 
#    0.000    0.000    0.000    0.000    0.000    0.000 
#
# Total GULP energy -396650.449472 kJ/mol
# GULP energy per Si atom -12395.326546 kJ/mol
# Density = 1.912218 g / cm^3
# Si number density = 19.165802 Si / 1000 Ang^3
#
#
#
# Elastic Constant Matrix: (Units=GPa)
#
#
# Indices 1 2 3 4 5 6 
#
# 1 124.6968 41.6830 46.5850 0.0000 -8.9032 0.0000
# 2 41.6830 74.6095 36.5828 0.0000 -10.9556 0.0000
# 3 46.5850 36.5828 84.2470 0.0000 -23.0476 0.0000
# 4 0.0000 0.0000 0.0000 33.0940 0.0000 -1.3257
# 5 -8.9032 -10.9556 -23.0476 0.0000 23.0913 0.0000
# 6 0.0000 0.0000 0.0000 -1.3257 0.0000 27.4524
#
#
#
# Elastic Compliance Matrix: (Units=1/GPa)
#
#
# Indices 1 2 3 4 5 6 
#
# 1 0.011104 -0.004102 -0.005118 0.000000 -0.002773 0.000000
# 2 -0.004102 0.018559 -0.005248 0.000000 0.001986 0.000000
# 3 -0.005118 -0.005248 0.021676 0.000000 0.017172 0.000000
# 4 0.000000 0.000000 0.000000 0.030276 0.000000 0.001462
# 5 -0.002773 0.001986 0.017172 0.000000 0.060319 0.000000
# 6 0.000000 0.000000 0.000000 0.001462 0.000000 0.036497
#
#
# Mechanical properties :
#
#
# Convention : Reuss Voigt Hill
#
# Bulk Modulus (GPa) = 44.63076 59.25053 51.94064
# Shear Modulus (GPa) = 23.27368 27.30771 25.29070
#
# Velocity S-wave (km/s) = 3.48851 3.77877 3.63654
# Velocity P-wave (km/s) = 6.28995 7.07252 6.69269
#
# Compressibility (1/GPa) = 0.02240607
#
# Stress axis : x y z
#
# Youngs Moduli (GPa) = 90.05372 53.88116 46.13347
#
# Poissons Ratio (x) = 0.22100 0.23610
# Poissons Ratio (y) = 0.36937 0.24209
# Poissons Ratio (z) = 0.46087 0.28275
#
# Static dielectric constant tensor:
#      x y z
#    x 3.927080 0.000000 -0.144480 
#    y 0.000000 2.058930 0.000000 
#    z -0.144480 0.000000 3.248040 
# 
# 
# High freq. dielectric constant tensor:
#      x y z
#    x 1.762090 0.000000 -0.011950 
#    y 0.000000 1.759610 0.000000 
#    z -0.011950 0.000000 1.719350 
# 
# From -- ./inp_files/346230.got.cif
#   From: 2010.06.25/outbox.cif.g09.slc.cpg/sg12_174_cif.got.tgz:346230.got - 2010.06.28 00:19:55.
