data_PCOD8098132
_publ_section_title
;
Structure prediction by ZEFSAII (Michael W. Deem and Ramdas Pophale) SiO2 
 PCOD8098132
Probable space group: C 2/M
;
_chemical_formula_sum "Si O2"
_cell_formula_units_Z 64
_cell_length_a 29.613766
_cell_length_b 8.874708
_cell_length_c 25.620510
_cell_angle_alpha 90.000000
_cell_angle_beta 29.654886
_cell_angle_gamma 90.000000
_cell_volume 3331.523255
_symmetry_space_group_name_H-M "C 2/M"
_symmetry_group_IT_number 12
_symmetry_cell_setting 'monoclinic'
loop_
_space_group_symop_operation_xyz
x,y,z
-x,y,-z
-x,-y,-z
x,-y,z
1/2+x,1/2+y,z
1/2-x,1/2+y,-z
1/2-x,1/2-y,-z
1/2+x,1/2-y,z
loop_
_atom_site_type_symbol
_atom_site_label
_atom_site_fract_x
_atom_site_fract_y
_atom_site_fract_z
Si Si1 0.076175 0.178856 0.562537
Si Si2 0.650372 0.679472 0.598484
Si Si3 0.084341 0.675545 0.767424
Si Si4 0.903975 0.178146 0.975969
Si Si5 0.248167 0.174475 0.325469
Si Si6 0.120865 0.174820 0.270567
Si Si7 0.255925 0.676556 0.208762
Si Si8 0.770264 0.324240 0.034280
O O1 0.100236 0.236244 0.596337
O O2 0.152450 0.233248 0.444848
O O3 0.978740 0.244068 0.641802
O O4 0.072895 0.000000 0.567364
O O5 0.659365 0.500000 0.591247
O O6 0.750000 0.750000 0.500000
O O7 0.589721 0.737466 0.707297
O O8 0.067461 0.500000 0.773855
O O9 0.176747 0.703367 0.706017
O O10 0.002052 0.744180 0.884106
O O11 0.843119 0.225914 0.086793
O O12 0.858137 0.241327 0.969545
O O13 0.915343 0.000000 0.960003
O O14 0.273863 0.268613 0.248945
O O15 0.243240 0.000000 0.314681
O O16 0.163015 0.254033 0.279003
O O17 0.182737 0.204504 0.158136
O O18 0.113610 0.000000 0.291581
O O19 0.243624 0.500000 0.220452
O O20 0.792119 0.500000 0.005963
O O21 0.750000 0.250000 0.000000
#
# Coordination Sequence:
#
# PCOD8098132 Si02
#       8
#     8   8   8   8   8   8   8   8
#     4   9  19  37  59  85 115 152 196 234 275 345
#     4  11  21  37  60  85 121 160 196 240 289 342
#     4  11  23  39  59  89 120 151 197 244 291 350
#     4  10  22  40  59  81 114 155 194 240 297 352
#     4  10  21  39  61  83 114 153 195 238 288 352
#     4   9  19  37  60  82 110 152 195 233 284 346
#     4  10  22  40  60  84 116 148 190 246 297 345
#     4  10  20  34  55  84 116 151 194 241 288 347
#
# _framework density 19.210431
#
# number of rings (size 3 to 8) (size 9 to 14) (size 15 to 20)
#    0.000    2.000    1.250    1.875    1.750    4.000 
#    0.000    6.875    0.000    0.000    0.000    0.000 
#    0.000    0.000    0.000    0.000    0.000    0.000 
#
# Total GULP energy -396923.071266 kJ/mol
# GULP energy per Si atom -12403.845977 kJ/mol
# Density = 1.916671 g / cm^3
# Si number density = 19.210431 Si / 1000 Ang^3
#
#
#
# Elastic Constant Matrix: (Units=GPa)
#
#
# Indices 1 2 3 4 5 6 
#
# 1 53.9113 27.1721 38.8570 0.0045 8.2510 0.0264
# 2 27.1721 63.7518 34.2284 0.0681 -0.2485 -0.0334
# 3 38.8570 34.2284 101.2733 0.0403 -9.7460 -0.0232
# 4 0.0045 0.0681 0.0403 30.1153 -0.0271 2.7372
# 5 8.2510 -0.2485 -9.7460 -0.0271 39.2292 0.0115
# 6 0.0264 -0.0334 -0.0232 2.7372 0.0115 33.8660
#
#
#
# Elastic Compliance Matrix: (Units=1/GPa)
#
#
# Indices 1 2 3 4 5 6 
#
# 1 0.031298 -0.007885 -0.010226 0.000022 -0.009173 -0.000038
# 2 -0.007885 0.021239 -0.004078 -0.000043 0.000780 0.000028
# 3 -0.010226 -0.004078 0.015757 -0.000006 0.006040 0.000013
# 4 0.000022 -0.000043 -0.000006 0.033452 0.000017 -0.002704
# 5 -0.009173 0.000780 0.006040 0.000017 0.028926 0.000001
# 6 -0.000038 0.000028 0.000013 -0.002704 0.000001 0.029747
#
#
# Mechanical properties :
#
#
# Convention : Reuss Voigt Hill
#
# Bulk Modulus (GPa) = 41.81330 46.60572 44.20951
# Shear Modulus (GPa) = 23.49963 28.55403 26.02683
#
# Velocity S-wave (km/s) = 3.50133 3.85954 3.68479
# Velocity P-wave (km/s) = 6.17729 6.64641 6.41614
#
# Compressibility (1/GPa) = 0.02391583
#
# Stress axis : x y z
#
# Youngs Moduli (GPa) = 31.95115 47.08286 63.46194
#
# Poissons Ratio (x) = 0.37125 0.64898
# Poissons Ratio (y) = 0.25193 0.25880
# Poissons Ratio (z) = 0.32674 0.19201
#
# Static dielectric constant tensor:
#      x y z
#    x 3.574910 -0.000010 -0.085910 
#    y -0.000010 3.438990 0.000040 
#    z -0.085910 0.000040 3.704560 
# 
# 
# High freq. dielectric constant tensor:
#      x y z
#    x 1.751600 0.000000 -0.002780 
#    y 0.000000 1.740700 0.000000 
#    z -0.002780 0.000000 1.754120 
# 
# From -- ./inp_files/249212.got.cif
#   From: 2010.06.25/outbox.cif.g09.slc.cpg/sg12_125_cif.got.tgz:249212.got - 2010.06.28 00:19:55.
