data_PCOD8098545
_publ_section_title
;
Structure prediction by ZEFSAII (Michael W. Deem and Ramdas Pophale) SiO2 
 PCOD8098545
Probable space group: C 2/M
;
_chemical_formula_sum "Si O2"
_cell_formula_units_Z 64
_cell_length_a 27.516903
_cell_length_b 10.818437
_cell_length_c 21.273348
_cell_angle_alpha 90.000000
_cell_angle_beta 30.069854
_cell_angle_gamma 90.000000
_cell_volume 3173.114373
_symmetry_space_group_name_H-M "C 2/M"
_symmetry_group_IT_number 12
_symmetry_cell_setting 'monoclinic'
loop_
_space_group_symop_operation_xyz
x,y,z
-x,y,-z
-x,-y,-z
x,-y,z
1/2+x,1/2+y,z
1/2-x,1/2+y,-z
1/2-x,1/2-y,-z
1/2+x,1/2-y,z
loop_
_atom_site_type_symbol
_atom_site_label
_atom_site_fract_x
_atom_site_fract_y
_atom_site_fract_z
Si Si1 0.094420 0.360584 0.862466
Si Si2 0.866140 0.643188 0.704983
Si Si3 0.804209 0.144865 0.676424
Si Si4 0.626081 0.793386 0.690688
Si Si5 0.268556 0.362954 0.025020
Si Si6 0.198782 0.628606 0.484252
Si Si7 0.013993 0.862805 0.231192
Si Si8 0.954470 0.742068 0.424029
O O1 0.093000 0.500000 0.887556
O O2 0.199321 0.309512 0.767276
O O3 0.079888 0.356880 0.803354
O O4 0.000000 0.292988 0.000000
O O5 0.864794 0.500000 0.680443
O O6 0.832155 0.750162 0.695630
O O7 0.793580 0.654729 0.843773
O O8 0.974941 0.676634 0.605097
O O9 0.889144 0.150339 0.528970
O O10 0.801737 0.000000 0.703304
O O11 0.729518 0.742658 0.597930
O O12 0.644943 0.885582 0.612113
O O13 0.558065 0.685630 0.741185
O O14 0.246162 0.500000 0.019990
O O15 0.250000 0.250000 0.000000
O O16 0.380870 0.356742 0.918022
O O17 0.255019 0.500000 0.409558
O O18 0.119154 0.639196 0.519024
O O19 0.014336 0.792684 0.297472
O O20 0.979837 0.000000 0.285019
#
# Coordination Sequence:
#
# PCOD8098545 Si02
#       8
#     8   8   8   8   8   8   8   8
#     4  10  22  42  63  84 116 158 203 253 303 358
#     4  11  25  42  63  91 127 167 207 255 309 365
#     4  11  25  43  65  92 121 161 213 259 303 365
#     4  10  20  36  58  87 117 151 194 248 300 365
#     4  10  21  41  63  89 122 160 203 251 304 365
#     4  10  20  34  57  89 120 153 189 239 307 368
#     4  10  21  36  61  91 121 154 195 249 308 360
#     4  11  21  39  63  89 123 158 202 252 304 360
#
# _framework density 20.169457999999999
#
# number of rings (size 3 to 8) (size 9 to 14) (size 15 to 20)
#    0.000    1.625    2.500    1.875    1.750    3.500 
#    0.000    0.625    0.000    1.875    0.000    0.000 
#    0.000    0.000    0.000    0.000    0.000    0.000 
#
# Total GULP energy -396420.364850 kJ/mol
# GULP energy per Si atom -12388.136402 kJ/mol
# Density = 2.012355 g / cm^3
# Si number density = 20.169458 Si / 1000 Ang^3
#
#
#
# Elastic Constant Matrix: (Units=GPa)
#
#
# Indices 1 2 3 4 5 6 
#
# 1 110.1074 46.6828 29.9274 -0.0003 -8.0990 -0.0001
# 2 46.6828 115.5720 23.1193 0.0008 -3.5769 -0.0025
# 3 29.9274 23.1193 105.4997 -0.0003 -5.9691 -0.0014
# 4 -0.0003 0.0008 -0.0003 22.0206 0.0001 -9.0482
# 5 -8.0990 -3.5769 -5.9691 0.0001 26.5446 0.0002
# 6 -0.0001 -0.0025 -0.0014 -9.0482 0.0002 -17.9712
#
#
#
# Elastic Compliance Matrix: (Units=1/GPa)
#
#
# Indices 1 2 3 4 5 6 
#
# 1 0.011647 -0.004178 -0.002248 0.000000 0.002485 0.000000
# 2 -0.004178 0.010564 -0.001136 -0.000001 -0.000107 -0.000001
# 3 -0.002248 -0.001136 0.010451 0.000000 0.001511 -0.000001
# 4 0.000000 -0.000001 0.000000 0.037628 0.000000 -0.018945
# 5 0.002485 -0.000107 0.001511 0.000000 0.038756 0.000000
# 6 0.000000 -0.000001 -0.000001 -0.018945 0.000000 -0.046106
#
#
# Mechanical properties :
#
#
# Convention : Reuss Voigt Hill
#
# Bulk Modulus (GPa) = 57.01690 58.95979 57.98834
# Shear Modulus (GPa) = 59.58806 21.54877 40.56842
#
# Velocity S-wave (km/s) = 5.44131 3.27216 4.48971
# Velocity P-wave (km/s) = 8.23453 6.60089 7.46255
#
# Compressibility (1/GPa) = 0.01753866
#
# Stress axis : x y z
#
# Youngs Moduli (GPa) = 85.85759 94.65956 95.68690
#
# Poissons Ratio (x) = 0.39549 0.21508
# Poissons Ratio (y) = 0.35872 0.10869
# Poissons Ratio (z) = 0.19299 0.10752
#
# Static dielectric constant tensor:
#      x y z
#    x 3.574320 0.000010 -0.059580 
#    y 0.000010 4.630390 -0.000010 
#    z -0.059580 -0.000010 3.990010 
# 
# 
# High freq. dielectric constant tensor:
#      x y z
#    x 1.781010 0.000000 -0.007060 
#    y 0.000000 1.784580 0.000000 
#    z -0.007060 0.000000 1.797450 
# 
# From -- ./inp_files/327817.got.cif
#   From: 2010.06.25/outbox.cif.g09.slc.cpg/sg12_164_cif.got.tgz:327817.got - 2010.06.28 00:19:55.
