data_PCOD8098186
_publ_section_title
;
Structure prediction by ZEFSAII (Michael W. Deem and Ramdas Pophale) SiO2 
 PCOD8098186
Probable space group: C 2/M
;
_chemical_formula_sum "Si O2"
_cell_formula_units_Z 48
_cell_length_a 10.524201
_cell_length_b 14.165590
_cell_length_c 16.454273
_cell_angle_alpha 90.000000
_cell_angle_beta 70.683061
_cell_angle_gamma 90.000000
_cell_volume 2314.930337
_symmetry_space_group_name_H-M "C 2/M"
_symmetry_group_IT_number 12
_symmetry_cell_setting 'monoclinic'
loop_
_space_group_symop_operation_xyz
x,y,z
-x,y,-z
-x,-y,-z
x,-y,z
1/2+x,1/2+y,z
1/2-x,1/2+y,-z
1/2-x,1/2-y,-z
1/2+x,1/2-y,z
loop_
_atom_site_type_symbol
_atom_site_label
_atom_site_fract_x
_atom_site_fract_y
_atom_site_fract_z
Si Si1 0.685171 0.393560 0.982605
Si Si2 0.027305 0.603930 0.138919
Si Si3 0.932542 0.392559 0.680089
Si Si4 0.595768 0.738400 0.556270
Si Si5 0.968136 0.805360 0.128763
Si Si6 0.135545 0.889203 0.691512
O O1 0.633684 0.500000 0.008948
O O2 0.845797 0.391058 0.948783
O O3 0.637402 0.360604 0.903824
O O4 0.620753 0.325329 0.064615
O O5 0.957097 0.500000 0.143041
O O6 0.073804 0.617362 0.221711
O O7 0.934459 0.692477 0.133504
O O8 0.962041 0.500000 0.648017
O O9 0.789868 0.358500 0.674207
O O10 0.050753 0.330750 0.615942
O O11 0.500000 0.721380 0.500000
O O12 0.750000 0.750000 0.500000
O O13 0.584461 0.646418 0.615273
O O14 0.960442 0.841484 0.221853
O O15 0.117093 0.000000 0.700233
#
# Coordination Sequence:
#
# PCOD8098186 Si02
#       6
#     8   8   8   8   8   8
#     4  10  20  34  55  87 120 158 208 250 290 354
#     4  10  20  35  57  85 119 157 202 248 299 362
#     4  10  21  40  64  90 118 162 210 249 301 384
#     4  12  25  42  66  94 125 158 205 264 320 375
#     4  11  19  33  59  87 119 157 203 251 298 350
#     4  11  22  39  64  90 123 163 205 253 312 374
#
# _framework density 20.734964000000002
#
# number of rings (size 3 to 8) (size 9 to 14) (size 15 to 20)
#    0.000    1.333    5.000    2.500    0.000    1.333 
#    0.000    1.667    0.000    8.000    0.000    0.000 
#    0.000    0.000    0.000    0.000    0.000    0.000 
#
# Total GULP energy -297565.926793 kJ/mol
# GULP energy per Si atom -12398.580283 kJ/mol
# Density = 2.068777 g / cm^3
# Si number density = 20.734964 Si / 1000 Ang^3
#
#
#
# Elastic Constant Matrix: (Units=GPa)
#
#
# Indices 1 2 3 4 5 6 
#
# 1 51.7557 20.5658 26.7213 0.0000 -8.4283 0.0000
# 2 20.5658 149.6402 43.5502 0.0000 -3.6807 0.0000
# 3 26.7213 43.5502 106.9290 0.0000 -16.3938 0.0000
# 4 0.0000 0.0000 0.0000 27.8529 0.0000 3.6327
# 5 -8.4283 -3.6807 -16.3938 0.0000 23.5236 0.0000
# 6 0.0000 0.0000 0.0000 3.6327 0.0000 26.6915
#
#
#
# Elastic Compliance Matrix: (Units=1/GPa)
#
#
# Indices 1 2 3 4 5 6 
#
# 1 0.023053 -0.001806 -0.004257 0.000000 0.005010 0.000000
# 2 -0.001806 0.007747 -0.002931 0.000000 -0.001477 0.000000
# 3 -0.004257 -0.002931 0.012658 0.000000 0.006837 0.000000
# 4 0.000000 0.000000 0.000000 0.036552 0.000000 -0.004975
# 5 0.005010 -0.001477 0.006837 0.000000 0.048840 0.000000
# 6 0.000000 0.000000 0.000000 -0.004975 0.000000 0.038142
#
#
# Mechanical properties :
#
#
# Convention : Reuss Voigt Hill
#
# Bulk Modulus (GPa) = 39.26086 54.44437 46.85261
# Shear Modulus (GPa) = 25.84386 30.11277 27.97832
#
# Velocity S-wave (km/s) = 3.53426 3.81500 3.67731
# Velocity P-wave (km/s) = 5.96912 6.76165 6.37771
#
# Compressibility (1/GPa) = 0.02547066
#
# Stress axis : x y z
#
# Youngs Moduli (GPa) = 43.37811 129.07453 79.00331
#
# Poissons Ratio (x) = 0.23312 0.33633
# Poissons Ratio (y) = 0.07834 0.23152
# Poissons Ratio (z) = 0.18467 0.37826
#
# Static dielectric constant tensor:
#      x y z
#    x 3.459410 0.000000 -0.038630 
#    y 0.000000 3.992690 0.000000 
#    z -0.038630 0.000000 3.849470 
# 
# 
# High freq. dielectric constant tensor:
#      x y z
#    x 1.778770 0.000000 -0.006380 
#    y 0.000000 1.827090 0.000000 
#    z -0.006380 0.000000 1.819790 
# 
# From -- ./inp_files/204312.got.cif
#   From: 2010.06.25/outbox.cif.g09.slc.cpg/sg12_103_cif.got.tgz:204312.got - 2010.06.28 00:19:55.
