data_PCOD8098181
_publ_section_title
;
Structure prediction by ZEFSAII (Michael W. Deem and Ramdas Pophale) SiO2 
 PCOD8098181
Probable space group: C 2/M
;
_chemical_formula_sum "Si O2"
_cell_formula_units_Z 64
_cell_length_a 28.783385
_cell_length_b 8.909668
_cell_length_c 14.062189
_cell_angle_alpha 90.000000
_cell_angle_beta 119.227763
_cell_angle_gamma 90.000000
_cell_volume 3147.125909
_symmetry_space_group_name_H-M "C 2/M"
_symmetry_group_IT_number 12
_symmetry_cell_setting 'monoclinic'
loop_
_space_group_symop_operation_xyz
x,y,z
-x,y,-z
-x,-y,-z
x,-y,z
1/2+x,1/2+y,z
1/2-x,1/2+y,-z
1/2-x,1/2-y,-z
1/2+x,1/2-y,z
loop_
_atom_site_type_symbol
_atom_site_label
_atom_site_fract_x
_atom_site_fract_y
_atom_site_fract_z
Si Si1 0.701564 0.677859 0.895688
Si Si2 0.898743 0.323523 0.680818
Si Si3 0.407569 0.172927 0.154608
Si Si4 0.945742 0.670239 0.396434
Si Si5 0.772845 0.168587 0.291257
Si Si6 0.211822 0.822953 0.383707
Si Si7 0.503007 0.178467 0.896100
Si Si8 0.615574 0.666945 0.519585
O O1 0.703128 0.500000 0.907485
O O2 0.646200 0.733888 0.885407
O O3 0.707915 0.728709 0.792152
O O4 0.750000 0.750000 0.000000
O O5 0.888495 0.500000 0.683062
O O6 0.848504 0.230280 0.666339
O O7 0.950280 0.266592 0.789212
O O8 0.908002 0.284630 0.579483
O O9 0.446974 0.188953 0.284350
O O10 0.442679 0.235144 0.101134
O O11 0.391028 0.000000 0.122464
O O12 0.931713 0.500000 0.410852
O O13 0.901213 0.781649 0.392066
O O14 0.000000 0.721646 0.500000
O O15 0.728666 0.276451 0.293213
O O16 0.820673 0.167405 0.415537
O O17 0.749635 0.000000 0.257161
O O18 0.250000 0.750000 0.500000
O O19 0.215097 0.000000 0.398760
O O20 0.504245 0.000000 0.896703
O O21 0.500000 0.242799 0.000000
O O22 0.594295 0.500000 0.475788
#
# Coordination Sequence:
#
# PCOD8098181 Si02
#       8
#     8   8   8   8   8   8   8   8
#     4  11  24  43  65  91 124 161 206 255 308 367
#     4  11  22  38  62  91 125 165 208 254 307 364
#     4  10  20  37  63  92 122 158 202 249 301 359
#     4  10  20  34  55  86 123 160 201 248 302 368
#     4  10  22  40  60  84 120 161 202 250 305 367
#     4  12  24  38  60  90 126 165 208 255 310 371
#     4   9  20  40  65  91 120 159 206 251 297 356
#     4  11  21  35  57  85 120 158 199 250 307 363
#
# _framework density 20.336013999999999
#
# number of rings (size 3 to 8) (size 9 to 14) (size 15 to 20)
#    0.000    1.500    2.500    3.000    0.000    4.750 
#    0.000    5.000    0.000    2.625    0.000    0.000 
#    0.000    0.000    0.000    0.000    0.000    0.000 
#
# Total GULP energy -396795.235292 kJ/mol
# GULP energy per Si atom -12399.851103 kJ/mol
# Density = 2.028973 g / cm^3
# Si number density = 20.336014 Si / 1000 Ang^3
#
#
#
# Elastic Constant Matrix: (Units=GPa)
#
#
# Indices 1 2 3 4 5 6 
#
# 1 146.6985 51.9140 58.4142 0.0000 -12.6179 0.0000
# 2 51.9140 91.5790 35.8421 0.0000 -1.8715 0.0000
# 3 58.4142 35.8421 116.8182 0.0000 -2.8559 0.0000
# 4 0.0000 0.0000 0.0000 22.4300 0.0000 0.6363
# 5 -12.6179 -1.8715 -2.8559 0.0000 35.5181 0.0000
# 6 0.0000 0.0000 0.0000 0.6363 0.0000 33.7124
#
#
#
# Elastic Compliance Matrix: (Units=1/GPa)
#
#
# Indices 1 2 3 4 5 6 
#
# 1 0.010012 -0.004186 -0.003648 0.000000 0.003043 0.000000
# 2 -0.004186 0.014164 -0.002275 0.000000 -0.000924 0.000000
# 3 -0.003648 -0.002275 0.011070 0.000000 -0.000526 0.000000
# 4 0.000000 0.000000 0.000000 0.044607 0.000000 -0.000842
# 5 0.003043 -0.000924 -0.000526 0.000000 0.029145 0.000000
# 6 0.000000 0.000000 0.000000 -0.000842 0.000000 0.029679
#
#
# Mechanical properties :
#
#
# Convention : Reuss Voigt Hill
#
# Bulk Modulus (GPa) = 66.54268 71.93738 69.24003
# Shear Modulus (GPa) = 30.50571 32.26046 31.38308
#
# Velocity S-wave (km/s) = 3.87729 3.98725 3.93265
# Velocity P-wave (km/s) = 7.26892 7.52653 7.39885
#
# Compressibility (1/GPa) = 0.01502795
#
# Stress axis : x y z
#
# Youngs Moduli (GPa) = 99.87715 70.60146 90.33703
#
# Poissons Ratio (x) = 0.29553 0.32954
# Poissons Ratio (y) = 0.41807 0.20554
# Poissons Ratio (z) = 0.36434 0.16064
#
# Static dielectric constant tensor:
#      x y z
#    x 3.830720 0.000000 -0.124140 
#    y 0.000000 3.538200 0.000000 
#    z -0.124140 0.000000 3.734940 
# 
# 
# High freq. dielectric constant tensor:
#      x y z
#    x 1.805810 0.000000 -0.006610 
#    y 0.000000 1.778790 0.000000 
#    z -0.006610 0.000000 1.789070 
# 
# From -- ./inp_files/249245.got.cif
#   From: 2010.06.25/outbox.cif.g09.slc.cpg/sg12_125_cif.got.tgz:249245.got - 2010.06.28 00:19:55.
