data_PCOD8098368
_publ_section_title
;
Structure prediction by ZEFSAII (Michael W. Deem and Ramdas Pophale) SiO2 
 PCOD8098368
Probable space group: C 2/M
;
_chemical_formula_sum "Si O2"
_cell_formula_units_Z 64
_cell_length_a 14.592887
_cell_length_b 9.178724
_cell_length_c 24.230751
_cell_angle_alpha 90.000000
_cell_angle_beta 91.160111
_cell_angle_gamma 90.000000
_cell_volume 3244.900430
_symmetry_space_group_name_H-M "C 2/M"
_symmetry_group_IT_number 12
_symmetry_cell_setting 'monoclinic'
loop_
_space_group_symop_operation_xyz
x,y,z
-x,y,-z
-x,-y,-z
x,-y,z
1/2+x,1/2+y,z
1/2-x,1/2+y,-z
1/2-x,1/2-y,-z
1/2+x,1/2-y,z
loop_
_atom_site_type_symbol
_atom_site_label
_atom_site_fract_x
_atom_site_fract_y
_atom_site_fract_z
Si Si1 0.851703 0.835194 0.558686
Si Si2 0.633872 0.164315 0.546511
Si Si3 0.347435 0.829789 0.939307
Si Si4 0.480628 0.331178 0.866283
Si Si5 0.163542 0.670918 0.332709
Si Si6 0.026099 0.831227 0.260110
Si Si7 0.625942 0.668410 0.654090
Si Si8 0.138119 0.168694 0.951267
O O1 0.743139 0.834202 0.550277
O O2 0.899063 0.752793 0.507857
O O3 0.879329 0.751017 0.614591
O O4 0.889391 0.000000 0.562340
O O5 0.593332 0.240027 0.600613
O O6 0.596315 0.000000 0.542358
O O7 0.394925 0.762149 0.886265
O O8 0.240273 0.792611 0.933003
O O9 0.366876 0.000000 0.941477
O O10 0.389787 0.759446 0.995062
O O11 0.456685 0.500000 0.874403
O O12 0.499122 0.293742 0.802927
O O13 0.571745 0.287006 0.900645
O O14 0.145918 0.500000 0.338588
O O15 0.270604 0.707441 0.327243
O O16 0.112563 0.733228 0.278456
O O17 0.937566 0.790203 0.295239
O O18 0.052815 0.000000 0.267817
O O19 0.618445 0.500000 0.637338
O O20 0.128993 0.000000 0.967166
#
# Coordination Sequence:
#
# PCOD8098368 Si02
#       8
#     8   8   8   8   8   8   8   8
#     4   9  16  28  49  76 106 139 173 211 263 328
#     4   9  16  27  48  78 107 134 170 218 269 319
#     4  10  20  34  56  86 115 141 175 221 267 310
#     4  10  21  37  56  77 106 146 185 219 260 314
#     4  10  20  35  56  80 106 137 175 223 274 318
#     4  10  22  39  56  76 104 141 185 224 260 313
#     4   9  19  36  56  76 103 141 179 216 265 324
#     4   9  19  36  57  81 112 148 180 212 260 321
#
# _framework density 19.723257
#
# number of rings (size 3 to 8) (size 9 to 14) (size 15 to 20)
#    0.000    2.500    0.000    1.875    0.000    8.000 
#    0.000    3.125    0.000    3.750    0.000    0.000 
#    0.000    0.000    0.000    0.000    0.000    0.000 
#
# Total GULP energy -396932.061917 kJ/mol
# GULP energy per Si atom -12404.126935 kJ/mol
# Density = 1.967837 g / cm^3
# Si number density = 19.723257 Si / 1000 Ang^3
#
#
#
# Elastic Constant Matrix: (Units=GPa)
#
#
# Indices 1 2 3 4 5 6 
#
# 1 55.4577 31.6368 41.6335 0.0000 -9.1064 0.0000
# 2 31.6368 94.2566 55.5886 0.0000 -9.8332 0.0000
# 3 41.6335 55.5886 135.9774 0.0000 -14.3578 0.0000
# 4 0.0000 0.0000 0.0000 34.4892 0.0000 -0.6070
# 5 -9.1064 -9.8332 -14.3578 0.0000 30.4714 0.0000
# 6 0.0000 0.0000 0.0000 -0.6070 0.0000 25.8506
#
#
#
# Elastic Compliance Matrix: (Units=1/GPa)
#
#
# Indices 1 2 3 4 5 6 
#
# 1 0.025514 -0.005022 -0.005393 0.000000 0.003463 0.000000
# 2 -0.005022 0.015075 -0.004494 0.000000 0.001247 0.000000
# 3 -0.005393 -0.004494 0.011070 0.000000 0.002154 0.000000
# 4 0.000000 0.000000 0.000000 0.029007 0.000000 0.000681
# 5 0.003463 0.001247 0.002154 0.000000 0.035270 0.000000
# 6 0.000000 0.000000 0.000000 0.000681 0.000000 0.038700
#
#
# Mechanical properties :
#
#
# Convention : Reuss Voigt Hill
#
# Bulk Modulus (GPa) = 45.78366 60.37885 53.08125
# Shear Modulus (GPa) = 26.07792 28.61775 27.34784
#
# Velocity S-wave (km/s) = 3.64014 3.81329 3.72772
# Velocity P-wave (km/s) = 6.39773 7.07585 6.74532
#
# Compressibility (1/GPa) = 0.02184185
#
# Stress axis : x y z
#
# Youngs Moduli (GPa) = 39.19422 66.33487 90.33439
#
# Poissons Ratio (x) = 0.33311 0.48720
# Poissons Ratio (y) = 0.19682 0.40593
# Poissons Ratio (z) = 0.21139 0.29809
#
# Static dielectric constant tensor:
#      x y z
#    x 3.478590 0.000000 -0.001450 
#    y 0.000000 3.626510 0.000000 
#    z -0.001450 0.000000 3.593140 
# 
# 
# High freq. dielectric constant tensor:
#      x y z
#    x 1.763870 0.000000 -0.000240 
#    y 0.000000 1.770230 0.000000 
#    z -0.000240 0.000000 1.764540 
# 
# From -- ./inp_files/338888.got.cif
#   From: 2010.06.25/outbox.cif.g09.slc.cpg/sg12_170_cif.got.tgz:338888.got - 2010.06.28 00:19:55.
