data_PCOD8098834
_publ_section_title
;
Structure prediction by ZEFSAII (Michael W. Deem and Ramdas Pophale) SiO2 
 PCOD8098834
Probable space group: C 2/M
;
_chemical_formula_sum "Si O2"
_cell_formula_units_Z 64
_cell_length_a 25.104370
_cell_length_b 8.886148
_cell_length_c 29.969643
_cell_angle_alpha 90.000000
_cell_angle_beta 151.169976
_cell_angle_gamma 90.000000
_cell_volume 3223.912013
_symmetry_space_group_name_H-M "C 2/M"
_symmetry_group_IT_number 12
_symmetry_cell_setting 'monoclinic'
loop_
_space_group_symop_operation_xyz
x,y,z
-x,y,-z
-x,-y,-z
x,-y,z
1/2+x,1/2+y,z
1/2-x,1/2+y,-z
1/2-x,1/2-y,-z
1/2+x,1/2-y,z
loop_
_atom_site_type_symbol
_atom_site_label
_atom_site_fract_x
_atom_site_fract_y
_atom_site_fract_z
Si Si1 0.660222 0.673012 0.904769
Si Si2 0.445701 0.177243 0.320657
Si Si3 0.136942 0.820880 0.402222
Si Si4 0.823526 0.179206 0.758169
Si Si5 0.419159 0.321199 0.736655
Si Si6 0.243476 0.174368 0.868379
Si Si7 0.919843 0.677370 0.402679
Si Si8 0.975545 0.825797 0.033552
O O1 0.665917 0.500000 0.921163
O O2 0.542838 0.742249 0.832888
O O3 0.676117 0.699878 0.864167
O O4 0.750000 0.750000 0.000000
O O5 0.536403 0.262895 0.358345
O O6 0.322199 0.233033 0.217716
O O7 0.467595 0.215102 0.388799
O O8 0.453877 0.000000 0.317789
O O9 0.250000 0.750000 0.500000
O O10 0.127306 0.763613 0.344373
O O11 0.139418 0.000000 0.407675
O O12 0.846254 0.236864 0.724486
O O13 0.704056 0.245509 0.684120
O O14 0.920092 0.238473 0.861938
O O15 0.822582 0.000000 0.760164
O O16 0.422881 0.500000 0.738679
O O17 0.247747 0.000000 0.857752
O O18 0.366742 0.233925 0.966349
O O19 0.911559 0.500000 0.403814
O O20 0.000000 0.745846 0.500000
O O21 0.954141 0.000000 0.029418
O O22 0.000000 0.801273 0.000000
#
# Coordination Sequence:
#
# PCOD8098834 Si02
#       8
#     8   8   8   8   8   8   8   8
#     4  10  20  35  53  80 113 152 195 236 286 347
#     4  11  22  38  62  91 120 155 198 245 297 352
#     4  11  23  40  61  88 119 155 200 246 296 356
#     4   9  17  31  54  83 116 150 188 244 299 343
#     4   9  18  34  55  79 115 153 188 231 290 350
#     4  11  22  37  57  83 119 158 193 238 294 353
#     4   9  19  34  56  89 119 146 193 249 297 349
#     4  10  20  35  57  85 115 151 199 250 295 347
#
# _framework density 19.851658
#
# number of rings (size 3 to 8) (size 9 to 14) (size 15 to 20)
#    0.000    2.000    1.250    2.625    1.750    4.250 
#    0.000    0.000    0.000    2.250    0.000    0.000 
#    0.000    0.000    0.000    0.000    0.000    0.000 
#
# Total GULP energy -396771.586877 kJ/mol
# GULP energy per Si atom -12399.112090 kJ/mol
# Density = 1.980647 g / cm^3
# Si number density = 19.851658 Si / 1000 Ang^3
#
#
#
# Elastic Constant Matrix: (Units=GPa)
#
#
# Indices 1 2 3 4 5 6 
#
# 1 112.4340 32.8044 62.0653 0.0000 -4.8670 0.0003
# 2 32.8044 51.9710 30.9374 -0.0001 -4.6284 0.0024
# 3 62.0653 30.9374 164.3220 0.0001 -9.4123 -0.0001
# 4 0.0000 -0.0001 0.0001 24.9194 -0.0001 3.6587
# 5 -4.8670 -4.6284 -9.4123 -0.0001 39.0529 -0.0001
# 6 0.0003 0.0024 -0.0001 3.6587 -0.0001 25.1853
#
#
#
# Elastic Compliance Matrix: (Units=1/GPa)
#
#
# Indices 1 2 3 4 5 6 
#
# 1 0.012606 -0.005769 -0.003675 0.000000 0.000002 0.000000
# 2 -0.005769 0.024410 -0.002324 0.000000 0.001614 -0.000002
# 3 -0.003675 -0.002324 0.007979 0.000000 0.001190 0.000000
# 4 0.000000 0.000000 0.000000 0.041004 0.000000 -0.005957
# 5 0.000002 0.001614 0.001190 0.000000 0.026084 0.000000
# 6 0.000000 -0.000002 0.000000 -0.005957 0.000000 0.040571
#
#
# Mechanical properties :
#
#
# Convention : Reuss Voigt Hill
#
# Bulk Modulus (GPa) = 46.60109 64.48235 55.54172
# Shear Modulus (GPa) = 27.27087 31.35951 29.31519
#
# Velocity S-wave (km/s) = 3.71041 3.97885 3.84697
# Velocity P-wave (km/s) = 6.47162 7.32536 6.91168
#
# Compressibility (1/GPa) = 0.02145873
#
# Stress axis : x y z
#
# Youngs Moduli (GPa) = 79.32628 40.96611 125.32142
#
# Poissons Ratio (x) = 0.23634 0.46057
# Poissons Ratio (y) = 0.45765 0.29129
# Poissons Ratio (z) = 0.29154 0.09522
#
# Static dielectric constant tensor:
#      x y z
#    x 3.824790 0.000000 -0.015910 
#    y 0.000000 3.269090 0.000000 
#    z -0.015910 0.000000 3.884150 
# 
# 
# High freq. dielectric constant tensor:
#      x y z
#    x 1.787820 0.000000 -0.001540 
#    y 0.000000 1.731480 0.000000 
#    z -0.001540 0.000000 1.791240 
# 
# From -- ./inp_files/382230.got.cif
#   From: 2010.06.25/outbox.cif.g09.slc.cpg/sg12_192_cif.got.tgz:382230.got - 2010.06.28 00:19:55.
