data_PCOD8098070
_publ_section_title
;
Structure prediction by ZEFSAII (Michael W. Deem and Ramdas Pophale) SiO2 
 PCOD8098070
Probable space group: C 2/M
;
_chemical_formula_sum "Si O2"
_cell_formula_units_Z 56
_cell_length_a 13.657684
_cell_length_b 18.790252
_cell_length_c 11.309097
_cell_angle_alpha 90.000000
_cell_angle_beta 73.816249
_cell_angle_gamma 90.000000
_cell_volume 2787.259670
_symmetry_space_group_name_H-M "C 2/M"
_symmetry_group_IT_number 12
_symmetry_cell_setting 'monoclinic'
loop_
_space_group_symop_operation_xyz
x,y,z
-x,y,-z
-x,-y,-z
x,-y,z
1/2+x,1/2+y,z
1/2-x,1/2+y,-z
1/2-x,1/2-y,-z
1/2+x,1/2-y,z
loop_
_atom_site_type_symbol
_atom_site_label
_atom_site_fract_x
_atom_site_fract_y
_atom_site_fract_z
Si Si1 0.789298 0.840144 0.320799
Si Si2 0.234527 0.584827 0.575351
Si Si3 0.203596 0.332910 0.918525
Si Si4 0.967114 0.915612 0.141790
Si Si5 0.403206 0.200349 0.275849
Si Si6 0.145401 0.919062 0.243356
Si Si7 0.860160 0.290341 0.815071
O O1 0.770515 0.894543 0.433292
O O2 0.860671 0.877946 0.200944
O O3 0.838276 0.766275 0.350394
O O4 0.684234 0.825390 0.288291
O O5 0.212481 0.500000 0.590617
O O6 0.132045 0.628551 0.644064
O O7 0.326815 0.608459 0.633555
O O8 0.116049 0.307352 0.858274
O O9 0.251092 0.409537 0.869130
O O10 0.304038 0.283107 0.866953
O O11 0.157231 0.339791 0.064197
O O12 0.046859 0.884370 0.212719
O O13 0.954706 0.000000 0.152746
O O14 0.000000 0.891581 0.000000
O O15 0.521209 0.217938 0.253492
O O16 0.116480 0.000000 0.261013
#
# Coordination Sequence:
#
# PCOD8098070 Si02
#       7
#     8   8   8   8   8   8   8
#     4  11  22  36  57  83 112 145 184 229 275 327
#     4  10  22  41  58  77 109 146 188 231 273 325
#     4   9  18  34  56  83 112 142 177 224 275 327
#     4  10  20  34  55  86 119 147 179 224 281 339
#     4  10  21  37  58  82 108 144 187 229 273 327
#     4   9  18  34  56  79 107 144 181 223 273 322
#     4  10  20  34  55  83 113 143 179 222 275 328
#
# _framework density 20.091417
#
# number of rings (size 3 to 8) (size 9 to 14) (size 15 to 20)
#    0.000    2.143    0.000    3.000    0.000    3.429 
#    0.000    7.143    0.000    3.429    0.000    0.000 
#    0.000    0.000    0.000    0.000    0.000    0.000 
#
# Total GULP energy -347030.073079 kJ/mol
# GULP energy per Si atom -12393.931181 kJ/mol
# Density = 2.004569 g / cm^3
# Si number density = 20.091417 Si / 1000 Ang^3
#
#
#
# Elastic Constant Matrix: (Units=GPa)
#
#
# Indices 1 2 3 4 5 6 
#
# 1 136.5398 28.8859 40.6040 0.0000 1.1686 0.0000
# 2 28.8859 55.9615 43.2611 0.0000 -2.3936 0.0000
# 3 40.6040 43.2611 101.4788 0.0000 5.7557 0.0000
# 4 0.0000 0.0000 0.0000 30.5677 0.0000 -2.1783
# 5 1.1686 -2.3936 5.7557 0.0000 25.4492 0.0000
# 6 0.0000 0.0000 0.0000 -2.1783 0.0000 20.4701
#
#
#
# Elastic Compliance Matrix: (Units=1/GPa)
#
#
# Indices 1 2 3 4 5 6 
#
# 1 0.008568 -0.002660 -0.002287 0.000000 -0.000126 0.000000
# 2 -0.002660 0.028160 -0.011242 0.000000 0.005313 0.000000
# 3 -0.002287 -0.011242 0.015819 0.000000 -0.004530 0.000000
# 4 0.000000 0.000000 0.000000 0.032964 0.000000 0.003508
# 5 -0.000126 0.005313 -0.004530 0.000000 0.040824 0.000000
# 6 0.000000 0.000000 0.000000 0.003508 0.000000 0.049225
#
#
# Mechanical properties :
#
#
# Convention : Reuss Voigt Hill
#
# Bulk Modulus (GPa) = 49.58094 57.72024 53.65059
# Shear Modulus (GPa) = 23.29253 27.37934 25.33593
#
# Velocity S-wave (km/s) = 3.40858 3.69553 3.55495
# Velocity P-wave (km/s) = 6.34212 6.85569 6.60390
#
# Compressibility (1/GPa) = 0.02016904
#
# Stress axis : x y z
#
# Youngs Moduli (GPa) = 116.71617 35.51102 63.21561
#
# Poissons Ratio (x) = 0.09445 0.14458
# Poissons Ratio (y) = 0.31045 0.71067
# Poissons Ratio (z) = 0.26694 0.39922
#
# Static dielectric constant tensor:
#      x y z
#    x 3.731560 0.000000 0.238270 
#    y 0.000000 3.657170 0.000000 
#    z 0.238270 0.000000 3.575940 
# 
# 
# High freq. dielectric constant tensor:
#      x y z
#    x 1.783340 0.000000 0.014180 
#    y 0.000000 1.777530 0.000000 
#    z 0.014180 0.000000 1.777380 
# 
# From -- ./inp_files/133842.got.cif
#   From: 2010.06.25/outbox.cif.g09.slc.cpg/sg12_67_cif.got.tgz:133842.got - 2010.06.28 00:19:55.
