data_PCOD8098539
_publ_section_title
;
Structure prediction by ZEFSAII (Michael W. Deem and Ramdas Pophale) SiO2 
 PCOD8098539
Probable space group: C 2/M
;
_chemical_formula_sum "Si O2"
_cell_formula_units_Z 64
_cell_length_a 9.284550
_cell_length_b 13.228202
_cell_length_c 31.058355
_cell_angle_alpha 90.000000
_cell_angle_beta 46.760256
_cell_angle_gamma 90.000000
_cell_volume 2778.854910
_symmetry_space_group_name_H-M "C 2/M"
_symmetry_group_IT_number 12
_symmetry_cell_setting 'monoclinic'
loop_
_space_group_symop_operation_xyz
x,y,z
-x,y,-z
-x,-y,-z
x,-y,z
1/2+x,1/2+y,z
1/2-x,1/2+y,-z
1/2-x,1/2-y,-z
1/2+x,1/2-y,z
loop_
_atom_site_type_symbol
_atom_site_label
_atom_site_fract_x
_atom_site_fract_y
_atom_site_fract_z
Si Si1 0.134461 0.119487 0.510987
Si Si2 0.041843 0.881569 0.626291
Si Si3 0.311359 0.617757 0.016918
Si Si4 0.436416 0.795765 0.861824
Si Si5 0.270384 0.113836 0.057782
Si Si6 0.126912 0.271285 0.217496
Si Si7 0.800441 0.701348 0.705066
Si Si8 0.566302 0.883703 0.408171
O O1 0.030457 0.141441 0.577793
O O2 0.356916 0.168537 0.464275
O O3 0.000000 0.164586 0.500000
O O4 0.160270 0.000000 0.498587
O O5 0.250900 0.839387 0.601910
O O6 0.866988 0.818284 0.684399
O O7 0.010974 0.000000 0.643123
O O8 0.340919 0.500000 0.002713
O O9 0.126555 0.631006 0.086539
O O10 0.500000 0.670432 0.000000
O O11 0.308655 0.665414 0.970110
O O12 0.319682 0.687482 0.887680
O O13 0.671113 0.791558 0.818902
O O14 0.375967 0.837863 0.826284
O O15 0.197548 0.000000 0.083427
O O16 0.500000 0.111391 0.000000
O O17 0.123246 0.335578 0.263070
O O18 0.937603 0.196428 0.251676
O O19 0.901182 0.629030 0.649559
O O20 0.553026 0.000000 0.423083
#
# Coordination Sequence:
#
# PCOD8098539 Si02
#       8
#     8   8   8   8   8   8   8   8
#     4   9  19  34  57  96 128 146 186 244 297 365
#     4  10  21  39  64  87 117 158 195 237 303 368
#     4  10  20  34  57  89 119 146 184 232 288 356
#     4  11  20  39  58  79 114 159 188 237 292 348
#     4  10  20  34  57  89 117 144 184 230 285 355
#     4  10  24  39  58  80 114 152 208 248 290 331
#     4  11  22  43  58  84 116 154 200 267 288 340
#     4  10  21  39  64  87 117 158 195 237 303 367
#
# _framework density 23.031068999999999
#
# number of rings (size 3 to 8) (size 9 to 14) (size 15 to 20)
#    0.000    1.875    1.250    2.625    1.750    2.000 
#    0.000    7.500    0.000    0.000    0.000    0.000 
#    0.000    0.000    0.000    0.000    0.000    0.000 
#
# Total GULP energy -396518.714595 kJ/mol
# GULP energy per Si atom -12391.209831 kJ/mol
# Density = 2.297865 g / cm^3
# Si number density = 23.031069 Si / 1000 Ang^3
#
#
#
# Elastic Constant Matrix: (Units=GPa)
#
#
# Indices 1 2 3 4 5 6 
#
# 1 152.8537 2.2086 43.7408 0.0002 8.1710 -0.0001
# 2 2.2086 35.1960 4.6916 0.0001 -5.8362 -0.0001
# 3 43.7408 4.6916 109.5932 0.0002 1.8058 -0.0002
# 4 0.0002 0.0001 0.0002 25.6824 -0.0003 3.7710
# 5 8.1710 -5.8362 1.8058 -0.0003 47.6462 0.0001
# 6 -0.0001 -0.0001 -0.0002 3.7710 0.0001 15.4088
#
#
#
# Elastic Compliance Matrix: (Units=1/GPa)
#
#
# Indices 1 2 3 4 5 6 
#
# 1 0.007452 -0.000274 -0.002943 0.000000 -0.001200 0.000000
# 2 -0.000274 0.029198 -0.001201 0.000000 0.003669 0.000000
# 3 -0.002943 -0.001201 0.010351 0.000000 -0.000035 0.000000
# 4 0.000000 0.000000 0.000000 0.040389 0.000000 -0.009884
# 5 -0.001200 0.003669 -0.000035 0.000000 0.021645 0.000000
# 6 0.000000 0.000000 0.000000 -0.009884 0.000000 0.067317
#
#
# Mechanical properties :
#
#
# Convention : Reuss Voigt Hill
#
# Bulk Modulus (GPa) = 26.20179 44.32499 35.26339
# Shear Modulus (GPa) = 25.26405 34.21429 29.73917
#
# Velocity S-wave (km/s) = 3.31562 3.85849 3.59731
# Velocity P-wave (km/s) = 5.10482 6.25605 5.70953
#
# Compressibility (1/GPa) = 0.03816533
#
# Stress axis : x y z
#
# Youngs Moduli (GPa) = 134.18380 34.24894 96.60714
#
# Poissons Ratio (x) = 0.00940 0.28431
# Poissons Ratio (y) = 0.03682 0.11601
# Poissons Ratio (z) = 0.39489 0.04113
#
# Static dielectric constant tensor:
#      x y z
#    x 4.561100 0.000000 0.063340 
#    y 0.000000 3.732920 0.000000 
#    z 0.063340 0.000000 4.219820 
# 
# 
# High freq. dielectric constant tensor:
#      x y z
#    x 1.930430 0.000000 0.006450 
#    y 0.000000 1.874130 0.000000 
#    z 0.006450 0.000000 1.917690 
# 
# From -- ./inp_files/372536.got.cif
#   From: 2010.06.25/outbox.cif.g09.slc.cpg/sg12_187_cif.got.tgz:372536.got - 2010.06.28 00:19:55.
