data_PCOD8098194
_publ_section_title
;
Structure prediction by ZEFSAII (Michael W. Deem and Ramdas Pophale) SiO2 
 PCOD8098194
Probable space group: C 2/M
;
_chemical_formula_sum "Si O2"
_cell_formula_units_Z 64
_cell_length_a 21.042101
_cell_length_b 16.694727
_cell_length_c 9.966615
_cell_angle_alpha 90.000000
_cell_angle_beta 94.675568
_cell_angle_gamma 90.000000
_cell_volume 3489.542285
_symmetry_space_group_name_H-M "C 2/M"
_symmetry_group_IT_number 12
_symmetry_cell_setting 'monoclinic'
loop_
_space_group_symop_operation_xyz
x,y,z
-x,y,-z
-x,-y,-z
x,-y,z
1/2+x,1/2+y,z
1/2-x,1/2+y,-z
1/2-x,1/2-y,-z
1/2+x,1/2-y,z
loop_
_atom_site_type_symbol
_atom_site_label
_atom_site_fract_x
_atom_site_fract_y
_atom_site_fract_z
Si Si1 0.193472 0.814008 0.967742
Si Si2 0.928693 0.719357 0.981933
Si Si3 0.865476 0.308111 0.691261
Si Si4 0.764470 0.903610 0.287040
Si Si5 0.925744 0.411249 0.471922
Si Si6 0.208836 0.823399 0.446055
Si Si7 0.249072 0.090572 0.199284
Si Si8 0.607518 0.908437 0.825398
O O1 0.199705 0.866009 0.834220
O O2 0.250000 0.750000 0.000000
O O3 0.123412 0.775299 0.954184
O O4 0.195010 0.871430 0.096641
O O5 0.910684 0.699702 0.826697
O O6 0.931023 0.637256 0.066566
O O7 0.000000 0.757423 0.000000
O O8 0.804036 0.360881 0.719244
O O9 0.901504 0.352858 0.580751
O O10 0.852100 0.217009 0.636936
O O11 0.805128 0.881164 0.428613
O O12 0.758287 0.000000 0.271528
O O13 0.893870 0.500000 0.479932
O O14 0.908763 0.373867 0.324435
O O15 0.000000 0.420066 0.500000
O O16 0.250000 0.750000 0.500000
O O17 0.251217 0.871022 0.346417
O O18 0.316837 0.101026 0.137207
O O19 0.229725 0.000000 0.218014
O O20 0.585289 0.000000 0.830538
#
# Coordination Sequence:
#
# PCOD8098194 Si02
#       8
#     8   8   8   8   8   8   8   8
#     4  12  21  40  60  85 119 152 196 251 293 347
#     4  12  25  39  59  86 120 160 202 243 293 354
#     4  11  21  37  58  87 121 158 196 243 296 347
#     4  11  22  36  61  93 120 152 195 249 305 351
#     4  10  21  36  53  79 121 166 199 231 282 355
#     4  10  20  34  55  88 124 150 185 245 296 347
#     4  11  20  35  59  86 115 153 194 240 296 349
#     4  10  21  35  56  85 118 156 196 236 287 351
#
# _framework density 18.340515
#
# number of rings (size 3 to 8) (size 9 to 14) (size 15 to 20)
#    0.000    1.125    3.750    4.125    1.750    3.250 
#    0.000    0.000    0.000    1.500    0.000    0.875 
#    0.000    0.000    0.000    0.000    0.000    0.000 
#
# Total GULP energy -396725.909695 kJ/mol
# GULP energy per Si atom -12397.684678 kJ/mol
# Density = 1.829877 g / cm^3
# Si number density = 18.340515 Si / 1000 Ang^3
#
#
#
# Elastic Constant Matrix: (Units=GPa)
#
#
# Indices 1 2 3 4 5 6 
#
# 1 89.1780 41.2653 37.4959 0.0000 3.3745 0.0000
# 2 41.2653 88.8956 40.3800 0.0000 3.0873 0.0000
# 3 37.4959 40.3800 129.5928 0.0000 10.2002 0.0000
# 4 0.0000 0.0000 0.0000 44.8302 0.0000 -3.6279
# 5 3.3745 3.0873 10.2002 0.0000 18.5859 0.0000
# 6 0.0000 0.0000 0.0000 -3.6279 0.0000 20.0724
#
#
#
# Elastic Compliance Matrix: (Units=1/GPa)
#
#
# Indices 1 2 3 4 5 6 
#
# 1 0.014959 -0.005799 -0.002491 0.000000 -0.000386 0.000000
# 2 -0.005799 0.015352 -0.003123 0.000000 0.000217 0.000000
# 3 -0.002491 -0.003123 0.009755 0.000000 -0.004383 0.000000
# 4 0.000000 0.000000 0.000000 0.022637 0.000000 0.004091
# 5 -0.000386 0.000217 -0.004383 0.000000 0.056244 0.000000
# 6 0.000000 0.000000 0.000000 0.004091 0.000000 0.050559
#
#
# Mechanical properties :
#
#
# Convention : Reuss Voigt Hill
#
# Bulk Modulus (GPa) = 58.00208 60.66098 59.33153
# Shear Modulus (GPa) = 25.24255 29.26605 27.25430
#
# Velocity S-wave (km/s) = 3.71391 3.99896 3.85907
# Velocity P-wave (km/s) = 7.07705 7.38031 7.23027
#
# Compressibility (1/GPa) = 0.01724076
#
# Stress axis : x y z
#
# Youngs Moduli (GPa) = 66.85022 65.13804 102.50996
#
# Poissons Ratio (x) = 0.37774 0.25534
# Poissons Ratio (y) = 0.38767 0.32011
# Poissons Ratio (z) = 0.16651 0.20341
#
# Static dielectric constant tensor:
#      x y z
#    x 3.232150 0.000000 0.322940 
#    y 0.000000 3.455320 0.000000 
#    z 0.322940 0.000000 3.759400 
# 
# 
# High freq. dielectric constant tensor:
#      x y z
#    x 1.678090 0.000000 0.003390 
#    y 0.000000 1.706640 0.000000 
#    z 0.003390 0.000000 1.737130 
# 
# From -- ./inp_files/87971.got.cif
#   From: 2010.06.25/outbox.cif.g09.slc.cpg/sg12_44_cif.got.tgz:87971.got - 2010.06.28 00:19:55.
