data_PCOD8098973
_publ_section_title
;
Structure prediction by ZEFSAII (Michael W. Deem and Ramdas Pophale) SiO2 
 PCOD8098973
Probable space group: C 2/M
;
_chemical_formula_sum "Si O2"
_cell_formula_units_Z 56
_cell_length_a 17.955475
_cell_length_b 11.098944
_cell_length_c 15.691477
_cell_angle_alpha 90.000000
_cell_angle_beta 116.026946
_cell_angle_gamma 90.000000
_cell_volume 2809.977826
_symmetry_space_group_name_H-M "C 2/M"
_symmetry_group_IT_number 12
_symmetry_cell_setting 'monoclinic'
loop_
_space_group_symop_operation_xyz
x,y,z
-x,y,-z
-x,-y,-z
x,-y,z
1/2+x,1/2+y,z
1/2-x,1/2+y,-z
1/2-x,1/2-y,-z
1/2+x,1/2-y,z
loop_
_atom_site_type_symbol
_atom_site_label
_atom_site_fract_x
_atom_site_fract_y
_atom_site_fract_z
Si Si1 0.865245 0.363417 0.279243
Si Si2 0.671677 0.137995 0.544660
Si Si3 0.357998 0.637340 0.588386
Si Si4 0.653501 0.371859 0.931186
Si Si5 0.778628 0.265312 0.880292
Si Si6 0.494821 0.270619 0.231688
Si Si7 0.557900 0.859650 0.104664
O O1 0.887504 0.500000 0.270334
O O2 0.860348 0.338559 0.376849
O O3 0.776082 0.337832 0.191665
O O4 0.940218 0.285183 0.279973
O O5 0.632290 0.248949 0.471345
O O6 0.770650 0.148453 0.592237
O O7 0.645866 0.000000 0.501591
O O8 0.365440 0.500000 0.551866
O O9 0.429490 0.652413 0.693792
O O10 0.663859 0.500000 0.981530
O O11 0.714611 0.366997 0.879855
O O12 0.560002 0.361254 0.851327
O O13 0.673074 0.272437 0.010360
O O14 0.847852 0.311451 0.850312
O O15 0.524926 0.166634 0.182563
O O16 0.561588 0.000000 0.091918
O O17 0.500000 0.803592 0.000000
#
# Coordination Sequence:
#
# PCOD8098973 Si02
#       7
#     8   8   8   8   8   8   8
#     4  10  21  38  60  86 117 156 197 245 294 348
#     4   9  20  40  64  89 118 155 201 245 296 360
#     4  10  21  40  65  91 122 155 193 248 303 355
#     4  10  20  35  54  79 110 148 191 237 286 345
#     4  10  20  36  56  80 109 151 197 237 286 349
#     4  11  22  37  57  87 119 152 196 239 295 357
#     4  11  22  37  55  80 116 154 196 248 296 346
#
# _framework density 19.928982999999999
#
# number of rings (size 3 to 8) (size 9 to 14) (size 15 to 20)
#    0.000    1.857    1.429    2.571    0.000    1.714 
#    0.000   12.143    0.000    0.000    0.000    0.000 
#    0.000    0.000    0.000    0.000    0.000    0.000 
#
# Total GULP energy -346982.032633 kJ/mol
# GULP energy per Si atom -12392.215451 kJ/mol
# Density = 1.988362 g / cm^3
# Si number density = 19.928983 Si / 1000 Ang^3
#
#
#
# Elastic Constant Matrix: (Units=GPa)
#
#
# Indices 1 2 3 4 5 6 
#
# 1 90.9374 25.9349 30.3157 0.0000 -4.5667 0.0000
# 2 25.9349 102.9932 37.8260 0.0000 -2.7555 0.0000
# 3 30.3157 37.8260 82.1446 0.0000 6.5128 0.0000
# 4 0.0000 0.0000 0.0000 30.3198 0.0000 -1.9164
# 5 -4.5667 -2.7555 6.5128 0.0000 37.1996 0.0000
# 6 0.0000 0.0000 0.0000 -1.9164 0.0000 14.1003
#
#
#
# Elastic Compliance Matrix: (Units=1/GPa)
#
#
# Indices 1 2 3 4 5 6 
#
# 1 0.012983 -0.001668 -0.004198 0.000000 0.002205 0.000000
# 2 -0.001668 0.012025 -0.005046 0.000000 0.001569 0.000000
# 3 -0.004198 -0.005046 0.016344 0.000000 -0.003750 0.000000
# 4 0.000000 0.000000 0.000000 0.033268 0.000000 0.004521
# 5 0.002205 0.001569 -0.003750 0.000000 0.027926 0.000000
# 6 0.000000 0.000000 0.000000 0.004521 0.000000 0.071535
#
#
# Mechanical properties :
#
#
# Convention : Reuss Voigt Hill
#
# Bulk Modulus (GPa) = 51.21156 51.58094 51.39625
# Shear Modulus (GPa) = 24.70208 28.45718 26.57963
#
# Velocity S-wave (km/s) = 3.52448 3.78289 3.65597
# Velocity P-wave (km/s) = 6.50503 6.70962 6.60812
#
# Compressibility (1/GPa) = 0.01952684
#
# Stress axis : x y z
#
# Youngs Moduli (GPa) = 77.02647 83.16244 61.18559
#
# Poissons Ratio (x) = 0.13875 0.25684
# Poissons Ratio (y) = 0.12852 0.30873
# Poissons Ratio (z) = 0.32334 0.41962
#
# Static dielectric constant tensor:
#      x y z
#    x 3.721570 0.000000 0.082540 
#    y 0.000000 3.609780 0.000000 
#    z 0.082540 0.000000 3.488930 
# 
# 
# High freq. dielectric constant tensor:
#      x y z
#    x 1.786660 0.000000 0.007680 
#    y 0.000000 1.774920 0.000000 
#    z 0.007680 0.000000 1.766170 
# 
# From -- ./inp_files/223902.got.cif
#   From: 2010.06.25/outbox.cif.g09.slc.cpg/sg12_112_cif.got.tgz:223902.got - 2010.06.28 00:19:55.
