data_PCOD8098427
_publ_section_title
;
Structure prediction by ZEFSAII (Michael W. Deem and Ramdas Pophale) SiO2 
 PCOD8098427
Probable space group: C 2/M
;
_chemical_formula_sum "Si O2"
_cell_formula_units_Z 40
_cell_length_a 14.972380
_cell_length_b 25.455248
_cell_length_c 5.173587
_cell_angle_alpha 90.000000
_cell_angle_beta 71.935372
_cell_angle_gamma 90.000000
_cell_volume 1874.592095
_symmetry_space_group_name_H-M "C 2/M"
_symmetry_group_IT_number 12
_symmetry_cell_setting 'monoclinic'
loop_
_space_group_symop_operation_xyz
x,y,z
-x,y,-z
-x,-y,-z
x,-y,z
1/2+x,1/2+y,z
1/2-x,1/2+y,-z
1/2-x,1/2-y,-z
1/2+x,1/2-y,z
loop_
_atom_site_type_symbol
_atom_site_label
_atom_site_fract_x
_atom_site_fract_y
_atom_site_fract_z
Si Si1 0.500000 0.698388 0.500000
Si Si2 0.393457 0.839211 0.298553
Si Si3 0.826390 0.940306 0.112234
Si Si4 0.500000 0.632333 0.000000
Si Si5 0.793726 0.559430 0.278768
Si Si6 0.899486 0.705214 0.791058
O O1 0.533648 0.665348 0.718469
O O2 0.584259 0.734770 0.311714
O O3 0.379880 0.900552 0.245502
O O4 0.502283 0.825546 0.245815
O O5 0.341635 0.824214 0.614943
O O6 0.347477 0.801988 0.112993
O O7 0.913870 0.902764 0.982927
O O8 0.784901 0.930661 0.433650
O O9 0.862301 0.000000 0.052558
O O10 0.748940 0.928771 0.963523
O O11 0.833198 0.500000 0.261782
#
# Coordination Sequence:
#
# PCOD8098427 Si02
#       6
#     4   8   8   4   8   8
#     4  10  20  34  57  82 101 132 176 222 262 296
#     4   9  16  31  54  76 102 145 174 202 254 307
#     4  10  22  37  54  78 106 137 169 212 268 316
#     4  12  21  36  60  78 100 130 179 224 256 316
#     4  10  20  35  54  78 109 140 172 210 259 312
#     4   9  18  33  54  76 105 140 177 209 250 302
#
# _framework density 21.337976000000001
#
# number of rings (size 3 to 8) (size 9 to 14) (size 15 to 20)
#    0.000    2.400    0.000    5.100    0.000    0.000 
#    0.000    8.000    0.000   55.200    0.000    0.000 
#    0.000    0.000    0.000    0.000    0.000    0.000 
#
# Total GULP energy -247785.726712 kJ/mol
# GULP energy per Si atom -12389.286336 kJ/mol
# Density = 2.128941 g / cm^3
# Si number density = 21.337976 Si / 1000 Ang^3
#
#
#
# Elastic Constant Matrix: (Units=GPa)
#
#
# Indices 1 2 3 4 5 6 
#
# 1 42.5180 44.8462 23.0248 0.0000 14.2988 0.0000
# 2 44.8462 129.3528 39.2624 0.0000 13.7842 0.0000
# 3 23.0248 39.2624 142.3499 0.0000 48.0552 0.0000
# 4 0.0000 0.0000 0.0000 16.8164 0.0000 5.8325
# 5 14.2988 13.7842 48.0552 0.0000 33.8252 0.0000
# 6 0.0000 0.0000 0.0000 5.8325 0.0000 4.4568
#
#
#
# Elastic Compliance Matrix: (Units=1/GPa)
#
#
# Indices 1 2 3 4 5 6 
#
# 1 0.041672 -0.013468 0.002053 0.000000 -0.015044 0.000000
# 2 -0.013468 0.012791 -0.002905 0.000000 0.004608 0.000000
# 3 0.002053 -0.002905 0.014196 0.000000 -0.019852 0.000000
# 4 0.000000 0.000000 0.000000 0.108890 0.000000 -0.142501
# 5 -0.015044 0.004608 -0.019852 0.000000 0.062249 0.000000
# 6 0.000000 0.000000 0.000000 -0.142501 0.000000 0.410861
#
#
# Mechanical properties :
#
#
# Convention : Reuss Voigt Hill
#
# Bulk Modulus (GPa) = 24.98805 58.72085 41.85445
# Shear Modulus (GPa) = 7.21878 24.82549 16.02214
#
# Velocity S-wave (km/s) = 1.84131 3.41463 2.74318
# Velocity P-wave (km/s) = 4.03194 6.56699 5.44894
#
# Compressibility (1/GPa) = 0.04001913
#
# Stress axis : x y z
#
# Youngs Moduli (GPa) = 23.99688 78.18179 70.44293
#
# Poissons Ratio (x) = 1.05292 -0.14461
# Poissons Ratio (y) = 0.32318 0.20465
# Poissons Ratio (z) = -0.04926 0.22713
#
# Static dielectric constant tensor:
#      x y z
#    x 3.396850 0.000000 1.095050 
#    y 0.000000 3.988250 0.000000 
#    z 1.095050 0.000000 7.552930 
# 
# 
# High freq. dielectric constant tensor:
#      x y z
#    x 1.784900 0.000000 0.042200 
#    y 0.000000 1.842470 0.000000 
#    z 0.042200 0.000000 1.864030 
# 
# From -- ./inp_files/11537.got.cif
#   From: 2010.06.25/outbox.cif.g09.slc.cpg/sg12_6_cif.got.tgz:11537.got - 2010.06.28 00:19:55.
