data_PCOD8098160
_publ_section_title
;
Structure prediction by ZEFSAII (Michael W. Deem and Ramdas Pophale) SiO2 
 PCOD8098160
Probable space group: C 2/M
;
_chemical_formula_sum "Si O2"
_cell_formula_units_Z 64
_cell_length_a 20.093983
_cell_length_b 23.134383
_cell_length_c 11.864306
_cell_angle_alpha 90.000000
_cell_angle_beta 36.843670
_cell_angle_gamma 90.000000
_cell_volume 3307.138214
_symmetry_space_group_name_H-M "C 2/M"
_symmetry_group_IT_number 12
_symmetry_cell_setting 'monoclinic'
loop_
_space_group_symop_operation_xyz
x,y,z
-x,y,-z
-x,-y,-z
x,-y,z
1/2+x,1/2+y,z
1/2-x,1/2+y,-z
1/2-x,1/2-y,-z
1/2+x,1/2-y,z
loop_
_atom_site_type_symbol
_atom_site_label
_atom_site_fract_x
_atom_site_fract_y
_atom_site_fract_z
Si Si1 0.102022 0.763112 0.609414
Si Si2 0.866163 0.817558 0.890752
Si Si3 0.070922 0.433794 0.159299
Si Si4 0.720653 0.732290 0.211726
Si Si5 0.670462 0.934697 0.437497
Si Si6 0.214582 0.657944 0.549844
Si Si7 0.394443 0.847191 0.080696
Si Si8 0.767148 0.066430 0.060519
O O1 0.146316 0.758309 0.421974
O O2 0.111208 0.698458 0.648068
O O3 0.174205 0.804412 0.592184
O O4 0.978547 0.787984 0.781164
O O5 0.852238 0.804510 0.777237
O O6 0.759553 0.792774 0.103670
O O7 0.867419 0.887323 0.909015
O O8 0.077669 0.500000 0.116022
O O9 0.176379 0.416253 0.090522
O O10 0.960386 0.420456 0.380569
O O11 0.067468 0.400784 0.045961
O O12 0.834940 0.699915 0.084676
O O13 0.737784 0.893010 0.430097
O O14 0.711064 0.925088 0.256735
O O15 0.693936 0.000000 0.445374
O O16 0.188212 0.630935 0.708146
O O17 0.500000 0.818755 0.000000
O O18 0.809698 0.000000 0.987605
#
# Coordination Sequence:
#
# PCOD8098160 Si02
#       8
#     8   8   8   8   8   8   8   8
#     4  10  22  39  59  83 116 159 192 240 298 354
#     4  11  21  38  61  86 116 152 199 244 293 345
#     4  10  20  34  55  85 118 156 195 237 297 351
#     4  10  22  36  57  89 115 149 195 242 290 344
#     4  10  20  35  58  85 116 156 197 240 293 350
#     4  10  21  37  56  84 120 152 193 240 294 353
#     4  11  19  33  54  83 120 153 184 235 290 351
#     4  10  21  38  58  84 119 154 197 250 292 342
#
# _framework density 19.352077999999999
#
# number of rings (size 3 to 8) (size 9 to 14) (size 15 to 20)
#    0.000    1.750    2.500    2.250    0.000    2.250 
#    0.000    7.500    0.000    3.750    0.000    0.000 
#    0.000    0.000    0.000    0.000    0.000    0.000 
#
# Total GULP energy -396767.983901 kJ/mol
# GULP energy per Si atom -12398.999497 kJ/mol
# Density = 1.930803 g / cm^3
# Si number density = 19.352078 Si / 1000 Ang^3
#
#
#
# Elastic Constant Matrix: (Units=GPa)
#
#
# Indices 1 2 3 4 5 6 
#
# 1 96.4919 48.5228 23.9793 0.0000 3.1497 -0.0002
# 2 48.5228 101.8686 38.9222 -0.0001 8.6719 0.0000
# 3 23.9793 38.9222 65.2996 -0.0002 6.3661 0.0000
# 4 0.0000 -0.0001 -0.0002 29.0071 0.0001 3.3186
# 5 3.1497 8.6719 6.3661 0.0001 25.9172 0.0001
# 6 -0.0002 0.0000 0.0000 3.3186 0.0001 29.5456
#
#
#
# Elastic Compliance Matrix: (Units=1/GPa)
#
#
# Indices 1 2 3 4 5 6 
#
# 1 0.013751 -0.006028 -0.001527 0.000000 0.000721 0.000000
# 2 -0.006028 0.015508 -0.006757 0.000000 -0.002796 0.000000
# 3 -0.001527 -0.006757 0.020146 0.000000 -0.002502 0.000000
# 4 0.000000 0.000000 0.000000 0.034923 0.000000 -0.003923
# 5 0.000721 -0.002796 -0.002502 0.000000 0.040047 0.000000
# 6 0.000000 0.000000 0.000000 -0.003923 0.000000 0.034287
#
#
# Mechanical properties :
#
#
# Convention : Reuss Voigt Hill
#
# Bulk Modulus (GPa) = 48.12137 54.05653 51.08895
# Shear Modulus (GPa) = 25.74503 27.04304 26.39404
#
# Velocity S-wave (km/s) = 3.65135 3.74227 3.69709
# Velocity P-wave (km/s) = 6.53427 6.83129 6.68443
#
# Compressibility (1/GPa) = 0.02078079
#
# Stress axis : x y z
#
# Youngs Moduli (GPa) = 72.72371 64.48431 49.63676
#
# Poissons Ratio (x) = 0.38870 0.07579
# Poissons Ratio (y) = 0.43836 0.33541
# Poissons Ratio (z) = 0.11104 0.43574
#
# Static dielectric constant tensor:
#      x y z
#    x 3.605290 0.000000 0.151650 
#    y 0.000000 3.557880 0.000000 
#    z 0.151650 0.000000 3.373420 
# 
# 
# High freq. dielectric constant tensor:
#      x y z
#    x 1.756330 0.000000 0.018850 
#    y 0.000000 1.750430 0.000000 
#    z 0.018850 0.000000 1.743020 
# 
# From -- ./inp_files/169647.got.cif
#   From: 2010.06.25/outbox.cif.g09.slc.cpg/sg12_85_cif.got.tgz:169647.got - 2010.06.28 00:19:55.
