data_PCOD8098768
_publ_section_title
;
Structure prediction by ZEFSAII (Michael W. Deem and Ramdas Pophale) SiO2 
 PCOD8098768
Probable space group: C 2/M
;
_chemical_formula_sum "Si O2"
_cell_formula_units_Z 64
_cell_length_a 12.411925
_cell_length_b 21.074713
_cell_length_c 21.438365
_cell_angle_alpha 90.000000
_cell_angle_beta 141.997607
_cell_angle_gamma 90.000000
_cell_volume 3452.690633
_symmetry_space_group_name_H-M "C 2/M"
_symmetry_group_IT_number 12
_symmetry_cell_setting 'monoclinic'
loop_
_space_group_symop_operation_xyz
x,y,z
-x,y,-z
-x,-y,-z
x,-y,z
1/2+x,1/2+y,z
1/2-x,1/2+y,-z
1/2-x,1/2-y,-z
1/2+x,1/2-y,z
loop_
_atom_site_type_symbol
_atom_site_label
_atom_site_fract_x
_atom_site_fract_y
_atom_site_fract_z
Si Si1 0.942828 0.363291 0.826193
Si Si2 0.686932 0.070116 0.118696
Si Si3 0.421215 0.820284 0.604334
Si Si4 0.413611 0.621679 0.898636
Si Si5 0.191249 0.273180 0.570225
Si Si6 0.705699 0.723600 0.250512
Si Si7 0.777313 0.072156 0.030314
Si Si8 0.970577 0.574048 0.260564
O O1 0.804306 0.386720 0.815499
O O2 0.897640 0.289809 0.796800
O O3 0.925620 0.399241 0.752226
O O4 0.140125 0.376785 0.939931
O O5 0.818300 0.089857 0.122012
O O6 0.730483 0.000000 0.162677
O O7 0.500000 0.074013 0.000000
O O8 0.291789 0.788921 0.594154
O O9 0.328050 0.825251 0.493926
O O10 0.593483 0.774976 0.681716
O O11 0.462520 0.891233 0.646227
O O12 0.399754 0.677281 0.842152
O O13 0.543998 0.570919 0.927130
O O14 0.236443 0.586848 0.838418
O O15 0.500000 0.651384 0.000000
O O16 0.288071 0.302472 0.675112
O O17 0.000000 0.247395 0.500000
O O18 0.697855 0.000000 0.990589
O O19 0.009106 0.500000 0.284695
#
# Coordination Sequence:
#
# PCOD8098768 Si02
#       8
#     8   8   8   8   8   8   8   8
#     4  11  19  32  52  81 109 148 187 236 283 319
#     4   8  16  30  46  67  95 136 189 225 263 318
#     4   9  19  36  59  85 109 142 178 229 287 342
#     4  11  23  36  50  79 115 160 193 235 283 326
#     4   9  17  36  61  83 105 140 182 228 277 345
#     4  10  22  34  52  81 115 141 192 231 279 339
#     4  10  20  35  53  73 105 156 205 237 275 328
#     4  11  21  35  58  87 116 146 189 234 281 338
#
# _framework density 18.536268
#
# number of rings (size 3 to 8) (size 9 to 14) (size 15 to 20)
#    0.000    2.125    2.500    2.250    0.000    3.500 
#    0.000    0.000    0.000   10.500    0.000    0.000 
#    0.000    0.000    0.000    0.000    0.000    0.000 
#
# Total GULP energy -396472.703291 kJ/mol
# GULP energy per Si atom -12389.771978 kJ/mol
# Density = 1.849408 g / cm^3
# Si number density = 18.536268 Si / 1000 Ang^3
#
#
#
# Elastic Constant Matrix: (Units=GPa)
#
#
# Indices 1 2 3 4 5 6 
#
# 1 110.3132 37.8302 44.0124 0.0000 -23.8492 0.0001
# 2 37.8302 105.6905 49.3251 -0.0002 -14.3066 -0.0001
# 3 44.0124 49.3251 86.2267 -0.0019 -25.2721 -0.0012
# 4 0.0000 -0.0002 -0.0019 18.8645 -0.0004 -1.4183
# 5 -23.8492 -14.3066 -25.2721 -0.0004 26.2528 -0.0002
# 6 0.0001 -0.0001 -0.0012 -1.4183 -0.0002 25.0096
#
#
#
# Elastic Compliance Matrix: (Units=1/GPa)
#
#
# Indices 1 2 3 4 5 6 
#
# 1 0.012596 -0.002071 -0.003095 0.000000 0.007335 0.000000
# 2 -0.002071 0.013248 -0.006905 -0.000001 -0.001309 0.000000
# 3 -0.003095 -0.006905 0.021174 0.000003 0.013809 0.000001
# 4 0.000000 -0.000001 0.000003 0.053237 0.000003 0.003019
# 5 0.007335 -0.001309 0.013809 0.000003 0.057334 0.000001
# 6 0.000000 0.000000 0.000001 0.003019 0.000001 0.040156
#
#
# Mechanical properties :
#
#
# Convention : Reuss Voigt Hill
#
# Bulk Modulus (GPa) = 43.71317 62.72955 53.22136
# Shear Modulus (GPa) = 21.78538 25.42958 23.60748
#
# Velocity S-wave (km/s) = 3.43196 3.70791 3.57260
# Velocity P-wave (km/s) = 6.27202 7.22817 6.76700
#
# Compressibility (1/GPa) = 0.02287640
#
# Stress axis : x y z
#
# Youngs Moduli (GPa) = 79.39106 75.48143 47.22775
#
# Poissons Ratio (x) = 0.15635 0.14615
# Poissons Ratio (y) = 0.16445 0.32610
# Poissons Ratio (z) = 0.24568 0.52119
#
# Static dielectric constant tensor:
#      x y z
#    x 3.925110 0.000000 -0.237020 
#    y 0.000000 3.074270 0.000000 
#    z -0.237020 0.000000 3.376900 
# 
# 
# High freq. dielectric constant tensor:
#      x y z
#    x 1.747870 0.000000 -0.018280 
#    y 0.000000 1.687650 0.000000 
#    z -0.018280 0.000000 1.697130 
# 
# From -- ./inp_files/306796.got.cif
#   From: 2010.06.25/outbox.cif.g09.slc.cpg/sg12_154_cif.got.tgz:306796.got - 2010.06.28 00:19:55.
