data_PCOD8098612
_publ_section_title
;
Structure prediction by ZEFSAII (Michael W. Deem and Ramdas Pophale) SiO2 
 PCOD8098612
Probable space group: C 2/M
;
_chemical_formula_sum "Si O2"
_cell_formula_units_Z 56
_cell_length_a 17.000999
_cell_length_b 14.637457
_cell_length_c 13.487557
_cell_angle_alpha 90.000000
_cell_angle_beta 128.256687
_cell_angle_gamma 90.000000
_cell_volume 2635.593118
_symmetry_space_group_name_H-M "C 2/M"
_symmetry_group_IT_number 12
_symmetry_cell_setting 'monoclinic'
loop_
_space_group_symop_operation_xyz
x,y,z
-x,y,-z
-x,-y,-z
x,-y,z
1/2+x,1/2+y,z
1/2-x,1/2+y,-z
1/2-x,1/2-y,-z
1/2+x,1/2-y,z
loop_
_atom_site_type_symbol
_atom_site_label
_atom_site_fract_x
_atom_site_fract_y
_atom_site_fract_z
Si Si1 0.714046 0.400118 0.633090
Si Si2 0.246359 0.895785 0.939171
Si Si3 0.603922 0.853103 0.110382
Si Si4 0.910983 0.854416 0.861737
Si Si5 0.199598 0.601697 0.792167
Si Si6 0.076472 0.896918 0.358752
Si Si7 0.101662 0.211258 0.708274
O O1 0.675420 0.500000 0.634409
O O2 0.833714 0.396791 0.749240
O O3 0.687429 0.384545 0.495636
O O4 0.655849 0.327604 0.654026
O O5 0.333497 0.851956 0.941473
O O6 0.150341 0.831788 0.845896
O O7 0.225904 0.000000 0.889303
O O8 0.272986 0.889889 0.072827
O O9 0.576837 0.753048 0.125671
O O10 0.500000 0.904799 0.000000
O O11 0.801229 0.885045 0.810202
O O12 0.922029 0.884365 0.757116
O O13 0.000000 0.898170 0.000000
O O14 0.156295 0.500000 0.734865
O O15 0.114803 0.678873 0.707340
O O16 0.012732 0.820619 0.369891
O O17 0.036232 0.000000 0.347841
#
# Coordination Sequence:
#
# PCOD8098612 Si02
#       7
#     8   8   8   8   8   8   8
#     4  10  21  40  64  95 125 163 215 263 320 374
#     4  10  20  34  58  89 122 164 211 259 315 368
#     4  10  21  36  61  94 126 166 206 257 312 375
#     4  11  23  39  62  93 129 168 213 257 317 377
#     4  11  23  38  59  89 128 169 211 259 311 380
#     4  11  24  39  65  97 128 164 209 267 320 376
#     4  11  20  37  62  89 123 166 207 264 317 368
#
# _framework density 21.247589000000001
#
# number of rings (size 3 to 8) (size 9 to 14) (size 15 to 20)
#    0.000    1.429    2.857    4.714    4.000    5.143 
#    0.000    0.000    0.000    1.714    0.000    0.000 
#    0.000    0.000    0.000    0.000    0.000    0.000 
#
# Total GULP energy -346885.755891 kJ/mol
# GULP energy per Si atom -12388.776996 kJ/mol
# Density = 2.119923 g / cm^3
# Si number density = 21.247589 Si / 1000 Ang^3
#
#
#
# Elastic Constant Matrix: (Units=GPa)
#
#
# Indices 1 2 3 4 5 6 
#
# 1 59.1768 24.6609 52.5497 0.0000 8.1719 0.0000
# 2 24.6609 144.9361 47.9613 0.0000 2.8407 0.0000
# 3 52.5497 47.9613 150.3276 0.0000 -0.2148 0.0000
# 4 0.0000 0.0000 0.0000 23.1652 0.0000 0.5347
# 5 8.1719 2.8407 -0.2148 0.0000 29.0111 0.0000
# 6 0.0000 0.0000 0.0000 0.5347 0.0000 17.9407
#
#
#
# Elastic Compliance Matrix: (Units=1/GPa)
#
#
# Indices 1 2 3 4 5 6 
#
# 1 0.026263 -0.001435 -0.008733 0.000000 -0.007322 0.000000
# 2 -0.001435 0.007810 -0.001991 0.000000 -0.000375 0.000000
# 3 -0.008733 -0.001991 0.010344 0.000000 0.002732 0.000000
# 4 0.000000 0.000000 0.000000 0.043198 0.000000 -0.001287
# 5 -0.007322 -0.000375 0.002732 0.000000 0.036589 0.000000
# 6 0.000000 0.000000 0.000000 -0.001287 0.000000 0.055777
#
#
# Mechanical properties :
#
#
# Convention : Reuss Voigt Hill
#
# Bulk Modulus (GPa) = 49.75420 67.19826 58.47623
# Shear Modulus (GPa) = 23.69682 29.30796 26.50239
#
# Velocity S-wave (km/s) = 3.34319 3.71800 3.53556
# Velocity P-wave (km/s) = 6.19434 7.07999 6.65192
#
# Compressibility (1/GPa) = 0.02009880
#
# Stress axis : x y z
#
# Youngs Moduli (GPa) = 38.07649 128.04362 96.67455
#
# Poissons Ratio (x) = 0.18376 0.84428
# Poissons Ratio (y) = 0.05465 0.19243
# Poissons Ratio (z) = 0.33253 0.25488
#
# Static dielectric constant tensor:
#      x y z
#    x 3.666210 0.000000 0.190320 
#    y 0.000000 4.187570 0.000000 
#    z 0.190320 0.000000 4.363870 
# 
# 
# High freq. dielectric constant tensor:
#      x y z
#    x 1.806320 0.000000 -0.006470 
#    y 0.000000 1.839700 0.000000 
#    z -0.006470 0.000000 1.835490 
# 
# From -- ./inp_files/225381.got.cif
#   From: 2010.06.25/outbox.cif.g09.slc.cpg/sg12_113_cif.got.tgz:225381.got - 2010.06.28 00:19:55.
