data_PCOD8098730
_publ_section_title
;
Structure prediction by ZEFSAII (Michael W. Deem and Ramdas Pophale) SiO2 
 PCOD8098730
Probable space group: C 2/M
;
_chemical_formula_sum "Si O2"
_cell_formula_units_Z 64
_cell_length_a 23.034685
_cell_length_b 9.219513
_cell_length_c 17.843750
_cell_angle_alpha 90.000000
_cell_angle_beta 92.089298
_cell_angle_gamma 90.000000
_cell_volume 3786.932662
_symmetry_space_group_name_H-M "C 2/M"
_symmetry_group_IT_number 12
_symmetry_cell_setting 'monoclinic'
loop_
_space_group_symop_operation_xyz
x,y,z
-x,y,-z
-x,-y,-z
x,-y,z
1/2+x,1/2+y,z
1/2-x,1/2+y,-z
1/2-x,1/2-y,-z
1/2+x,1/2-y,z
loop_
_atom_site_type_symbol
_atom_site_label
_atom_site_fract_x
_atom_site_fract_y
_atom_site_fract_z
Si Si1 0.183831 0.336207 0.420707
Si Si2 0.379517 0.833421 0.139262
Si Si3 0.882741 0.830170 0.871258
Si Si4 0.494667 0.168520 0.914876
Si Si5 0.189605 0.828742 0.986879
Si Si6 0.321992 0.663456 0.436942
Si Si7 0.808563 0.169217 0.725237
Si Si8 0.824647 0.333734 0.292674
O O1 0.159837 0.500000 0.418628
O O2 0.252801 0.334260 0.431386
O O3 0.155646 0.252052 0.489730
O O4 0.165122 0.256796 0.343505
O O5 0.446554 0.799447 0.127165
O O6 0.339532 0.725818 0.090461
O O7 0.367550 0.803530 0.225832
O O8 0.364165 0.000000 0.117401
O O9 0.944189 0.750753 0.868312
O O10 0.842434 0.780008 0.800717
O O11 0.894499 0.000000 0.868962
O O12 0.851509 0.784321 0.946364
O O13 0.478635 0.000000 0.915780
O O14 0.500000 0.228222 0.000000
O O15 0.199938 0.000000 0.983398
O O16 0.250000 0.750000 0.000000
O O17 0.345866 0.500000 0.443271
O O18 0.346617 0.736633 0.362751
O O19 0.740901 0.206221 0.735032
O O20 0.817453 0.000000 0.709078
O O21 0.827142 0.500000 0.319275
#
# Coordination Sequence:
#
# PCOD8098730 Si02
#       8
#     8   8   8   8   8   8   8   8
#     4   9  16  26  42  66  95 128 162 192 230 282
#     4  10  20  35  52  71  97 129 165 205 250 293
#     4  10  21  35  51  71  96 128 166 205 248 295
#     4  10  20  35  54  73  94 124 165 212 254 291
#     4  11  22  34  50  72  98 129 163 199 244 297
#     4   9  16  26  42  66  97 129 161 194 230 279
#     4   9  17  30  46  67  96 128 160 197 241 287
#     4   9  17  30  48  68  97 131 161 197 240 289
#
# _framework density 16.900221999999999
#
# number of rings (size 3 to 8) (size 9 to 14) (size 15 to 20)
#    0.000    2.375    1.250    1.875    0.000    7.250 
#    0.000    2.500    0.000    0.000    0.000    0.875 
#    0.000    7.000    0.000    0.000    0.000    0.000 
#
# Total GULP energy -396875.199965 kJ/mol
# GULP energy per Si atom -12402.349999 kJ/mol
# Density = 1.686176 g / cm^3
# Si number density = 16.900222 Si / 1000 Ang^3
#
#
#
# Elastic Constant Matrix: (Units=GPa)
#
#
# Indices 1 2 3 4 5 6 
#
# 1 69.5345 34.4827 35.5634 0.0000 -13.0907 0.0000
# 2 34.4827 79.8348 50.4933 0.0000 -9.7023 0.0000
# 3 35.5634 50.4933 109.0384 0.0000 -22.2249 0.0000
# 4 0.0000 0.0000 0.0000 33.0344 0.0000 2.3699
# 5 -13.0907 -9.7023 -22.2249 0.0000 12.7063 0.0000
# 6 0.0000 0.0000 0.0000 2.3699 0.0000 23.3253
#
#
#
# Elastic Compliance Matrix: (Units=1/GPa)
#
#
# Indices 1 2 3 4 5 6 
#
# 1 0.020948 -0.006846 -0.000511 0.000000 0.015461 0.000000
# 2 -0.006846 0.019965 -0.008303 0.000000 -0.006331 0.000000
# 3 -0.000511 -0.008303 0.018311 0.000000 0.025163 0.000000
# 4 0.000000 0.000000 0.000000 0.030494 0.000000 -0.003098
# 5 0.015461 -0.006331 0.025163 0.000000 0.133809 0.000000
# 6 0.000000 0.000000 0.000000 -0.003098 0.000000 0.043187
#
#
# Mechanical properties :
#
#
# Convention : Reuss Voigt Hill
#
# Bulk Modulus (GPa) = 35.83557 55.49850 45.66704
# Shear Modulus (GPa) = 16.26888 23.00440 19.63664
#
# Velocity S-wave (km/s) = 3.10602 3.69343 3.41239
# Velocity P-wave (km/s) = 5.84066 7.14834 6.52733
#
# Compressibility (1/GPa) = 0.02790523
#
# Stress axis : x y z
#
# Youngs Moduli (GPa) = 47.73632 50.08823 54.61099
#
# Poissons Ratio (x) = 0.34291 0.02789
# Poissons Ratio (y) = 0.32681 0.45342
# Poissons Ratio (z) = 0.02438 0.41587
#
# Static dielectric constant tensor:
#      x y z
#    x 2.859280 0.000000 -0.055960 
#    y 0.000000 3.218670 0.000000 
#    z -0.055960 0.000000 3.271620 
# 
# 
# High freq. dielectric constant tensor:
#      x y z
#    x 1.610590 0.000000 -0.006230 
#    y 0.000000 1.656940 0.000000 
#    z -0.006230 0.000000 1.658240 
# 
# From -- ./inp_files/281312.got.cif
#   From: 2010.06.25/outbox.cif.g09.slc.cpg/sg12_141_cif.got.tgz:281312.got - 2010.06.28 00:19:55.
