data_PCOD8098529
_publ_section_title
;
Structure prediction by ZEFSAII (Michael W. Deem and Ramdas Pophale) SiO2 
 PCOD8098529
Probable space group: C 2/M
;
_chemical_formula_sum "Si O2"
_cell_formula_units_Z 56
_cell_length_a 26.836210
_cell_length_b 9.144027
_cell_length_c 21.455559
_cell_angle_alpha 90.000000
_cell_angle_beta 32.550181
_cell_angle_gamma 90.000000
_cell_volume 2832.771322
_symmetry_space_group_name_H-M "C 2/M"
_symmetry_group_IT_number 12
_symmetry_cell_setting 'monoclinic'
loop_
_space_group_symop_operation_xyz
x,y,z
-x,y,-z
-x,-y,-z
x,-y,z
1/2+x,1/2+y,z
1/2-x,1/2+y,-z
1/2-x,1/2-y,-z
1/2+x,1/2-y,z
loop_
_atom_site_type_symbol
_atom_site_label
_atom_site_fract_x
_atom_site_fract_y
_atom_site_fract_z
Si Si1 0.660641 0.668643 0.687818
Si Si2 0.231322 0.332372 0.848212
Si Si3 0.473050 0.328217 0.281381
Si Si4 0.401049 0.171189 0.124621
Si Si5 0.181190 0.827289 0.025282
Si Si6 0.632669 0.830222 0.504659
Si Si7 0.398710 0.331096 0.587941
O O1 0.638762 0.500000 0.723624
O O2 0.602001 0.723889 0.690491
O O3 0.627780 0.756716 0.781417
O O4 0.770001 0.695049 0.562046
O O5 0.213152 0.500000 0.888311
O O6 0.169853 0.287217 0.854421
O O7 0.336971 0.310177 0.715023
O O8 0.206744 0.223733 0.929391
O O9 0.466563 0.500000 0.300730
O O10 0.575691 0.282225 0.151652
O O11 0.449512 0.246893 0.370507
O O12 0.404342 0.000000 0.133657
O O13 0.500000 0.233275 0.000000
O O14 0.194774 0.000000 0.016088
O O15 0.250000 0.750000 0.000000
O O16 0.640365 0.763466 0.427675
O O17 0.608763 0.000000 0.523673
O O18 0.500000 0.276204 0.500000
O O19 0.398345 0.500000 0.566920
#
# Coordination Sequence:
#
# PCOD8098529 Si02
#       7
#     8   8   8   8   8   8   8
#     4  10  21  38  59  88 122 155 196 243 296 357
#     4  10  21  39  61  88 121 155 196 242 292 352
#     4  10  23  42  62  85 119 164 204 239 294 364
#     4  10  20  34  57  88 120 155 194 240 292 347
#     4  11  25  43  64  88 118 158 202 249 299 351
#     4  11  23  38  61  94 124 153 196 252 303 348
#     4  10  22  40  63  88 118 160 201 240 294 359
#
# _framework density 19.768628
#
# number of rings (size 3 to 8) (size 9 to 14) (size 15 to 20)
#    0.000    1.714    1.429    2.143    2.000    4.000 
#    0.000    0.000    0.000    0.000    0.000    0.000 
#    0.000    0.000    0.000    0.000    0.000    0.000 
#
# Total GULP energy -347313.380059 kJ/mol
# GULP energy per Si atom -12404.049288 kJ/mol
# Density = 1.972363 g / cm^3
# Si number density = 19.768628 Si / 1000 Ang^3
#
#
#
# Elastic Constant Matrix: (Units=GPa)
#
#
# Indices 1 2 3 4 5 6 
#
# 1 65.2238 40.7113 39.3840 0.0021 -7.6327 0.0023
# 2 40.7113 64.2837 44.0221 0.0041 5.8244 0.0002
# 3 39.3840 44.0221 120.5215 -0.0028 1.0104 0.0039
# 4 0.0021 0.0041 -0.0028 35.9824 0.0009 5.9905
# 5 -7.6327 5.8244 1.0104 0.0009 38.2196 -0.0016
# 6 0.0023 0.0002 0.0039 5.9905 -0.0016 36.3384
#
#
#
# Elastic Compliance Matrix: (Units=1/GPa)
#
#
# Indices 1 2 3 4 5 6 
#
# 1 0.028743 -0.016644 -0.003383 0.000000 0.008366 -0.000001
# 2 -0.016644 0.030724 -0.005718 -0.000003 -0.007855 0.000002
# 3 -0.003383 -0.005718 0.011492 0.000002 -0.000108 -0.000001
# 4 0.000000 -0.000003 0.000002 0.028576 0.000000 -0.004711
# 5 0.008366 -0.007855 -0.000108 0.000000 0.029035 0.000001
# 6 -0.000001 0.000002 -0.000001 -0.004711 0.000001 0.028296
#
#
# Mechanical properties :
#
#
# Convention : Reuss Voigt Hill
#
# Bulk Modulus (GPa) = 51.36332 55.36266 53.36299
# Shear Modulus (GPa) = 23.27265 30.50217 26.88741
#
# Velocity S-wave (km/s) = 3.43483 3.93231 3.69196
# Velocity P-wave (km/s) = 6.46293 6.97736 6.72506
#
# Compressibility (1/GPa) = 0.01946915
#
# Stress axis : x y z
#
# Youngs Moduli (GPa) = 34.79162 32.54789 87.01599
#
# Poissons Ratio (x) = 0.54173 0.29439
# Poissons Ratio (y) = 0.57907 0.49752
# Poissons Ratio (z) = 0.11771 0.18609
#
# Static dielectric constant tensor:
#      x y z
#    x 3.478230 -0.000100 -0.169340 
#    y -0.000100 5.583620 0.000160 
#    z -0.169340 0.000160 3.732330 
# 
# 
# High freq. dielectric constant tensor:
#      x y z
#    x 1.776940 0.000000 -0.005760 
#    y 0.000000 1.764170 0.000000 
#    z -0.005760 0.000000 1.784430 
# 
# From -- ./inp_files/238227.got.cif
#   From: 2010.06.25/outbox.cif.g09.slc.cpg/sg12_120_cif.got.tgz:238227.got - 2010.06.28 00:19:55.
