data_PCOD8098333
_publ_section_title
;
Structure prediction by ZEFSAII (Michael W. Deem and Ramdas Pophale) SiO2 
 PCOD8098333
Probable space group: C 2/M
;
_chemical_formula_sum "Si O2"
_cell_formula_units_Z 48
_cell_length_a 17.683352
_cell_length_b 12.966686
_cell_length_c 12.985235
_cell_angle_alpha 90.000000
_cell_angle_beta 65.927536
_cell_angle_gamma 90.000000
_cell_volume 2718.495361
_symmetry_space_group_name_H-M "C 2/M"
_symmetry_group_IT_number 12
_symmetry_cell_setting 'monoclinic'
loop_
_space_group_symop_operation_xyz
x,y,z
-x,y,-z
-x,-y,-z
x,-y,z
1/2+x,1/2+y,z
1/2-x,1/2+y,-z
1/2-x,1/2-y,-z
1/2+x,1/2-y,z
loop_
_atom_site_type_symbol
_atom_site_label
_atom_site_fract_x
_atom_site_fract_y
_atom_site_fract_z
Si Si1 0.347351 0.378713 0.238024
Si Si2 0.915911 0.882873 0.602672
Si Si3 0.302648 0.786676 0.564876
Si Si4 0.964445 0.382537 0.409210
Si Si5 0.414410 0.386598 0.991654
Si Si6 0.485936 0.296421 0.760175
O O1 0.359541 0.500000 0.240177
O O2 0.256113 0.347096 0.323766
O O3 0.419634 0.329970 0.268740
O O4 0.352510 0.344032 0.114637
O O5 0.843395 0.808600 0.603217
O O6 0.000000 0.850601 0.500000
O O7 0.937099 0.872798 0.711150
O O8 0.888898 0.000000 0.592948
O O9 0.250000 0.750000 0.500000
O O10 0.367120 0.863988 0.475584
O O11 0.982800 0.500000 0.369243
O O12 0.008708 0.316489 0.294510
O O13 0.000000 0.351365 0.500000
O O14 0.385701 0.500000 0.964632
O O15 0.428232 0.301076 0.894516
O O16 0.500000 0.405954 0.000000
#
# Coordination Sequence:
#
# PCOD8098333 Si02
#       6
#     8   8   8   8   8   8
#     4  10  20  34  56  85 112 140 175 218 267 316
#     4  11  21  34  54  79 107 139 179 222 266 315
#     4  12  21  36  51  80 113 140 171 216 271 323
#     4  11  22  37  54  75 106 142 181 217 261 323
#     4   8  16  30  54  84 107 134 175 221 263 307
#     4  11  17  36  58  79 105 137 182 225 265 305
#
# _framework density 17.656825999999999
#
# number of rings (size 3 to 8) (size 9 to 14) (size 15 to 20)
#    0.000    1.500    5.000    3.000    0.000    2.667 
#    0.000    0.833    0.000    5.500    0.000    0.000 
#    0.000    0.000    0.000    0.000    0.000    0.000 
#
# Total GULP energy -297416.342422 kJ/mol
# GULP energy per Si atom -12392.347601 kJ/mol
# Density = 1.761664 g / cm^3
# Si number density = 17.656826 Si / 1000 Ang^3
#
#
#
# Elastic Constant Matrix: (Units=GPa)
#
#
# Indices 1 2 3 4 5 6 
#
# 1 65.4242 23.8751 30.2865 0.0000 10.6119 0.0000
# 2 23.8751 101.5846 53.2477 0.0000 7.4754 0.0000
# 3 30.2865 53.2477 130.8840 0.0000 2.3501 0.0000
# 4 0.0000 0.0000 0.0000 30.6774 0.0000 -1.4100
# 5 10.6119 7.4754 2.3501 0.0000 23.9239 0.0000
# 6 0.0000 0.0000 0.0000 -1.4100 0.0000 25.4631
#
#
#
# Elastic Compliance Matrix: (Units=1/GPa)
#
#
# Indices 1 2 3 4 5 6 
#
# 1 0.018804 -0.002119 -0.003357 0.000000 -0.007349 0.000000
# 2 -0.002119 0.013036 -0.004765 0.000000 -0.002665 0.000000
# 3 -0.003357 -0.004765 0.010321 0.000000 0.001964 0.000000
# 4 0.000000 0.000000 0.000000 0.032680 0.000000 0.001810
# 5 -0.007349 -0.002665 0.001964 0.000000 0.045699 0.000000
# 6 0.000000 0.000000 0.000000 0.001810 0.000000 0.039373
#
#
# Mechanical properties :
#
#
# Convention : Reuss Voigt Hill
#
# Bulk Modulus (GPa) = 46.12985 56.96793 51.54889
# Shear Modulus (GPa) = 26.64933 28.71178 27.68056
#
# Velocity S-wave (km/s) = 3.88918 4.03687 3.96371
# Velocity P-wave (km/s) = 6.80809 7.35272 7.08564
#
# Compressibility (1/GPa) = 0.02167794
#
# Stress axis : x y z
#
# Youngs Moduli (GPa) = 53.17918 76.71098 96.89343
#
# Poissons Ratio (x) = 0.16254 0.32530
# Poissons Ratio (y) = 0.11268 0.46172
# Poissons Ratio (z) = 0.17854 0.36555
#
# Static dielectric constant tensor:
#      x y z
#    x 3.245430 0.000000 -0.144210 
#    y 0.000000 3.088660 0.000000 
#    z -0.144210 0.000000 4.668620 
# 
# 
# High freq. dielectric constant tensor:
#      x y z
#    x 1.667530 0.000000 0.005160 
#    y 0.000000 1.674640 0.000000 
#    z 0.005160 0.000000 1.686790 
# 
# From -- ./inp_files/154197.got.cif
#   From: 2010.06.25/outbox.cif.g09.slc.cpg/sg12_78_cif.got.tgz:154197.got - 2010.06.28 00:19:55.
