data_PCOD8098601
_publ_section_title
;
Structure prediction by ZEFSAII (Michael W. Deem and Ramdas Pophale) SiO2 
 PCOD8098601
Probable space group: C 2/M
;
_chemical_formula_sum "Si O2"
_cell_formula_units_Z 64
_cell_length_a 26.326207
_cell_length_b 14.332506
_cell_length_c 19.126419
_cell_angle_alpha 90.000000
_cell_angle_beta 154.299306
_cell_angle_gamma 90.000000
_cell_volume 3129.705467
_symmetry_space_group_name_H-M "C 2/M"
_symmetry_group_IT_number 12
_symmetry_cell_setting 'monoclinic'
loop_
_space_group_symop_operation_xyz
x,y,z
-x,y,-z
-x,-y,-z
x,-y,z
1/2+x,1/2+y,z
1/2-x,1/2+y,-z
1/2-x,1/2-y,-z
1/2+x,1/2-y,z
loop_
_atom_site_type_symbol
_atom_site_label
_atom_site_fract_x
_atom_site_fract_y
_atom_site_fract_z
Si Si1 0.408268 0.400417 0.825913
Si Si2 0.069973 0.105630 0.298996
Si Si3 0.527292 0.894793 0.749982
Si Si4 0.660310 0.105385 0.370643
Si Si5 0.526693 0.295614 0.687468
Si Si6 0.876717 0.703040 0.809497
Si Si7 0.265106 0.392883 0.123018
Si Si8 0.322931 0.390093 0.352249
O O1 0.336460 0.500000 0.729037
O O2 0.480277 0.383683 0.842222
O O3 0.329139 0.310485 0.747550
O O4 0.500000 0.415427 0.000000
O O5 0.205009 0.135349 0.456285
O O6 0.007081 0.172597 0.276005
O O7 0.057193 0.000000 0.311632
O O8 0.402954 0.881575 0.633784
O O9 0.531763 0.817574 0.693929
O O10 0.538238 0.000000 0.731931
O O11 0.630493 0.878107 0.934652
O O12 0.596976 0.170617 0.236162
O O13 0.647551 0.000000 0.328172
O O14 0.655778 0.332018 0.830568
O O15 0.438121 0.333793 0.518712
O O16 0.782063 0.635474 0.726257
O O17 0.000000 0.698241 0.000000
O O18 0.303390 0.500000 0.162741
O O19 0.285922 0.360090 0.228600
O O20 0.348824 0.500000 0.390368
#
# Coordination Sequence:
#
# PCOD8098601 Si02
#       8
#     8   8   8   8   8   8   8   8
#     4   9  20  37  53  76 116 158 196 235 280 343
#     4  10  20  34  58  88 117 149 190 240 291 344
#     4  10  23  40  59  86 118 159 200 241 293 352
#     4  10  20  35  55  84 120 150 184 233 291 352
#     4  12  22  37  64  90 120 154 198 249 295 350
#     4  11  21  33  55  84 116 156 193 232 288 353
#     4  10  22  42  64  87 119 154 197 249 304 356
#     4  11  23  38  59  91 123 152 192 245 304 359
#
# _framework density 20.449210000000001
#
# number of rings (size 3 to 8) (size 9 to 14) (size 15 to 20)
#    0.000    1.625    1.250    3.750    1.750    5.000 
#    0.000    0.000    0.000    2.250    0.000    0.000 
#    0.000    0.000    0.000    0.000    0.000    0.000 
#
# Total GULP energy -396674.502940 kJ/mol
# GULP energy per Si atom -12396.078217 kJ/mol
# Density = 2.040267 g / cm^3
# Si number density = 20.449210 Si / 1000 Ang^3
#
#
#
# Elastic Constant Matrix: (Units=GPa)
#
#
# Indices 1 2 3 4 5 6 
#
# 1 64.0419 33.7554 19.1991 0.0000 3.2376 0.0000
# 2 33.7554 119.2098 30.5891 0.0000 -8.5570 0.0000
# 3 19.1991 30.5891 51.0572 0.0000 -6.0864 0.0000
# 4 0.0000 0.0000 0.0000 19.2235 0.0000 4.1901
# 5 3.2376 -8.5570 -6.0864 0.0000 32.5421 0.0000
# 6 0.0000 0.0000 0.0000 4.1901 0.0000 23.2957
#
#
#
# Elastic Compliance Matrix: (Units=1/GPa)
#
#
# Indices 1 2 3 4 5 6 
#
# 1 0.019790 -0.004567 -0.005199 0.000000 -0.004142 0.000000
# 2 -0.004567 0.011041 -0.004600 0.000000 0.002497 0.000000
# 3 -0.005199 -0.004600 0.024767 0.000000 0.003940 0.000000
# 4 0.000000 0.000000 0.000000 0.054142 0.000000 -0.009738
# 5 -0.004142 0.002497 0.003940 0.000000 0.032535 0.000000
# 6 0.000000 0.000000 0.000000 -0.009738 0.000000 0.044678
#
#
# Mechanical properties :
#
#
# Convention : Reuss Voigt Hill
#
# Bulk Modulus (GPa) = 37.22258 44.59955 40.91107
# Shear Modulus (GPa) = 22.25774 25.06330 23.66052
#
# Velocity S-wave (km/s) = 3.30273 3.50471 3.40522
# Velocity P-wave (km/s) = 5.72591 6.18341 5.95905
#
# Compressibility (1/GPa) = 0.02686541
#
# Stress axis : x y z
#
# Youngs Moduli (GPa) = 50.53048 90.56848 40.37696
#
# Poissons Ratio (x) = 0.41362 0.20993
# Poissons Ratio (y) = 0.23077 0.18574
# Poissons Ratio (z) = 0.26272 0.41662
#
# Static dielectric constant tensor:
#      x y z
#    x 3.770430 0.000000 -0.138330 
#    y 0.000000 4.144980 0.000000 
#    z -0.138330 0.000000 3.705250 
# 
# 
# High freq. dielectric constant tensor:
#      x y z
#    x 1.780110 0.000000 -0.013190 
#    y 0.000000 1.816810 0.000000 
#    z -0.013190 0.000000 1.791110 
# 
# From -- ./inp_files/290122.got.cif
#   From: 2010.06.25/outbox.cif.g09.slc.cpg/sg12_146_cif.got.tgz:290122.got - 2010.06.28 00:19:55.
