data_PCOD8098208
_publ_section_title
;
Structure prediction by ZEFSAII (Michael W. Deem and Ramdas Pophale) SiO2 
 PCOD8098208
Probable space group: C 2/M
;
_chemical_formula_sum "Si O2"
_cell_formula_units_Z 36
_cell_length_a 22.191807
_cell_length_b 10.556748
_cell_length_c 8.163509
_cell_angle_alpha 90.000000
_cell_angle_beta 100.436179
_cell_angle_gamma 90.000000
_cell_volume 1880.854498
_symmetry_space_group_name_H-M "C 2/M"
_symmetry_group_IT_number 12
_symmetry_cell_setting 'monoclinic'
loop_
_space_group_symop_operation_xyz
x,y,z
-x,y,-z
-x,-y,-z
x,-y,z
1/2+x,1/2+y,z
1/2-x,1/2+y,-z
1/2-x,1/2-y,-z
1/2+x,1/2-y,z
loop_
_atom_site_type_symbol
_atom_site_label
_atom_site_fract_x
_atom_site_fract_y
_atom_site_fract_z
Si Si1 0.865641 0.139044 0.924984
Si Si2 0.528476 0.144508 0.677737
Si Si3 0.661257 0.141863 0.843074
Si Si4 0.734892 0.359095 0.366686
Si Si5 0.500000 0.721251 0.000000
O O1 0.835177 0.154312 0.730130
O O2 0.939104 0.138001 0.950200
O O3 0.846805 0.000000 0.987063
O O4 0.838322 0.252498 0.017623
O O5 0.500000 0.210676 0.500000
O O6 0.601608 0.161364 0.699918
O O7 0.507255 0.000000 0.668252
O O8 0.503594 0.197717 0.836417
O O9 0.721698 0.159520 0.767696
O O10 0.659108 0.000000 0.920465
O O11 0.745075 0.500000 0.448791
O O12 0.750000 0.250000 0.500000
#
# Coordination Sequence:
#
# PCOD8098208 Si02
#       5
#     8   8   8   8   4
#     4  10  21  37  57  80 112 147 183 227 276 332
#     4   9  18  32  53  81 113 146 186 235 278 329
#     4   9  19  36  56  80 107 140 187 231 278 328
#     4  10  22  37  55  82 112 144 183 229 277 332
#     4  10  20  34  56  80 113 152 189 222 283 332
#
# _framework density 19.140236999999999
#
# number of rings (size 3 to 8) (size 9 to 14) (size 15 to 20)
#    0.000    2.444    0.000    1.333    3.111    2.667 
#    0.000    0.000    0.000    3.333    0.000    0.000 
#    0.000    0.000    0.000    0.000    0.000    0.000 
#
# Total GULP energy -223060.405363 kJ/mol
# GULP energy per Si atom -12392.244742 kJ/mol
# Density = 1.909667 g / cm^3
# Si number density = 19.140237 Si / 1000 Ang^3
#
#
#
# Elastic Constant Matrix: (Units=GPa)
#
#
# Indices 1 2 3 4 5 6 
#
# 1 75.6018 41.3598 38.0508 0.0000 10.3054 0.0000
# 2 41.3598 148.7793 73.4437 0.0000 7.8555 0.0000
# 3 38.0508 73.4437 123.6917 0.0000 10.7615 0.0000
# 4 0.0000 0.0000 0.0000 32.3592 0.0000 0.5628
# 5 10.3054 7.8555 10.7615 0.0000 25.3492 0.0000
# 6 0.0000 0.0000 0.0000 0.5628 0.0000 23.9065
#
#
#
# Elastic Compliance Matrix: (Units=1/GPa)
#
#
# Indices 1 2 3 4 5 6 
#
# 1 0.017039 -0.002975 -0.003066 0.000000 -0.004703 0.000000
# 2 -0.002975 0.010036 -0.005065 0.000000 0.000250 0.000000
# 3 -0.003066 -0.005065 0.012243 0.000000 -0.002381 0.000000
# 4 0.000000 0.000000 0.000000 0.030916 0.000000 -0.000728
# 5 -0.004703 0.000250 -0.002381 0.000000 0.042295 0.000000
# 6 0.000000 0.000000 0.000000 -0.000728 0.000000 0.041847
#
#
# Mechanical properties :
#
#
# Convention : Reuss Voigt Hill
#
# Bulk Modulus (GPa) = 58.46372 72.64240 65.55306
# Shear Modulus (GPa) = 27.42905 29.33756 28.38330
#
# Velocity S-wave (km/s) = 3.78968 3.91931 3.85504
# Velocity P-wave (km/s) = 7.05409 7.64960 7.35787
#
# Compressibility (1/GPa) = 0.01710463
#
# Stress axis : x y z
#
# Youngs Moduli (GPa) = 58.68899 99.64461 81.68173
#
# Poissons Ratio (x) = 0.29643 0.25044
# Poissons Ratio (y) = 0.17459 0.41375
# Poissons Ratio (z) = 0.17994 0.50474
#
# Static dielectric constant tensor:
#      x y z
#    x 3.645680 0.000000 0.291470 
#    y 0.000000 3.610810 0.000000 
#    z 0.291470 0.000000 3.476500 
# 
# 
# High freq. dielectric constant tensor:
#      x y z
#    x 1.750990 0.000000 0.024760 
#    y 0.000000 1.747540 0.000000 
#    z 0.024760 0.000000 1.728590 
# 
# From -- ./inp_files/92367.got.cif
#   From: 2010.06.25/outbox.cif.g09.slc.cpg/sg12_47_cif.got.tgz:92367.got - 2010.06.28 00:19:55.
