data_PCOD8098614
_publ_section_title
;
Structure prediction by ZEFSAII (Michael W. Deem and Ramdas Pophale) SiO2 
 PCOD8098614
Probable space group: C 2/M
;
_chemical_formula_sum "Si O2"
_cell_formula_units_Z 56
_cell_length_a 19.412166
_cell_length_b 8.999871
_cell_length_c 27.641763
_cell_angle_alpha 90.000000
_cell_angle_beta 142.312149
_cell_angle_gamma 90.000000
_cell_volume 2952.381745
_symmetry_space_group_name_H-M "C 2/M"
_symmetry_group_IT_number 12
_symmetry_cell_setting 'monoclinic'
loop_
_space_group_symop_operation_xyz
x,y,z
-x,y,-z
-x,-y,-z
x,-y,z
1/2+x,1/2+y,z
1/2-x,1/2+y,-z
1/2-x,1/2-y,-z
1/2+x,1/2-y,z
loop_
_atom_site_type_symbol
_atom_site_label
_atom_site_fract_x
_atom_site_fract_y
_atom_site_fract_z
Si Si1 0.579496 0.673056 0.133598
Si Si2 0.138833 0.666159 0.451128
Si Si3 0.878573 0.331448 0.445021
Si Si4 0.713524 0.824523 0.125343
Si Si5 0.816460 0.825948 0.993071
Si Si6 0.080158 0.168448 0.693009
Si Si7 0.249090 0.671864 0.295925
O O1 0.608121 0.500000 0.143128
O O2 0.613965 0.755364 0.102960
O O3 0.449235 0.699825 0.072947
O O4 0.644858 0.738428 0.215918
O O5 0.149345 0.500000 0.437877
O O6 0.250000 0.750000 0.500000
O O7 0.131103 0.675884 0.503726
O O8 0.029877 0.731576 0.363907
O O9 0.869066 0.500000 0.419979
O O10 0.779312 0.234640 0.365594
O O11 0.000000 0.262533 0.500000
O O12 0.833619 0.790566 0.216486
O O13 0.690634 0.000000 0.108405
O O14 0.720994 0.749765 0.077481
O O15 0.786570 0.000000 0.975087
O O16 0.750000 0.750000 0.000000
O O17 0.140851 0.195693 0.675699
O O18 0.039340 0.000000 0.675114
O O19 0.214133 0.500000 0.279681
#
# Coordination Sequence:
#
# PCOD8098614 Si02
#       7
#     8   8   8   8   8   8   8
#     4  10  21  38  61  88 119 153 193 239 286 342
#     4  11  23  38  57  81 113 153 193 236 286 340
#     4  10  20  36  58  84 113 149 192 236 286 340
#     4  10  21  38  63  92 118 151 192 239 289 342
#     4  11  24  41  61  87 119 157 194 236 290 346
#     4   9  19  36  57  84 116 148 187 234 285 337
#     4  10  20  34  58  90 117 147 189 241 291 335
#
# _framework density 18.967737
#
# number of rings (size 3 to 8) (size 9 to 14) (size 15 to 20)
#    0.000    1.857    1.429    3.429    0.000    8.286 
#    2.571    0.000    0.000    0.000    0.000    0.000 
#    0.000    0.000    0.000    0.000    0.000    0.000 
#
# Total GULP energy -347257.345272 kJ/mol
# GULP energy per Si atom -12402.048045 kJ/mol
# Density = 1.892457 g / cm^3
# Si number density = 18.967737 Si / 1000 Ang^3
#
#
#
# Elastic Constant Matrix: (Units=GPa)
#
#
# Indices 1 2 3 4 5 6 
#
# 1 88.1069 64.4696 50.5114 0.0000 10.6910 -0.0001
# 2 64.4696 146.1346 76.8028 0.0001 11.3686 -0.0001
# 3 50.5114 76.8028 114.0415 0.0000 3.4903 0.0000
# 4 0.0000 0.0001 0.0000 37.9262 0.0000 -0.6658
# 5 10.6910 11.3686 3.4903 0.0000 26.7239 0.0000
# 6 -0.0001 -0.0001 0.0000 -0.6658 0.0000 33.9936
#
#
#
# Elastic Compliance Matrix: (Units=1/GPa)
#
#
# Indices 1 2 3 4 5 6 
#
# 1 0.018382 -0.005504 -0.004299 0.000000 -0.004451 0.000000
# 2 -0.005504 0.012594 -0.005971 0.000000 -0.002376 0.000000
# 3 -0.004299 -0.005971 0.014622 0.000000 0.002350 0.000000
# 4 0.000000 0.000000 0.000000 0.026376 0.000000 0.000517
# 5 -0.004451 -0.002376 0.002350 0.000000 0.039904 0.000000
# 6 0.000000 0.000000 0.000000 0.000517 0.000000 0.029427
#
#
# Mechanical properties :
#
#
# Convention : Reuss Voigt Hill
#
# Bulk Modulus (GPa) = 71.17241 81.31673 76.24457
# Shear Modulus (GPa) = 28.16315 30.16201 29.16258
#
# Velocity S-wave (km/s) = 3.85748 3.99203 3.92533
# Velocity P-wave (km/s) = 7.57922 8.01327 7.79926
#
# Compressibility (1/GPa) = 0.01405039
#
# Stress axis : x y z
#
# Youngs Moduli (GPa) = 54.40206 79.40152 68.38888
#
# Poissons Ratio (x) = 0.43701 0.29399
# Poissons Ratio (y) = 0.29942 0.40837
# Poissons Ratio (z) = 0.23386 0.47413
#
# Static dielectric constant tensor:
#      x y z
#    x 2.969860 0.000000 -0.055270 
#    y 0.000000 3.706990 0.000000 
#    z -0.055270 0.000000 3.501410 
# 
# 
# High freq. dielectric constant tensor:
#      x y z
#    x 1.720240 0.000000 -0.002030 
#    y 0.000000 1.750720 0.000000 
#    z -0.002030 0.000000 1.748860 
# 
# From -- ./inp_files/363102.got.cif
#   From: 2010.06.25/outbox.cif.g09.slc.cpg/sg12_182_cif.got.tgz:363102.got - 2010.06.28 00:19:55.
