data_PCOD8098684
_publ_section_title
;
Structure prediction by ZEFSAII (Michael W. Deem and Ramdas Pophale) SiO2 
 PCOD8098684
Probable space group: C 2/M
;
_chemical_formula_sum "Si O2"
_cell_formula_units_Z 40
_cell_length_a 21.236276
_cell_length_b 23.939067
_cell_length_c 8.859157
_cell_angle_alpha 90.000000
_cell_angle_beta 154.357620
_cell_angle_gamma 90.000000
_cell_volume 1949.026550
_symmetry_space_group_name_H-M "C 2/M"
_symmetry_group_IT_number 12
_symmetry_cell_setting 'monoclinic'
loop_
_space_group_symop_operation_xyz
x,y,z
-x,y,-z
-x,-y,-z
x,-y,z
1/2+x,1/2+y,z
1/2-x,1/2+y,-z
1/2-x,1/2-y,-z
1/2+x,1/2-y,z
loop_
_atom_site_type_symbol
_atom_site_label
_atom_site_fract_x
_atom_site_fract_y
_atom_site_fract_z
Si Si1 0.826382 0.500000 0.635310
Si Si2 0.945178 0.290660 0.719582
Si Si3 0.902101 0.000000 0.636352
Si Si4 0.457784 0.389554 0.581154
Si Si5 0.750882 0.814498 0.282340
Si Si6 0.768042 0.123391 0.640093
O O1 0.768483 0.500000 0.682866
O O2 0.759268 0.556507 0.417401
O O3 0.000000 0.500000 0.000000
O O4 0.833926 0.243172 0.430783
O O5 0.866961 0.350531 0.561708
O O6 0.000000 0.270369 0.000000
O O7 0.080299 0.299703 0.897316
O O8 0.933765 0.050716 0.598248
O O9 0.000000 0.000000 0.000000
O O10 0.500000 0.394835 0.500000
O O11 0.308211 0.354459 0.272852
O O12 0.585414 0.360528 0.954323
O O13 0.781305 0.847345 0.505134
#
# Coordination Sequence:
#
# PCOD8098684 Si02
#       6
#     4   8   4   8   8   8
#     4  12  22  36  66  98 120 142 192 250 304 350
#     4  10  20  34  62  93 118 152 204 258 299 347
#     4  12  21  42  67  91 117 157 197 246 295 349
#     4  12  24  39  60  89 123 161 200 242 291 356
#     4  11  20  38  61  89 118 157 203 252 302 349
#     4  11  21  38  61  89 122 155 198 249 302 349
#
# _framework density 20.523066
#
# number of rings (size 3 to 8) (size 9 to 14) (size 15 to 20)
#    0.000    0.800    4.000    7.500    0.000    0.000 
#    0.000    5.000    0.000    1.200    0.000    0.000 
#    0.000    0.000    0.000    0.000    0.000    0.000 
#
# Total GULP energy -247872.293999 kJ/mol
# GULP energy per Si atom -12393.614700 kJ/mol
# Density = 2.047635 g / cm^3
# Si number density = 20.523066 Si / 1000 Ang^3
#
#
#
# Elastic Constant Matrix: (Units=GPa)
#
#
# Indices 1 2 3 4 5 6 
#
# 1 163.0112 69.9045 59.1103 0.0000 38.0774 0.0000
# 2 69.9045 151.6516 31.1235 0.0000 18.8032 0.0000
# 3 59.1103 31.1235 62.2833 0.0000 35.5671 0.0000
# 4 0.0000 0.0000 0.0000 26.4197 0.0000 9.3131
# 5 38.0774 18.8032 35.5671 0.0000 37.6591 0.0000
# 6 0.0000 0.0000 0.0000 9.3131 0.0000 55.7420
#
#
#
# Elastic Compliance Matrix: (Units=1/GPa)
#
#
# Indices 1 2 3 4 5 6 
#
# 1 0.010637 -0.003136 -0.007121 0.000000 -0.002464 0.000000
# 2 -0.003136 0.008276 -0.001324 0.000000 0.000290 0.000000
# 3 -0.007121 -0.001324 0.041215 0.000000 -0.031064 0.000000
# 4 0.000000 0.000000 0.000000 0.040219 0.000000 -0.006720
# 5 -0.002464 0.000290 -0.031064 0.000000 0.058239 0.000000
# 6 0.000000 0.000000 0.000000 -0.006720 0.000000 0.019062
#
#
# Mechanical properties :
#
#
# Convention : Reuss Voigt Hill
#
# Bulk Modulus (GPa) = 27.05311 77.46918 52.26115
# Shear Modulus (GPa) = 23.45942 38.41801 30.93872
#
# Velocity S-wave (km/s) = 3.38461 4.33129 3.88688
# Velocity P-wave (km/s) = 5.33709 7.92734 6.75749
#
# Compressibility (1/GPa) = 0.03696432
#
# Stress axis : x y z
#
# Youngs Moduli (GPa) = 94.00918 120.83674 24.26295
#
# Poissons Ratio (x) = 0.37899 0.17278
# Poissons Ratio (y) = 0.29484 0.03214
# Poissons Ratio (z) = 0.66944 0.16005
#
# Static dielectric constant tensor:
#      x y z
#    x 3.820990 0.000000 0.533560 
#    y 0.000000 3.915410 0.000000 
#    z 0.533560 0.000000 3.770640 
# 
# 
# High freq. dielectric constant tensor:
#      x y z
#    x 1.790570 0.000000 0.046660 
#    y 0.000000 1.827020 0.000000 
#    z 0.046660 0.000000 1.777960 
# 
# From -- ./inp_files/90772.got.cif
#   From: 2010.06.25/outbox.cif.g09.slc.cpg/sg12_46_cif.got.tgz:90772.got - 2010.06.28 00:19:55.
