data_PCOD8098679
_publ_section_title
;
Structure prediction by ZEFSAII (Michael W. Deem and Ramdas Pophale) SiO2 
 PCOD8098679
Probable space group: C 2/M
;
_chemical_formula_sum "Si O2"
_cell_formula_units_Z 64
_cell_length_a 16.242957
_cell_length_b 25.850056
_cell_length_c 9.586165
_cell_angle_alpha 90.000000
_cell_angle_beta 133.565023
_cell_angle_gamma 90.000000
_cell_volume 2916.523269
_symmetry_space_group_name_H-M "C 2/M"
_symmetry_group_IT_number 12
_symmetry_cell_setting 'monoclinic'
loop_
_space_group_symop_operation_xyz
x,y,z
-x,y,-z
-x,-y,-z
x,-y,z
1/2+x,1/2+y,z
1/2-x,1/2+y,-z
1/2-x,1/2-y,-z
1/2+x,1/2-y,z
loop_
_atom_site_type_symbol
_atom_site_label
_atom_site_fract_x
_atom_site_fract_y
_atom_site_fract_z
Si Si1 0.501974 0.286300 0.664975
Si Si2 0.577525 0.857904 0.201914
Si Si3 0.051575 0.668972 0.702192
Si Si4 0.189433 0.161845 0.387569
Si Si5 0.597562 0.556825 0.367756
Si Si6 0.709295 0.942628 0.190588
Si Si7 0.695925 0.336615 0.080083
Si Si8 0.662840 0.558576 0.934434
O O1 0.500000 0.303360 0.500000
O O2 0.499933 0.224880 0.677481
O O3 0.386595 0.304583 0.599959
O O4 0.605180 0.311746 0.870129
O O5 0.490028 0.870854 0.226266
O O6 0.686634 0.831270 0.398297
O O7 0.615489 0.907695 0.156654
O O8 0.500000 0.824476 0.000000
O O9 0.184959 0.677275 0.849697
O O10 0.000000 0.646234 0.500000
O O11 0.143348 0.102739 0.321939
O O12 0.188219 0.184943 0.229145
O O13 0.610635 0.500000 0.308697
O O14 0.670622 0.558481 0.591946
O O15 0.467955 0.564850 0.265314
O O16 0.746461 0.925568 0.079064
O O17 0.656999 0.000000 0.128000
O O18 0.683402 0.398985 0.078501
O O19 0.686016 0.500000 0.014737
#
# Coordination Sequence:
#
# PCOD8098679 Si02
#       8
#     8   8   8   8   8   8   8   8
#     4  11  27  44  70 100 126 170 222 279 337 391
#     4  11  24  41  68  97 126 178 222 273 322 387
#     4  11  25  50  66  93 130 175 223 274 334 392
#     4  11  24  42  66  98 136 169 214 277 331 394
#     4   9  18  33  59  93 134 172 210 260 326 392
#     4   9  19  36  60  95 132 172 223 273 319 378
#     4  12  24  44  70  95 138 175 213 270 334 392
#     4  10  20  34  61  99 138 174 212 260 326 396
#
# _framework density 21.943935
#
# number of rings (size 3 to 8) (size 9 to 14) (size 15 to 20)
#    0.000    1.500    2.500    1.875    5.250    3.750 
#    0.000    1.875    0.000    0.750    0.000    0.000 
#    0.000    0.000    0.000    0.000    0.000    0.000 
#
# Total GULP energy -396494.484330 kJ/mol
# GULP energy per Si atom -12390.452635 kJ/mol
# Density = 2.189399 g / cm^3
# Si number density = 21.943935 Si / 1000 Ang^3
#
#
#
# Elastic Constant Matrix: (Units=GPa)
#
#
# Indices 1 2 3 4 5 6 
#
# 1 156.2038 25.9565 64.8003 0.0000 -1.5377 0.0000
# 2 25.9565 55.5475 19.4666 0.0000 -3.1274 0.0000
# 3 64.8003 19.4666 132.0245 0.0000 -11.1978 0.0000
# 4 0.0000 0.0000 0.0000 11.3591 0.0000 -4.6448
# 5 -1.5377 -3.1274 -11.1978 0.0000 31.1835 0.0000
# 6 0.0000 0.0000 0.0000 -4.6448 0.0000 22.5364
#
#
#
# Elastic Compliance Matrix: (Units=1/GPa)
#
#
# Indices 1 2 3 4 5 6 
#
# 1 0.008429 -0.002659 -0.003849 0.000000 -0.001233 0.000000
# 2 -0.002659 0.019848 -0.001510 0.000000 0.001317 0.000000
# 3 -0.003849 -0.001510 0.009961 0.000000 0.003236 0.000000
# 4 0.000000 0.000000 0.000000 0.096137 0.000000 0.019814
# 5 -0.001233 0.001317 0.003236 0.000000 0.033301 0.000000
# 6 0.000000 0.000000 0.000000 0.019814 0.000000 0.048456
#
#
# Mechanical properties :
#
#
# Convention : Reuss Voigt Hill
#
# Bulk Modulus (GPa) = 45.04233 62.69141 53.86687
# Shear Modulus (GPa) = 20.87080 28.58596 24.72838
#
# Velocity S-wave (km/s) = 3.08733 3.61318 3.36056
# Velocity P-wave (km/s) = 5.76884 6.78511 6.29751
#
# Compressibility (1/GPa) = 0.02220134
#
# Stress axis : x y z
#
# Youngs Moduli (GPa) = 118.64498 50.38197 100.39371
#
# Poissons Ratio (x) = 0.13396 0.38646
# Poissons Ratio (y) = 0.31547 0.15157
# Poissons Ratio (z) = 0.45672 0.07607
#
# Static dielectric constant tensor:
#      x y z
#    x 4.088870 0.000000 0.117480 
#    y 0.000000 4.009630 0.000000 
#    z 0.117480 0.000000 4.009160 
# 
# 
# High freq. dielectric constant tensor:
#      x y z
#    x 1.875260 0.000000 0.008280 
#    y 0.000000 1.847350 0.000000 
#    z 0.008280 0.000000 1.864630 
# 
# From -- ./inp_files/68647.got.cif
#   From: 2010.06.25/outbox.cif.g09.slc.cpg/sg12_35_cif.got.tgz:68647.got - 2010.06.28 00:19:55.
