data_PCOD8098992
_publ_section_title
;
Structure prediction by ZEFSAII (Michael W. Deem and Ramdas Pophale) SiO2 
 PCOD8098992
Probable space group: C 2/M
;
_chemical_formula_sum "Si O2"
_cell_formula_units_Z 56
_cell_length_a 21.775452
_cell_length_b 9.686199
_cell_length_c 14.937075
_cell_angle_alpha 90.000000
_cell_angle_beta 114.113112
_cell_angle_gamma 90.000000
_cell_volume 2875.633589
_symmetry_space_group_name_H-M "C 2/M"
_symmetry_group_IT_number 12
_symmetry_cell_setting 'monoclinic'
loop_
_space_group_symop_operation_xyz
x,y,z
-x,y,-z
-x,-y,-z
x,-y,z
1/2+x,1/2+y,z
1/2-x,1/2+y,-z
1/2-x,1/2-y,-z
1/2+x,1/2-y,z
loop_
_atom_site_type_symbol
_atom_site_label
_atom_site_fract_x
_atom_site_fract_y
_atom_site_fract_z
Si Si1 0.138060 0.343778 0.440227
Si Si2 0.900606 0.344301 0.268602
Si Si3 0.327466 0.156043 0.743358
Si Si4 0.181183 0.337397 0.957564
Si Si5 0.424296 0.838032 0.954163
Si Si6 0.288992 0.152627 0.342018
Si Si7 0.014150 0.160076 0.404639
O O1 0.108735 0.500000 0.434776
O O2 0.162311 0.320687 0.354681
O O3 0.200112 0.321853 0.545528
O O4 0.085782 0.224683 0.428449
O O5 0.929472 0.500000 0.275438
O O6 0.852273 0.308570 0.157840
O O7 0.860550 0.328811 0.337194
O O8 0.961432 0.236985 0.308896
O O9 0.393296 0.199751 0.838685
O O10 0.263592 0.244735 0.734818
O O11 0.308706 0.000000 0.756251
O O12 0.197909 0.500000 0.981149
O O13 0.250000 0.250000 0.000000
O O14 0.127329 0.283570 0.000092
O O15 0.432123 0.000000 0.974349
O O16 0.500000 0.772034 0.000000
O O17 0.260095 0.000000 0.307829
O O18 0.000000 0.182776 0.500000
O O19 0.014334 0.000000 0.378203
#
# Coordination Sequence:
#
# PCOD8098992 Si02
#       7
#     8   8   8   8   8   8   8
#     4  10  21  36  56  81 110 149 189 223 271 338
#     4  10  21  36  58  84 111 151 192 226 280 344
#     4  10  21  35  57  83 108 146 190 230 275 327
#     4  10  21  37  61  88 115 152 194 243 292 340
#     4   9  19  36  57  84 114 146 193 244 283 329
#     4  10  20  35  54  80 114 146 180 227 279 334
#     4  11  23  37  55  83 114 146 183 233 287 332
#
# _framework density 19.473970999999999
#
# number of rings (size 3 to 8) (size 9 to 14) (size 15 to 20)
#    0.000    2.000    1.429    1.714    2.000    2.857 
#    0.000    0.000    0.000    0.857    0.000    0.000 
#    0.000    0.000    0.000    0.000    0.000    0.000 
#
# Total GULP energy -347138.644048 kJ/mol
# GULP energy per Si atom -12397.808716 kJ/mol
# Density = 1.942965 g / cm^3
# Si number density = 19.473971 Si / 1000 Ang^3
#
#
#
# Elastic Constant Matrix: (Units=GPa)
#
#
# Indices 1 2 3 4 5 6 
#
# 1 92.2553 46.8615 33.0203 0.0000 16.2893 0.0000
# 2 46.8615 94.0064 37.9273 0.0000 23.1207 0.0000
# 3 33.0203 37.9273 95.2358 0.0000 6.3184 0.0000
# 4 0.0000 0.0000 0.0000 28.6876 0.0000 13.0110
# 5 16.2893 23.1207 6.3184 0.0000 33.5531 0.0000
# 6 0.0000 0.0000 0.0000 13.0110 0.0000 35.3231
#
#
#
# Elastic Compliance Matrix: (Units=1/GPa)
#
#
# Indices 1 2 3 4 5 6 
#
# 1 0.015292 -0.005772 -0.002810 0.000000 -0.002918 0.000000
# 2 -0.005772 0.017310 -0.004341 0.000000 -0.008308 0.000000
# 3 -0.002810 -0.004341 0.013078 0.000000 0.001893 0.000000
# 4 0.000000 0.000000 0.000000 0.041850 0.000000 -0.015415
# 5 -0.002918 -0.008308 0.001893 0.000000 0.036588 0.000000
# 6 0.000000 0.000000 0.000000 -0.015415 0.000000 0.033988
#
#
# Mechanical properties :
#
#
# Convention : Reuss Voigt Hill
#
# Bulk Modulus (GPa) = 50.41875 57.45730 53.93803
# Shear Modulus (GPa) = 26.23808 30.42531 28.33170
#
# Velocity S-wave (km/s) = 3.67460 3.95696 3.81839
# Velocity P-wave (km/s) = 6.62949 7.10249 6.87006
#
# Compressibility (1/GPa) = 0.01983389
#
# Stress axis : x y z
#
# Youngs Moduli (GPa) = 65.39272 57.77168 76.46560
#
# Poissons Ratio (x) = 0.33344 0.21487
# Poissons Ratio (y) = 0.37743 0.33194
# Poissons Ratio (z) = 0.18375 0.25079
#
# Static dielectric constant tensor:
#      x y z
#    x 3.206630 0.000000 0.196750 
#    y 0.000000 3.459370 0.000000 
#    z 0.196750 0.000000 3.409760 
# 
# 
# High freq. dielectric constant tensor:
#      x y z
#    x 1.751950 0.000000 -0.001260 
#    y 0.000000 1.739160 0.000000 
#    z -0.001260 0.000000 1.772270 
# 
# From -- ./inp_files/238940.got.cif
#   From: 2010.06.25/outbox.cif.g09.slc.cpg/sg12_120_cif.got.tgz:238940.got - 2010.06.28 00:19:55.
