data_PCOD8098852
_publ_section_title
;
Structure prediction by ZEFSAII (Michael W. Deem and Ramdas Pophale) SiO2 
 PCOD8098852
Probable space group: C 2/M
;
_chemical_formula_sum "Si O2"
_cell_formula_units_Z 56
_cell_length_a 23.165571
_cell_length_b 8.736878
_cell_length_c 14.971524
_cell_angle_alpha 90.000000
_cell_angle_beta 89.396549
_cell_angle_gamma 90.000000
_cell_volume 3029.990059
_symmetry_space_group_name_H-M "C 2/M"
_symmetry_group_IT_number 12
_symmetry_cell_setting 'monoclinic'
loop_
_space_group_symop_operation_xyz
x,y,z
-x,y,-z
-x,-y,-z
x,-y,z
1/2+x,1/2+y,z
1/2-x,1/2+y,-z
1/2-x,1/2-y,-z
1/2+x,1/2-y,z
loop_
_atom_site_type_symbol
_atom_site_label
_atom_site_fract_x
_atom_site_fract_y
_atom_site_fract_z
Si Si1 0.954612 0.822042 0.687425
Si Si2 0.577937 0.178390 0.664290
Si Si3 0.721893 0.323729 0.365252
Si Si4 0.239321 0.325163 0.094150
Si Si5 0.619768 0.677376 0.485420
Si Si6 0.315895 0.679758 0.258001
Si Si7 0.356596 0.823334 0.776092
O O1 0.923912 0.783183 0.594212
O O2 0.923536 0.727841 0.769075
O O3 0.020288 0.772230 0.681647
O O4 0.951064 0.000000 0.710253
O O5 0.603516 0.213596 0.566673
O O6 0.623720 0.231092 0.738552
O O7 0.565029 0.000000 0.673631
O O8 0.741304 0.500000 0.361242
O O9 0.686788 0.287879 0.457340
O O10 0.778092 0.218570 0.347757
O O11 0.675999 0.292424 0.288365
O O12 0.254901 0.500000 0.081025
O O13 0.281953 0.260922 0.170722
O O14 0.172298 0.302583 0.125380
O O15 0.250000 0.250000 0.000000
O O16 0.612738 0.500000 0.513671
O O17 0.327454 0.500000 0.256704
O O18 0.348614 0.000000 0.745670
#
# Coordination Sequence:
#
# PCOD8098852 Si02
#       7
#     8   8   8   8   8   8   8
#     4  10  20  35  54  74 100 138 179 217 256 297
#     4  12  24  34  49  73 101 138 178 217 260 302
#     4   9  17  31  51  74 100 133 172 213 258 303
#     4   9  19  34  57  85 108 131 159 199 250 304
#     4   9  19  34  51  72 100 135 176 219 259 299
#     4  10  21  37  53  73 104 138 170 207 256 310
#     4   9  17  31  51  78 107 134 167 206 250 298
#
# _framework density 18.481909000000002
#
# number of rings (size 3 to 8) (size 9 to 14) (size 15 to 20)
#    0.000    2.286    0.000    5.143    0.000    9.143 
#    0.000    0.000    0.000    0.857    0.000    6.000 
#    0.000    0.000    0.000    0.000    0.000    0.000 
#
# Total GULP energy -347065.610258 kJ/mol
# GULP energy per Si atom -12395.200366 kJ/mol
# Density = 1.843984 g / cm^3
# Si number density = 18.481909 Si / 1000 Ang^3
#
#
#
# Elastic Constant Matrix: (Units=GPa)
#
#
# Indices 1 2 3 4 5 6 
#
# 1 54.6135 9.8775 28.7759 0.0000 2.0394 0.0000
# 2 9.8775 60.6250 30.2938 0.0000 -3.5915 0.0000
# 3 28.7759 30.2938 83.9340 0.0000 -11.4317 0.0000
# 4 0.0000 0.0000 0.0000 28.3291 0.0000 -5.4387
# 5 2.0394 -3.5915 -11.4317 0.0000 18.6314 0.0000
# 6 0.0000 0.0000 0.0000 -5.4387 0.0000 34.4062
#
#
#
# Elastic Compliance Matrix: (Units=1/GPa)
#
#
# Indices 1 2 3 4 5 6 
#
# 1 0.023442 0.000328 -0.009271 0.000000 -0.008191 0.000000
# 2 0.000328 0.020136 -0.007481 0.000000 -0.000745 0.000000
# 3 -0.009271 -0.007481 0.019352 0.000000 0.011446 0.000000
# 4 0.000000 0.000000 0.000000 0.036404 0.000000 0.005755
# 5 -0.008191 -0.000745 0.011446 0.000000 0.061449 0.000000
# 6 0.000000 0.000000 0.000000 0.005755 0.000000 0.029974
#
#
# Mechanical properties :
#
#
# Convention : Reuss Voigt Hill
#
# Bulk Modulus (GPa) = 33.24369 37.45186 35.34778
# Shear Modulus (GPa) = 21.40123 24.95503 23.17813
#
# Velocity S-wave (km/s) = 3.40657 3.67855 3.54517
# Velocity P-wave (km/s) = 5.78784 6.19277 5.99373
#
# Compressibility (1/GPa) = 0.03008090
#
# Stress axis : x y z
#
# Youngs Moduli (GPa) = 42.65883 49.66322 51.67518
#
# Poissons Ratio (x) = -0.01629 0.47907
# Poissons Ratio (y) = -0.01399 0.38660
# Poissons Ratio (z) = 0.39548 0.37155
#
# Static dielectric constant tensor:
#      x y z
#    x 3.672970 0.000000 -0.177280 
#    y 0.000000 3.404370 0.000000 
#    z -0.177280 0.000000 3.329210 
# 
# 
# High freq. dielectric constant tensor:
#      x y z
#    x 1.721440 0.000000 -0.017810 
#    y 0.000000 1.723790 0.000000 
#    z -0.017810 0.000000 1.678400 
# 
# From -- ./inp_files/230909.got.cif
#   From: 2010.06.25/outbox.cif.g09.slc.cpg/sg12_116_cif.got.tgz:230909.got - 2010.06.28 00:19:55.
