data_PCOD8098482
_publ_section_title
;
Structure prediction by ZEFSAII (Michael W. Deem and Ramdas Pophale) SiO2 
 PCOD8098482
Probable space group: C 2/M
;
_chemical_formula_sum "Si O2"
_cell_formula_units_Z 64
_cell_length_a 28.060562
_cell_length_b 8.924891
_cell_length_c 12.992278
_cell_angle_alpha 90.000000
_cell_angle_beta 86.530403
_cell_angle_gamma 90.000000
_cell_volume 3247.789107
_symmetry_space_group_name_H-M "C 2/M"
_symmetry_group_IT_number 12
_symmetry_cell_setting 'monoclinic'
loop_
_space_group_symop_operation_xyz
x,y,z
-x,y,-z
-x,-y,-z
x,-y,z
1/2+x,1/2+y,z
1/2-x,1/2+y,-z
1/2-x,1/2-y,-z
1/2+x,1/2-y,z
loop_
_atom_site_type_symbol
_atom_site_label
_atom_site_fract_x
_atom_site_fract_y
_atom_site_fract_z
Si Si1 0.542713 0.674412 0.722508
Si Si2 0.195528 0.672921 0.803358
Si Si3 0.469311 0.177118 0.599581
Si Si4 0.450945 0.323002 0.048359
Si Si5 0.307979 0.671915 0.780352
Si Si6 0.138575 0.322754 0.410631
Si Si7 0.357154 0.676194 0.379070
Si Si8 0.150559 0.822900 0.006425
O O1 0.530602 0.500000 0.722694
O O2 0.494562 0.760244 0.698117
O O3 0.557496 0.729287 0.833796
O O4 0.586834 0.713939 0.642415
O O5 0.180261 0.500000 0.800509
O O6 0.251803 0.693139 0.788367
O O7 0.172647 0.758622 0.710964
O O8 0.179447 0.740739 0.913542
O O9 0.500000 0.239900 0.500000
O O10 0.415250 0.236252 0.601330
O O11 0.470351 0.000000 0.602813
O O12 0.455635 0.500000 0.041770
O O13 0.500000 0.249071 0.000000
O O14 0.404965 0.271600 0.988805
O O15 0.322631 0.500000 0.757818
O O16 0.329100 0.775446 0.688792
O O17 0.328726 0.727085 0.886697
O O18 0.140181 0.500000 0.423824
O O19 0.159608 0.249509 0.511776
O O20 0.347807 0.500000 0.383831
O O21 0.155912 0.000000 0.987174
#
# Coordination Sequence:
#
# PCOD8098482 Si02
#       8
#     8   8   8   8   8   8   8   8
#     4  10  20  34  57  87 114 151 202 245 287 344
#     4  11  23  40  63  91 120 154 200 251 310 366
#     4  10  21  37  56  81 118 156 189 231 290 352
#     4   9  18  33  55  87 120 151 191 240 292 343
#     4  10  24  42  62  89 120 159 203 251 304 358
#     4  11  24  41  61  88 123 162 200 245 304 362
#     4  11  22  39  63  90 120 156 205 254 297 355
#     4  10  20  39  64  89 121 158 202 250 294 351
#
# _framework density 19.705712999999999
#
# number of rings (size 3 to 8) (size 9 to 14) (size 15 to 20)
#    0.000    1.750    2.500    1.500    1.750    3.750 
#    0.000    0.000    0.000    0.750    0.000    0.000 
#    0.000    0.000    0.000    0.000    0.000    0.000 
#
# Total GULP energy -396881.520974 kJ/mol
# GULP energy per Si atom -12402.547530 kJ/mol
# Density = 1.966086 g / cm^3
# Si number density = 19.705713 Si / 1000 Ang^3
#
#
#
# Elastic Constant Matrix: (Units=GPa)
#
#
# Indices 1 2 3 4 5 6 
#
# 1 78.9660 38.7520 45.2005 0.0000 -8.0327 0.0000
# 2 38.7520 65.5648 51.1501 0.0000 -2.3166 0.0000
# 3 45.2005 51.1501 135.8307 0.0000 -0.9982 0.0000
# 4 0.0000 0.0000 0.0000 17.9791 0.0000 6.2626
# 5 -8.0327 -2.3166 -0.9982 0.0000 30.5595 0.0000
# 6 0.0000 0.0000 0.0000 6.2626 0.0000 26.7622
#
#
#
# Elastic Compliance Matrix: (Units=1/GPa)
#
#
# Indices 1 2 3 4 5 6 
#
# 1 0.019152 -0.008810 -0.003025 0.000000 0.004268 0.000000
# 2 -0.008810 0.025707 -0.006753 0.000000 -0.000587 0.000000
# 3 -0.003025 -0.006753 0.010905 0.000000 -0.000951 0.000000
# 4 0.000000 0.000000 0.000000 0.060556 0.000000 -0.014171
# 5 0.004268 -0.000587 -0.000951 0.000000 0.033769 0.000000
# 6 0.000000 0.000000 0.000000 -0.014171 0.000000 0.040682
#
#
# Mechanical properties :
#
#
# Convention : Reuss Voigt Hill
#
# Bulk Modulus (GPa) = 53.79502 61.17406 57.48454
# Shear Modulus (GPa) = 21.35456 24.74408 23.04932
#
# Velocity S-wave (km/s) = 3.29549 3.54740 3.42376
# Velocity P-wave (km/s) = 6.46829 6.92026 6.69809
#
# Compressibility (1/GPa) = 0.01858908
#
# Stress axis : x y z
#
# Youngs Moduli (GPa) = 52.21308 38.90039 91.70397
#
# Poissons Ratio (x) = 0.34270 0.27736
# Poissons Ratio (y) = 0.45998 0.61929
# Poissons Ratio (z) = 0.15792 0.26270
#
# Static dielectric constant tensor:
#      x y z
#    x 3.740800 0.000000 0.042280 
#    y 0.000000 3.426750 0.000000 
#    z 0.042280 0.000000 3.640660 
# 
# 
# High freq. dielectric constant tensor:
#      x y z
#    x 1.776640 0.000000 0.006740 
#    y 0.000000 1.751430 0.000000 
#    z 0.006740 0.000000 1.777360 
# 
# From -- ./inp_files/187478.got.cif
#   From: 2010.06.25/outbox.cif.g09.slc.cpg/sg12_94_cif.got.tgz:187478.got - 2010.06.28 00:19:55.
