data_PCOD8098806
_publ_section_title
;
Structure prediction by ZEFSAII (Michael W. Deem and Ramdas Pophale) SiO2 
 PCOD8098806
Probable space group: C 2/M
;
_chemical_formula_sum "Si O2"
_cell_formula_units_Z 64
_cell_length_a 29.554673
_cell_length_b 9.104058
_cell_length_c 15.143217
_cell_angle_alpha 90.000000
_cell_angle_beta 59.145183
_cell_angle_gamma 90.000000
_cell_volume 3497.874695
_symmetry_space_group_name_H-M "C 2/M"
_symmetry_group_IT_number 12
_symmetry_cell_setting 'monoclinic'
loop_
_space_group_symop_operation_xyz
x,y,z
-x,y,-z
-x,-y,-z
x,-y,z
1/2+x,1/2+y,z
1/2-x,1/2+y,-z
1/2-x,1/2-y,-z
1/2+x,1/2-y,z
loop_
_atom_site_type_symbol
_atom_site_label
_atom_site_fract_x
_atom_site_fract_y
_atom_site_fract_z
Si Si1 0.664949 0.825444 0.824604
Si Si2 0.019505 0.170080 0.572734
Si Si3 0.300699 0.325029 0.906412
Si Si4 0.889063 0.673816 0.298247
Si Si5 0.117112 0.328341 0.055670
Si Si6 0.504139 0.169437 0.234365
Si Si7 0.361797 0.671120 0.498083
Si Si8 0.282711 0.325970 0.725231
O O1 0.634865 0.763841 0.768845
O O2 0.724218 0.762355 0.767678
O O3 0.665391 0.000000 0.821784
O O4 0.634961 0.771111 0.942077
O O5 0.081243 0.200718 0.517874
O O6 0.000000 0.237488 0.500000
O O7 0.987310 0.246494 0.682851
O O8 0.005213 0.000000 0.592620
O O9 0.296373 0.500000 0.922216
O O10 0.353506 0.265049 0.898886
O O11 0.303509 0.278856 0.800754
O O12 0.250000 0.250000 0.000000
O O13 0.882703 0.500000 0.310881
O O14 0.856041 0.743686 0.411600
O O15 0.950553 0.722476 0.239483
O O16 0.130877 0.500000 0.055520
O O17 0.054463 0.299756 0.122515
O O18 0.498853 0.000000 0.263795
O O19 0.352114 0.500000 0.489120
O O20 0.320317 0.736029 0.610359
O O21 0.281921 0.500000 0.720249
#
# Coordination Sequence:
#
# PCOD8098806 Si02
#       8
#     8   8   8   8   8   8   8   8
#     4   9  17  32  54  75 100 135 174 214 256 310
#     4   9  18  31  49  71  97 132 176 214 248 308
#     4  11  21  35  56  78 107 141 173 213 257 307
#     4   9  18  34  54  75 101 135 173 215 262 305
#     4  10  20  35  53  77 107 138 174 212 258 310
#     4   9  19  33  50  75 105 133 168 216 262 303
#     4   9  18  33  51  72 100 133 169 212 258 305
#     4   9  18  32  52  76 101 134 170 206 255 308
#
# _framework density 18.296824999999998
#
# number of rings (size 3 to 8) (size 9 to 14) (size 15 to 20)
#    0.000    2.625    1.250    0.375    1.750    1.750 
#    0.000    4.375    0.000    0.000    0.000    4.375 
#    0.000    0.000    0.000    0.000    0.000    0.000 
#
# Total GULP energy -396787.119275 kJ/mol
# GULP energy per Si atom -12399.597477 kJ/mol
# Density = 1.825518 g / cm^3
# Si number density = 18.296825 Si / 1000 Ang^3
#
#
#
# Elastic Constant Matrix: (Units=GPa)
#
#
# Indices 1 2 3 4 5 6 
#
# 1 117.4402 30.7435 87.8836 0.0000 21.5542 0.0000
# 2 30.7435 32.5899 34.1322 0.0000 2.7223 0.0000
# 3 87.8836 34.1322 162.0957 0.0000 2.4017 0.0000
# 4 0.0000 0.0000 0.0000 27.0932 0.0000 1.7037
# 5 21.5542 2.7223 2.4017 0.0000 36.4485 0.0000
# 6 0.0000 0.0000 0.0000 1.7037 0.0000 22.3387
#
#
#
# Elastic Compliance Matrix: (Units=1/GPa)
#
#
# Indices 1 2 3 4 5 6 
#
# 1 0.018610 -0.008105 -0.008237 0.000000 -0.009857 0.000000
# 2 -0.008105 0.043106 -0.004710 0.000000 0.001884 0.000000
# 3 -0.008237 -0.004710 0.011561 0.000000 0.004461 0.000000
# 4 0.000000 0.000000 0.000000 0.037088 0.000000 -0.002829
# 5 -0.009857 0.001884 0.004461 0.000000 0.032830 0.000000
# 6 0.000000 0.000000 0.000000 -0.002829 0.000000 0.044981
#
#
# Mechanical properties :
#
#
# Convention : Reuss Voigt Hill
#
# Bulk Modulus (GPa) = 32.08032 68.62716 50.35374
# Shear Modulus (GPa) = 20.77523 27.80050 24.28787
#
# Velocity S-wave (km/s) = 3.37331 3.90220 3.64735
# Velocity P-wave (km/s) = 5.72220 7.60868 6.73185
#
# Compressibility (1/GPa) = 0.03117176
#
# Stress axis : x y z
#
# Youngs Moduli (GPa) = 53.73522 23.19850 86.49975
#
# Poissons Ratio (x) = 0.18803 0.71249
# Poissons Ratio (y) = 0.43554 0.40743
# Poissons Ratio (z) = 0.44261 0.10927
#
# Static dielectric constant tensor:
#      x y z
#    x 3.566150 0.000000 0.039440 
#    y 0.000000 3.113350 0.000000 
#    z 0.039440 0.000000 3.589950 
# 
# 
# High freq. dielectric constant tensor:
#      x y z
#    x 1.713730 0.000000 -0.000240 
#    y 0.000000 1.676490 0.000000 
#    z -0.000240 0.000000 1.717770 
# 
# From -- ./inp_files/249100.got.cif
#   From: 2010.06.25/outbox.cif.g09.slc.cpg/sg12_125_cif.got.tgz:249100.got - 2010.06.28 00:19:55.
