data_PCOD8098003
_publ_section_title
;
Structure prediction by ZEFSAII (Michael W. Deem and Ramdas Pophale) SiO2 
 PCOD8098003
Probable space group: C 2/M
;
_chemical_formula_sum "Si O2"
_cell_formula_units_Z 40
_cell_length_a 18.686911
_cell_length_b 13.620191
_cell_length_c 15.921455
_cell_angle_alpha 90.000000
_cell_angle_beta 29.524567
_cell_angle_gamma 90.000000
_cell_volume 1996.968715
_symmetry_space_group_name_H-M "C 2/M"
_symmetry_group_IT_number 12
_symmetry_cell_setting 'monoclinic'
loop_
_space_group_symop_operation_xyz
x,y,z
-x,y,-z
-x,-y,-z
x,-y,z
1/2+x,1/2+y,z
1/2-x,1/2+y,-z
1/2-x,1/2-y,-z
1/2+x,1/2-y,z
loop_
_atom_site_type_symbol
_atom_site_label
_atom_site_fract_x
_atom_site_fract_y
_atom_site_fract_z
Si Si1 0.193929 0.111009 0.424653
Si Si2 0.493399 0.769385 0.327385
Si Si3 0.971961 0.386358 0.871953
Si Si4 0.269422 0.714566 0.779561
Si Si5 0.848248 0.607635 0.607417
O O1 0.107535 0.173192 0.583902
O O2 0.364387 0.121343 0.264970
O O3 0.153376 0.151537 0.373185
O O4 0.140339 0.000000 0.487030
O O5 0.557153 0.816852 0.178229
O O6 0.625480 0.731302 0.249336
O O7 0.386997 0.851110 0.476179
O O8 0.929076 0.500000 0.897049
O O9 0.874366 0.342810 0.046211
O O10 0.236220 0.821742 0.772077
O O11 0.776680 0.500000 0.672395
O O12 0.000000 0.602641 0.500000
#
# Coordination Sequence:
#
# PCOD8098003 Si02
#       5
#     8   8   8   8   8
#     4  10  21  37  57  79 107 146 182 216 266 325
#     4  10  20  35  55  80 108 138 181 227 265 312
#     4  11  22  36  55  80 112 145 176 218 274 325
#     4  10  20  34  55  82 109 139 180 225 265 314
#     4   8  15  30  52  75 101 137 177 215 257 309
#
# _framework density 20.030359000000001
#
# number of rings (size 3 to 8) (size 9 to 14) (size 15 to 20)
#    0.000    2.200    0.000    4.800    0.000    4.800 
#    0.000    1.000    0.000   10.800    0.000    0.000 
#    0.000    0.000    0.000    0.000    0.000    0.000 
#
# Total GULP energy -247886.419739 kJ/mol
# GULP energy per Si atom -12394.320987 kJ/mol
# Density = 1.998477 g / cm^3
# Si number density = 20.030359 Si / 1000 Ang^3
#
#
#
# Elastic Constant Matrix: (Units=GPa)
#
#
# Indices 1 2 3 4 5 6 
#
# 1 45.0025 14.7309 -3.6508 0.0000 5.7035 0.0000
# 2 14.7309 168.5000 40.9502 0.0000 2.8624 0.0000
# 3 -3.6508 40.9502 60.1865 0.0001 8.1547 -0.0001
# 4 0.0000 0.0000 0.0001 32.5110 -0.0001 -4.9138
# 5 5.7035 2.8624 8.1547 -0.0001 22.8971 0.0001
# 6 0.0000 0.0000 -0.0001 -4.9138 0.0001 19.0634
#
#
#
# Elastic Compliance Matrix: (Units=1/GPa)
#
#
# Indices 1 2 3 4 5 6 
#
# 1 0.024561 -0.003147 0.004630 0.000000 -0.007374 0.000000
# 2 -0.003147 0.007531 -0.005562 0.000000 0.001823 0.000000
# 3 0.004630 -0.005562 0.021794 0.000000 -0.008220 0.000000
# 4 0.000000 0.000000 0.000000 0.032006 0.000000 0.008250
# 5 -0.007374 0.001823 -0.008220 0.000000 0.048210 0.000000
# 6 0.000000 0.000000 0.000000 0.008250 0.000000 0.054583
#
#
# Mechanical properties :
#
#
# Convention : Reuss Voigt Hill
#
# Bulk Modulus (GPa) = 21.86831 41.97220 31.92025
# Shear Modulus (GPa) = 23.57552 29.67152 26.62352
#
# Velocity S-wave (km/s) = 3.43445 3.85298 3.64972
# Velocity P-wave (km/s) = 5.16416 6.38699 5.80785
#
# Compressibility (1/GPa) = 0.04572828
#
# Stress axis : x y z
#
# Youngs Moduli (GPa) = 40.71436 132.79283 45.88485
#
# Poissons Ratio (x) = 0.41794 -0.21246
# Poissons Ratio (y) = 0.12814 0.25520
# Poissons Ratio (z) = -0.18852 0.73855
#
# Static dielectric constant tensor:
#      x y z
#    x 3.392160 0.000000 0.124660 
#    y 0.000000 4.166510 0.000000 
#    z 0.124660 0.000000 3.478630 
# 
# 
# High freq. dielectric constant tensor:
#      x y z
#    x 1.766820 0.000000 0.008980 
#    y 0.000000 1.797110 0.000000 
#    z 0.008980 0.000000 1.760710 
# 
# From -- ./inp_files/72828.got.cif
#   From: 2010.06.25/outbox.cif.g09.slc.cpg/sg12_37_cif.got.tgz:72828.got - 2010.06.28 00:19:55.
