data_PCOD8098813
_publ_section_title
;
Structure prediction by ZEFSAII (Michael W. Deem and Ramdas Pophale) SiO2 
 PCOD8098813
Probable space group: C 2/M
;
_chemical_formula_sum "Si O2"
_cell_formula_units_Z 56
_cell_length_a 16.534474
_cell_length_b 12.517828
_cell_length_c 16.338687
_cell_angle_alpha 90.000000
_cell_angle_beta 62.331156
_cell_angle_gamma 90.000000
_cell_volume 2994.999895
_symmetry_space_group_name_H-M "C 2/M"
_symmetry_group_IT_number 12
_symmetry_cell_setting 'monoclinic'
loop_
_space_group_symop_operation_xyz
x,y,z
-x,y,-z
-x,-y,-z
x,-y,z
1/2+x,1/2+y,z
1/2-x,1/2+y,-z
1/2-x,1/2-y,-z
1/2+x,1/2-y,z
loop_
_atom_site_type_symbol
_atom_site_label
_atom_site_fract_x
_atom_site_fract_y
_atom_site_fract_z
Si Si1 0.784105 0.265242 0.152623
Si Si2 0.930476 0.805378 0.967077
Si Si3 0.901832 0.878621 0.803779
Si Si4 0.570310 0.249662 0.678455
Si Si5 0.091915 0.377411 0.505549
Si Si6 0.732499 0.624899 0.683726
Si Si7 0.050647 0.377180 0.845456
O O1 0.694589 0.323053 0.163444
O O2 0.759272 0.176259 0.230912
O O3 0.852602 0.352484 0.157922
O O4 0.830405 0.206402 0.053358
O O5 0.927283 0.877870 0.888005
O O6 0.969549 0.688469 0.926045
O O7 0.000000 0.859400 0.000000
O O8 0.977268 0.817371 0.714641
O O9 0.897212 0.000000 0.775254
O O10 0.598104 0.201829 0.578740
O O11 0.648603 0.328840 0.672157
O O12 0.556382 0.151736 0.747168
O O13 0.096644 0.500000 0.533529
O O14 0.174931 0.349313 0.407232
O O15 0.000000 0.354757 0.500000
O O16 0.716130 0.500000 0.703140
O O17 0.025476 0.500000 0.867319
#
# Coordination Sequence:
#
# PCOD8098813 Si02
#       7
#     8   8   8   8   8   8   8
#     4  10  20  35  53  78 108 135 173 219 261 307
#     4   9  20  35  52  76 104 138 180 219 255 304
#     4  11  22  35  53  77 107 141 173 211 262 313
#     4  10  20  35  54  78 109 139 173 214 255 311
#     4  10  20  35  57  82 106 136 174 217 264 306
#     4  10  21  37  58  80 104 138 174 211 260 315
#     4   9  18  33  54  77 102 137 178 219 261 303
#
# _framework density 18.697831000000001
#
# number of rings (size 3 to 8) (size 9 to 14) (size 15 to 20)
#    0.000    2.143    0.000    3.857    0.000    4.000 
#    0.000    2.857    0.000   10.286    0.000    0.000 
#    0.000    0.000    0.000    0.000    0.000    0.000 
#
# Total GULP energy -347276.065407 kJ/mol
# GULP energy per Si atom -12402.716622 kJ/mol
# Density = 1.865527 g / cm^3
# Si number density = 18.697831 Si / 1000 Ang^3
#
#
#
# Elastic Constant Matrix: (Units=GPa)
#
#
# Indices 1 2 3 4 5 6 
#
# 1 87.6856 26.8131 33.2272 0.0000 -12.9439 0.0000
# 2 26.8131 76.9559 44.5323 0.0000 2.7839 0.0000
# 3 33.2272 44.5323 114.6781 0.0000 -5.5780 0.0000
# 4 0.0000 0.0000 0.0000 -9.3051 0.0000 -45.6362
# 5 -12.9439 2.7839 -5.5780 0.0000 29.3881 0.0000
# 6 0.0000 0.0000 0.0000 -45.6362 0.0000 -53.1902
#
#
#
# Elastic Compliance Matrix: (Units=1/GPa)
#
#
# Indices 1 2 3 4 5 6 
#
# 1 0.014412 -0.003880 -0.002364 0.000000 0.006266 0.000000
# 2 -0.003880 0.018045 -0.006106 0.000000 -0.004577 0.000000
# 3 -0.002364 -0.006106 0.011863 0.000000 0.001789 0.000000
# 4 0.000000 0.000000 0.000000 0.033501 0.000000 -0.028743
# 5 0.006266 -0.004577 0.001789 0.000000 0.037560 0.000000
# 6 0.000000 0.000000 0.000000 -0.028743 0.000000 0.005861
#
#
# Mechanical properties :
#
#
# Convention : Reuss Voigt Hill
#
# Bulk Modulus (GPa) = 50.96829 54.27385 52.62107
# Shear Modulus (GPa) = 32.79079 5.02839 18.90959
#
# Velocity S-wave (km/s) = 4.19229 1.64168 3.18358
# Velocity P-wave (km/s) = 7.12403 5.71693 6.45891
#
# Compressibility (1/GPa) = 0.01962004
#
# Stress axis : x y z
#
# Youngs Moduli (GPa) = 69.38795 55.41650 84.29488
#
# Poissons Ratio (x) = 0.21501 0.19929
# Poissons Ratio (y) = 0.26922 0.51469
# Poissons Ratio (z) = 0.16405 0.33836
#
# Static dielectric constant tensor:
#      x y z
#    x 3.515910 0.000000 -0.043160 
#    y 0.000000 3.234440 0.000000 
#    z -0.043160 0.000000 3.694120 
# 
# 
# High freq. dielectric constant tensor:
#      x y z
#    x 1.731760 0.000000 -0.007070 
#    y 0.000000 1.716730 0.000000 
#    z -0.007070 0.000000 1.734990 
# 
# From -- ./inp_files/223741.got.cif
#   From: 2010.06.25/outbox.cif.g09.slc.cpg/sg12_112_cif.got.tgz:223741.got - 2010.06.28 00:19:55.
