data_PCOD8098607
_publ_section_title
;
Structure prediction by ZEFSAII (Michael W. Deem and Ramdas Pophale) SiO2 
 PCOD8098607
Probable space group: C 2/M
;
_chemical_formula_sum "Si O2"
_cell_formula_units_Z 48
_cell_length_a 29.079530
_cell_length_b 8.948779
_cell_length_c 14.781550
_cell_angle_alpha 90.000000
_cell_angle_beta 139.994519
_cell_angle_gamma 90.000000
_cell_volume 2472.795184
_symmetry_space_group_name_H-M "C 2/M"
_symmetry_group_IT_number 12
_symmetry_cell_setting 'monoclinic'
loop_
_space_group_symop_operation_xyz
x,y,z
-x,y,-z
-x,-y,-z
x,-y,z
1/2+x,1/2+y,z
1/2-x,1/2+y,-z
1/2-x,1/2-y,-z
1/2+x,1/2-y,z
loop_
_atom_site_type_symbol
_atom_site_label
_atom_site_fract_x
_atom_site_fract_y
_atom_site_fract_z
Si Si1 0.349758 0.175525 0.089063
Si Si2 0.180339 0.328561 0.595534
Si Si3 0.413036 0.172361 0.716181
Si Si4 0.438562 0.325181 0.073035
Si Si5 0.333000 0.674446 0.751333
Si Si6 0.309147 0.675022 0.205063
O O1 0.413405 0.241750 0.125320
O O2 0.355284 0.244150 0.197381
O O3 0.360181 0.000000 0.112120
O O4 0.274131 0.219701 0.929979
O O5 0.188226 0.500000 0.638665
O O6 0.115596 0.306857 0.428506
O O7 0.253921 0.275166 0.660692
O O8 0.162439 0.228605 0.655361
O O9 0.483134 0.270874 0.836488
O O10 0.352555 0.228411 0.693697
O O11 0.430595 0.000000 0.762678
O O12 0.439672 0.500000 0.094643
O O13 0.386514 0.284648 0.912652
O O14 0.336518 0.500000 0.731534
O O15 0.320920 0.500000 0.212387
#
# Coordination Sequence:
#
# PCOD8098607 Si02
#       6
#     8   8   8   8   8   8
#     4  10  20  35  58  87 117 147 185 233 283 336
#     4  10  21  39  59  83 116 153 190 234 285 336
#     4  11  24  38  56  83 118 154 190 235 286 338
#     4  11  22  38  60  84 115 152 191 236 284 336
#     4  10  21  38  60  83 110 150 197 238 282 333
#     4  10  20  34  58  89 116 146 186 233 282 335
#
# _framework density 19.411231999999998
#
# number of rings (size 3 to 8) (size 9 to 14) (size 15 to 20)
#    0.000    1.667    1.667    3.000    0.000    6.667 
#    0.000    0.833    0.000    5.000    0.000    0.000 
#    0.000    0.000    0.000    0.000    0.000    0.000 
#
# Total GULP energy -297774.831513 kJ/mol
# GULP energy per Si atom -12407.284646 kJ/mol
# Density = 1.936705 g / cm^3
# Si number density = 19.411232 Si / 1000 Ang^3
#
#
#
# Elastic Constant Matrix: (Units=GPa)
#
#
# Indices 1 2 3 4 5 6 
#
# 1 75.0722 32.8876 5.6887 0.0000 -21.3008 0.0000
# 2 32.8876 78.4217 25.0894 0.0000 -15.4694 0.0000
# 3 5.6887 25.0894 53.1469 0.0000 -3.1386 0.0000
# 4 0.0000 0.0000 0.0000 28.4879 0.0000 -3.3801
# 5 -21.3008 -15.4694 -3.1386 0.0000 25.7047 0.0000
# 6 0.0000 0.0000 0.0000 -3.3801 0.0000 40.7502
#
#
#
# Elastic Compliance Matrix: (Units=1/GPa)
#
#
# Indices 1 2 3 4 5 6 
#
# 1 0.019494 -0.006192 0.001582 0.000000 0.012621 0.000000
# 2 -0.006192 0.018941 -0.007966 0.000000 0.005296 0.000000
# 3 0.001582 -0.007966 0.022363 0.000000 -0.000753 0.000000
# 4 0.000000 0.000000 0.000000 0.035452 0.000000 0.002941
# 5 0.012621 0.005296 -0.000753 0.000000 0.052457 0.000000
# 6 0.000000 0.000000 0.000000 0.002941 0.000000 0.024784
#
#
# Mechanical properties :
#
#
# Convention : Reuss Voigt Hill
#
# Bulk Modulus (GPa) = 28.05381 37.10803 32.58092
# Shear Modulus (GPa) = 23.75009 28.52023 26.13516
#
# Velocity S-wave (km/s) = 3.50168 3.83726 3.67330
# Velocity P-wave (km/s) = 5.55273 6.22824 5.90016
#
# Compressibility (1/GPa) = 0.03564578
#
# Stress axis : x y z
#
# Youngs Moduli (GPa) = 51.29725 52.79433 44.71729
#
# Poissons Ratio (x) = 0.32688 -0.07073
# Poissons Ratio (y) = 0.31761 0.35623
# Poissons Ratio (z) = -0.08113 0.42058
#
# Static dielectric constant tensor:
#      x y z
#    x 3.504590 0.000000 -0.058650 
#    y 0.000000 3.502460 0.000000 
#    z -0.058650 0.000000 3.390580 
# 
# 
# High freq. dielectric constant tensor:
#      x y z
#    x 1.761360 0.000000 -0.009140 
#    y 0.000000 1.762660 0.000000 
#    z -0.009140 0.000000 1.743500 
# 
# From -- ./inp_files/229909.got.cif
#   From: 2010.06.25/outbox.cif.g09.slc.cpg/sg12_115_cif.got.tgz:229909.got - 2010.06.28 00:19:55.
