data_PCOD8098542
_publ_section_title
;
Structure prediction by ZEFSAII (Michael W. Deem and Ramdas Pophale) SiO2 
 PCOD8098542
Probable space group: C 2/M
;
_chemical_formula_sum "Si O2"
_cell_formula_units_Z 56
_cell_length_a 11.109804
_cell_length_b 26.363550
_cell_length_c 10.016549
_cell_angle_alpha 90.000000
_cell_angle_beta 70.015103
_cell_angle_gamma 90.000000
_cell_volume 2757.121300
_symmetry_space_group_name_H-M "C 2/M"
_symmetry_group_IT_number 12
_symmetry_cell_setting 'monoclinic'
loop_
_space_group_symop_operation_xyz
x,y,z
-x,y,-z
-x,-y,-z
x,-y,z
1/2+x,1/2+y,z
1/2-x,1/2+y,-z
1/2-x,1/2-y,-z
1/2+x,1/2-y,z
loop_
_atom_site_type_symbol
_atom_site_label
_atom_site_fract_x
_atom_site_fract_y
_atom_site_fract_z
Si Si1 0.549089 0.283447 0.334000
Si Si2 0.013569 0.898787 0.647874
Si Si3 0.616870 0.057847 0.151966
Si Si4 0.216303 0.942665 0.158415
Si Si5 0.221574 0.441978 0.406265
Si Si6 0.126772 0.389724 0.687168
Si Si7 0.185885 0.273291 0.654646
O O1 0.500000 0.270212 0.500000
O O2 0.535276 0.342279 0.308168
O O3 0.702992 0.268638 0.270626
O O4 0.452354 0.254452 0.266348
O O5 0.160954 0.903436 0.629501
O O6 0.000000 0.916111 0.500000
O O7 0.937139 0.935735 0.779558
O O8 0.668654 0.063430 0.279650
O O9 0.500114 0.097134 0.178982
O O10 0.571187 0.000000 0.141736
O O11 0.725737 0.074431 0.005377
O O12 0.255904 0.906889 0.265934
O O13 0.256763 0.000000 0.173356
O O14 0.259717 0.500000 0.423934
O O15 0.118555 0.422597 0.553959
O O16 0.146225 0.331317 0.645151
O O17 0.250000 0.250000 0.500000
#
# Coordination Sequence:
#
# PCOD8098542 Si02
#       7
#     8   8   8   8   8   8   8
#     4   9  18  34  53  84 119 148 192 255 308 364
#     4  11  20  36  60  89 120 154 206 256 306 365
#     4  10  24  40  55  87 130 168 204 245 304 375
#     4  11  22  38  62  89 125 167 204 247 303 369
#     4  11  22  35  56  88 125 159 198 252 305 363
#     4  12  21  37  62  91 118 158 209 255 303 364
#     4  10  20  34  57  89 119 150 197 262 315 364
#
# _framework density 20.311039000000001
#
# number of rings (size 3 to 8) (size 9 to 14) (size 15 to 20)
#    0.000    1.429    2.857    4.286    0.000    8.000 
#    0.000    2.143    0.000    0.857    7.429    0.000 
#    0.000    0.000    0.000    0.000    0.000    0.000 
#
# Total GULP energy -346992.387070 kJ/mol
# GULP energy per Si atom -12392.585252 kJ/mol
# Density = 2.026481 g / cm^3
# Si number density = 20.311039 Si / 1000 Ang^3
#
#
#
# Elastic Constant Matrix: (Units=GPa)
#
#
# Indices 1 2 3 4 5 6 
#
# 1 110.9457 42.4958 14.8057 0.0000 -12.4404 0.0000
# 2 42.4958 81.9522 34.0269 0.0000 -5.5635 0.0000
# 3 14.8057 34.0269 87.8763 0.0000 -16.8583 0.0000
# 4 0.0000 0.0000 0.0000 -23.6132 0.0000 6.5326
# 5 -12.4404 -5.5635 -16.8583 0.0000 24.3538 0.0000
# 6 0.0000 0.0000 0.0000 6.5326 0.0000 31.5598
#
#
#
# Elastic Compliance Matrix: (Units=1/GPa)
#
#
# Indices 1 2 3 4 5 6 
#
# 1 0.011911 -0.006447 0.001585 0.000000 0.005709 0.000000
# 2 -0.006447 0.018039 -0.006619 0.000000 -0.003754 0.000000
# 3 0.001585 -0.006619 0.015614 0.000000 0.010106 0.000000
# 4 0.000000 0.000000 0.000000 -0.040055 0.000000 0.008291
# 5 0.005709 -0.003754 0.010106 0.000000 0.050115 0.000000
# 6 0.000000 0.000000 0.000000 0.008291 0.000000 0.029970
#
#
# Mechanical properties :
#
#
# Convention : Reuss Voigt Hill
#
# Bulk Modulus (GPa) = 44.24371 51.49233 47.86802
# Shear Modulus (GPa) = 43.06987 19.08980 31.07983
#
# Velocity S-wave (km/s) = 4.60990 3.06906 3.91601
# Velocity P-wave (km/s) = 7.08275 6.16164 6.63819
#
# Compressibility (1/GPa) = 0.02260208
#
# Stress axis : x y z
#
# Youngs Moduli (GPa) = 83.95257 55.43670 64.04392
#
# Poissons Ratio (x) = 0.35740 -0.10149
# Poissons Ratio (y) = 0.54125 0.42389
# Poissons Ratio (z) = -0.13304 0.36692
#
# Static dielectric constant tensor:
#      x y z
#    x 4.265000 0.000000 -0.068420 
#    y 0.000000 3.621920 0.000000 
#    z -0.068420 0.000000 3.445860 
# 
# 
# High freq. dielectric constant tensor:
#      x y z
#    x 1.809060 0.000000 -0.012340 
#    y 0.000000 1.788210 0.000000 
#    z -0.012340 0.000000 1.756630 
# 
# From -- ./inp_files/53183.got.cif
#   From: 2010.06.25/outbox.cif.g09.slc.cpg/sg12_27_cif.got.tgz:53183.got - 2010.06.28 00:19:55.
