data_PCOD8098195
_publ_section_title
;
Structure prediction by ZEFSAII (Michael W. Deem and Ramdas Pophale) SiO2 
 PCOD8098195
Probable space group: C 2/M
;
_chemical_formula_sum "Si O2"
_cell_formula_units_Z 64
_cell_length_a 17.621038
_cell_length_b 27.233358
_cell_length_c 8.889772
_cell_angle_alpha 90.000000
_cell_angle_beta 47.551763
_cell_angle_gamma 90.000000
_cell_volume 3147.845385
_symmetry_space_group_name_H-M "C 2/M"
_symmetry_group_IT_number 12
_symmetry_cell_setting 'monoclinic'
loop_
_space_group_symop_operation_xyz
x,y,z
-x,y,-z
-x,-y,-z
x,-y,z
1/2+x,1/2+y,z
1/2-x,1/2+y,-z
1/2-x,1/2-y,-z
1/2+x,1/2-y,z
loop_
_atom_site_type_symbol
_atom_site_label
_atom_site_fract_x
_atom_site_fract_y
_atom_site_fract_z
Si Si1 0.085057 0.275319 0.767428
Si Si2 0.084442 0.554987 0.171584
Si Si3 0.744502 0.386176 0.622204
Si Si4 0.620973 0.390733 0.341984
Si Si5 0.785304 0.556129 0.289620
Si Si6 0.951489 0.353097 0.415901
Si Si7 0.793257 0.056124 0.050864
Si Si8 0.189713 0.189491 0.467658
O O1 0.027652 0.319119 0.756171
O O2 0.113291 0.234268 0.604942
O O3 0.191008 0.293437 0.704914
O O4 0.000000 0.255808 0.000000
O O5 0.037389 0.500000 0.222978
O O6 0.171452 0.555410 0.183807
O O7 0.996481 0.592581 0.332042
O O8 0.133266 0.570972 0.946826
O O9 0.810790 0.414582 0.406286
O O10 0.828780 0.356792 0.607548
O O11 0.683298 0.423887 0.811748
O O12 0.671366 0.347631 0.633801
O O13 0.500000 0.393683 0.500000
O O14 0.669700 0.431599 0.387472
O O15 0.658999 0.337077 0.351301
O O16 0.655545 0.403872 0.127188
O O17 0.791226 0.500000 0.322644
O O18 0.000000 0.328751 0.500000
O O19 0.836441 0.000000 0.975234
#
# Coordination Sequence:
#
# PCOD8098195 Si02
#       8
#     8   8   8   8   8   8   8   8
#     4  10  23  40  67  86 114 157 195 261 310 369
#     4   9  19  33  51  81 123 161 196 235 279 346
#     4  10  20  35  57  81 120 159 190 248 292 352
#     4  10  21  37  62  83 112 158 196 252 298 362
#     4   9  19  35  54  80 116 158 200 240 286 344
#     4  11  22  34  55  87 121 154 204 236 295 358
#     4  10  20  34  55  88 124 160 197 236 294 350
#     4   9  22  43  59  90 117 147 207 252 313 362
#
# _framework density 20.331367
#
# number of rings (size 3 to 8) (size 9 to 14) (size 15 to 20)
#    0.000    2.250    1.250    1.500    7.000    3.750 
#    0.000    3.125    0.000    9.000    0.000    0.000 
#    0.000    0.000    0.000    0.000    0.000    0.000 
#
# Total GULP energy -396597.072465 kJ/mol
# GULP energy per Si atom -12393.658515 kJ/mol
# Density = 2.028509 g / cm^3
# Si number density = 20.331367 Si / 1000 Ang^3
#
#
#
# Elastic Constant Matrix: (Units=GPa)
#
#
# Indices 1 2 3 4 5 6 
#
# 1 56.6197 9.0427 30.6210 0.0000 2.6245 0.0000
# 2 9.0427 86.7343 39.2825 0.0000 3.9161 0.0000
# 3 30.6210 39.2825 86.2846 0.0000 7.1539 0.0000
# 4 0.0000 0.0000 0.0000 35.5369 0.0000 9.0419
# 5 2.6245 3.9161 7.1539 0.0000 29.6029 0.0000
# 6 0.0000 0.0000 0.0000 9.0419 0.0000 22.7345
#
#
#
# Elastic Compliance Matrix: (Units=1/GPa)
#
#
# Indices 1 2 3 4 5 6 
#
# 1 0.022025 0.001568 -0.008522 0.000000 -0.000101 0.000000
# 2 0.001568 0.014639 -0.007193 0.000000 -0.000337 0.000000
# 3 -0.008522 -0.007193 0.018110 0.000000 -0.002669 0.000000
# 4 0.000000 0.000000 0.000000 0.031308 0.000000 -0.012452
# 5 -0.000101 -0.000337 -0.002669 0.000000 0.034479 0.000000
# 6 0.000000 0.000000 0.000000 -0.012452 0.000000 0.048938
#
#
# Mechanical properties :
#
#
# Convention : Reuss Voigt Hill
#
# Bulk Modulus (GPa) = 37.76477 43.05899 40.41188
# Shear Modulus (GPa) = 24.19912 27.62101 25.91006
#
# Velocity S-wave (km/s) = 3.45372 3.68984 3.57373
# Velocity P-wave (km/s) = 5.87531 6.27517 6.07853
#
# Compressibility (1/GPa) = 0.02647970
#
# Stress axis : x y z
#
# Youngs Moduli (GPa) = 45.40376 68.31061 55.21872
#
# Poissons Ratio (x) = -0.10710 0.47055
# Poissons Ratio (y) = -0.07118 0.39719
# Poissons Ratio (z) = 0.38691 0.49136
#
# Static dielectric constant tensor:
#      x y z
#    x 3.680830 0.000000 0.211400 
#    y 0.000000 3.822800 0.000000 
#    z 0.211400 0.000000 3.458200 
# 
# 
# High freq. dielectric constant tensor:
#      x y z
#    x 1.786710 0.000000 0.012660 
#    y 0.000000 1.794030 0.000000 
#    z 0.012660 0.000000 1.772350 
# 
# From -- ./inp_files/80699.got.cif
#   From: 2010.06.25/outbox.cif.g09.slc.cpg/sg12_41_cif.got.tgz:80699.got - 2010.06.28 00:19:55.
