data_PCOD8098458
_publ_section_title
;
Structure prediction by ZEFSAII (Michael W. Deem and Ramdas Pophale) SiO2 
 PCOD8098458
Probable space group: C 2/M
;
_chemical_formula_sum "Si O2"
_cell_formula_units_Z 64
_cell_length_a 29.397799
_cell_length_b 8.817684
_cell_length_c 24.360345
_cell_angle_alpha 90.000000
_cell_angle_beta 151.150519
_cell_angle_gamma 90.000000
_cell_volume 3046.908068
_symmetry_space_group_name_H-M "C 2/M"
_symmetry_group_IT_number 12
_symmetry_cell_setting 'monoclinic'
loop_
_space_group_symop_operation_xyz
x,y,z
-x,y,-z
-x,-y,-z
x,-y,z
1/2+x,1/2+y,z
1/2-x,1/2+y,-z
1/2-x,1/2-y,-z
1/2+x,1/2-y,z
loop_
_atom_site_type_symbol
_atom_site_label
_atom_site_fract_x
_atom_site_fract_y
_atom_site_fract_z
Si Si1 0.098695 0.324329 0.078230
Si Si2 0.240040 0.322998 0.684071
Si Si3 0.096791 0.678542 0.851389
Si Si4 0.387365 0.174079 0.627964
Si Si5 0.870759 0.678323 0.236110
Si Si6 0.733562 0.828281 0.396021
Si Si7 0.682954 0.824008 0.054011
Si Si8 0.464515 0.679088 0.522138
O O1 0.111838 0.500000 0.108408
O O2 0.187301 0.229694 0.193019
O O3 0.103007 0.301910 0.016617
O O4 0.000000 0.264511 0.000000
O O5 0.221066 0.500000 0.670108
O O6 0.288695 0.283134 0.677642
O O7 0.141356 0.236360 0.582763
O O8 0.091371 0.500000 0.854596
O O9 0.146291 0.721654 0.846217
O O10 0.991389 0.741935 0.736964
O O11 0.147538 0.748034 0.958773
O O12 0.352673 0.186933 0.653560
O O13 0.329962 0.281207 0.527010
O O14 0.380885 0.000000 0.600139
O O15 0.879352 0.500000 0.253499
O O16 0.780412 0.740738 0.173703
O O17 0.967589 0.749785 0.360159
O O18 0.743978 0.000000 0.385512
O O19 0.708024 0.000000 0.074088
O O20 0.500000 0.730401 0.500000
O O21 0.466433 0.500000 0.531238
#
# Coordination Sequence:
#
# PCOD8098458 Si02
#       8
#     8   8   8   8   8   8   8   8
#     4  10  23  42  66  91 116 154 209 260 305 361
#     4  12  25  40  61  88 123 159 197 245 305 368
#     4   9  19  35  58  86 116 157 203 246 296 353
#     4   9  18  34  57  84 117 155 201 253 306 356
#     4  11  22  37  60  92 129 162 198 244 301 366
#     4  10  20  34  57  85 118 156 201 250 301 361
#     4  10  21  39  62  86 118 159 205 253 301 358
#     4  11  24  42  65  91 120 156 203 253 304 363
#
# _framework density 21.004899999999999
#
# number of rings (size 3 to 8) (size 9 to 14) (size 15 to 20)
#    0.000    1.750    0.000    4.125    1.750    6.250 
#    0.000    1.875    0.000    0.000    0.000    0.000 
#    0.000    0.000    0.000    0.000    0.000    0.000 
#
# Total GULP energy -396829.057297 kJ/mol
# GULP energy per Si atom -12400.908041 kJ/mol
# Density = 2.095709 g / cm^3
# Si number density = 21.004900 Si / 1000 Ang^3
#
#
#
# Elastic Constant Matrix: (Units=GPa)
#
#
# Indices 1 2 3 4 5 6 
#
# 1 98.6634 36.1161 48.4926 0.0000 0.2177 0.0000
# 2 36.1161 65.8624 23.3729 0.0000 -3.5233 0.0000
# 3 48.4926 23.3729 77.7669 0.0000 5.1936 0.0000
# 4 0.0000 0.0000 0.0000 7.8619 0.0000 -14.9126
# 5 0.2177 -3.5233 5.1936 0.0000 39.5863 0.0000
# 6 0.0000 0.0000 0.0000 -14.9126 0.0000 20.3650
#
#
#
# Elastic Compliance Matrix: (Units=1/GPa)
#
#
# Indices 1 2 3 4 5 6 
#
# 1 0.016528 -0.006009 -0.008533 0.000000 0.000494 0.000000
# 2 -0.006009 0.019373 -0.002213 0.000000 0.002048 0.000000
# 3 -0.008533 -0.002213 0.019022 0.000000 -0.002646 0.000000
# 4 0.000000 0.000000 0.000000 -0.326995 0.000000 -0.239447
# 5 0.000494 0.002048 -0.002646 0.000000 0.025788 0.000000
# 6 0.000000 0.000000 0.000000 -0.239447 0.000000 -0.126235
#
#
# Mechanical properties :
#
#
# Convention : Reuss Voigt Hill
#
# Bulk Modulus (GPa) = 46.69943 50.91732 48.80838
# Shear Modulus (GPa) = -15.06595 22.51672 3.72538
#
# Velocity S-wave (km/s) = -2.68107 3.27765 1.33320
# Velocity P-wave (km/s) = 3.56324 6.21428 5.06528
#
# Compressibility (1/GPa) = 0.02141354
#
# Stress axis : x y z
#
# Youngs Moduli (GPa) = 60.50377 51.61911 52.57166
#
# Poissons Ratio (x) = 0.31015 0.44861
# Poissons Ratio (y) = 0.36354 0.11632
# Poissons Ratio (z) = 0.51630 0.11421
#
# Static dielectric constant tensor:
#      x y z
#    x 4.047270 0.000000 -0.082310 
#    y 0.000000 3.599830 0.000000 
#    z -0.082310 0.000000 3.780580 
# 
# 
# High freq. dielectric constant tensor:
#      x y z
#    x 1.839010 0.000000 -0.000790 
#    y 0.000000 1.805060 0.000000 
#    z -0.000790 0.000000 1.823640 
# 
# From -- ./inp_files/353464.got.cif
#   From: 2010.06.25/outbox.cif.g09.slc.cpg/sg12_177_cif.got.tgz:353464.got - 2010.06.28 00:19:55.
