data_PCOD8098727
_publ_section_title
;
Structure prediction by ZEFSAII (Michael W. Deem and Ramdas Pophale) SiO2 
 PCOD8098727
Probable space group: C 2/M
;
_chemical_formula_sum "Si O2"
_cell_formula_units_Z 64
_cell_length_a 19.111224
_cell_length_b 8.696527
_cell_length_c 21.372455
_cell_angle_alpha 90.000000
_cell_angle_beta 88.332493
_cell_angle_gamma 90.000000
_cell_volume 3550.625038
_symmetry_space_group_name_H-M "C 2/M"
_symmetry_group_IT_number 12
_symmetry_cell_setting 'monoclinic'
loop_
_space_group_symop_operation_xyz
x,y,z
-x,y,-z
-x,-y,-z
x,-y,z
1/2+x,1/2+y,z
1/2-x,1/2+y,-z
1/2-x,1/2-y,-z
1/2+x,1/2-y,z
loop_
_atom_site_type_symbol
_atom_site_label
_atom_site_fract_x
_atom_site_fract_y
_atom_site_fract_z
Si Si1 0.741857 0.681015 0.864067
Si Si2 0.634614 0.820634 0.957881
Si Si3 0.374787 0.677511 0.908295
Si Si4 0.789207 0.320628 0.556263
Si Si5 0.133357 0.181045 0.764851
Si Si6 0.157038 0.182284 0.627274
Si Si7 0.577319 0.817782 0.511511
Si Si8 0.970603 0.821917 0.129248
O O1 0.755835 0.500000 0.863480
O O2 0.698383 0.724077 0.927213
O O3 0.814822 0.771690 0.861696
O O4 0.699677 0.737227 0.803927
O O5 0.561897 0.776542 0.926307
O O6 0.650010 0.000000 0.948879
O O7 0.628653 0.782759 0.030707
O O8 0.366853 0.500000 0.927932
O O9 0.447044 0.706994 0.869933
O O10 0.787950 0.500000 0.546930
O O11 0.750000 0.250000 0.500000
O O12 0.740841 0.275874 0.617327
O O13 0.871119 0.268567 0.548545
O O14 0.134748 0.252712 0.695218
O O15 0.062470 0.229486 0.803228
O O16 0.138091 0.000000 0.757505
O O17 0.107472 0.254829 0.575951
O O18 0.146250 0.000000 0.624220
O O19 0.500000 0.748988 0.500000
O O20 0.572596 0.000000 0.518199
O O21 0.951736 0.000000 0.116526
#
# Coordination Sequence:
#
# PCOD8098727 Si02
#       8
#     8   8   8   8   8   8   8   8
#     4  10  20  35  52  70  96 127 159 197 243 290
#     4  11  21  33  51  74  98 124 159 200 242 291
#     4  11  21  33  50  72  97 124 157 198 246 295
#     4   8  14  25  43  66  90 118 152 187 221 262
#     4   8  16  33  53  69  88 121 161 196 233 279
#     4   9  16  29  51  72  89 118 162 200 227 268
#     4   9  17  29  44  67 101 131 151 182 235 285
#     4   9  19  35  52  69  95 130 161 194 242 296
#
# _framework density 18.024995000000001
#
# number of rings (size 3 to 8) (size 9 to 14) (size 15 to 20)
#    0.000    2.625    0.000    3.375    0.000    2.750 
#    0.000    4.375    0.000    1.500    0.000    0.000 
#    0.000    0.000    0.000    0.000    0.000    0.000 
#
# Total GULP energy -396513.749315 kJ/mol
# GULP energy per Si atom -12391.054666 kJ/mol
# Density = 1.798397 g / cm^3
# Si number density = 18.024995 Si / 1000 Ang^3
#
#
#
# Elastic Constant Matrix: (Units=GPa)
#
#
# Indices 1 2 3 4 5 6 
#
# 1 154.3580 23.4972 60.2339 0.0000 -3.6212 0.0000
# 2 23.4972 28.6123 11.6205 0.0000 1.4451 0.0000
# 3 60.2339 11.6205 108.8565 0.0000 -5.6385 0.0000
# 4 0.0000 0.0000 0.0000 17.6941 0.0000 3.2877
# 5 -3.6212 1.4451 -5.6385 0.0000 14.2190 0.0000
# 6 0.0000 0.0000 0.0000 3.2877 0.0000 24.3711
#
#
#
# Elastic Compliance Matrix: (Units=1/GPa)
#
#
# Indices 1 2 3 4 5 6 
#
# 1 0.009078 -0.005748 -0.004349 0.000000 0.001172 0.000000
# 2 -0.005748 0.040580 -0.001471 0.000000 -0.006171 0.000000
# 3 -0.004349 -0.001471 0.011946 0.000000 0.003779 0.000000
# 4 0.000000 0.000000 0.000000 0.057969 0.000000 -0.007820
# 5 0.001172 -0.006171 0.003779 0.000000 0.072752 0.000000
# 6 0.000000 0.000000 0.000000 -0.007820 0.000000 0.042087
#
#
# Mechanical properties :
#
#
# Convention : Reuss Voigt Hill
#
# Bulk Modulus (GPa) = 25.99606 53.61443 39.80524
# Shear Modulus (GPa) = 18.49318 24.35518 21.42418
#
# Velocity S-wave (km/s) = 3.20656 3.67984 3.45132
# Velocity P-wave (km/s) = 5.30687 6.91838 6.16551
#
# Compressibility (1/GPa) = 0.03846737
#
# Stress axis : x y z
#
# Youngs Moduli (GPa) = 110.15728 24.64295 83.71336
#
# Poissons Ratio (x) = 0.14165 0.36406
# Poissons Ratio (y) = 0.63318 0.12314
# Poissons Ratio (z) = 0.47906 0.03625
#
# Static dielectric constant tensor:
#      x y z
#    x 3.787730 0.000000 -0.330470 
#    y 0.000000 3.251400 0.000000 
#    z -0.330470 0.000000 3.450280 
# 
# 
# High freq. dielectric constant tensor:
#      x y z
#    x 1.705910 0.000000 -0.015330 
#    y 0.000000 1.685830 0.000000 
#    z -0.015330 0.000000 1.674850 
# 
# From -- ./inp_files/319147.got.cif
#   From: 2010.06.25/outbox.cif.g09.slc.cpg/sg12_160_cif.got.tgz:319147.got - 2010.06.28 00:19:55.
