data_PCOD8098593
_publ_section_title
;
Structure prediction by ZEFSAII (Michael W. Deem and Ramdas Pophale) SiO2 
 PCOD8098593
Probable space group: C 2/M
;
_chemical_formula_sum "Si O2"
_cell_formula_units_Z 40
_cell_length_a 18.749844
_cell_length_b 11.009104
_cell_length_c 9.788320
_cell_angle_alpha 90.000000
_cell_angle_beta 79.633440
_cell_angle_gamma 90.000000
_cell_volume 1987.513830
_symmetry_space_group_name_H-M "C 2/M"
_symmetry_group_IT_number 12
_symmetry_cell_setting 'monoclinic'
loop_
_space_group_symop_operation_xyz
x,y,z
-x,y,-z
-x,-y,-z
x,-y,z
1/2+x,1/2+y,z
1/2-x,1/2+y,-z
1/2-x,1/2-y,-z
1/2+x,1/2-y,z
loop_
_atom_site_type_symbol
_atom_site_label
_atom_site_fract_x
_atom_site_fract_y
_atom_site_fract_z
Si Si1 0.213233 0.864687 0.353788
Si Si2 0.199667 0.136660 0.052330
Si Si3 0.140377 0.743021 0.611430
Si Si4 0.933799 0.500000 0.418290
Si Si5 0.570194 0.000000 0.889579
Si Si6 0.419271 0.263295 0.087982
O O1 0.177002 0.849422 0.217907
O O2 0.150416 0.840026 0.486927
O O3 0.281342 0.774837 0.344003
O O4 0.243739 0.000000 0.363858
O O5 0.232843 0.000000 0.015235
O O6 0.250000 0.250000 0.000000
O O7 0.127822 0.145606 0.985154
O O8 0.113689 0.620995 0.544657
O O9 0.085568 0.795137 0.747596
O O10 0.960859 0.500000 0.253281
O O11 0.000000 0.500000 0.500000
O O12 0.614140 0.124142 0.907152
O O13 0.500000 0.000000 0.000000
O O14 0.500000 0.269113 0.000000
#
# Coordination Sequence:
#
# PCOD8098593 Si02
#       6
#     8   8   8   4   4   8
#     4  10  21  39  61  84 123 158 198 253 310 359
#     4  11  24  41  64  92 125 164 212 263 311 372
#     4  10  20  37  59  88 121 161 201 250 308 362
#     4  10  20  34  58  86 126 158 197 251 304 368
#     4   8  18  34  58  86 122 164 195 248 314 361
#     4  10  21  39  63  91 125 165 207 258 317 372
#
# _framework density 20.125644999999999
#
# number of rings (size 3 to 8) (size 9 to 14) (size 15 to 20)
#    0.000    2.000    3.000    0.000    1.400    6.000 
#    1.800    0.000    0.000    3.000    0.000    0.000 
#    0.000    0.000    0.000    0.000    0.000    0.000 
#
# Total GULP energy -247804.856477 kJ/mol
# GULP energy per Si atom -12390.242824 kJ/mol
# Density = 2.007984 g / cm^3
# Si number density = 20.125645 Si / 1000 Ang^3
#
#
#
# Elastic Constant Matrix: (Units=GPa)
#
#
# Indices 1 2 3 4 5 6 
#
# 1 59.6854 27.8662 37.6857 0.0000 -1.7119 0.0000
# 2 27.8662 97.3509 57.4695 0.0000 1.5405 0.0000
# 3 37.6857 57.4695 134.8569 0.0000 -14.0317 0.0000
# 4 0.0000 0.0000 0.0000 32.1866 0.0000 -1.4722
# 5 -1.7119 1.5405 -14.0317 0.0000 39.4991 0.0000
# 6 0.0000 0.0000 0.0000 -1.4722 0.0000 28.3583
#
#
#
# Elastic Compliance Matrix: (Units=1/GPa)
#
#
# Indices 1 2 3 4 5 6 
#
# 1 0.021180 -0.003374 -0.004539 0.000000 -0.000563 0.000000
# 2 -0.003374 0.014548 -0.005536 0.000000 -0.002680 0.000000
# 3 -0.004539 -0.005536 0.011469 0.000000 0.004093 0.000000
# 4 0.000000 0.000000 0.000000 0.031143 0.000000 0.001617
# 5 -0.000563 -0.002680 0.004093 0.000000 0.026851 0.000000
# 6 0.000000 0.000000 0.000000 0.001617 0.000000 0.035347
#
#
# Mechanical properties :
#
#
# Convention : Reuss Voigt Hill
#
# Bulk Modulus (GPa) = 49.26459 59.77066 54.51763
# Shear Modulus (GPa) = 28.70222 31.26692 29.98457
#
# Velocity S-wave (km/s) = 3.78054 3.94583 3.86407
# Velocity P-wave (km/s) = 6.60214 7.10793 6.85970
#
# Compressibility (1/GPa) = 0.02029855
#
# Stress axis : x y z
#
# Youngs Moduli (GPa) = 47.21471 68.73678 87.19287
#
# Poissons Ratio (x) = 0.23191 0.39581
# Poissons Ratio (y) = 0.15930 0.48268
# Poissons Ratio (z) = 0.21433 0.38051
#
# Static dielectric constant tensor:
#      x y z
#    x 3.303530 0.000000 -0.111030 
#    y 0.000000 5.227560 0.000000 
#    z -0.111030 0.000000 3.927640 
# 
# 
# High freq. dielectric constant tensor:
#      x y z
#    x 1.751730 0.000000 -0.007290 
#    y 0.000000 1.783970 0.000000 
#    z -0.007290 0.000000 1.798650 
# 
# From -- ./inp_files/71363.got.cif
#   From: 2010.06.25/outbox.cif.g09.slc.cpg/sg12_36_cif.got.tgz:71363.got - 2010.06.28 00:19:55.
