data_PCOD8098848
_publ_section_title
;
Structure prediction by ZEFSAII (Michael W. Deem and Ramdas Pophale) SiO2 
 PCOD8098848
Probable space group: C 2/M
;
_chemical_formula_sum "Si O2"
_cell_formula_units_Z 40
_cell_length_a 21.639566
_cell_length_b 12.849575
_cell_length_c 8.475956
_cell_angle_alpha 90.000000
_cell_angle_beta 116.022524
_cell_angle_gamma 90.000000
_cell_volume 2117.887460
_symmetry_space_group_name_H-M "C 2/M"
_symmetry_group_IT_number 12
_symmetry_cell_setting 'monoclinic'
loop_
_space_group_symop_operation_xyz
x,y,z
-x,y,-z
-x,-y,-z
x,-y,z
1/2+x,1/2+y,z
1/2-x,1/2+y,-z
1/2-x,1/2-y,-z
1/2+x,1/2-y,z
loop_
_atom_site_type_symbol
_atom_site_label
_atom_site_fract_x
_atom_site_fract_y
_atom_site_fract_z
Si Si1 0.950725 0.235537 0.578342
Si Si2 0.060005 0.116565 0.899206
Si Si3 0.836543 0.194408 0.215997
Si Si4 0.071818 0.687140 0.123593
Si Si5 0.812761 0.618452 0.972399
O O1 0.882432 0.187806 0.424295
O O2 0.923300 0.315597 0.680569
O O3 0.000000 0.289543 0.500000
O O4 0.997156 0.147279 0.713346
O O5 0.131143 0.120589 0.881422
O O6 0.049103 0.000000 0.950733
O O7 0.067052 0.193028 0.056565
O O8 0.760903 0.155525 0.174919
O O9 0.835987 0.312652 0.147779
O O10 0.135155 0.627657 0.116365
O O11 0.000000 0.630019 0.000000
O O12 0.810305 0.500000 0.027717
#
# Coordination Sequence:
#
# PCOD8098848 Si02
#       5
#     8   8   8   8   8
#     4   9  18  32  51  74 104 132 161 205 254 294
#     4   9  17  31  53  79 106 134 162 198 251 307
#     4   9  19  34  53  77 104 130 163 208 249 295
#     4   9  19  34  51  73 102 134 168 206 247 294
#     4  10  20  35  54  73  98 135 171 204 248 298
#
# _framework density 18.886745000000001
#
# number of rings (size 3 to 8) (size 9 to 14) (size 15 to 20)
#    0.000    2.800    0.000    1.800    0.000    9.200 
#    0.000    1.000    0.000   21.600    0.000    0.000 
#    0.000    0.000    0.000    0.000    0.000    0.000 
#
# Total GULP energy -247863.134223 kJ/mol
# GULP energy per Si atom -12393.156711 kJ/mol
# Density = 1.884376 g / cm^3
# Si number density = 18.886745 Si / 1000 Ang^3
#
#
#
# Elastic Constant Matrix: (Units=GPa)
#
#
# Indices 1 2 3 4 5 6 
#
# 1 145.3301 19.0686 42.6208 0.0000 2.1562 0.0000
# 2 19.0686 89.7885 17.2135 0.0000 -1.1148 0.0000
# 3 42.6208 17.2135 86.1950 0.0000 -5.1277 0.0000
# 4 0.0000 0.0000 0.0000 8.3282 0.0000 4.0209
# 5 2.1562 -1.1148 -5.1277 0.0000 32.7754 0.0000
# 6 0.0000 0.0000 0.0000 4.0209 0.0000 5.8402
#
#
#
# Elastic Compliance Matrix: (Units=1/GPa)
#
#
# Indices 1 2 3 4 5 6 
#
# 1 0.008178 -0.001001 -0.003914 0.000000 -0.001184 0.000000
# 2 -0.001001 0.011703 -0.001832 0.000000 0.000177 0.000000
# 3 -0.003914 -0.001832 0.014045 0.000000 0.002393 0.000000
# 4 0.000000 0.000000 0.000000 0.179861 0.000000 -0.123832
# 5 -0.001184 0.000177 0.002393 0.000000 0.030969 0.000000
# 6 0.000000 0.000000 0.000000 -0.123832 0.000000 0.256483
#
#
# Mechanical properties :
#
#
# Convention : Reuss Voigt Hill
#
# Bulk Modulus (GPa) = 48.94194 53.23548 51.08871
# Shear Modulus (GPa) = 9.58693 25.54948 17.56820
#
# Velocity S-wave (km/s) = 2.25544 3.68200 3.05321
# Velocity P-wave (km/s) = 5.72297 6.80617 6.28794
#
# Compressibility (1/GPa) = 0.02043238
#
# Stress axis : x y z
#
# Youngs Moduli (GPa) = 122.28361 85.44654 71.19895
#
# Poissons Ratio (x) = 0.08553 0.27868
# Poissons Ratio (y) = 0.12241 0.13041
# Poissons Ratio (z) = 0.47864 0.15651
#
# Static dielectric constant tensor:
#      x y z
#    x 3.827270 0.000000 -0.018450 
#    y 0.000000 3.082990 0.000000 
#    z -0.018450 0.000000 3.353900 
# 
# 
# High freq. dielectric constant tensor:
#      x y z
#    x 1.759120 0.000000 -0.000710 
#    y 0.000000 1.696900 0.000000 
#    z -0.000710 0.000000 1.718340 
# 
# From -- ./inp_files/83469.got.cif
#   From: 2010.06.25/outbox.cif.g09.slc.cpg/sg12_42_cif.got.tgz:83469.got - 2010.06.28 00:19:55.
