data_PCOD8098118
_publ_section_title
;
Structure prediction by ZEFSAII (Michael W. Deem and Ramdas Pophale) SiO2 
 PCOD8098118
Probable space group: C 2/M
;
_chemical_formula_sum "Si O2"
_cell_formula_units_Z 56
_cell_length_a 21.052472
_cell_length_b 11.709782
_cell_length_c 13.683746
_cell_angle_alpha 90.000000
_cell_angle_beta 123.253291
_cell_angle_gamma 90.000000
_cell_volume 2820.950490
_symmetry_space_group_name_H-M "C 2/M"
_symmetry_group_IT_number 12
_symmetry_cell_setting 'monoclinic'
loop_
_space_group_symop_operation_xyz
x,y,z
-x,y,-z
-x,-y,-z
x,-y,z
1/2+x,1/2+y,z
1/2-x,1/2+y,-z
1/2-x,1/2-y,-z
1/2+x,1/2-y,z
loop_
_atom_site_type_symbol
_atom_site_label
_atom_site_fract_x
_atom_site_fract_y
_atom_site_fract_z
Si Si1 0.308178 0.873135 0.291957
Si Si2 0.659606 0.375639 0.873914
Si Si3 0.198067 0.268928 0.079783
Si Si4 0.576246 0.866152 0.119875
Si Si5 0.053565 0.372089 0.319053
Si Si6 0.947541 0.226428 0.367837
Si Si7 0.222592 0.371646 0.521764
O O1 0.255800 0.830461 0.160028
O O2 0.386644 0.805739 0.370155
O O3 0.257555 0.865059 0.347371
O O4 0.332781 0.000000 0.286823
O O5 0.647135 0.500000 0.910232
O O6 0.746673 0.371069 0.907951
O O7 0.599077 0.366498 0.733904
O O8 0.647182 0.278778 0.946769
O O9 0.146280 0.305995 0.125912
O O10 0.568167 0.820107 0.223311
O O11 0.593223 0.000000 0.133891
O O12 0.500000 0.834165 0.000000
O O13 0.019161 0.500000 0.280807
O O14 0.132550 0.375230 0.441188
O O15 0.996208 0.295036 0.330154
O O16 0.000000 0.174045 0.500000
O O17 0.252312 0.500000 0.506213
O O18 0.250000 0.250000 0.500000
#
# Coordination Sequence:
#
# PCOD8098118 Si02
#       7
#     8   8   8   8   8   8   8
#     4  10  20  34  58  86 113 147 187 239 290 341
#     4  10  22  38  58  84 114 150 191 237 290 349
#     4  10  20  37  60  84 113 149 187 234 288 349
#     4  10  20  34  55  84 114 148 188 233 286 341
#     4  10  20  34  56  82 114 149 187 239 288 340
#     4  11  21  36  58  84 115 150 193 239 292 342
#     4  10  20  35  54  80 113 149 191 237 288 345
#
# _framework density 19.851465999999999
#
# number of rings (size 3 to 8) (size 9 to 14) (size 15 to 20)
#    0.000    1.857    1.429    3.000    0.000    0.857 
#    0.000    7.857    0.000    9.429    0.000    0.000 
#    0.000    0.000    0.000    0.000    0.000    0.000 
#
# Total GULP energy -346907.662666 kJ/mol
# GULP energy per Si atom -12389.559381 kJ/mol
# Density = 1.980628 g / cm^3
# Si number density = 19.851466 Si / 1000 Ang^3
#
#
#
# Elastic Constant Matrix: (Units=GPa)
#
#
# Indices 1 2 3 4 5 6 
#
# 1 89.1147 26.4822 18.4474 0.0000 -11.8001 0.0000
# 2 26.4822 90.2775 15.0784 0.0000 3.8863 0.0000
# 3 18.4474 15.0784 107.4633 0.0000 -1.3889 0.0000
# 4 0.0000 0.0000 0.0000 13.6197 0.0000 -10.0155
# 5 -11.8001 3.8863 -1.3889 0.0000 28.3416 0.0000
# 6 0.0000 0.0000 0.0000 -10.0155 0.0000 17.3485
#
#
#
# Elastic Compliance Matrix: (Units=1/GPa)
#
#
# Indices 1 2 3 4 5 6 
#
# 1 0.013556 -0.003956 -0.001693 0.000000 0.006104 0.000000
# 2 -0.003956 0.012574 -0.001129 0.000000 -0.003427 0.000000
# 3 -0.001693 -0.001129 0.009754 0.000000 -0.000072 0.000000
# 4 0.000000 0.000000 0.000000 0.127590 0.000000 0.073659
# 5 0.006104 -0.003427 -0.000072 0.000000 0.038291 0.000000
# 6 0.000000 0.000000 0.000000 0.073659 0.000000 0.100166
#
#
# Mechanical properties :
#
#
# Convention : Reuss Voigt Hill
#
# Bulk Modulus (GPa) = 44.79168 45.20793 44.99981
# Shear Modulus (GPa) = 15.48323 26.98514 21.23418
#
# Velocity S-wave (km/s) = 2.79580 3.69094 3.27410
# Velocity P-wave (km/s) = 5.74755 6.40208 6.08362
#
# Compressibility (1/GPa) = 0.02232557
#
# Stress axis : x y z
#
# Youngs Moduli (GPa) = 73.76854 79.53110 102.52565
#
# Poissons Ratio (x) = 0.31466 0.17358
# Poissons Ratio (y) = 0.29186 0.11579
# Poissons Ratio (z) = 0.12489 0.08982
#
# Static dielectric constant tensor:
#      x y z
#    x 3.495610 0.000000 -0.077810 
#    y 0.000000 3.458760 0.000000 
#    z -0.077810 0.000000 3.763320 
# 
# 
# High freq. dielectric constant tensor:
#      x y z
#    x 1.760250 0.000000 -0.008640 
#    y 0.000000 1.756760 0.000000 
#    z -0.008640 0.000000 1.791520 
# 
# From -- ./inp_files/223931.got.cif
#   From: 2010.06.25/outbox.cif.g09.slc.cpg/sg12_112_cif.got.tgz:223931.got - 2010.06.28 00:19:55.
