data_PCOD8098876
_publ_section_title
;
Structure prediction by ZEFSAII (Michael W. Deem and Ramdas Pophale) SiO2 
 PCOD8098876
Probable space group: C 2/M
;
_chemical_formula_sum "Si O2"
_cell_formula_units_Z 56
_cell_length_a 19.640401
_cell_length_b 9.240466
_cell_length_c 20.610321
_cell_angle_alpha 90.000000
_cell_angle_beta 124.523747
_cell_angle_gamma 90.000000
_cell_volume 3081.760824
_symmetry_space_group_name_H-M "C 2/M"
_symmetry_group_IT_number 12
_symmetry_cell_setting 'monoclinic'
loop_
_space_group_symop_operation_xyz
x,y,z
-x,y,-z
-x,-y,-z
x,-y,z
1/2+x,1/2+y,z
1/2-x,1/2+y,-z
1/2-x,1/2-y,-z
1/2+x,1/2-y,z
loop_
_atom_site_type_symbol
_atom_site_label
_atom_site_fract_x
_atom_site_fract_y
_atom_site_fract_z
Si Si1 0.776014 0.670166 0.796890
Si Si2 0.818400 0.666756 0.497080
Si Si3 0.930613 0.832070 0.640938
Si Si4 0.333765 0.830479 0.061469
Si Si5 0.588262 0.830968 0.030767
Si Si6 0.297788 0.664992 0.676892
Si Si7 0.886189 0.831699 0.215868
O O1 0.785847 0.500000 0.794740
O O2 0.839150 0.734315 0.884852
O O3 0.797624 0.737107 0.739740
O O4 0.683428 0.710624 0.769252
O O5 0.821074 0.500000 0.519778
O O6 0.750000 0.750000 0.500000
O O7 0.905606 0.741791 0.562591
O O8 0.791436 0.681231 0.407227
O O9 0.873332 0.785718 0.670983
O O10 0.025454 0.796064 0.705873
O O11 0.916404 0.000000 0.617804
O O12 0.376728 0.766139 0.147702
O O13 0.315730 0.000000 0.061171
O O14 0.250000 0.750000 0.000000
O O15 0.395612 0.800826 0.035745
O O16 0.585078 0.000000 0.044016
O O17 0.500000 0.758557 0.000000
O O18 0.311909 0.500000 0.706025
O O19 0.878124 0.000000 0.191418
#
# Coordination Sequence:
#
# PCOD8098876 Si02
#       7
#     8   8   8   8   8   8   8
#     4  10  20  35  54  75 104 143 178 215 263 315
#     4   9  17  32  54  79 109 140 176 218 264 316
#     4   9  19  35  56  79 108 140 175 223 267 310
#     4  11  21  36  58  79 104 141 180 219 265 316
#     4   9  19  35  53  76 107 137 173 221 262 304
#     4   9  19  34  52  78 108 137 168 216 270 311
#     4  10  21  38  55  77 109 141 178 222 265 313
#
# _framework density 18.171430999999998
#
# number of rings (size 3 to 8) (size 9 to 14) (size 15 to 20)
#    0.000    2.429    1.429    1.714    2.000    4.000 
#    0.000    0.714    0.000    6.429    0.000    0.000 
#    0.000    0.000    0.000    0.000    0.000    0.000 
#
# Total GULP energy -347119.615185 kJ/mol
# GULP energy per Si atom -12397.129114 kJ/mol
# Density = 1.813007 g / cm^3
# Si number density = 18.171431 Si / 1000 Ang^3
#
#
#
# Elastic Constant Matrix: (Units=GPa)
#
#
# Indices 1 2 3 4 5 6 
#
# 1 107.8029 27.9391 43.5116 0.0000 18.2739 0.0000
# 2 27.9391 57.2968 33.7166 0.0000 7.0637 0.0000
# 3 43.5116 33.7166 81.3134 0.0000 14.4803 0.0000
# 4 0.0000 0.0000 0.0000 37.1712 0.0000 -2.8329
# 5 18.2739 7.0637 14.4803 0.0000 29.9858 0.0000
# 6 0.0000 0.0000 0.0000 -2.8329 0.0000 21.6817
#
#
#
# Elastic Compliance Matrix: (Units=1/GPa)
#
#
# Indices 1 2 3 4 5 6 
#
# 1 0.012756 -0.002797 -0.004813 0.000000 -0.004791 0.000000
# 2 -0.002797 0.023721 -0.008367 0.000000 0.000157 0.000000
# 3 -0.004813 -0.008367 0.019113 0.000000 -0.004326 0.000000
# 4 0.000000 0.000000 0.000000 0.027173 0.000000 0.003550
# 5 -0.004791 0.000157 -0.004326 0.000000 0.038320 0.000000
# 6 0.000000 0.000000 0.000000 0.003550 0.000000 0.046586
#
#
# Mechanical properties :
#
#
# Convention : Reuss Voigt Hill
#
# Bulk Modulus (GPa) = 42.30859 50.74977 46.52918
# Shear Modulus (GPa) = 24.09608 27.18415 25.64011
#
# Velocity S-wave (km/s) = 3.64544 3.87199 3.76042
# Velocity P-wave (km/s) = 6.40722 6.92667 6.67200
#
# Compressibility (1/GPa) = 0.02363586
#
# Stress axis : x y z
#
# Youngs Moduli (GPa) = 78.39612 42.15608 52.31974
#
# Poissons Ratio (x) = 0.11792 0.25180
# Poissons Ratio (y) = 0.21930 0.43777
# Poissons Ratio (z) = 0.37730 0.35273
#
# Static dielectric constant tensor:
#      x y z
#    x 3.768310 0.000000 0.172900 
#    y 0.000000 3.214460 0.000000 
#    z 0.172900 0.000000 3.859470 
# 
# 
# High freq. dielectric constant tensor:
#      x y z
#    x 1.693220 0.000000 0.011750 
#    y 0.000000 1.692290 0.000000 
#    z 0.011750 0.000000 1.711600 
# 
# From -- ./inp_files/275292.got.cif
#   From: 2010.06.25/outbox.cif.g09.slc.cpg/sg12_138_cif.got.tgz:275292.got - 2010.06.28 00:19:55.
