data_PCOD8098287
_publ_section_title
;
Structure prediction by ZEFSAII (Michael W. Deem and Ramdas Pophale) SiO2 
 PCOD8098287
Probable space group: C 2/M
;
_chemical_formula_sum "Si O2"
_cell_formula_units_Z 36
_cell_length_a 22.696507
_cell_length_b 13.025069
_cell_length_c 6.148137
_cell_angle_alpha 90.000000
_cell_angle_beta 101.537420
_cell_angle_gamma 90.000000
_cell_volume 1780.809634
_symmetry_space_group_name_H-M "C 2/M"
_symmetry_group_IT_number 12
_symmetry_cell_setting 'monoclinic'
loop_
_space_group_symop_operation_xyz
x,y,z
-x,y,-z
-x,-y,-z
x,-y,z
1/2+x,1/2+y,z
1/2-x,1/2+y,-z
1/2-x,1/2-y,-z
1/2+x,1/2-y,z
loop_
_atom_site_type_symbol
_atom_site_label
_atom_site_fract_x
_atom_site_fract_y
_atom_site_fract_z
Si Si1 0.582071 0.382140 0.897610
Si Si2 0.500000 0.267564 0.500000
Si Si3 0.312587 0.292517 0.272316
Si Si4 0.690306 0.119473 0.068472
Si Si5 0.896000 0.734753 0.709210
O O1 0.568664 0.500000 0.934828
O O2 0.534402 0.340242 0.691521
O O3 0.649198 0.367534 0.854501
O O4 0.575911 0.323750 0.121240
O O5 0.450636 0.197160 0.591152
O O6 0.247258 0.343272 0.252545
O O7 0.341448 0.282970 0.530793
O O8 0.309728 0.179709 0.160155
O O9 0.629645 0.142389 0.162131
O O10 0.692903 0.000000 0.016326
#
# Coordination Sequence:
#
# PCOD8098287 Si02
#       5
#     8   4   8   8   8
#     4  10  20  34  56  84 111 142 178 218 270 327
#     4  10  21  36  53  76 114 148 177 222 267 312
#     4   9  20  37  55  82 115 140 171 223 274 320
#     4  10  20  36  58  81 107 143 182 219 267 323
#     4  10  21  36  54  79 111 144 181 222 266 316
#
# _framework density 20.215525
#
# number of rings (size 3 to 8) (size 9 to 14) (size 15 to 20)
#    0.000    2.222    0.000    2.333    0.000    7.111 
#    0.000    0.556    0.000   17.333    0.000    0.000 
#    0.000    0.000    0.000    0.000    0.000    0.000 
#
# Total GULP energy -223189.859465 kJ/mol
# GULP energy per Si atom -12399.436637 kJ/mol
# Density = 2.016951 g / cm^3
# Si number density = 20.215525 Si / 1000 Ang^3
#
#
#
# Elastic Constant Matrix: (Units=GPa)
#
#
# Indices 1 2 3 4 5 6 
#
# 1 118.0668 44.1500 32.7606 0.0000 -6.2891 0.0000
# 2 44.1500 109.2513 35.9563 0.0000 -2.4496 0.0000
# 3 32.7606 35.9563 112.4149 0.0000 16.9591 0.0000
# 4 0.0000 0.0000 0.0000 11.3766 0.0000 1.5035
# 5 -6.2891 -2.4496 16.9591 0.0000 37.2477 0.0000
# 6 0.0000 0.0000 0.0000 1.5035 0.0000 13.3437
#
#
#
# Elastic Compliance Matrix: (Units=1/GPa)
#
#
# Indices 1 2 3 4 5 6 
#
# 1 0.010550 -0.003421 -0.002378 0.000000 0.002639 0.000000
# 2 -0.003421 0.011530 -0.002919 0.000000 0.001509 0.000000
# 3 -0.002378 -0.002919 0.011394 0.000000 -0.005781 0.000000
# 4 0.000000 0.000000 0.000000 0.089228 0.000000 -0.010054
# 5 0.002639 0.001509 -0.005781 0.000000 0.030024 0.000000
# 6 0.000000 0.000000 0.000000 -0.010054 0.000000 0.076075
#
#
# Mechanical properties :
#
#
# Convention : Reuss Voigt Hill
#
# Bulk Modulus (GPa) = 62.35256 62.82965 62.59111
# Shear Modulus (GPa) = 19.87409 27.51801 23.69605
#
# Velocity S-wave (km/s) = 3.13886 3.69349 3.42741
# Velocity P-wave (km/s) = 6.63683 7.02400 6.83315
#
# Compressibility (1/GPa) = 0.01603783
#
# Stress axis : x y z
#
# Youngs Moduli (GPa) = 94.78983 86.72843 87.76217
#
# Poissons Ratio (x) = 0.29673 0.20872
# Poissons Ratio (y) = 0.32431 0.25615
# Poissons Ratio (z) = 0.22543 0.25313
#
# Static dielectric constant tensor:
#      x y z
#    x 4.013760 0.000000 -0.017070 
#    y 0.000000 3.233330 0.000000 
#    z -0.017070 0.000000 3.731780 
# 
# 
# High freq. dielectric constant tensor:
#      x y z
#    x 1.810560 0.000000 0.001280 
#    y 0.000000 1.745460 0.000000 
#    z 0.001280 0.000000 1.799470 
# 
# From -- ./inp_files/23606.got.cif
#   From: 2010.06.25/outbox.cif.g09.slc.cpg/sg12_12_cif.got.tgz:23606.got - 2010.06.28 00:19:55.
