data_PCOD8098795
_publ_section_title
;
Structure prediction by ZEFSAII (Michael W. Deem and Ramdas Pophale) SiO2 
 PCOD8098795
Probable space group: C 2/M
;
_chemical_formula_sum "Si O2"
_cell_formula_units_Z 56
_cell_length_a 12.028735
_cell_length_b 30.677499
_cell_length_c 9.798090
_cell_angle_alpha 90.000000
_cell_angle_beta 124.132788
_cell_angle_gamma 90.000000
_cell_volume 2992.781038
_symmetry_space_group_name_H-M "C 2/M"
_symmetry_group_IT_number 12
_symmetry_cell_setting 'monoclinic'
loop_
_space_group_symop_operation_xyz
x,y,z
-x,y,-z
-x,-y,-z
x,-y,z
1/2+x,1/2+y,z
1/2-x,1/2+y,-z
1/2-x,1/2-y,-z
1/2+x,1/2-y,z
loop_
_atom_site_type_symbol
_atom_site_label
_atom_site_fract_x
_atom_site_fract_y
_atom_site_fract_z
Si Si1 0.454698 0.225799 0.617612
Si Si2 0.642957 0.551148 0.542579
Si Si3 0.844690 0.550611 0.919325
Si Si4 0.888285 0.103157 0.739708
Si Si5 0.189798 0.890702 0.013310
Si Si6 0.729969 0.205062 0.903309
Si Si7 0.822330 0.801734 0.666394
O O1 0.500000 0.241034 0.500000
O O2 0.570628 0.197147 0.769139
O O3 0.316206 0.199126 0.514669
O O4 0.434578 0.269169 0.690043
O O5 0.500000 0.568581 0.500000
O O6 0.637691 0.500000 0.516505
O O7 0.760010 0.564651 0.727881
O O8 0.675019 0.571467 0.416841
O O9 0.818906 0.500000 0.936842
O O10 0.800665 0.579551 0.017491
O O11 0.000000 0.560096 0.000000
O O12 0.884992 0.151766 0.681661
O O13 0.043984 0.091797 0.869493
O O14 0.798655 0.101369 0.815705
O O15 0.212870 0.839492 0.989329
O O16 0.804541 0.210927 0.811434
O O17 0.750000 0.250000 0.000000
#
# Coordination Sequence:
#
# PCOD8098795 Si02
#       7
#     8   8   8   8   8   8   8
#     4   9  18  34  52  73 103 145 189 230 277 336
#     4  10  20  37  60  87 116 149 190 233 285 346
#     4  10  22  42  62  85 122 155 188 245 300 350
#     4  10  20  35  59  85 116 146 188 245 288 338
#     4  10  21  37  57  87 115 152 196 236 294 354
#     4  10  20  35  53  75 112 149 184 236 284 335
#     4   9  19  35  52  76 106 143 186 234 287 327
#
# _framework density 18.711694000000001
#
# number of rings (size 3 to 8) (size 9 to 14) (size 15 to 20)
#    0.000    2.286    1.429    0.857    0.000    4.000 
#   10.286    3.571    0.000    2.571    0.000    0.000 
#    0.000    0.000    0.000    0.000    0.000    0.000 
#
# Total GULP energy -347148.963706 kJ/mol
# GULP energy per Si atom -12398.177275 kJ/mol
# Density = 1.866911 g / cm^3
# Si number density = 18.711694 Si / 1000 Ang^3
#
#
#
# Elastic Constant Matrix: (Units=GPa)
#
#
# Indices 1 2 3 4 5 6 
#
# 1 92.7486 44.8693 39.8447 0.0000 2.7110 0.0000
# 2 44.8693 75.2976 43.5629 0.0000 -13.2620 0.0000
# 3 39.8447 43.5629 92.6431 0.0000 -0.6382 0.0000
# 4 0.0000 0.0000 0.0000 33.2323 0.0000 -6.9742
# 5 2.7110 -13.2620 -0.6382 0.0000 24.8981 0.0000
# 6 0.0000 0.0000 0.0000 -6.9742 0.0000 31.7208
#
#
#
# Elastic Compliance Matrix: (Units=1/GPa)
#
#
# Indices 1 2 3 4 5 6 
#
# 1 0.016862 -0.009714 -0.002733 0.000000 -0.007080 0.000000
# 2 -0.009714 0.026401 -0.008134 0.000000 0.014912 0.000000
# 3 -0.002733 -0.008134 0.015770 0.000000 -0.003631 0.000000
# 4 0.000000 0.000000 0.000000 0.031547 0.000000 0.006936
# 5 -0.007080 0.014912 -0.003631 0.000000 0.048784 0.000000
# 6 0.000000 0.000000 0.000000 0.006936 0.000000 0.033050
#
#
# Mechanical properties :
#
#
# Convention : Reuss Voigt Hill
#
# Bulk Modulus (GPa) = 55.95736 57.47146 56.71441
# Shear Modulus (GPa) = 22.77559 26.79774 24.78667
#
# Velocity S-wave (km/s) = 3.49260 3.78847 3.64354
# Velocity P-wave (km/s) = 6.79958 7.06523 6.93368
#
# Compressibility (1/GPa) = 0.01787075
#
# Stress axis : x y z
#
# Youngs Moduli (GPa) = 59.30389 37.87704 63.41349
#
# Poissons Ratio (x) = 0.36793 0.17334
# Poissons Ratio (y) = 0.57606 0.51580
# Poissons Ratio (z) = 0.16210 0.30809
#
# Static dielectric constant tensor:
#      x y z
#    x 3.459270 0.000000 0.077390 
#    y 0.000000 3.382310 0.000000 
#    z 0.077390 0.000000 3.527350 
# 
# 
# High freq. dielectric constant tensor:
#      x y z
#    x 1.727820 0.000000 0.004630 
#    y 0.000000 1.715590 0.000000 
#    z 0.004630 0.000000 1.728330 
# 
# From -- ./inp_files/54806.got.cif
#   From: 2010.06.25/outbox.cif.g09.slc.cpg/sg12_28_cif.got.tgz:54806.got - 2010.06.28 00:19:55.
