data_PCOD8098373
_publ_section_title
;
Structure prediction by ZEFSAII (Michael W. Deem and Ramdas Pophale) SiO2 
 PCOD8098373
Probable space group: C 2/M
;
_chemical_formula_sum "Si O2"
_cell_formula_units_Z 64
_cell_length_a 30.187529
_cell_length_b 9.236731
_cell_length_c 16.009919
_cell_angle_alpha 90.000000
_cell_angle_beta 47.022509
_cell_angle_gamma 90.000000
_cell_volume 3266.039993
_symmetry_space_group_name_H-M "C 2/M"
_symmetry_group_IT_number 12
_symmetry_cell_setting 'monoclinic'
loop_
_space_group_symop_operation_xyz
x,y,z
-x,y,-z
-x,-y,-z
x,-y,z
1/2+x,1/2+y,z
1/2-x,1/2+y,-z
1/2-x,1/2-y,-z
1/2+x,1/2-y,z
loop_
_atom_site_type_symbol
_atom_site_label
_atom_site_fract_x
_atom_site_fract_y
_atom_site_fract_z
Si Si1 0.047152 0.328260 0.371355
Si Si2 0.776082 0.832080 0.045021
Si Si3 0.610901 0.332017 0.674318
Si Si4 0.878720 0.665616 0.998837
Si Si5 0.333338 0.832982 0.695252
Si Si6 0.002136 0.332437 0.250435
Si Si7 0.658758 0.169862 0.767303
Si Si8 0.703526 0.666588 0.413328
O O1 0.045978 0.500000 0.371386
O O2 0.114129 0.273319 0.310841
O O3 0.030316 0.272165 0.300822
O O4 0.000000 0.266865 0.500000
O O5 0.840596 0.767120 0.986571
O O6 0.731419 0.807339 0.179894
O O7 0.783196 0.000000 0.013365
O O8 0.750000 0.750000 0.000000
O O9 0.597128 0.500000 0.707109
O O10 0.555692 0.263305 0.695116
O O11 0.617868 0.254326 0.753873
O O12 0.672488 0.309732 0.542713
O O13 0.858100 0.500000 0.009867
O O14 0.868424 0.709733 0.107753
O O15 0.949015 0.686320 0.886259
O O16 0.335703 0.750538 0.604762
O O17 0.345532 0.000000 0.659363
O O18 0.982477 0.500000 0.284152
O O19 0.727857 0.225438 0.671440
O O20 0.654118 0.000000 0.753925
O O21 0.704044 0.500000 0.385470
#
# Coordination Sequence:
#
# PCOD8098373 Si02
#       8
#     8   8   8   8   8   8   8   8
#     4   9  17  31  53  81 112 147 189 234 276 326
#     4  11  22  35  55  84 118 156 196 239 289 345
#     4  11  24  39  58  86 118 151 193 244 296 354
#     4  10  21  39  62  85 114 151 197 248 292 348
#     4  10  20  34  56  86 115 148 193 240 287 342
#     4  10  21  39  61  83 113 155 199 242 289 347
#     4  10  21  39  62  85 113 151 195 243 297 354
#     4  10  21  38  59  86 119 152 189 239 297 353
#
# _framework density 19.595596
#
# number of rings (size 3 to 8) (size 9 to 14) (size 15 to 20)
#    0.000    1.875    1.250    2.625    0.000    6.500 
#    0.000    3.125    0.000    2.250    0.000    0.000 
#    0.000    0.000    0.000    0.000    0.000    0.000 
#
# Total GULP energy -396937.962637 kJ/mol
# GULP energy per Si atom -12404.311332 kJ/mol
# Density = 1.955100 g / cm^3
# Si number density = 19.595596 Si / 1000 Ang^3
#
#
#
# Elastic Constant Matrix: (Units=GPa)
#
#
# Indices 1 2 3 4 5 6 
#
# 1 110.5465 38.1597 28.5393 0.0000 12.2330 0.0000
# 2 38.1597 67.1331 27.3114 -0.0003 10.6581 0.0001
# 3 28.5393 27.3114 87.5819 -0.0002 6.4588 0.0000
# 4 0.0000 -0.0003 -0.0002 24.8197 0.0000 2.3911
# 5 12.2330 10.6581 6.4588 0.0000 34.6970 0.0000
# 6 0.0000 0.0001 0.0000 2.3911 0.0000 37.2581
#
#
#
# Elastic Compliance Matrix: (Units=1/GPa)
#
#
# Indices 1 2 3 4 5 6 
#
# 1 0.011680 -0.005527 -0.001931 0.000000 -0.002061 0.000000
# 2 -0.005527 0.020335 -0.004282 0.000000 -0.003501 0.000000
# 3 -0.001931 -0.004282 0.013419 0.000000 -0.000502 0.000000
# 4 0.000000 0.000000 0.000000 0.040541 0.000000 -0.002602
# 5 -0.002061 -0.003501 -0.000502 0.000000 0.030716 0.000000
# 6 0.000000 0.000000 0.000000 -0.002602 0.000000 0.027007
#
#
# Mechanical properties :
#
#
# Convention : Reuss Voigt Hill
#
# Bulk Modulus (GPa) = 45.54623 50.36470 47.95547
# Shear Modulus (GPa) = 28.65384 30.77168 29.71276
#
# Velocity S-wave (km/s) = 3.82810 3.96705 3.89819
# Velocity P-wave (km/s) = 6.54467 6.83675 6.69230
#
# Compressibility (1/GPa) = 0.02195571
#
# Stress axis : x y z
#
# Youngs Moduli (GPa) = 85.61486 49.17608 74.51908
#
# Poissons Ratio (x) = 0.27178 0.14387
# Poissons Ratio (y) = 0.47316 0.31911
# Poissons Ratio (z) = 0.16530 0.21058
#
# Static dielectric constant tensor:
#      x y z
#    x 3.562630 0.000000 -0.044210 
#    y 0.000000 3.394570 0.000000 
#    z -0.044210 0.000000 3.734050 
# 
# 
# High freq. dielectric constant tensor:
#      x y z
#    x 1.767940 0.000000 0.001640 
#    y 0.000000 1.743590 0.000000 
#    z 0.001640 0.000000 1.772700 
# 
# From -- ./inp_files/249882.got.cif
#   From: 2010.06.25/outbox.cif.g09.slc.cpg/sg12_125_cif.got.tgz:249882.got - 2010.06.28 00:19:55.
