data_PCOD8098873
_publ_section_title
;
Structure prediction by ZEFSAII (Michael W. Deem and Ramdas Pophale) SiO2 
 PCOD8098873
Probable space group: C 2/M
;
_chemical_formula_sum "Si O2"
_cell_formula_units_Z 56
_cell_length_a 18.712694
_cell_length_b 8.849539
_cell_length_c 22.621854
_cell_angle_alpha 90.000000
_cell_angle_beta 51.801498
_cell_angle_gamma 90.000000
_cell_volume 2943.998338
_symmetry_space_group_name_H-M "C 2/M"
_symmetry_group_IT_number 12
_symmetry_cell_setting 'monoclinic'
loop_
_space_group_symop_operation_xyz
x,y,z
-x,y,-z
-x,-y,-z
x,-y,z
1/2+x,1/2+y,z
1/2-x,1/2+y,-z
1/2-x,1/2-y,-z
1/2+x,1/2-y,z
loop_
_atom_site_type_symbol
_atom_site_label
_atom_site_fract_x
_atom_site_fract_y
_atom_site_fract_z
Si Si1 0.343407 0.678869 0.432099
Si Si2 0.196380 0.678688 0.292686
Si Si3 0.521190 0.679379 0.873595
Si Si4 0.170379 0.674974 0.004498
Si Si5 0.511975 0.677343 0.425966
Si Si6 0.322092 0.175000 0.136782
Si Si7 0.855554 0.178178 0.294630
O O1 0.331890 0.500000 0.437011
O O2 0.250000 0.750000 0.500000
O O3 0.422228 0.728112 0.436735
O O4 0.366809 0.744278 0.354814
O O5 0.198943 0.500000 0.282664
O O6 0.094795 0.732662 0.355417
O O7 0.234578 0.754229 0.213645
O O8 0.259453 0.730290 0.315551
O O9 0.518613 0.500000 0.880249
O O10 0.421871 0.744848 0.929884
O O11 0.584891 0.741860 0.893057
O O12 0.562208 0.732969 0.789396
O O13 0.162483 0.500000 0.024881
O O14 0.250000 0.750000 0.000000
O O15 0.192625 0.699112 0.924749
O O16 0.500000 0.724875 0.500000
O O17 0.531107 0.500000 0.409650
O O18 0.330866 0.000000 0.149335
O O19 0.857575 0.000000 0.297361
#
# Coordination Sequence:
#
# PCOD8098873 Si02
#       7
#     8   8   8   8   8   8   8
#     4  10  20  35  54  75 104 140 177 218 264 317
#     4  10  20  35  57  82 106 137 181 229 273 323
#     4  10  20  36  59  84 110 143 185 230 276 331
#     4  11  24  39  56  81 113 148 185 228 278 330
#     4  10  21  35  52  78 111 145 180 222 275 331
#     4  10  21  38  59  82 111 147 184 224 276 335
#     4   8  17  34  54  77 104 136 174 216 265 317
#
# _framework density 19.021747999999999
#
# number of rings (size 3 to 8) (size 9 to 14) (size 15 to 20)
#    0.000    2.143    0.000    3.857    0.000    6.000 
#    0.000    6.429    0.000    0.000    0.000    0.000 
#    0.000    0.000    0.000    0.000    0.000    0.000 
#
# Total GULP energy -347250.746768 kJ/mol
# GULP energy per Si atom -12401.812385 kJ/mol
# Density = 1.897845 g / cm^3
# Si number density = 19.021748 Si / 1000 Ang^3
#
#
#
# Elastic Constant Matrix: (Units=GPa)
#
#
# Indices 1 2 3 4 5 6 
#
# 1 145.6623 66.2019 89.5079 0.0000 -2.6792 0.0000
# 2 66.2019 90.3439 65.7907 0.0000 -4.1327 -0.0002
# 3 89.5079 65.7907 134.1313 0.0000 -10.7084 -0.0001
# 4 0.0000 0.0000 0.0000 34.5738 0.0000 -6.6244
# 5 -2.6792 -4.1327 -10.7084 0.0000 35.3100 0.0000
# 6 0.0000 -0.0002 -0.0001 -6.6244 0.0000 28.4862
#
#
#
# Elastic Compliance Matrix: (Units=1/GPa)
#
#
# Indices 1 2 3 4 5 6 
#
# 1 0.013004 -0.004964 -0.006365 0.000000 -0.001525 0.000000
# 2 -0.004964 0.019125 -0.006066 0.000000 0.000022 0.000000
# 3 -0.006365 -0.006066 0.014945 0.000000 0.003339 0.000000
# 4 0.000000 0.000000 0.000000 0.030272 0.000000 0.007040
# 5 -0.001525 0.000022 0.003339 0.000000 0.029220 0.000000
# 6 0.000000 0.000000 0.000000 0.007040 0.000000 0.036742
#
#
# Mechanical properties :
#
#
# Convention : Reuss Voigt Hill
#
# Bulk Modulus (GPa) = 81.40875 90.34873 85.87874
# Shear Modulus (GPa) = 27.44325 29.58314 28.51320
#
# Velocity S-wave (km/s) = 3.80245 3.94792 3.87586
# Velocity P-wave (km/s) = 7.88472 8.26935 8.07932
#
# Compressibility (1/GPa) = 0.01228369
#
# Stress axis : x y z
#
# Youngs Moduli (GPa) = 76.89700 52.28752 66.91204
#
# Poissons Ratio (x) = 0.25955 0.42589
# Poissons Ratio (y) = 0.38171 0.40592
# Poissons Ratio (z) = 0.48945 0.31720
#
# Static dielectric constant tensor:
#      x y z
#    x 3.615240 0.000000 0.186120 
#    y 0.000000 3.444340 0.000000 
#    z 0.186120 0.000000 3.715350 
# 
# 
# High freq. dielectric constant tensor:
#      x y z
#    x 1.741320 0.000000 0.001660 
#    y 0.000000 1.734330 0.000000 
#    z 0.001660 0.000000 1.753350 
# 
# From -- ./inp_files/342281.got.cif
#   From: 2010.06.25/outbox.cif.g09.slc.cpg/sg12_172_cif.got.tgz:342281.got - 2010.06.28 00:19:55.
