data_PCOD8098725
_publ_section_title
;
Structure prediction by ZEFSAII (Michael W. Deem and Ramdas Pophale) SiO2 
 PCOD8098725
Probable space group: C 2/M
;
_chemical_formula_sum "Si O2"
_cell_formula_units_Z 56
_cell_length_a 22.468607
_cell_length_b 14.112695
_cell_length_c 14.577214
_cell_angle_alpha 90.000000
_cell_angle_beta 139.818669
_cell_angle_gamma 90.000000
_cell_volume 2982.365749
_symmetry_space_group_name_H-M "C 2/M"
_symmetry_group_IT_number 12
_symmetry_cell_setting 'monoclinic'
loop_
_space_group_symop_operation_xyz
x,y,z
-x,y,-z
-x,-y,-z
x,-y,z
1/2+x,1/2+y,z
1/2-x,1/2+y,-z
1/2-x,1/2-y,-z
1/2+x,1/2-y,z
loop_
_atom_site_type_symbol
_atom_site_label
_atom_site_fract_x
_atom_site_fract_y
_atom_site_fract_z
Si Si1 0.244930 0.218015 0.641365
Si Si2 0.727498 0.395782 0.898429
Si Si3 0.623004 0.106064 0.084991
Si Si4 0.895769 0.229290 0.361971
Si Si5 0.878125 0.389049 0.213338
Si Si6 0.984436 0.388873 0.777425
Si Si7 0.272905 0.111722 0.500338
O O1 0.340828 0.180807 0.797654
O O2 0.161131 0.209955 0.613296
O O3 0.217583 0.148815 0.524314
O O4 0.259711 0.327015 0.626111
O O5 0.683803 0.500000 0.857787
O O6 0.806422 0.398722 0.915368
O O7 0.644860 0.326763 0.773433
O O8 0.776880 0.365681 0.051852
O O9 0.614633 0.000000 0.119827
O O10 0.525228 0.141529 0.926034
O O11 0.889179 0.339488 0.325375
O O12 0.000000 0.195885 0.500000
O O13 0.890219 0.500000 0.244974
O O14 0.957619 0.346574 0.239676
O O15 0.999126 0.500000 0.788838
O O16 0.878923 0.359751 0.643545
O O17 0.256848 0.000000 0.463874
#
# Coordination Sequence:
#
# PCOD8098725 Si02
#       7
#     8   8   8   8   8   8   8
#     4  10  21  33  47  73  98 128 163 191 241 289
#     4   8  16  31  48  67  95 132 165 191 226 274
#     4   8  14  28  50  75 100 119 149 199 242 282
#     4  11  21  31  48  74 101 127 159 199 237 278
#     4   9  17  31  51  74 102 129 151 185 239 298
#     4   8  15  29  52  79  99 120 151 192 245 291
#     4  10  20  35  52  69  96 128 160 199 239 287
#
# _framework density 18.77704
#
# number of rings (size 3 to 8) (size 9 to 14) (size 15 to 20)
#    0.000    2.857    0.000    3.429    0.000    2.286 
#    0.000    2.143    0.000    0.000    0.000    9.000 
#    0.000    0.000    0.000    0.000    0.000    0.000 
#
# Total GULP energy -347039.869286 kJ/mol
# GULP energy per Si atom -12394.281046 kJ/mol
# Density = 1.873430 g / cm^3
# Si number density = 18.777040 Si / 1000 Ang^3
#
#
#
# Elastic Constant Matrix: (Units=GPa)
#
#
# Indices 1 2 3 4 5 6 
#
# 1 61.8915 29.3859 32.6665 0.0000 0.9332 0.0000
# 2 29.3859 88.9046 48.2864 0.0000 6.6174 0.0000
# 3 32.6665 48.2864 89.1878 0.0000 6.1096 0.0000
# 4 0.0000 0.0000 0.0000 32.1743 0.0000 -8.4091
# 5 0.9332 6.6174 6.1096 0.0000 13.6809 0.0000
# 6 0.0000 0.0000 0.0000 -8.4091 0.0000 20.1331
#
#
#
# Elastic Compliance Matrix: (Units=1/GPa)
#
#
# Indices 1 2 3 4 5 6 
#
# 1 0.021069 -0.004091 -0.005714 0.000000 0.003093 0.000000
# 2 -0.004091 0.016940 -0.007356 0.000000 -0.004630 0.000000
# 3 -0.005714 -0.007356 0.017554 0.000000 -0.003892 0.000000
# 4 0.000000 0.000000 0.000000 0.034889 0.000000 0.014572
# 5 0.003093 -0.004630 -0.003892 0.000000 0.076861 0.000000
# 6 0.000000 0.000000 0.000000 0.014572 0.000000 0.055756
#
#
# Mechanical properties :
#
#
# Convention : Reuss Voigt Hill
#
# Bulk Modulus (GPa) = 47.07708 51.18462 49.13085
# Shear Modulus (GPa) = 18.90571 21.84068 20.37320
#
# Velocity S-wave (km/s) = 3.17654 3.41421 3.29752
# Velocity P-wave (km/s) = 6.21127 6.54682 6.38125
#
# Compressibility (1/GPa) = 0.02124176
#
# Stress axis : x y z
#
# Youngs Moduli (GPa) = 47.46360 59.03229 56.96661
#
# Poissons Ratio (x) = 0.24149 0.32550
# Poissons Ratio (y) = 0.19416 0.41904
# Poissons Ratio (z) = 0.27120 0.43423
#
# Static dielectric constant tensor:
#      x y z
#    x 3.318280 0.000000 -0.006570 
#    y 0.000000 3.356570 0.000000 
#    z -0.006570 0.000000 3.728620 
# 
# 
# High freq. dielectric constant tensor:
#      x y z
#    x 1.716180 0.000000 -0.009110 
#    y 0.000000 1.709520 0.000000 
#    z -0.009110 0.000000 1.727140 
# 
# From -- ./inp_files/225177.got.cif
#   From: 2010.06.25/outbox.cif.g09.slc.cpg/sg12_113_cif.got.tgz:225177.got - 2010.06.28 00:19:55.
