data_PCOD8098220
_publ_section_title
;
Structure prediction by ZEFSAII (Michael W. Deem and Ramdas Pophale) SiO2 
 PCOD8098220
Probable space group: C 2/M
;
_chemical_formula_sum "Si O2"
_cell_formula_units_Z 56
_cell_length_a 14.740311
_cell_length_b 9.031565
_cell_length_c 26.706718
_cell_angle_alpha 90.000000
_cell_angle_beta 127.014537
_cell_angle_gamma 90.000000
_cell_volume 2838.936906
_symmetry_space_group_name_H-M "C 2/M"
_symmetry_group_IT_number 12
_symmetry_cell_setting 'monoclinic'
loop_
_space_group_symop_operation_xyz
x,y,z
-x,y,-z
-x,-y,-z
x,-y,z
1/2+x,1/2+y,z
1/2-x,1/2+y,-z
1/2-x,1/2-y,-z
1/2+x,1/2-y,z
loop_
_atom_site_type_symbol
_atom_site_label
_atom_site_fract_x
_atom_site_fract_y
_atom_site_fract_z
Si Si1 0.889692 0.167396 0.801329
Si Si2 0.537446 0.825237 0.269556
Si Si3 0.076527 0.669900 0.922619
Si Si4 0.096291 0.174008 0.492803
Si Si5 0.719088 0.829453 0.061256
Si Si6 0.643934 0.825968 0.407675
Si Si7 0.779774 0.331477 0.173576
O O1 0.765123 0.176681 0.784467
O O2 0.886010 0.259828 0.749269
O O3 0.973267 0.228803 0.871714
O O4 0.925098 0.000000 0.800406
O O5 0.582213 0.765265 0.337467
O O6 0.408787 0.773364 0.217215
O O7 0.549462 0.000000 0.272204
O O8 0.049155 0.500000 0.899792
O O9 0.187181 0.718954 0.929167
O O10 0.102522 0.687710 0.990705
O O11 0.222795 0.214958 0.553974
O O12 0.081532 0.249683 0.433853
O O13 0.000000 0.232129 0.500000
O O14 0.081363 0.000000 0.480261
O O15 0.702756 0.775757 0.112954
O O16 0.759874 0.000000 0.073048
O O17 0.627978 0.000000 0.409367
O O18 0.772520 0.500000 0.151304
#
# Coordination Sequence:
#
# PCOD8098220 Si02
#       7
#     8   8   8   8   8   8   8
#     4  11  23  37  55  81 108 141 187 231 275 333
#     4  10  21  39  58  77 109 150 185 225 276 326
#     4  10  20  35  55  79 108 140 175 226 287 335
#     4   9  18  34  56  84 117 147 179 224 272 316
#     4  10  20  34  56  82 105 136 182 228 276 339
#     4   9  19  35  56  82 111 147 188 222 266 325
#     4  10  22  38  55  77 109 145 181 228 284 332
#
# _framework density 19.725693
#
# number of rings (size 3 to 8) (size 9 to 14) (size 15 to 20)
#    0.000    2.143    1.429    1.286    0.000    5.429 
#    0.000    2.857    0.000    0.000    0.000    0.000 
#    0.000    0.000    0.000    0.000    0.000    0.000 
#
# Total GULP energy -347163.843747 kJ/mol
# GULP energy per Si atom -12398.708705 kJ/mol
# Density = 1.968080 g / cm^3
# Si number density = 19.725693 Si / 1000 Ang^3
#
#
#
# Elastic Constant Matrix: (Units=GPa)
#
#
# Indices 1 2 3 4 5 6 
#
# 1 88.3128 24.3950 38.6142 0.0000 -27.7260 0.0000
# 2 24.3950 44.4295 41.6359 0.0000 -7.0302 0.0000
# 3 38.6142 41.6359 137.4617 0.0000 -25.6492 0.0000
# 4 0.0000 0.0000 0.0000 31.0714 0.0000 -7.9405
# 5 -27.7260 -7.0302 -25.6492 0.0000 21.2812 0.0000
# 6 0.0000 0.0000 0.0000 -7.9405 0.0000 27.0630
#
#
#
# Elastic Compliance Matrix: (Units=1/GPa)
#
#
# Indices 1 2 3 4 5 6 
#
# 1 0.021691 -0.009293 0.001834 0.000000 0.027401 0.000000
# 2 -0.009293 0.035443 -0.010578 0.000000 -0.013148 0.000000
# 3 0.001834 -0.010578 0.012588 0.000000 0.014068 0.000000
# 4 0.000000 0.000000 0.000000 0.034793 0.000000 0.010208
# 5 0.027401 -0.013148 0.014068 0.000000 0.095300 0.000000
# 6 0.000000 0.000000 0.000000 0.010208 0.000000 0.039946
#
#
# Mechanical properties :
#
#
# Convention : Reuss Voigt Hill
#
# Bulk Modulus (GPa) = 29.71932 53.27713 41.49822
# Shear Modulus (GPa) = 17.41854 26.92039 22.16947
#
# Velocity S-wave (km/s) = 2.97482 3.69824 3.35608
# Velocity P-wave (km/s) = 5.18637 6.73080 6.00841
#
# Compressibility (1/GPa) = 0.03364814
#
# Stress axis : x y z
#
# Youngs Moduli (GPa) = 46.10217 28.21455 79.43861
#
# Poissons Ratio (x) = 0.26220 -0.14572
# Poissons Ratio (y) = 0.42844 0.84031
# Poissons Ratio (z) = -0.08457 0.29846
#
# Static dielectric constant tensor:
#      x y z
#    x 3.513370 0.000000 -0.054690 
#    y 0.000000 3.505540 0.000000 
#    z -0.054690 0.000000 3.719020 
# 
# 
# High freq. dielectric constant tensor:
#      x y z
#    x 1.762700 0.000000 -0.009840 
#    y 0.000000 1.765670 0.000000 
#    z -0.009840 0.000000 1.765640 
# 
# From -- ./inp_files/338495.got.cif
#   From: 2010.06.25/outbox.cif.g09.slc.cpg/sg12_170_cif.got.tgz:338495.got - 2010.06.28 00:19:55.
