data_PCOD8098733
_publ_section_title
;
Structure prediction by ZEFSAII (Michael W. Deem and Ramdas Pophale) SiO2 
 PCOD8098733
Probable space group: C 2/M
;
_chemical_formula_sum "Si O2"
_cell_formula_units_Z 64
_cell_length_a 24.049136
_cell_length_b 8.775018
_cell_length_c 20.096934
_cell_angle_alpha 90.000000
_cell_angle_beta 122.420790
_cell_angle_gamma 90.000000
_cell_volume 3580.044353
_symmetry_space_group_name_H-M "C 2/M"
_symmetry_group_IT_number 12
_symmetry_cell_setting 'monoclinic'
loop_
_space_group_symop_operation_xyz
x,y,z
-x,y,-z
-x,-y,-z
x,-y,z
1/2+x,1/2+y,z
1/2-x,1/2+y,-z
1/2-x,1/2-y,-z
1/2+x,1/2-y,z
loop_
_atom_site_type_symbol
_atom_site_label
_atom_site_fract_x
_atom_site_fract_y
_atom_site_fract_z
Si Si1 0.156090 0.320878 0.897739
Si Si2 0.211548 0.679198 0.068045
Si Si3 0.727304 0.821724 0.220628
Si Si4 0.096338 0.821051 0.376776
Si Si5 0.797020 0.319037 0.650287
Si Si6 0.636879 0.825805 0.676087
Si Si7 0.158457 0.677084 0.540989
Si Si8 0.959566 0.321599 0.270588
O O1 0.162282 0.500000 0.893242
O O2 0.218066 0.252006 0.900137
O O3 0.088713 0.266603 0.820003
O O4 0.158100 0.272090 0.977521
O O5 0.222721 0.500000 0.072749
O O6 0.188250 0.728058 0.127957
O O7 0.695798 0.757159 0.268677
O O8 0.802733 0.774333 0.260236
O O9 0.726306 0.000000 0.228910
O O10 0.148873 0.769701 0.356178
O O11 0.107628 0.733433 0.453103
O O12 0.024604 0.777791 0.303840
O O13 0.101852 0.000000 0.392168
O O14 0.807086 0.500000 0.649249
O O15 0.724966 0.275175 0.577099
O O16 0.622796 0.796428 0.589079
O O17 0.572802 0.784723 0.678368
O O18 0.657201 0.000000 0.701958
O O19 0.175733 0.500000 0.540824
O O20 0.976865 0.500000 0.275318
#
# Coordination Sequence:
#
# PCOD8098733 Si02
#       8
#     8   8   8   8   8   8   8   8
#     4   9  17  29  48  74 106 139 168 199 239 293
#     4   9  16  27  47  78 109 134 163 201 245 292
#     4   9  17  29  50  78 107 133 162 205 253 295
#     4  12  25  38  52  72  97 132 174 215 257 303
#     4  10  20  36  56  77 101 131 168 212 255 297
#     4   9  18  32  52  76 103 134 168 201 245 300
#     4  10  20  36  57  79 102 129 163 210 256 300
#     4  10  20  35  52  72 103 140 173 205 243 297
#
# _framework density 17.876874999999998
#
# number of rings (size 3 to 8) (size 9 to 14) (size 15 to 20)
#    0.000    2.250    1.250    2.250    0.000    2.500 
#    0.000    2.500    0.000    0.750    0.000    5.250 
#    0.000    0.000    0.000    0.000    0.000    0.000 
#
# Total GULP energy -396638.949844 kJ/mol
# GULP energy per Si atom -12394.967183 kJ/mol
# Density = 1.783619 g / cm^3
# Si number density = 17.876875 Si / 1000 Ang^3
#
#
#
# Elastic Constant Matrix: (Units=GPa)
#
#
# Indices 1 2 3 4 5 6 
#
# 1 38.3044 11.9254 42.2009 0.0000 6.3036 0.0000
# 2 11.9254 31.4512 24.7380 0.0000 -6.0412 0.0000
# 3 42.2009 24.7380 136.9626 0.0000 -9.2007 0.0000
# 4 0.0000 0.0000 0.0000 20.9513 0.0000 3.5490
# 5 6.3036 -6.0412 -9.2007 0.0000 16.7825 0.0000
# 6 0.0000 0.0000 0.0000 3.5490 0.0000 24.7181
#
#
#
# Elastic Compliance Matrix: (Units=1/GPa)
#
#
# Indices 1 2 3 4 5 6 
#
# 1 0.054485 -0.014318 -0.016532 0.000000 -0.034682 0.000000
# 2 -0.014318 0.042528 -0.001952 0.000000 0.019617 0.000000
# 3 -0.016532 -0.001952 0.013619 0.000000 0.012973 0.000000
# 4 0.000000 0.000000 0.000000 0.048920 0.000000 -0.007024
# 5 -0.034682 0.019617 0.012973 0.000000 0.086786 0.000000
# 6 0.000000 0.000000 0.000000 -0.007024 0.000000 0.041465
#
#
# Mechanical properties :
#
#
# Convention : Reuss Voigt Hill
#
# Bulk Modulus (GPa) = 22.20811 40.49412 31.35112
# Shear Modulus (GPa) = 13.57166 21.01398 17.29282
#
# Velocity S-wave (km/s) = 2.75830 3.43225 3.11357
# Velocity P-wave (km/s) = 4.75332 6.19742 5.52277
#
# Compressibility (1/GPa) = 0.04502859
#
# Stress axis : x y z
#
# Youngs Moduli (GPa) = 18.35363 23.51413 73.42663
#
# Poissons Ratio (x) = 0.33668 1.21387
# Poissons Ratio (y) = 0.26279 0.14331
# Poissons Ratio (z) = 0.30342 0.04590
#
# Static dielectric constant tensor:
#      x y z
#    x 3.148990 0.000000 -0.359220 
#    y 0.000000 3.307920 0.000000 
#    z -0.359220 0.000000 3.785820 
# 
# 
# High freq. dielectric constant tensor:
#      x y z
#    x 1.666180 0.000000 -0.024450 
#    y 0.000000 1.690200 0.000000 
#    z -0.024450 0.000000 1.701240 
# 
# From -- ./inp_files/319853.got.cif
#   From: 2010.06.25/outbox.cif.g09.slc.cpg/sg12_160_cif.got.tgz:319853.got - 2010.06.28 00:19:55.
