data_PCOD8098027
_publ_section_title
;
Structure prediction by ZEFSAII (Michael W. Deem and Ramdas Pophale) SiO2 
 PCOD8098027
Probable space group: C 2/M
;
_chemical_formula_sum "Si O2"
_cell_formula_units_Z 56
_cell_length_a 33.150302
_cell_length_b 8.848542
_cell_length_c 12.353641
_cell_angle_alpha 90.000000
_cell_angle_beta 119.656714
_cell_angle_gamma 90.000000
_cell_volume 3149.029623
_symmetry_space_group_name_H-M "C 2/M"
_symmetry_group_IT_number 12
_symmetry_cell_setting 'monoclinic'
loop_
_space_group_symop_operation_xyz
x,y,z
-x,y,-z
-x,-y,-z
x,-y,z
1/2+x,1/2+y,z
1/2-x,1/2+y,-z
1/2-x,1/2-y,-z
1/2+x,1/2-y,z
loop_
_atom_site_type_symbol
_atom_site_label
_atom_site_fract_x
_atom_site_fract_y
_atom_site_fract_z
Si Si1 0.388334 0.677465 0.976731
Si Si2 0.111742 0.177573 0.612632
Si Si3 0.702112 0.822085 0.060005
Si Si4 0.049505 0.324285 0.110727
Si Si5 0.050743 0.822881 0.737720
Si Si6 0.453841 0.176080 0.641484
Si Si7 0.297679 0.177948 0.188205
O O1 0.379338 0.500000 0.967369
O O2 0.339432 0.760727 0.922222
O O3 0.410603 0.726742 0.893061
O O4 0.422418 0.727697 0.118746
O O5 0.081625 0.223985 0.676656
O O6 0.086645 0.233196 0.471434
O O7 0.161458 0.257279 0.683814
O O8 0.119644 0.000000 0.617939
O O9 0.749573 0.748516 0.165841
O O10 0.705982 0.000000 0.078311
O O11 0.693214 0.774033 0.923949
O O12 0.057597 0.500000 0.095216
O O13 0.051655 0.288572 0.239759
O O14 0.000000 0.270023 0.000000
O O15 0.003454 0.730968 0.664932
O O16 0.039026 0.000000 0.722593
O O17 0.448983 0.000000 0.609218
O O18 0.295046 0.000000 0.198621
#
# Coordination Sequence:
#
# PCOD8098027 Si02
#       7
#     8   8   8   8   8   8   8
#     4  11  21  34  56  83 112 143 183 228 272 324
#     4  11  22  37  55  78 114 150 183 223 274 330
#     4  10  20  34  55  82 113 146 179 222 276 325
#     4  10  21  38  56  77 107 144 186 232 277 320
#     4  10  21  35  52  78 112 148 181 222 273 325
#     4  11  23  37  55  78 108 146 190 231 271 326
#     4  10  20  34  55  82 112 144 183 224 268 325
#
# _framework density 17.783253999999999
#
# number of rings (size 3 to 8) (size 9 to 14) (size 15 to 20)
#    0.000    1.571    2.857    2.571    0.000    6.000 
#    0.000    0.000    0.000    0.857    0.000    0.000 
#    0.000    0.000    0.000    0.000    0.000    0.000 
#
# Total GULP energy -347393.869571 kJ/mol
# GULP energy per Si atom -12406.923913 kJ/mol
# Density = 1.774278 g / cm^3
# Si number density = 17.783254 Si / 1000 Ang^3
#
#
#
# Elastic Constant Matrix: (Units=GPa)
#
#
# Indices 1 2 3 4 5 6 
#
# 1 108.9759 43.9379 51.1837 0.0000 22.1445 0.0000
# 2 43.9379 69.4313 35.3136 0.0000 9.5559 0.0000
# 3 51.1837 35.3136 85.4218 0.0000 14.2179 0.0000
# 4 0.0000 0.0000 0.0000 30.5497 0.0000 4.4285
# 5 22.1445 9.5559 14.2179 0.0000 28.6732 0.0000
# 6 0.0000 0.0000 0.0000 4.4285 0.0000 35.2687
#
#
#
# Elastic Compliance Matrix: (Units=1/GPa)
#
#
# Indices 1 2 3 4 5 6 
#
# 1 0.015816 -0.006078 -0.005742 0.000000 -0.007342 0.000000
# 2 -0.006078 0.020746 -0.004976 0.000000 0.000247 0.000000
# 3 -0.005742 -0.004976 0.017646 0.000000 -0.002657 0.000000
# 4 0.000000 0.000000 0.000000 0.033340 0.000000 -0.004186
# 5 -0.007342 0.000247 -0.002657 0.000000 0.041781 0.000000
# 6 0.000000 0.000000 0.000000 -0.004186 0.000000 0.028879
#
#
# Mechanical properties :
#
#
# Convention : Reuss Voigt Hill
#
# Bulk Modulus (GPa) = 48.50422 58.29992 53.40207
# Shear Modulus (GPa) = 25.16718 27.79123 26.47921
#
# Velocity S-wave (km/s) = 3.76602 3.95748 3.86294
# Velocity P-wave (km/s) = 6.80037 7.33055 7.07043
#
# Compressibility (1/GPa) = 0.02061676
#
# Stress axis : x y z
#
# Youngs Moduli (GPa) = 63.22899 48.20321 56.66860
#
# Poissons Ratio (x) = 0.29296 0.32539
# Poissons Ratio (y) = 0.38428 0.28197
# Poissons Ratio (z) = 0.36306 0.23985
#
# Static dielectric constant tensor:
#      x y z
#    x 3.240180 0.000000 0.077670 
#    y 0.000000 3.294530 0.000000 
#    z 0.077670 0.000000 3.224000 
# 
# 
# High freq. dielectric constant tensor:
#      x y z
#    x 1.685920 0.000000 0.011280 
#    y 0.000000 1.699200 0.000000 
#    z 0.011280 0.000000 1.674280 
# 
# From -- ./inp_files/180644.got.cif
#   From: 2010.06.25/outbox.cif.g09.slc.cpg/sg12_91_cif.got.tgz:180644.got - 2010.06.28 00:19:55.
