data_PCOD8098085
_publ_section_title
;
Structure prediction by ZEFSAII (Michael W. Deem and Ramdas Pophale) SiO2 
 PCOD8098085
Probable space group: C 2/M
;
_chemical_formula_sum "Si O2"
_cell_formula_units_Z 64
_cell_length_a 20.378963
_cell_length_b 17.632034
_cell_length_c 15.625564
_cell_angle_alpha 90.000000
_cell_angle_beta 143.408473
_cell_angle_gamma 90.000000
_cell_volume 3346.908175
_symmetry_space_group_name_H-M "C 2/M"
_symmetry_group_IT_number 12
_symmetry_cell_setting 'monoclinic'
loop_
_space_group_symop_operation_xyz
x,y,z
-x,y,-z
-x,-y,-z
x,-y,z
1/2+x,1/2+y,z
1/2-x,1/2+y,-z
1/2-x,1/2-y,-z
1/2+x,1/2-y,z
loop_
_atom_site_type_symbol
_atom_site_label
_atom_site_fract_x
_atom_site_fract_y
_atom_site_fract_z
Si Si1 0.665579 0.176542 0.723175
Si Si2 0.639835 0.088347 0.961394
Si Si3 0.488572 0.350352 0.298945
Si Si4 0.804448 0.913421 0.421317
Si Si5 0.938960 0.684963 0.565737
Si Si6 0.601448 0.089839 0.321324
Si Si7 0.313444 0.653582 0.251441
Si Si8 0.691314 0.409590 0.007305
O O1 0.552925 0.148833 0.650581
O O2 0.647509 0.187398 0.602926
O O3 0.699147 0.259649 0.790534
O O4 0.765362 0.119508 0.854225
O O5 0.517106 0.122173 0.832943
O O6 0.711949 0.115796 0.956405
O O7 0.626459 0.000000 0.944024
O O8 0.699066 0.111930 0.110891
O O9 0.595492 0.404616 0.406808
O O10 0.532851 0.264911 0.359131
O O11 0.414466 0.379355 0.301406
O O12 0.419382 0.364972 0.138691
O O13 0.691928 0.884716 0.347019
O O14 0.835818 0.859351 0.374712
O O15 0.792551 0.000000 0.378375
O O16 0.876256 0.629567 0.564968
O O17 0.605818 0.000000 0.339822
O O18 0.670647 0.500000 0.987658
#
# Coordination Sequence:
#
# PCOD8098085 Si02
#       8
#     8   8   8   8   8   8   8   8
#     4  10  20  34  57  87 115 145 184 234 292 335
#     4   9  18  33  53  81 112 145 182 226 284 338
#     4  10  21  36  58  85 113 147 190 239 285 336
#     4  11  22  37  56  80 113 155 191 229 284 343
#     4  10  20  36  58  84 116 146 186 242 284 337
#     4  10  22  37  55  80 114 152 192 230 277 345
#     4  10  20  34  55  83 115 144 182 239 285 337
#     4  10  20  34  57  88 116 145 186 236 289 343
#
# _framework density 19.122126000000002
#
# number of rings (size 3 to 8) (size 9 to 14) (size 15 to 20)
#    0.000    2.000    2.500    1.125    1.750    5.000 
#    0.000    3.125    0.000    0.750    0.000    2.625 
#    0.000    0.000    0.000    0.000    0.000    0.000 
#
# Total GULP energy -396633.299613 kJ/mol
# GULP energy per Si atom -12394.790613 kJ/mol
# Density = 1.907860 g / cm^3
# Si number density = 19.122126 Si / 1000 Ang^3
#
#
#
# Elastic Constant Matrix: (Units=GPa)
#
#
# Indices 1 2 3 4 5 6 
#
# 1 50.4557 23.4388 23.5875 0.0000 8.5619 0.0000
# 2 23.4388 35.8079 28.1506 0.0000 1.3169 0.0000
# 3 23.5875 28.1506 130.1163 0.0000 1.3635 0.0000
# 4 0.0000 0.0000 0.0000 34.5235 0.0000 -3.6239
# 5 8.5619 1.3169 1.3635 0.0000 24.1163 0.0000
# 6 0.0000 0.0000 0.0000 -3.6239 0.0000 24.2533
#
#
#
# Elastic Compliance Matrix: (Units=1/GPa)
#
#
# Indices 1 2 3 4 5 6 
#
# 1 0.030852 -0.018697 -0.001445 0.000000 -0.009850 0.000000
# 2 -0.018697 0.045030 -0.006400 0.000000 0.004541 0.000000
# 3 -0.001445 -0.006400 0.009329 0.000000 0.000335 0.000000
# 4 0.000000 0.000000 0.000000 0.029427 0.000000 0.004397
# 5 -0.009850 0.004541 0.000335 0.000000 0.044696 0.000000
# 6 0.000000 0.000000 0.000000 0.004397 0.000000 0.041888
#
#
# Mechanical properties :
#
#
# Convention : Reuss Voigt Hill
#
# Bulk Modulus (GPa) = 31.12675 40.74819 35.93747
# Shear Modulus (GPa) = 18.86693 25.99217 22.42955
#
# Velocity S-wave (km/s) = 3.14451 3.69083 3.42857
# Velocity P-wave (km/s) = 5.43113 6.28639 5.87434
#
# Compressibility (1/GPa) = 0.03212671
#
# Stress axis : x y z
#
# Youngs Moduli (GPa) = 32.41323 22.20746 107.19802
#
# Poissons Ratio (x) = 0.41521 0.15485
# Poissons Ratio (y) = 0.60602 0.68612
# Poissons Ratio (z) = 0.04682 0.14214
#
# Static dielectric constant tensor:
#      x y z
#    x 3.209920 0.000000 0.095090 
#    y 0.000000 3.311420 0.000000 
#    z 0.095090 0.000000 3.698600 
# 
# 
# High freq. dielectric constant tensor:
#      x y z
#    x 1.702190 0.000000 0.000600 
#    y 0.000000 1.736210 0.000000 
#    z 0.000600 0.000000 1.755750 
# 
# From -- ./inp_files/226875.got.cif
#   From: 2010.06.25/outbox.cif.g09.slc.cpg/sg12_114_cif.got.tgz:226875.got - 2010.06.28 00:19:55.
