data_PCOD8098828
_publ_section_title
;
Structure prediction by ZEFSAII (Michael W. Deem and Ramdas Pophale) SiO2 
 PCOD8098828
Probable space group: C 2/M
;
_chemical_formula_sum "Si O2"
_cell_formula_units_Z 56
_cell_length_a 21.319913
_cell_length_b 8.903911
_cell_length_c 18.137787
_cell_angle_alpha 90.000000
_cell_angle_beta 57.036715
_cell_angle_gamma 90.000000
_cell_volume 2888.833677
_symmetry_space_group_name_H-M "C 2/M"
_symmetry_group_IT_number 12
_symmetry_cell_setting 'monoclinic'
loop_
_space_group_symop_operation_xyz
x,y,z
-x,y,-z
-x,-y,-z
x,-y,z
1/2+x,1/2+y,z
1/2-x,1/2+y,-z
1/2-x,1/2-y,-z
1/2+x,1/2-y,z
loop_
_atom_site_type_symbol
_atom_site_label
_atom_site_fract_x
_atom_site_fract_y
_atom_site_fract_z
Si Si1 0.736197 0.322575 0.087610
Si Si2 0.829132 0.322760 0.467345
Si Si3 0.891781 0.174149 0.723096
Si Si4 0.914486 0.677939 0.559453
Si Si5 0.112869 0.676210 0.940861
Si Si6 0.484295 0.177709 0.129026
Si Si7 0.045398 0.173711 0.700400
O O1 0.735322 0.500000 0.076242
O O2 0.660664 0.266204 0.176344
O O3 0.803146 0.269424 0.098537
O O4 0.750000 0.250000 0.000000
O O5 0.819207 0.500000 0.473622
O O6 0.750000 0.250000 0.500000
O O7 0.864705 0.266016 0.522022
O O8 0.884868 0.275167 0.366872
O O9 0.874463 0.260259 0.658404
O O10 0.977624 0.203499 0.687870
O O11 0.874025 0.000000 0.721304
O O12 0.915474 0.500000 0.562215
O O13 0.000000 0.739243 0.500000
O O14 0.104764 0.500000 0.952048
O O15 0.087322 0.722670 0.875286
O O16 0.057760 0.737177 0.039516
O O17 0.481274 0.277292 0.202882
O O18 0.486257 0.000000 0.146345
O O19 0.069015 0.000000 0.685486
#
# Coordination Sequence:
#
# PCOD8098828 Si02
#       7
#     8   8   8   8   8   8   8
#     4  10  20  35  53  79 113 148 187 235 285 338
#     4  11  24  42  63  88 118 151 188 239 296 352
#     4  10  22  36  56  85 117 154 196 241 293 350
#     4  10  21  40  64  88 115 149 196 247 290 345
#     4   8  16  32  53  76 106 144 190 237 285 342
#     4   9  17  32  55  79 104 145 193 237 286 343
#     4  11  22  36  54  82 116 149 189 237 289 350
#
# _framework density 19.384985
#
# number of rings (size 3 to 8) (size 9 to 14) (size 15 to 20)
#    0.000    2.143    1.429    2.571    0.000    3.714 
#    0.000    3.571    0.000    0.000    0.000    0.000 
#    0.000    0.000    0.000    0.000    0.000    0.000 
#
# Total GULP energy -347162.036162 kJ/mol
# GULP energy per Si atom -12398.644149 kJ/mol
# Density = 1.934086 g / cm^3
# Si number density = 19.384985 Si / 1000 Ang^3
#
#
#
# Elastic Constant Matrix: (Units=GPa)
#
#
# Indices 1 2 3 4 5 6 
#
# 1 102.3711 40.8428 34.1632 0.0001 -2.2983 -0.0004
# 2 40.8428 38.3194 28.1406 -0.0004 2.2678 -0.0017
# 3 34.1632 28.1406 98.5963 0.0000 5.6313 -0.0001
# 4 0.0001 -0.0004 0.0000 34.7054 0.0001 4.1528
# 5 -2.2983 2.2678 5.6313 0.0001 36.2686 0.0000
# 6 -0.0004 -0.0017 -0.0001 4.1528 0.0000 22.6687
#
#
#
# Elastic Compliance Matrix: (Units=1/GPa)
#
#
# Indices 1 2 3 4 5 6 
#
# 1 0.017259 -0.017769 -0.001044 0.000000 0.002367 -0.000001
# 2 -0.017769 0.051324 -0.008318 0.000000 -0.003044 0.000004
# 3 -0.001044 -0.008318 0.012967 0.000000 -0.001559 -0.000001
# 4 0.000000 0.000000 0.000000 0.029460 0.000000 -0.005397
# 5 0.002367 -0.003044 -0.001559 0.000000 0.028155 0.000000
# 6 -0.000001 0.000004 -0.000001 -0.005397 0.000000 0.045102
#
#
# Mechanical properties :
#
#
# Convention : Reuss Voigt Hill
#
# Bulk Modulus (GPa) = 36.64500 49.50888 43.07694
# Shear Modulus (GPa) = 20.19177 27.80455 23.99816
#
# Velocity S-wave (km/s) = 3.23091 3.79137 3.52231
# Velocity P-wave (km/s) = 5.73265 6.69038 6.22995
#
# Compressibility (1/GPa) = 0.02728886
#
# Stress axis : x y z
#
# Youngs Moduli (GPa) = 57.93988 19.48391 77.11808
#
# Poissons Ratio (x) = 0.34622 0.08050
# Poissons Ratio (y) = 1.02955 0.64145
# Poissons Ratio (z) = 0.06048 0.16206
#
# Static dielectric constant tensor:
#      x y z
#    x 5.295790 0.000000 -0.408670 
#    y 0.000000 3.264900 0.000000 
#    z -0.408670 0.000000 3.608580 
# 
# 
# High freq. dielectric constant tensor:
#      x y z
#    x 1.762470 0.000000 0.003330 
#    y 0.000000 1.732480 0.000000 
#    z 0.003330 0.000000 1.759870 
# 
# From -- ./inp_files/280940.got.cif
#   From: 2010.06.25/outbox.cif.g09.slc.cpg/sg12_141_cif.got.tgz:280940.got - 2010.06.28 00:19:55.
