data_PCOD8098832
_publ_section_title
;
Structure prediction by ZEFSAII (Michael W. Deem and Ramdas Pophale) SiO2 
 PCOD8098832
Probable space group: C 2/M
;
_chemical_formula_sum "Si O2"
_cell_formula_units_Z 48
_cell_length_a 9.386748
_cell_length_b 25.581343
_cell_length_c 11.651980
_cell_angle_alpha 90.000000
_cell_angle_beta 67.309815
_cell_angle_gamma 90.000000
_cell_volume 2581.390156
_symmetry_space_group_name_H-M "C 2/M"
_symmetry_group_IT_number 12
_symmetry_cell_setting 'monoclinic'
loop_
_space_group_symop_operation_xyz
x,y,z
-x,y,-z
-x,-y,-z
x,-y,z
1/2+x,1/2+y,z
1/2-x,1/2+y,-z
1/2-x,1/2-y,-z
1/2+x,1/2-y,z
loop_
_atom_site_type_symbol
_atom_site_label
_atom_site_fract_x
_atom_site_fract_y
_atom_site_fract_z
Si Si1 0.835679 0.312735 0.225005
Si Si2 0.672067 0.442595 0.901715
Si Si3 0.834209 0.804241 0.503335
Si Si4 0.182764 0.284277 0.160465
Si Si5 0.139536 0.860096 0.740074
Si Si6 0.294071 0.353850 0.937758
O O1 0.765905 0.332385 0.366754
O O2 0.719211 0.272438 0.198220
O O3 0.825120 0.359223 0.133706
O O4 0.000686 0.287488 0.192896
O O5 0.752260 0.500000 0.876681
O O6 0.680109 0.419515 0.768293
O O7 0.500000 0.449041 0.000000
O O8 0.752126 0.402208 0.965319
O O9 0.750000 0.750000 0.500000
O O10 0.852299 0.847704 0.397720
O O11 0.000000 0.788191 0.500000
O O12 0.231014 0.323529 0.245705
O O13 0.270555 0.299586 0.015728
O O14 0.970478 0.850323 0.843643
#
# Coordination Sequence:
#
# PCOD8098832 Si02
#       6
#     8   8   8   8   8   8
#     4  12  22  34  51  74 111 150 185 217 260 315
#     4   8  16  33  60  85 105 132 174 228 282 327
#     4  12  23  37  52  72 112 153 187 216 254 310
#     4  11  22  34  51  75 109 147 183 222 262 317
#     4  10  20  36  55  79 106 142 184 222 265 318
#     4  10  20  35  53  80 108 136 176 225 276 318
#
# _framework density 18.594631
#
# number of rings (size 3 to 8) (size 9 to 14) (size 15 to 20)
#    0.000    1.500    3.333    4.500    0.000    1.333 
#    0.000    0.000    0.000    9.500    0.000    4.667 
#    0.000    0.000    0.000    0.000    0.000    0.000 
#
# Total GULP energy -297332.083956 kJ/mol
# GULP energy per Si atom -12388.836831 kJ/mol
# Density = 1.855231 g / cm^3
# Si number density = 18.594631 Si / 1000 Ang^3
#
#
#
# Elastic Constant Matrix: (Units=GPa)
#
#
# Indices 1 2 3 4 5 6 
#
# 1 116.1513 24.5974 36.0210 0.0000 9.3955 0.0000
# 2 24.5974 89.5452 49.0521 0.0000 15.5033 0.0000
# 3 36.0210 49.0521 137.4713 0.0000 20.8336 0.0000
# 4 0.0000 0.0000 0.0000 15.3616 0.0000 3.0392
# 5 9.3955 15.5033 20.8336 0.0000 30.6680 0.0000
# 6 0.0000 0.0000 0.0000 3.0392 0.0000 12.0717
#
#
#
# Elastic Compliance Matrix: (Units=1/GPa)
#
#
# Indices 1 2 3 4 5 6 
#
# 1 0.009566 -0.001454 -0.001845 0.000000 -0.000942 0.000000
# 2 -0.001454 0.014573 -0.004203 0.000000 -0.004067 0.000000
# 3 -0.001845 -0.004203 0.009865 0.000000 -0.004012 0.000000
# 4 0.000000 0.000000 0.000000 0.068510 0.000000 -0.017248
# 5 -0.000942 -0.004067 -0.004012 0.000000 0.037677 0.000000
# 6 0.000000 0.000000 0.000000 -0.017248 0.000000 0.087181
#
#
# Mechanical properties :
#
#
# Convention : Reuss Voigt Hill
#
# Bulk Modulus (GPa) = 52.62819 62.50096 57.56458
# Shear Modulus (GPa) = 20.10382 27.18672 23.64527
#
# Velocity S-wave (km/s) = 3.29167 3.82786 3.56984
# Velocity P-wave (km/s) = 6.54302 7.29534 6.92940
#
# Compressibility (1/GPa) = 0.01900122
#
# Stress axis : x y z
#
# Youngs Moduli (GPa) = 104.54004 68.61910 101.36569
#
# Poissons Ratio (x) = 0.09976 0.18701
# Poissons Ratio (y) = 0.15199 0.42601
# Poissons Ratio (z) = 0.19286 0.28839
#
# Static dielectric constant tensor:
#      x y z
#    x 3.557390 0.000000 0.316440 
#    y 0.000000 3.690760 0.000000 
#    z 0.316440 0.000000 3.712690 
# 
# 
# High freq. dielectric constant tensor:
#      x y z
#    x 1.726930 0.000000 0.016870 
#    y 0.000000 1.679740 0.000000 
#    z 0.016870 0.000000 1.724860 
# 
# From -- ./inp_files/123491.got.cif
#   From: 2010.06.25/outbox.cif.g09.slc.cpg/sg12_62_cif.got.tgz:123491.got - 2010.06.28 00:19:55.
