data_PCOD8098485
_publ_section_title
;
Structure prediction by ZEFSAII (Michael W. Deem and Ramdas Pophale) SiO2 
 PCOD8098485
Probable space group: C 2/M
;
_chemical_formula_sum "Si O2"
_cell_formula_units_Z 64
_cell_length_a 16.556998
_cell_length_b 8.526680
_cell_length_c 21.953777
_cell_angle_alpha 90.000000
_cell_angle_beta 89.590387
_cell_angle_gamma 90.000000
_cell_volume 3099.272130
_symmetry_space_group_name_H-M "C 2/M"
_symmetry_group_IT_number 12
_symmetry_cell_setting 'monoclinic'
loop_
_space_group_symop_operation_xyz
x,y,z
-x,y,-z
-x,-y,-z
x,-y,z
1/2+x,1/2+y,z
1/2-x,1/2+y,-z
1/2-x,1/2-y,-z
1/2+x,1/2-y,z
loop_
_atom_site_type_symbol
_atom_site_label
_atom_site_fract_x
_atom_site_fract_y
_atom_site_fract_z
Si Si1 0.178113 0.319138 0.872405
Si Si2 0.665635 0.186308 0.518532
Si Si3 0.423116 0.318966 0.373898
Si Si4 0.489039 0.186280 0.068952
Si Si5 0.339051 0.823114 0.722913
Si Si6 0.647320 0.186887 0.141732
Si Si7 0.914492 0.679832 0.602353
Si Si8 0.658711 0.675475 0.747418
O O1 0.188297 0.500000 0.888768
O O2 0.265418 0.239973 0.887428
O O3 0.155154 0.299355 0.801774
O O4 0.099112 0.249520 0.908472
O O5 0.750000 0.250000 0.500000
O O6 0.650059 0.277662 0.581419
O O7 0.610020 0.247982 0.463047
O O8 0.661278 0.000000 0.528483
O O9 0.448393 0.500000 0.380961
O O10 0.490605 0.199139 0.395224
O O11 0.406074 0.280707 0.303365
O O12 0.567969 0.249500 0.105967
O O13 0.488521 0.000000 0.074493
O O14 0.500000 0.244014 0.000000
O O15 0.360364 0.746259 0.788860
O O16 0.377163 0.735713 0.663461
O O17 0.243884 0.818766 0.712852
O O18 0.372893 0.000000 0.724915
O O19 0.650787 0.000000 0.141532
O O20 0.887003 0.500000 0.603876
O O21 0.644513 0.500000 0.773965
#
# Coordination Sequence:
#
# PCOD8098485 Si02
#       8
#     8   8   8   8   8   8   8   8
#     4  10  20  34  57  87 115 146 192 246 288 332
#     4  11  23  39  58  79 106 145 187 231 281 335
#     4  11  23  37  55  81 111 144 182 229 281 333
#     4   9  19  35  56  84 117 154 196 234 277 346
#     4   8  15  31  55  76  98 137 185 222 263 331
#     4   9  18  35  58  81 112 157 195 230 287 349
#     4  10  21  36  55  79 109 143 181 226 277 334
#     4   9  19  37  57  78 109 147 184 225 281 340
#
# _framework density 20.650009000000001
#
# number of rings (size 3 to 8) (size 9 to 14) (size 15 to 20)
#    0.000    2.375    0.000    3.000    1.750    6.000 
#    0.000    3.750    0.000    2.625    0.000    0.000 
#    0.000    0.000    0.000    0.000    0.000    0.000 
#
# Total GULP energy -396456.086500 kJ/mol
# GULP energy per Si atom -12389.252703 kJ/mol
# Density = 2.060301 g / cm^3
# Si number density = 20.650009 Si / 1000 Ang^3
#
#
#
# Elastic Constant Matrix: (Units=GPa)
#
#
# Indices 1 2 3 4 5 6 
#
# 1 93.2235 14.2493 24.9407 0.0000 -1.1372 0.0000
# 2 14.2493 26.1045 17.5932 0.0000 2.4528 0.0000
# 3 24.9407 17.5932 83.9314 0.0000 -3.3636 0.0000
# 4 0.0000 0.0000 0.0000 16.8761 0.0000 -3.6641
# 5 -1.1372 2.4528 -3.3636 0.0000 41.6754 0.0000
# 6 0.0000 0.0000 0.0000 -3.6641 0.0000 28.1717
#
#
#
# Elastic Compliance Matrix: (Units=1/GPa)
#
#
# Indices 1 2 3 4 5 6 
#
# 1 0.012175 -0.004959 -0.002562 0.000000 0.000417 0.000000
# 2 -0.004959 0.047112 -0.008546 0.000000 -0.003598 0.000000
# 3 -0.002562 -0.008546 0.014531 0.000000 0.001606 0.000000
# 4 0.000000 0.000000 0.000000 0.060977 0.000000 0.007931
# 5 0.000417 -0.003598 0.001606 0.000000 0.024348 0.000000
# 6 0.000000 0.000000 0.000000 0.007931 0.000000 0.036528
#
#
# Mechanical properties :
#
#
# Convention : Reuss Voigt Hill
#
# Bulk Modulus (GPa) = 23.98900 35.20287 29.59594
# Shear Modulus (GPa) = 20.68678 27.10972 23.89825
#
# Velocity S-wave (km/s) = 3.16853 3.62721 3.40560
# Velocity P-wave (km/s) = 5.00282 5.88444 5.46145
#
# Compressibility (1/GPa) = 0.04168577
#
# Stress axis : x y z
#
# Youngs Moduli (GPa) = 82.13341 21.22599 68.81605
#
# Poissons Ratio (x) = 0.10525 0.17630
# Poissons Ratio (y) = 0.40727 0.58811
# Poissons Ratio (z) = 0.21041 0.18140
#
# Static dielectric constant tensor:
#      x y z
#    x 3.879780 0.000000 0.115060 
#    y 0.000000 3.329120 0.000000 
#    z 0.115060 0.000000 4.228980 
# 
# 
# High freq. dielectric constant tensor:
#      x y z
#    x 1.815610 0.000000 -0.001000 
#    y 0.000000 1.765750 0.000000 
#    z -0.001000 0.000000 1.814460 
# 
# From -- ./inp_files/338865.got.cif
#   From: 2010.06.25/outbox.cif.g09.slc.cpg/sg12_170_cif.got.tgz:338865.got - 2010.06.28 00:19:55.
