data_PCOD8098906
_publ_section_title
;
Structure prediction by ZEFSAII (Michael W. Deem and Ramdas Pophale) SiO2 
 PCOD8098906
Probable space group: C 2/M
;
_chemical_formula_sum "Si O2"
_cell_formula_units_Z 64
_cell_length_a 14.475213
_cell_length_b 9.146080
_cell_length_c 29.905546
_cell_angle_alpha 90.000000
_cell_angle_beta 60.723687
_cell_angle_gamma 90.000000
_cell_volume 3453.531216
_symmetry_space_group_name_H-M "C 2/M"
_symmetry_group_IT_number 12
_symmetry_cell_setting 'monoclinic'
loop_
_space_group_symop_operation_xyz
x,y,z
-x,y,-z
-x,-y,-z
x,-y,z
1/2+x,1/2+y,z
1/2-x,1/2+y,-z
1/2-x,1/2-y,-z
1/2+x,1/2-y,z
loop_
_atom_site_type_symbol
_atom_site_label
_atom_site_fract_x
_atom_site_fract_y
_atom_site_fract_z
Si Si1 0.479420 0.167125 0.366322
Si Si2 0.917178 0.829078 0.081791
Si Si3 0.381152 0.672562 0.261745
Si Si4 0.563330 0.169185 0.441239
Si Si5 0.178243 0.327606 0.811982
Si Si6 0.587528 0.331446 0.267412
Si Si7 0.770658 0.672498 0.365162
Si Si8 0.652262 0.330458 0.000315
O O1 0.486656 0.197388 0.417285
O O2 0.572022 0.251990 0.318444
O O3 0.363987 0.216806 0.377170
O O4 0.498864 0.000000 0.349781
O O5 0.865027 0.726342 0.130749
O O6 0.858687 0.789928 0.049276
O O7 0.901902 0.000000 0.096873
O O8 0.041719 0.790193 0.050437
O O9 0.359935 0.500000 0.264346
O O10 0.382679 0.742069 0.212478
O O11 0.495510 0.711850 0.254761
O O12 0.289538 0.747004 0.313378
O O13 0.500000 0.218054 0.500000
O O14 0.665159 0.270794 0.413400
O O15 0.598740 0.000000 0.435684
O O16 0.158707 0.500000 0.811432
O O17 0.301956 0.286199 0.780830
O O18 0.584293 0.500000 0.280118
O O19 0.763417 0.500000 0.358199
O O20 0.675611 0.500000 0.000230
O O21 0.750000 0.250000 0.000000
#
# Coordination Sequence:
#
# PCOD8098906 Si02
#       8
#     8   8   8   8   8   8   8   8
#     4   9  19  35  54  75 101 134 171 212 258 308
#     4   9  20  38  55  77 110 146 179 214 264 323
#     4  10  20  36  56  77 104 141 177 209 257 318
#     4  10  21  36  53  75 103 136 174 213 259 318
#     4  11  22  35  53  81 113 141 174 221 264 302
#     4   9  20  36  53  75 104 137 173 211 255 309
#     4  10  20  35  54  77 104 133 171 218 262 307
#     4   9  19  37  60  81 105 140 183 225 266 313
#
# _framework density 18.531756999999999
#
# number of rings (size 3 to 8) (size 9 to 14) (size 15 to 20)
#    0.000    2.375    0.000    2.625    0.000    7.250 
#    0.000    5.000    0.000    0.000    0.000    0.000 
#    0.000    0.000    0.000    0.000    0.000    0.000 
#
# Total GULP energy -396871.544224 kJ/mol
# GULP energy per Si atom -12402.235757 kJ/mol
# Density = 1.848958 g / cm^3
# Si number density = 18.531757 Si / 1000 Ang^3
#
#
#
# Elastic Constant Matrix: (Units=GPa)
#
#
# Indices 1 2 3 4 5 6 
#
# 1 96.1826 41.6435 48.6095 0.0000 6.7725 0.0000
# 2 41.6435 69.1494 49.9183 0.0000 6.2415 0.0000
# 3 48.6095 49.9183 128.4830 0.0000 10.1935 0.0000
# 4 0.0000 0.0000 0.0000 35.2486 0.0000 -2.7288
# 5 6.7725 6.2415 10.1935 0.0000 20.3743 0.0000
# 6 0.0000 0.0000 0.0000 -2.7288 0.0000 29.5999
#
#
#
# Elastic Compliance Matrix: (Units=1/GPa)
#
#
# Indices 1 2 3 4 5 6 
#
# 1 0.014880 -0.006741 -0.002897 0.000000 -0.001432 0.000000
# 2 -0.006741 0.023260 -0.006351 0.000000 -0.001707 0.000000
# 3 -0.002897 -0.006351 0.011576 0.000000 -0.002883 0.000000
# 4 0.000000 0.000000 0.000000 0.028574 0.000000 0.002634
# 5 -0.001432 -0.001707 -0.002883 0.000000 0.051523 0.000000
# 6 0.000000 0.000000 0.000000 0.002634 0.000000 0.034027
#
#
# Mechanical properties :
#
#
# Convention : Reuss Voigt Hill
#
# Bulk Modulus (GPa) = 56.37783 63.79529 60.08656
# Shear Modulus (GPa) = 24.78564 27.28748 26.03656
#
# Velocity S-wave (km/s) = 3.66111 3.84144 3.75236
# Velocity P-wave (km/s) = 6.95413 7.36038 7.16014
#
# Compressibility (1/GPa) = 0.01773747
#
# Stress axis : x y z
#
# Youngs Moduli (GPa) = 67.20250 42.99263 86.38869
#
# Poissons Ratio (x) = 0.28979 0.25030
# Poissons Ratio (y) = 0.45298 0.54868
# Poissons Ratio (z) = 0.19471 0.27306
#
# Static dielectric constant tensor:
#      x y z
#    x 3.579690 0.000000 0.033750 
#    y 0.000000 3.376430 0.000000 
#    z 0.033750 0.000000 3.382680 
# 
# 
# High freq. dielectric constant tensor:
#      x y z
#    x 1.727240 0.000000 0.002750 
#    y 0.000000 1.720690 0.000000 
#    z 0.002750 0.000000 1.716130 
# 
# From -- ./inp_files/375028.got.cif
#   From: 2010.06.25/outbox.cif.g09.slc.cpg/sg12_188_cif.got.tgz:375028.got - 2010.06.28 00:19:55.
