data_PCOD8098209
_publ_section_title
;
Structure prediction by ZEFSAII (Michael W. Deem and Ramdas Pophale) SiO2 
 PCOD8098209
Probable space group: C 2/M
;
_chemical_formula_sum "Si O2"
_cell_formula_units_Z 56
_cell_length_a 23.135879
_cell_length_b 9.165760
_cell_length_c 18.753415
_cell_angle_alpha 90.000000
_cell_angle_beta 51.190710
_cell_angle_gamma 90.000000
_cell_volume 3098.874990
_symmetry_space_group_name_H-M "C 2/M"
_symmetry_group_IT_number 12
_symmetry_cell_setting 'monoclinic'
loop_
_space_group_symop_operation_xyz
x,y,z
-x,y,-z
-x,-y,-z
x,-y,z
1/2+x,1/2+y,z
1/2-x,1/2+y,-z
1/2-x,1/2-y,-z
1/2+x,1/2-y,z
loop_
_atom_site_type_symbol
_atom_site_label
_atom_site_fract_x
_atom_site_fract_y
_atom_site_fract_z
Si Si1 0.267456 0.339534 0.688212
Si Si2 0.272256 0.332108 0.412009
Si Si3 0.901316 0.662325 0.133257
Si Si4 0.187593 0.172171 0.193530
Si Si5 0.651097 0.172800 0.973646
Si Si6 0.421766 0.173755 0.823721
Si Si7 0.560208 0.331282 0.763954
O O1 0.291465 0.500000 0.642134
O O2 0.276724 0.226638 0.616312
O O3 0.183790 0.346680 0.779385
O O4 0.316776 0.294123 0.718350
O O5 0.252634 0.500000 0.436698
O O6 0.250000 0.250000 0.500000
O O7 0.358765 0.305624 0.330940
O O8 0.937227 0.500000 0.112039
O O9 0.903098 0.721150 0.050043
O O10 0.945146 0.771765 0.150898
O O11 0.265184 0.232292 0.100921
O O12 0.121637 0.263755 0.210091
O O13 0.177694 0.000000 0.186352
O O14 0.655564 0.000000 0.968095
O O15 0.618340 0.230368 0.073155
O O16 0.504137 0.240379 0.757927
O O17 0.425787 0.000000 0.816374
O O18 0.537778 0.500000 0.781745
#
# Coordination Sequence:
#
# PCOD8098209 Si02
#       7
#     8   8   8   8   8   8   8
#     4   8  15  29  51  75  98 126 159 194 239 288
#     4  10  20  34  56  81 102 122 150 192 241 294
#     4   8  14  29  50  68  91 126 165 204 241 285
#     4   9  17  32  51  70  97 133 170 208 243 280
#     4   8  16  30  48  70  95 128 172 212 247 282
#     4  11  21  31  46  69  98 135 173 208 242 281
#     4  10  21  35  48  69 100 130 159 195 244 297
#
# _framework density 18.071072999999998
#
# number of rings (size 3 to 8) (size 9 to 14) (size 15 to 20)
#    0.000    2.857    0.000    3.429    0.000    2.857 
#    0.000    7.143    0.000    0.857    0.000    6.000 
#    0.000    0.000    0.000    0.000    0.000    0.000 
#
# Total GULP energy -347118.104392 kJ/mol
# GULP energy per Si atom -12397.075157 kJ/mol
# Density = 1.802994 g / cm^3
# Si number density = 18.071073 Si / 1000 Ang^3
#
#
#
# Elastic Constant Matrix: (Units=GPa)
#
#
# Indices 1 2 3 4 5 6 
#
# 1 116.0470 68.8473 44.0852 0.0004 18.8776 -0.0002
# 2 68.8473 106.7935 49.0616 0.0012 16.2324 -0.0008
# 3 44.0852 49.0616 65.2423 -0.0001 25.1767 0.0000
# 4 0.0004 0.0012 -0.0001 21.1520 -0.0001 5.3553
# 5 18.8776 16.2324 25.1767 -0.0001 22.9233 0.0001
# 6 -0.0002 -0.0008 0.0000 5.3553 0.0001 33.8753
#
#
#
# Elastic Compliance Matrix: (Units=1/GPa)
#
#
# Indices 1 2 3 4 5 6 
#
# 1 0.014875 -0.007739 -0.002811 0.000000 -0.003683 0.000000
# 2 -0.007739 0.018446 -0.010519 -0.000001 0.004864 0.000001
# 3 -0.002811 -0.010519 0.037089 0.000001 -0.030971 0.000000
# 4 0.000000 -0.000001 0.000001 0.049248 0.000000 -0.007785
# 5 -0.003683 0.004864 -0.030971 0.000000 0.077228 0.000000
# 6 0.000000 0.000001 0.000000 -0.007785 0.000000 0.030751
#
#
# Mechanical properties :
#
#
# Convention : Reuss Voigt Hill
#
# Bulk Modulus (GPa) = 35.36989 68.00792 51.68891
# Shear Modulus (GPa) = 17.90846 23.99603 20.95225
#
# Velocity S-wave (km/s) = 3.15143 3.64795 3.40874
# Velocity P-wave (km/s) = 5.73212 7.44706 6.64514
#
# Compressibility (1/GPa) = 0.02827263
#
# Stress axis : x y z
#
# Youngs Moduli (GPa) = 67.22597 54.21232 26.96245
#
# Poissons Ratio (x) = 0.41953 0.07579
# Poissons Ratio (y) = 0.52023 0.28362
# Poissons Ratio (z) = 0.18896 0.57027
#
# Static dielectric constant tensor:
#      x y z
#    x 3.434940 0.000000 0.227770 
#    y 0.000000 3.270940 0.000000 
#    z 0.227770 0.000000 3.209590 
# 
# 
# High freq. dielectric constant tensor:
#      x y z
#    x 1.700990 0.000000 0.016410 
#    y 0.000000 1.688110 0.000000 
#    z 0.016410 0.000000 1.671700 
# 
# From -- ./inp_files/288222.got.cif
#   From: 2010.06.25/outbox.cif.g09.slc.cpg/sg12_145_cif.got.tgz:288222.got - 2010.06.28 00:19:55.
