data_PCOD8098718
_publ_section_title
;
Structure prediction by ZEFSAII (Michael W. Deem and Ramdas Pophale) SiO2 
 PCOD8098718
Probable space group: C 2/M
;
_chemical_formula_sum "Si O2"
_cell_formula_units_Z 48
_cell_length_a 19.277829
_cell_length_b 8.961372
_cell_length_c 22.155043
_cell_angle_alpha 90.000000
_cell_angle_beta 135.605231
_cell_angle_gamma 90.000000
_cell_volume 2677.650270
_symmetry_space_group_name_H-M "C 2/M"
_symmetry_group_IT_number 12
_symmetry_cell_setting 'monoclinic'
loop_
_space_group_symop_operation_xyz
x,y,z
-x,y,-z
-x,-y,-z
x,-y,z
1/2+x,1/2+y,z
1/2-x,1/2+y,-z
1/2-x,1/2-y,-z
1/2+x,1/2-y,z
loop_
_atom_site_type_symbol
_atom_site_label
_atom_site_fract_x
_atom_site_fract_y
_atom_site_fract_z
Si Si1 0.575111 0.678146 0.597551
Si Si2 0.285119 0.169566 0.860573
Si Si3 0.780124 0.826829 0.735779
Si Si4 0.056558 0.829636 0.717696
Si Si5 0.344656 0.175488 0.028491
Si Si6 0.979398 0.175401 0.792994
O O1 0.500000 0.736887 0.500000
O O2 0.582069 0.500000 0.602618
O O3 0.684665 0.738605 0.652271
O O4 0.537918 0.741824 0.639677
O O5 0.315170 0.275549 0.823990
O O6 0.170552 0.191001 0.806984
O O7 0.304854 0.000000 0.852025
O O8 0.347604 0.210801 0.958728
O O9 0.867510 0.792816 0.743136
O O10 0.753753 0.000000 0.722216
O O11 0.991752 0.760633 0.732085
O O12 0.025514 0.000000 0.692380
O O13 0.446642 0.238749 0.117186
O O14 0.337482 0.000000 0.036007
O O15 0.250000 0.250000 0.000000
O O16 0.005962 0.000000 0.812196
#
# Coordination Sequence:
#
# PCOD8098718 Si02
#       6
#     8   8   8   8   8   8
#     4   9  18  35  59  80  99 130 172 214 256 315
#     4   9  18  34  53  71  99 141 180 214 253 303
#     4  10  21  34  52  77 107 137 167 217 268 305
#     4   8  14  30  53  72  96 133 172 205 248 307
#     4  11  21  33  52  77 104 138 180 222 256 297
#     4  10  20  35  51  73 107 142 174 212 263 308
#
# _framework density 17.926165000000001
#
# number of rings (size 3 to 8) (size 9 to 14) (size 15 to 20)
#    0.000    2.500    1.667    2.000    0.000    3.667 
#    0.000    4.167    0.000    0.000    0.000    0.000 
#    0.000    0.000    0.000    0.000    0.000    0.000 
#
# Total GULP energy -297506.819545 kJ/mol
# GULP energy per Si atom -12396.117481 kJ/mol
# Density = 1.788536 g / cm^3
# Si number density = 17.926165 Si / 1000 Ang^3
#
#
#
# Elastic Constant Matrix: (Units=GPa)
#
#
# Indices 1 2 3 4 5 6 
#
# 1 116.3960 35.3511 66.0949 0.0000 -13.5067 0.0000
# 2 35.3511 49.3781 37.9597 0.0000 -0.8910 0.0000
# 3 66.0949 37.9597 145.2144 0.0000 -14.3572 0.0000
# 4 0.0000 0.0000 0.0000 24.2509 0.0000 2.2714
# 5 -13.5067 -0.8910 -14.3572 0.0000 19.3819 0.0000
# 6 0.0000 0.0000 0.0000 2.2714 0.0000 25.5317
#
#
#
# Elastic Compliance Matrix: (Units=1/GPa)
#
#
# Indices 1 2 3 4 5 6 
#
# 1 0.013483 -0.006632 -0.003781 0.000000 0.006290 0.000000
# 2 -0.006632 0.028904 -0.005247 0.000000 -0.007180 0.000000
# 3 -0.003781 -0.005247 0.010461 0.000000 0.004873 0.000000
# 4 0.000000 0.000000 0.000000 0.041582 0.000000 -0.003699
# 5 0.006290 -0.007180 0.004873 0.000000 0.059257 0.000000
# 6 0.000000 0.000000 0.000000 -0.003699 0.000000 0.039496
#
#
# Mechanical properties :
#
#
# Convention : Reuss Voigt Hill
#
# Bulk Modulus (GPa) = 46.45337 65.53334 55.99335
# Shear Modulus (GPa) = 21.58159 25.27174 23.42667
#
# Velocity S-wave (km/s) = 3.47351 3.75876 3.61895
# Velocity P-wave (km/s) = 6.48514 7.44812 6.98325
#
# Compressibility (1/GPa) = 0.02152697
#
# Stress axis : x y z
#
# Youngs Moduli (GPa) = 74.16936 34.59712 95.59655
#
# Poissons Ratio (x) = 0.22946 0.36146
# Poissons Ratio (y) = 0.49192 0.50157
# Poissons Ratio (z) = 0.28044 0.18152
#
# Static dielectric constant tensor:
#      x y z
#    x 3.418920 0.000000 -0.289560 
#    y 0.000000 3.190120 0.000000 
#    z -0.289560 0.000000 3.466980 
# 
# 
# High freq. dielectric constant tensor:
#      x y z
#    x 1.694420 0.000000 -0.015350 
#    y 0.000000 1.676600 0.000000 
#    z -0.015350 0.000000 1.685450 
# 
# From -- ./inp_files/221655.got.cif
#   From: 2010.06.25/outbox.cif.g09.slc.cpg/sg12_111_cif.got.tgz:221655.got - 2010.06.28 00:19:55.
