data_PCOD8098020
_publ_section_title
;
Structure prediction by ZEFSAII (Michael W. Deem and Ramdas Pophale) SiO2 
 PCOD8098020
Probable space group: C 2/M
;
_chemical_formula_sum "Si O2"
_cell_formula_units_Z 48
_cell_length_a 18.143492
_cell_length_b 8.905930
_cell_length_c 20.717216
_cell_angle_alpha 90.000000
_cell_angle_beta 48.197167
_cell_angle_gamma 90.000000
_cell_volume 2495.433576
_symmetry_space_group_name_H-M "C 2/M"
_symmetry_group_IT_number 12
_symmetry_cell_setting 'monoclinic'
loop_
_space_group_symop_operation_xyz
x,y,z
-x,y,-z
-x,-y,-z
x,-y,z
1/2+x,1/2+y,z
1/2-x,1/2+y,-z
1/2-x,1/2-y,-z
1/2+x,1/2-y,z
loop_
_atom_site_type_symbol
_atom_site_label
_atom_site_fract_x
_atom_site_fract_y
_atom_site_fract_z
Si Si1 0.900488 0.834025 0.911395
Si Si2 0.024069 0.321984 0.735571
Si Si3 0.224239 0.826011 0.582039
Si Si4 0.368683 0.322303 0.733702
Si Si5 0.606528 0.172047 0.413394
Si Si6 0.283342 0.834497 0.076106
O O1 0.802251 0.843313 0.926830
O O2 0.979255 0.726624 0.830625
O O3 0.946645 0.000000 0.892880
O O4 0.872075 0.770879 0.998975
O O5 0.026017 0.500000 0.729845
O O6 0.133823 0.257975 0.668333
O O7 0.961956 0.258921 0.711673
O O8 0.250000 0.750000 0.500000
O O9 0.318585 0.806354 0.572108
O O10 0.197678 0.000000 0.586579
O O11 0.384164 0.500000 0.732581
O O12 0.359261 0.276561 0.665189
O O13 0.266496 0.272607 0.828876
O O14 0.500000 0.226560 0.500000
O O15 0.602302 0.000000 0.391985
O O16 0.328159 0.000000 0.061220
#
# Coordination Sequence:
#
# PCOD8098020 Si02
#       6
#     8   8   8   8   8   8
#     4   9  16  27  46  74 106 140 180 223 266 314
#     4  11  21  34  54  79 111 148 184 224 270 317
#     4  11  23  39  59  83 111 141 177 221 268 323
#     4  10  20  34  55  82 111 143 182 226 269 319
#     4  10  22  39  58  81 109 140 175 218 270 326
#     4   8  15  27  44  72 107 140 175 217 266 317
#
# _framework density 19.235133999999999
#
# number of rings (size 3 to 8) (size 9 to 14) (size 15 to 20)
#    0.000    2.167    0.000    5.000    0.000    7.667 
#    0.000    0.000    0.000    1.000    0.000    7.000 
#    0.000    0.000    0.000    0.000    0.000    0.000 
#
# Total GULP energy -297604.800032 kJ/mol
# GULP energy per Si atom -12400.200001 kJ/mol
# Density = 1.919135 g / cm^3
# Si number density = 19.235134 Si / 1000 Ang^3
#
#
#
# Elastic Constant Matrix: (Units=GPa)
#
#
# Indices 1 2 3 4 5 6 
#
# 1 52.6597 39.1429 46.1305 0.0000 -0.1682 0.0001
# 2 39.1429 132.8614 66.6991 0.0000 0.6762 0.0002
# 3 46.1305 66.6991 152.0473 0.0000 7.9324 0.0000
# 4 0.0000 0.0000 0.0000 38.3048 0.0000 1.1249
# 5 -0.1682 0.6762 7.9324 0.0000 23.2399 0.0000
# 6 0.0001 0.0002 0.0000 1.1249 0.0000 22.9820
#
#
#
# Elastic Compliance Matrix: (Units=1/GPa)
#
#
# Indices 1 2 3 4 5 6 
#
# 1 0.028550 -0.005140 -0.006542 0.000000 0.002589 0.000000
# 2 -0.005140 0.010610 -0.003133 0.000000 0.000723 0.000000
# 3 -0.006542 -0.003133 0.010114 0.000000 -0.003408 0.000000
# 4 0.000000 0.000000 0.000000 0.026144 0.000000 -0.001280
# 5 0.002589 0.000723 -0.003408 0.000000 0.044190 0.000000
# 6 0.000000 0.000000 0.000000 -0.001280 0.000000 0.043575
#
#
# Mechanical properties :
#
#
# Convention : Reuss Voigt Hill
#
# Bulk Modulus (GPa) = 50.90634 71.27928 61.09281
# Shear Modulus (GPa) = 25.08021 29.27840 27.17930
#
# Velocity S-wave (km/s) = 3.61484 3.90568 3.76307
# Velocity P-wave (km/s) = 6.62914 7.58132 7.12116
#
# Compressibility (1/GPa) = 0.01964392
#
# Stress axis : x y z
#
# Youngs Moduli (GPa) = 35.02647 94.25161 98.87539
#
# Poissons Ratio (x) = 0.48446 0.64686
# Poissons Ratio (y) = 0.18004 0.30973
# Poissons Ratio (z) = 0.22915 0.29525
#
# Static dielectric constant tensor:
#      x y z
#    x 3.072240 0.000000 0.009900 
#    y 0.000000 3.723340 0.000000 
#    z 0.009900 0.000000 3.728650 
# 
# 
# High freq. dielectric constant tensor:
#      x y z
#    x 1.702220 0.000000 0.000470 
#    y 0.000000 1.757980 0.000000 
#    z 0.000470 0.000000 1.768150 
# 
# From -- ./inp_files/313601.got.cif
#   From: 2010.06.25/outbox.cif.g09.slc.cpg/sg12_157_cif.got.tgz:313601.got - 2010.06.28 00:19:55.
