data_PCOD8098351
_publ_section_title
;
Structure prediction by ZEFSAII (Michael W. Deem and Ramdas Pophale) SiO2 
 PCOD8098351
Probable space group: C 2/M
;
_chemical_formula_sum "Si O2"
_cell_formula_units_Z 64
_cell_length_a 20.087251
_cell_length_b 9.147013
_cell_length_c 31.683479
_cell_angle_alpha 90.000000
_cell_angle_beta 34.444248
_cell_angle_gamma 90.000000
_cell_volume 3292.647013
_symmetry_space_group_name_H-M "C 2/M"
_symmetry_group_IT_number 12
_symmetry_cell_setting 'monoclinic'
loop_
_space_group_symop_operation_xyz
x,y,z
-x,y,-z
-x,-y,-z
x,-y,z
1/2+x,1/2+y,z
1/2-x,1/2+y,-z
1/2-x,1/2-y,-z
1/2+x,1/2-y,z
loop_
_atom_site_type_symbol
_atom_site_label
_atom_site_fract_x
_atom_site_fract_y
_atom_site_fract_z
Si Si1 0.769560 0.328281 0.363728
Si Si2 0.934996 0.335989 0.489702
Si Si3 0.076350 0.827035 0.920130
Si Si4 0.995385 0.834928 0.740577
Si Si5 0.657363 0.664861 0.099157
Si Si6 0.142088 0.170391 0.344820
Si Si7 0.698561 0.669109 0.221219
Si Si8 0.582552 0.168877 0.059834
O O1 0.760295 0.500000 0.375667
O O2 0.686600 0.251449 0.441726
O O3 0.901659 0.277808 0.303438
O O4 0.731654 0.285514 0.335711
O O5 0.907694 0.500000 0.488207
O O6 0.000000 0.337571 0.500000
O O7 0.019235 0.256956 0.412090
O O8 0.208672 0.766161 0.853274
O O9 0.019594 0.762435 0.907703
O O10 0.080429 0.000000 0.915233
O O11 0.000000 0.773717 0.000000
O O12 0.892264 0.815112 0.828458
O O13 0.932569 0.801329 0.728685
O O14 0.046563 0.000000 0.714969
O O15 0.637729 0.500000 0.092146
O O16 0.592574 0.779249 0.102775
O O17 0.796177 0.698895 0.028365
O O18 0.200919 0.211448 0.269470
O O19 0.110762 0.000000 0.363763
O O20 0.732567 0.500000 0.196871
O O21 0.545426 0.000000 0.078846
#
# Coordination Sequence:
#
# PCOD8098351 Si02
#       8
#     8   8   8   8   8   8   8   8
#     4  10  20  34  56  85 116 148 187 231 279 336
#     4   9  17  32  56  85 114 146 185 227 277 334
#     4  11  24  39  56  80 112 148 190 237 286 337
#     4  10  21  37  56  79 112 150 188 232 281 336
#     4   9  19  35  54  79 110 144 182 232 287 333
#     4   9  19  36  58  85 115 145 182 232 282 332
#     4  10  22  40  60  83 114 151 192 234 285 342
#     4  10  20  35  57  81 106 141 188 234 283 341
#
# _framework density 19.437249000000001
#
# number of rings (size 3 to 8) (size 9 to 14) (size 15 to 20)
#    0.000    2.250    0.000    2.250    1.750    6.000 
#    0.000    0.625    0.000    0.000    0.000    0.000 
#    0.000    0.000    0.000    0.000    0.000    0.000 
#
# Total GULP energy -396871.672195 kJ/mol
# GULP energy per Si atom -12402.239756 kJ/mol
# Density = 1.939301 g / cm^3
# Si number density = 19.437249 Si / 1000 Ang^3
#
#
#
# Elastic Constant Matrix: (Units=GPa)
#
#
# Indices 1 2 3 4 5 6 
#
# 1 78.7329 37.0143 35.3884 0.0009 -7.4316 0.0285
# 2 37.0143 87.1661 47.3780 0.0022 -1.7630 0.0070
# 3 35.3884 47.3780 86.7545 0.0025 -2.6242 0.0014
# 4 0.0009 0.0022 0.0025 35.4145 -0.0002 -5.9778
# 5 -7.4316 -1.7630 -2.6242 -0.0002 21.9939 0.0006
# 6 0.0285 0.0070 0.0014 -5.9778 0.0006 26.8295
#
#
#
# Elastic Compliance Matrix: (Units=1/GPa)
#
#
# Indices 1 2 3 4 5 6 
#
# 1 0.017421 -0.005001 -0.004225 -0.000003 0.004982 -0.000018
# 2 -0.005001 0.017752 -0.007691 0.000000 -0.001184 0.000001
# 3 -0.004225 -0.007691 0.017451 0.000000 0.000038 0.000006
# 4 -0.000003 0.000000 0.000000 0.029340 -0.000001 0.006537
# 5 0.004982 -0.001184 0.000038 -0.000001 0.047060 -0.000006
# 6 -0.000018 0.000001 0.000006 0.006537 -0.000006 0.038729
#
#
# Mechanical properties :
#
#
# Convention : Reuss Voigt Hill
#
# Bulk Modulus (GPa) = 53.21300 54.69051 53.95176
# Shear Modulus (GPa) = 24.05579 25.70578 24.88079
#
# Velocity S-wave (km/s) = 3.52179 3.64057 3.58167
# Velocity P-wave (km/s) = 6.63126 6.77272 6.70236
#
# Compressibility (1/GPa) = 0.01879240
#
# Stress axis : x y z
#
# Youngs Moduli (GPa) = 57.40112 56.33153 57.30256
#
# Poissons Ratio (x) = 0.28170 0.24209
# Poissons Ratio (y) = 0.28705 0.44069
# Poissons Ratio (z) = 0.24250 0.43322
#
# Static dielectric constant tensor:
#      x y z
#    x 3.403940 -0.000030 0.016980 
#    y -0.000030 3.590350 0.000000 
#    z 0.016980 0.000000 3.521820 
# 
# 
# High freq. dielectric constant tensor:
#      x y z
#    x 1.742930 0.000000 -0.003410 
#    y 0.000000 1.758750 0.000000 
#    z -0.003410 0.000000 1.753910 
# 
# From -- ./inp_files/378073.got.cif
#   From: 2010.06.25/outbox.cif.g09.slc.cpg/sg12_190_cif.got.tgz:378073.got - 2010.06.28 00:19:55.
