data_PCOD8098989
_publ_section_title
;
Structure prediction by ZEFSAII (Michael W. Deem and Ramdas Pophale) SiO2 
 PCOD8098989
Probable space group: C 2/M
;
_chemical_formula_sum "Si O2"
_cell_formula_units_Z 64
_cell_length_a 18.732120
_cell_length_b 9.044669
_cell_length_c 20.538365
_cell_angle_alpha 90.000000
_cell_angle_beta 80.632868
_cell_angle_gamma 90.000000
_cell_volume 3433.329652
_symmetry_space_group_name_H-M "C 2/M"
_symmetry_group_IT_number 12
_symmetry_cell_setting 'monoclinic'
loop_
_space_group_symop_operation_xyz
x,y,z
-x,y,-z
-x,-y,-z
x,-y,z
1/2+x,1/2+y,z
1/2-x,1/2+y,-z
1/2-x,1/2-y,-z
1/2+x,1/2-y,z
loop_
_atom_site_type_symbol
_atom_site_label
_atom_site_fract_x
_atom_site_fract_y
_atom_site_fract_z
Si Si1 0.648806 0.331602 0.824568
Si Si2 0.018709 0.172041 0.927861
Si Si3 0.345836 0.328732 0.398294
Si Si4 0.309422 0.831513 0.779128
Si Si5 0.556664 0.325232 0.190378
Si Si6 0.581177 0.670976 0.476531
Si Si7 0.190590 0.327467 0.371645
Si Si8 0.570199 0.174572 0.723666
O O1 0.632166 0.500000 0.803623
O O2 0.602564 0.296894 0.896592
O O3 0.732994 0.312045 0.827099
O O4 0.626925 0.221583 0.770465
O O5 0.967914 0.233092 0.877281
O O6 0.002554 0.000000 0.937319
O O7 0.000000 0.249886 0.000000
O O8 0.354248 0.500000 0.376267
O O9 0.366698 0.302960 0.469809
O O10 0.263535 0.275072 0.397956
O O11 0.401356 0.229734 0.349671
O O12 0.361401 0.721646 0.809862
O O13 0.301494 0.784983 0.705146
O O14 0.337229 0.000000 0.780488
O O15 0.547645 0.500000 0.197665
O O16 0.507639 0.248278 0.252512
O O17 0.500000 0.735280 0.500000
O O18 0.574174 0.500000 0.459403
O O19 0.619203 0.749361 0.409988
O O20 0.179277 0.500000 0.383384
O O21 0.561172 0.000000 0.723941
#
# Coordination Sequence:
#
# PCOD8098989 Si02
#       8
#     8   8   8   8   8   8   8   8
#     4   9  17  34  57  80 112 148 179 219 271 321
#     4   8  15  31  57  84 107 142 190 225 257 316
#     4  10  20  38  58  76 107 145 181 220 275 335
#     4  10  20  35  54  80 113 145 183 225 273 325
#     4  10  21  35  54  79 112 148 180 224 277 320
#     4  10  23  39  55  79 107 137 179 231 279 330
#     4  10  21  37  57  77 104 144 183 223 269 329
#     4  11  21  33  54  83 109 138 183 229 267 322
#
# _framework density 18.640798
#
# number of rings (size 3 to 8) (size 9 to 14) (size 15 to 20)
#    0.000    2.250    1.250    2.625    1.750    2.250 
#    0.000    0.625    0.000    9.375    0.000    0.000 
#    0.000    0.000    0.000    0.000    0.000    0.000 
#
# Total GULP energy -396797.276188 kJ/mol
# GULP energy per Si atom -12399.914881 kJ/mol
# Density = 1.859837 g / cm^3
# Si number density = 18.640798 Si / 1000 Ang^3
#
#
#
# Elastic Constant Matrix: (Units=GPa)
#
#
# Indices 1 2 3 4 5 6 
#
# 1 133.3978 35.1646 53.5104 0.0000 -6.4548 0.0000
# 2 35.1646 64.8810 31.6590 0.0000 -4.8774 0.0000
# 3 53.5104 31.6590 90.3465 0.0000 -17.4056 0.0000
# 4 0.0000 0.0000 0.0000 15.2883 0.0000 1.4872
# 5 -6.4548 -4.8774 -17.4056 0.0000 26.3235 0.0000
# 6 0.0000 0.0000 0.0000 1.4872 0.0000 29.7025
#
#
#
# Elastic Compliance Matrix: (Units=1/GPa)
#
#
# Indices 1 2 3 4 5 6 
#
# 1 0.010398 -0.003137 -0.005363 0.000000 -0.001578 0.000000
# 2 -0.003137 0.019561 -0.005095 0.000000 -0.000514 0.000000
# 3 -0.005363 -0.005095 0.017872 0.000000 0.009558 0.000000
# 4 0.000000 0.000000 0.000000 0.065730 0.000000 -0.003291
# 5 -0.001578 -0.000514 0.009558 0.000000 0.043827 0.000000
# 6 0.000000 0.000000 0.000000 -0.003291 0.000000 0.033832
#
#
# Mechanical properties :
#
#
# Convention : Reuss Voigt Hill
#
# Bulk Modulus (GPa) = 48.45148 58.81037 53.63092
# Shear Modulus (GPa) = 22.19344 25.48228 23.83786
#
# Velocity S-wave (km/s) = 3.45423 3.70133 3.57991
# Velocity P-wave (km/s) = 6.47746 7.06288 6.77649
#
# Compressibility (1/GPa) = 0.02063921
#
# Stress axis : x y z
#
# Youngs Moduli (GPa) = 96.16774 51.12238 55.95336
#
# Poissons Ratio (x) = 0.16039 0.30010
# Poissons Ratio (y) = 0.30171 0.28510
# Poissons Ratio (z) = 0.51579 0.26049
#
# Static dielectric constant tensor:
#      x y z
#    x 3.510900 0.000000 -0.093410 
#    y 0.000000 3.210420 0.000000 
#    z -0.093410 0.000000 3.437950 
# 
# 
# High freq. dielectric constant tensor:
#      x y z
#    x 1.731110 0.000000 -0.008840 
#    y 0.000000 1.703050 0.000000 
#    z -0.008840 0.000000 1.711890 
# 
# From -- ./inp_files/314140.got.cif
#   From: 2010.06.25/outbox.cif.g09.slc.cpg/sg12_158_cif.got.tgz:314140.got - 2010.06.28 00:19:55.
