data_PCOD8098697
_publ_section_title
;
Structure prediction by ZEFSAII (Michael W. Deem and Ramdas Pophale) SiO2 
 PCOD8098697
Probable space group: C 2/M
;
_chemical_formula_sum "Si O2"
_cell_formula_units_Z 36
_cell_length_a 14.656745
_cell_length_b 26.705819
_cell_length_c 5.229139
_cell_angle_alpha 90.000000
_cell_angle_beta 62.147183
_cell_angle_gamma 90.000000
_cell_volume 1809.672138
_symmetry_space_group_name_H-M "C 2/M"
_symmetry_group_IT_number 12
_symmetry_cell_setting 'monoclinic'
loop_
_space_group_symop_operation_xyz
x,y,z
-x,y,-z
-x,-y,-z
x,-y,z
1/2+x,1/2+y,z
1/2-x,1/2+y,-z
1/2-x,1/2-y,-z
1/2+x,1/2-y,z
loop_
_atom_site_type_symbol
_atom_site_label
_atom_site_fract_x
_atom_site_fract_y
_atom_site_fract_z
Si Si1 0.674663 0.886044 0.690019
Si Si2 0.119950 0.442370 0.282584
Si Si3 0.000000 0.316441 0.000000
Si Si4 0.675212 0.298112 0.565701
Si Si5 0.628293 0.737979 0.126317
O O1 0.685838 0.925606 0.444658
O O2 0.579181 0.850551 0.738956
O O3 0.774275 0.850714 0.575679
O O4 0.655660 0.912056 0.986844
O O5 0.144442 0.500000 0.194625
O O6 0.000000 0.434292 0.500000
O O7 0.061779 0.286196 0.136443
O O8 0.750000 0.250000 0.500000
O O9 0.615479 0.302883 0.914036
O O10 0.592990 0.284480 0.447674
O O11 0.750000 0.750000 0.000000
#
# Coordination Sequence:
#
# PCOD8098697 Si02
#       5
#     8   8   4   8   8
#     4  12  22  34  56  73  98 148 187 204 260 325
#     4  11  23  36  49  73 103 133 182 237 259 290
#     4  12  22  32  55  78 102 152 195 196 256 332
#     4  10  20  35  49  72 106 130 177 218 258 292
#     4  10  21  34  47  71 110 132 179 222 246 294
#
# _framework density 19.893104000000001
#
# number of rings (size 3 to 8) (size 9 to 14) (size 15 to 20)
#    0.000    1.111    6.667    2.000    3.111    4.444 
#    0.000    0.000    0.000    0.000    0.000    0.000 
#    0.000    0.000    0.000   70.000    0.000    4.444 
#
# Total GULP energy -223039.994689 kJ/mol
# GULP energy per Si atom -12391.110816 kJ/mol
# Density = 1.984783 g / cm^3
# Si number density = 19.893104 Si / 1000 Ang^3
#
#
#
# Elastic Constant Matrix: (Units=GPa)
#
#
# Indices 1 2 3 4 5 6 
#
# 1 50.6857 23.6518 17.3580 0.0000 25.9996 0.0000
# 2 23.6518 111.5375 51.4884 0.0000 10.8907 0.0000
# 3 17.3580 51.4884 163.4915 0.0000 47.9598 0.0000
# 4 0.0000 0.0000 0.0000 24.1271 0.0000 -1.0461
# 5 25.9996 10.8907 47.9598 0.0000 29.6866 0.0000
# 6 0.0000 0.0000 0.0000 -1.0461 0.0000 32.8516
#
#
#
# Elastic Compliance Matrix: (Units=1/GPa)
#
#
# Indices 1 2 3 4 5 6 
#
# 1 0.067447 -0.017062 0.026049 0.000000 -0.094895 0.000000
# 2 -0.017062 0.014933 -0.010774 0.000000 0.026869 0.000000
# 3 0.026049 -0.010774 0.023336 0.000000 -0.056562 0.000000
# 4 0.000000 0.000000 0.000000 0.041504 0.000000 0.001322
# 5 -0.094895 0.026869 -0.056562 0.000000 0.198315 0.000000
# 6 0.000000 0.000000 0.000000 0.001322 0.000000 0.030482
#
#
# Mechanical properties :
#
#
# Convention : Reuss Voigt Hill
#
# Bulk Modulus (GPa) = 9.79004 56.74568 33.26786
# Shear Modulus (GPa) = 12.08788 32.88083 22.48436
#
# Velocity S-wave (km/s) = 2.46771 4.06997 3.36558
# Velocity P-wave (km/s) = 3.61268 7.11853 5.64468
#
# Compressibility (1/GPa) = 0.10214464
#
# Stress axis : x y z
#
# Youngs Moduli (GPa) = 14.82650 66.96428 42.85213
#
# Poissons Ratio (x) = 1.14252 -1.11627
# Poissons Ratio (y) = 0.25296 0.46167
# Poissons Ratio (z) = -0.38622 0.72144
#
# Static dielectric constant tensor:
#      x y z
#    x 3.523160 0.000000 0.223260 
#    y 0.000000 3.549910 0.000000 
#    z 0.223260 0.000000 3.377290 
# 
# 
# High freq. dielectric constant tensor:
#      x y z
#    x 1.749740 0.000000 0.028250 
#    y 0.000000 1.747830 0.000000 
#    z 0.028250 0.000000 1.801740 
# 
# From -- ./inp_files/11115.got.cif
#   From: 2010.06.25/outbox.cif.g09.slc.cpg/sg12_6_cif.got.tgz:11115.got - 2010.06.28 00:19:55.
