data_PCOD8098964
_publ_section_title
;
Structure prediction by ZEFSAII (Michael W. Deem and Ramdas Pophale) SiO2 
 PCOD8098964
Probable space group: C 2/M
;
_chemical_formula_sum "Si O2"
_cell_formula_units_Z 64
_cell_length_a 14.699648
_cell_length_b 8.866548
_cell_length_c 27.180151
_cell_angle_alpha 90.000000
_cell_angle_beta 73.018553
_cell_angle_gamma 90.000000
_cell_volume 3388.072190
_symmetry_space_group_name_H-M "C 2/M"
_symmetry_group_IT_number 12
_symmetry_cell_setting 'monoclinic'
loop_
_space_group_symop_operation_xyz
x,y,z
-x,y,-z
-x,-y,-z
x,-y,z
1/2+x,1/2+y,z
1/2-x,1/2+y,-z
1/2-x,1/2-y,-z
1/2+x,1/2-y,z
loop_
_atom_site_type_symbol
_atom_site_label
_atom_site_fract_x
_atom_site_fract_y
_atom_site_fract_z
Si Si1 0.049415 0.824443 0.632892
Si Si2 0.150581 0.177207 0.379036
Si Si3 0.222844 0.677585 0.270895
Si Si4 0.914655 0.825901 0.187253
Si Si5 0.457520 0.177907 0.078533
Si Si6 0.150271 0.678506 0.000230
Si Si7 0.453593 0.323749 0.745151
Si Si8 0.739484 0.679551 0.554759
O O1 0.143602 0.751201 0.594689
O O2 0.959276 0.784538 0.613513
O O3 0.029925 0.769367 0.691861
O O4 0.069261 0.000000 0.631017
O O5 0.214414 0.236971 0.323949
O O6 0.173802 0.264968 0.425308
O O7 0.168334 0.000000 0.382491
O O8 0.218050 0.500000 0.281838
O O9 0.321798 0.726486 0.231176
O O10 0.141602 0.726779 0.245357
O O11 0.923725 0.732848 0.136448
O O12 0.005738 0.794465 0.207192
O O13 0.907499 0.000000 0.173967
O O14 0.381350 0.232386 0.049468
O O15 0.458901 0.000000 0.077531
O O16 0.565119 0.233853 0.049900
O O17 0.162802 0.500000 0.000498
O O18 0.250000 0.750000 0.000000
O O19 0.429663 0.500000 0.739880
O O20 0.739391 0.500000 0.550447
O O21 0.750000 0.750000 0.500000
#
# Coordination Sequence:
#
# PCOD8098964 Si02
#       8
#     8   8   8   8   8   8   8   8
#     4   8  17  35  57  74  99 139 174 205 254 313
#     4  10  20  37  58  79 102 136 178 216 257 312
#     4  10  20  35  54  79 108 139 173 213 259 309
#     4  10  21  35  53  78 112 146 175 210 260 316
#     4   9  20  37  54  76 108 140 176 219 266 312
#     4   9  19  37  58  78 102 138 179 223 269 315
#     4   9  18  35  55  76 102 138 178 211 249 308
#     4  11  22  37  55  78 106 137 173 217 266 316
#
# _framework density 18.889797000000002
#
# number of rings (size 3 to 8) (size 9 to 14) (size 15 to 20)
#    0.000    2.500    0.000    3.375    0.000    6.000 
#    0.000   17.500    0.000    0.000    0.000    0.000 
#    0.000    0.000    0.000    0.000    0.000    0.000 
#
# Total GULP energy -396747.340024 kJ/mol
# GULP energy per Si atom -12398.354376 kJ/mol
# Density = 1.884680 g / cm^3
# Si number density = 18.889797 Si / 1000 Ang^3
#
#
#
# Elastic Constant Matrix: (Units=GPa)
#
#
# Indices 1 2 3 4 5 6 
#
# 1 91.7219 26.0657 42.0274 0.0000 9.8740 0.0000
# 2 26.0657 34.3596 51.5743 0.0000 7.0595 0.0000
# 3 42.0274 51.5743 46.1601 0.0000 12.5555 0.0000
# 4 0.0000 0.0000 0.0000 34.0437 0.0000 2.4275
# 5 9.8740 7.0595 12.5555 0.0000 23.2755 0.0000
# 6 0.0000 0.0000 0.0000 2.4275 0.0000 32.1053
#
#
#
# Elastic Compliance Matrix: (Units=1/GPa)
#
#
# Indices 1 2 3 4 5 6 
#
# 1 0.014043 -0.011710 0.001116 0.000000 -0.003007 0.000000
# 2 -0.011710 -0.029133 0.046241 0.000000 -0.011140 0.000000
# 3 0.001116 0.046241 -0.031728 0.000000 0.002617 0.000000
# 4 0.000000 0.000000 0.000000 0.029533 0.000000 -0.002233
# 5 -0.003007 -0.011140 0.002617 0.000000 0.046207 0.000000
# 6 0.000000 0.000000 0.000000 -0.002233 0.000000 0.031316
#
#
# Mechanical properties :
#
#
# Convention : Reuss Voigt Hill
#
# Bulk Modulus (GPa) = 40.85699 45.73070 43.29385
# Shear Modulus (GPa) = -1725.92627 21.38982 -852.26822
#
# Velocity S-wave (km/s) = -30.25996 3.36869 -21.26402
# Velocity P-wave (km/s) = 34.62962 6.27635 24.08130
#
# Compressibility (1/GPa) = 0.02447562
#
# Stress axis : x y z
#
# Youngs Moduli (GPa) = 71.21098 -34.32592 -31.51748
#
# Poissons Ratio (x) = -0.40194 0.03516
# Poissons Ratio (y) = 0.83386 1.45740
# Poissons Ratio (z) = -0.07944 1.58726
#
# Static dielectric constant tensor:
#      x y z
#    x 3.655100 0.000000 -0.064170 
#    y 0.000000 3.287410 0.000000 
#    z -0.064170 0.000000 3.524720 
# 
# 
# High freq. dielectric constant tensor:
#      x y z
#    x 1.743440 0.000000 0.004060 
#    y 0.000000 1.719430 0.000000 
#    z 0.004060 0.000000 1.733600 
# 
# From -- ./inp_files/359760.got.cif
#   From: 2010.06.25/outbox.cif.g09.slc.cpg/sg12_180_cif.got.tgz:359760.got - 2010.06.28 00:19:55.
