data_PCOD8098015
_publ_section_title
;
Structure prediction by ZEFSAII (Michael W. Deem and Ramdas Pophale) SiO2 
 PCOD8098015
Probable space group: C 2/M
;
_chemical_formula_sum "Si O2"
_cell_formula_units_Z 56
_cell_length_a 15.272162
_cell_length_b 9.013668
_cell_length_c 24.132339
_cell_angle_alpha 90.000000
_cell_angle_beta 62.628183
_cell_angle_gamma 90.000000
_cell_volume 2950.087037
_symmetry_space_group_name_H-M "C 2/M"
_symmetry_group_IT_number 12
_symmetry_cell_setting 'monoclinic'
loop_
_space_group_symop_operation_xyz
x,y,z
-x,y,-z
-x,-y,-z
x,-y,z
1/2+x,1/2+y,z
1/2-x,1/2+y,-z
1/2-x,1/2-y,-z
1/2+x,1/2-y,z
loop_
_atom_site_type_symbol
_atom_site_label
_atom_site_fract_x
_atom_site_fract_y
_atom_site_fract_z
Si Si1 0.424305 0.173901 0.069484
Si Si2 0.406415 0.323982 0.291859
Si Si3 0.501710 0.324043 0.377691
Si Si4 0.315798 0.171053 0.633916
Si Si5 0.729549 0.326174 0.063713
Si Si6 0.990415 0.824250 0.848684
Si Si7 0.845123 0.671619 0.496535
O O1 0.313490 0.217594 0.083606
O O2 0.448047 0.258518 0.118694
O O3 0.435625 0.000000 0.077218
O O4 0.500000 0.226301 0.000000
O O5 0.408508 0.500000 0.291899
O O6 0.459655 0.265364 0.331562
O O7 0.294183 0.267554 0.324387
O O8 0.462957 0.261795 0.221644
O O9 0.492978 0.500000 0.385980
O O10 0.614691 0.272352 0.348218
O O11 0.442633 0.248044 0.444723
O O12 0.346821 0.190321 0.561557
O O13 0.324992 0.000000 0.649616
O O14 0.731729 0.500000 0.051797
O O15 0.623625 0.273370 0.117230
O O16 0.750000 0.250000 0.000000
O O17 0.999244 0.000000 0.849506
O O18 0.843066 0.500000 0.479800
O O19 0.750000 0.750000 0.500000
#
# Coordination Sequence:
#
# PCOD8098015 Si02
#       7
#     8   8   8   8   8   8   8
#     4  10  20  35  55  81 115 146 174 226 290 334
#     4   9  20  40  58  77 114 154 187 230 288 337
#     4  11  22  38  60  87 116 151 192 240 288 340
#     4  10  21  39  59  81 114 154 189 233 290 342
#     4  10  20  34  55  82 110 143 180 224 279 334
#     4  10  21  37  59  83 108 147 194 232 271 337
#     4  11  21  36  60  87 116 153 194 240 293 341
#
# _framework density 18.982489999999999
#
# number of rings (size 3 to 8) (size 9 to 14) (size 15 to 20)
#    0.000    1.857    2.857    1.286    0.000    4.857 
#    0.000    3.571    0.000    0.000    0.000    0.000 
#    0.000    0.000    0.000    0.000    0.000    0.000 
#
# Total GULP energy -347284.646664 kJ/mol
# GULP energy per Si atom -12403.023095 kJ/mol
# Density = 1.893929 g / cm^3
# Si number density = 18.982490 Si / 1000 Ang^3
#
#
#
# Elastic Constant Matrix: (Units=GPa)
#
#
# Indices 1 2 3 4 5 6 
#
# 1 169.2284 45.6271 76.5039 0.0000 -15.7373 0.0000
# 2 45.6271 53.4674 39.2958 0.0000 -3.0049 0.0000
# 3 76.5039 39.2958 148.6547 0.0000 -13.0389 0.0000
# 4 0.0000 0.0000 0.0000 22.4826 0.0000 1.4066
# 5 -15.7373 -3.0049 -13.0389 0.0000 19.5288 0.0000
# 6 0.0000 0.0000 0.0000 1.4066 0.0000 35.7859
#
#
#
# Elastic Compliance Matrix: (Units=1/GPa)
#
#
# Indices 1 2 3 4 5 6 
#
# 1 0.009076 -0.005399 -0.002841 0.000000 0.004586 0.000000
# 2 -0.005399 0.026430 -0.004496 0.000000 -0.003286 0.000000
# 3 -0.002841 -0.004496 0.009683 0.000000 0.003484 0.000000
# 4 0.000000 0.000000 0.000000 0.044588 0.000000 -0.001753
# 5 0.004586 -0.003286 0.003484 0.000000 0.056722 0.000000
# 6 0.000000 0.000000 0.000000 -0.001753 0.000000 0.028013
#
#
# Mechanical properties :
#
#
# Convention : Reuss Voigt Hill
#
# Bulk Modulus (GPa) = 50.72003 77.13378 63.92690
# Shear Modulus (GPa) = 24.20622 29.55437 26.88030
#
# Velocity S-wave (km/s) = 3.57485 3.95007 3.76714
# Velocity P-wave (km/s) = 6.61942 7.84388 7.25752
#
# Compressibility (1/GPa) = 0.01971608
#
# Stress axis : x y z
#
# Youngs Moduli (GPa) = 110.18304 37.83559 103.26917
#
# Poissons Ratio (x) = 0.20427 0.29343
# Poissons Ratio (y) = 0.59487 0.46433
# Poissons Ratio (z) = 0.31307 0.17012
#
# Static dielectric constant tensor:
#      x y z
#    x 3.841970 0.000000 -0.168870 
#    y 0.000000 3.334640 0.000000 
#    z -0.168870 0.000000 3.718070 
# 
# 
# High freq. dielectric constant tensor:
#      x y z
#    x 1.755490 0.000000 -0.005340 
#    y 0.000000 1.720670 0.000000 
#    z -0.005340 0.000000 1.736370 
# 
# From -- ./inp_files/308994.got.cif
#   From: 2010.06.25/outbox.cif.g09.slc.cpg/sg12_155_cif.got.tgz:308994.got - 2010.06.28 00:19:55.
