data_PCOD8098984
_publ_section_title
;
Structure prediction by ZEFSAII (Michael W. Deem and Ramdas Pophale) SiO2 
 PCOD8098984
Probable space group: C 2/M
;
_chemical_formula_sum "Si O2"
_cell_formula_units_Z 56
_cell_length_a 15.090995
_cell_length_b 8.855694
_cell_length_c 24.334197
_cell_angle_alpha 90.000000
_cell_angle_beta 119.048202
_cell_angle_gamma 90.000000
_cell_volume 2842.981470
_symmetry_space_group_name_H-M "C 2/M"
_symmetry_group_IT_number 12
_symmetry_cell_setting 'monoclinic'
loop_
_space_group_symop_operation_xyz
x,y,z
-x,y,-z
-x,-y,-z
x,-y,z
1/2+x,1/2+y,z
1/2-x,1/2+y,-z
1/2-x,1/2-y,-z
1/2+x,1/2-y,z
loop_
_atom_site_type_symbol
_atom_site_label
_atom_site_fract_x
_atom_site_fract_y
_atom_site_fract_z
Si Si1 0.635393 0.176653 0.803677
Si Si2 0.308393 0.821999 0.799678
Si Si3 0.920110 0.176630 0.734449
Si Si4 0.672586 0.825276 0.936180
Si Si5 0.325107 0.675639 0.588945
Si Si6 0.098506 0.678508 0.494854
Si Si7 0.474248 0.178060 0.932837
O O1 0.692049 0.275705 0.774790
O O2 0.519679 0.224079 0.770865
O O3 0.690593 0.213570 0.878165
O O4 0.642291 0.000000 0.791878
O O5 0.342392 0.727864 0.757490
O O6 0.370090 0.769037 0.872906
O O7 0.319791 0.000000 0.791785
O O8 0.869535 0.215074 0.661348
O O9 0.945225 0.000000 0.747980
O O10 0.560264 0.768774 0.916640
O O11 0.682017 0.000000 0.951128
O O12 0.750000 0.750000 0.000000
O O13 0.330525 0.500000 0.576565
O O14 0.206655 0.728027 0.554176
O O15 0.396889 0.758117 0.565876
O O16 0.088102 0.500000 0.488184
O O17 0.000000 0.740741 0.500000
O O18 0.470337 0.000000 0.939412
O O19 0.500000 0.253182 0.000000
#
# Coordination Sequence:
#
# PCOD8098984 Si02
#       7
#     8   8   8   8   8   8   8
#     4  11  23  40  59  83 116 153 198 249 299 359
#     4  11  22  39  61  85 115 153 197 246 303 363
#     4  11  23  40  60  85 122 163 203 248 297 351
#     4  10  20  35  54  80 111 145 186 240 301 361
#     4   9  20  37  57  86 121 156 197 242 286 341
#     4   9  18  35  60  89 121 157 196 236 286 343
#     4   9  17  32  54  78 108 143 183 234 295 357
#
# _framework density 19.697631999999999
#
# number of rings (size 3 to 8) (size 9 to 14) (size 15 to 20)
#    0.000    2.000    1.429    2.143    0.000    4.857 
#    0.000    1.429    0.000    3.000    0.000    0.000 
#    0.000    0.000    0.000    0.000    0.000    0.000 
#
# Total GULP energy -347087.357479 kJ/mol
# GULP energy per Si atom -12395.977053 kJ/mol
# Density = 1.965280 g / cm^3
# Si number density = 19.697632 Si / 1000 Ang^3
#
#
#
# Elastic Constant Matrix: (Units=GPa)
#
#
# Indices 1 2 3 4 5 6 
#
# 1 131.3365 29.6612 32.4205 0.0000 -13.5687 0.0000
# 2 29.6612 35.6587 40.0891 0.0000 -2.7040 0.0000
# 3 32.4205 40.0891 95.3842 0.0000 -14.0369 0.0000
# 4 0.0000 0.0000 0.0000 26.2932 0.0000 -1.8353
# 5 -13.5687 -2.7040 -14.0369 0.0000 25.1302 0.0000
# 6 0.0000 0.0000 0.0000 -1.8353 0.0000 33.2171
#
#
#
# Elastic Compliance Matrix: (Units=1/GPa)
#
#
# Indices 1 2 3 4 5 6 
#
# 1 0.009925 -0.009324 0.001292 0.000000 0.005078 0.000000
# 2 -0.009324 0.063205 -0.025207 0.000000 -0.012313 0.000000
# 3 0.001292 -0.025207 0.022164 0.000000 0.010366 0.000000
# 4 0.000000 0.000000 0.000000 0.038180 0.000000 0.002110
# 5 0.005078 -0.012313 0.010366 0.000000 0.047000 0.000000
# 6 0.000000 0.000000 0.000000 0.002110 0.000000 0.030222
#
#
# Mechanical properties :
#
#
# Convention : Reuss Voigt Hill
#
# Bulk Modulus (GPa) = 34.70175 51.85788 43.27981
# Shear Modulus (GPa) = 17.43505 27.60867 22.52186
#
# Velocity S-wave (km/s) = 2.97835 3.74789 3.38506
# Velocity P-wave (km/s) = 5.42981 6.71662 6.10720
#
# Compressibility (1/GPa) = 0.02881699
#
# Stress axis : x y z
#
# Youngs Moduli (GPa) = 100.75254 15.82160 45.11726
#
# Poissons Ratio (x) = 0.14752 -0.05831
# Poissons Ratio (y) = 0.93941 1.13728
# Poissons Ratio (z) = -0.13022 0.39882
#
# Static dielectric constant tensor:
#      x y z
#    x 5.265690 0.000000 -0.900110 
#    y 0.000000 3.377040 0.000000 
#    z -0.900110 0.000000 4.300850 
# 
# 
# High freq. dielectric constant tensor:
#      x y z
#    x 1.779900 0.000000 -0.002860 
#    y 0.000000 1.751290 0.000000 
#    z -0.002860 0.000000 1.766040 
# 
# From -- ./inp_files/339017.got.cif
#   From: 2010.06.25/outbox.cif.g09.slc.cpg/sg12_170_cif.got.tgz:339017.got - 2010.06.28 00:19:55.
