data_PCOD8098426
_publ_section_title
;
Structure prediction by ZEFSAII (Michael W. Deem and Ramdas Pophale) SiO2 
 PCOD8098426
Probable space group: C 2/M
;
_chemical_formula_sum "Si O2"
_cell_formula_units_Z 40
_cell_length_a 13.585931
_cell_length_b 25.331034
_cell_length_c 7.641804
_cell_angle_alpha 90.000000
_cell_angle_beta 47.631438
_cell_angle_gamma 90.000000
_cell_volume 1943.031883
_symmetry_space_group_name_H-M "C 2/M"
_symmetry_group_IT_number 12
_symmetry_cell_setting 'monoclinic'
loop_
_space_group_symop_operation_xyz
x,y,z
-x,y,-z
-x,-y,-z
x,-y,z
1/2+x,1/2+y,z
1/2-x,1/2+y,-z
1/2-x,1/2-y,-z
1/2+x,1/2-y,z
loop_
_atom_site_type_symbol
_atom_site_label
_atom_site_fract_x
_atom_site_fract_y
_atom_site_fract_z
Si Si1 0.500000 0.915698 0.500000
Si Si2 0.500000 0.745983 0.500000
Si Si3 0.128188 0.849310 0.172095
Si Si4 0.286068 0.000000 0.355010
Si Si5 0.579359 0.000000 0.163562
Si Si6 0.845791 0.111561 0.485055
Si Si7 0.692012 0.164927 0.377779
O O1 0.417578 0.880276 0.464124
O O2 0.601705 0.949511 0.259901
O O3 0.429360 0.709537 0.729299
O O4 0.386053 0.779635 0.536305
O O5 0.196327 0.871816 0.267617
O O6 0.005589 0.888070 0.269707
O O7 0.234634 0.846075 0.892573
O O8 0.204471 0.947247 0.503096
O O9 0.426265 0.000000 0.284434
O O10 0.311004 0.000000 0.117455
O O11 0.788843 0.157952 0.426884
#
# Coordination Sequence:
#
# PCOD8098426 Si02
#       7
#     4   4   8   4   4   8   8
#     4  10  20  35  56  90 112 151 194 240 280 344
#     4   9  22  39  62  88 112 147 196 241 286 348
#     4  10  23  40  58  85 119 152 192 237 283 342
#     4  11  20  37  58  84 117 156 190 230 286 338
#     4  10  20  34  57  81 122 148 191 241 281 326
#     4  10  22  39  58  86 117 153 193 234 278 347
#     4  11  20  39  62  84 117 151 189 239 295 333
#
# _framework density 20.586383999999999
#
# number of rings (size 3 to 8) (size 9 to 14) (size 15 to 20)
#    0.000    2.000    2.000    2.400    0.000    4.800 
#    0.000    8.000    0.000    0.000    0.000    0.000 
#    0.000    0.000    0.000    0.000    0.000    0.000 
#
# Total GULP energy -247922.051542 kJ/mol
# GULP energy per Si atom -12396.102577 kJ/mol
# Density = 2.053953 g / cm^3
# Si number density = 20.586384 Si / 1000 Ang^3
#
#
#
# Elastic Constant Matrix: (Units=GPa)
#
#
# Indices 1 2 3 4 5 6 
#
# 1 87.3480 25.4336 4.4713 0.0000 9.5294 0.0000
# 2 25.4336 117.6974 18.7187 0.0000 -7.7957 0.0000
# 3 4.4713 18.7187 54.2195 0.0000 2.3524 0.0000
# 4 0.0000 0.0000 0.0000 18.0398 0.0000 -6.0874
# 5 9.5294 -7.7957 2.3524 0.0000 24.5128 0.0000
# 6 0.0000 0.0000 0.0000 -6.0874 0.0000 10.1419
#
#
#
# Elastic Compliance Matrix: (Units=1/GPa)
#
#
# Indices 1 2 3 4 5 6 
#
# 1 0.013058 -0.003280 0.000323 0.000000 -0.006151 0.000000
# 2 -0.003280 0.010066 -0.003413 0.000000 0.004804 0.000000
# 3 0.000323 -0.003413 0.019730 0.000000 -0.003104 0.000000
# 4 0.000000 0.000000 0.000000 0.069512 0.000000 0.041722
# 5 -0.006151 0.004804 -0.003104 0.000000 0.045012 0.000000
# 6 0.000000 0.000000 0.000000 0.041722 0.000000 0.123643
#
#
# Mechanical properties :
#
#
# Convention : Reuss Voigt Hill
#
# Bulk Modulus (GPa) = 33.20909 39.61246 36.41077
# Shear Modulus (GPa) = 16.45814 24.58165 20.51990
#
# Velocity S-wave (km/s) = 2.83055 3.45929 3.16059
# Velocity P-wave (km/s) = 5.18163 5.93628 5.57174
#
# Compressibility (1/GPa) = 0.03011224
#
# Stress axis : x y z
#
# Youngs Moduli (GPa) = 76.58044 99.34134 50.68416
#
# Poissons Ratio (x) = 0.32589 -0.01635
# Poissons Ratio (y) = 0.25122 0.17300
# Poissons Ratio (z) = -0.02470 0.33907
#
# Static dielectric constant tensor:
#      x y z
#    x 3.811760 0.000000 -0.027190 
#    y 0.000000 3.774480 0.000000 
#    z -0.027190 0.000000 3.510480 
# 
# 
# High freq. dielectric constant tensor:
#      x y z
#    x 1.807510 0.000000 0.001190 
#    y 0.000000 1.813350 0.000000 
#    z 0.001190 0.000000 1.790290 
# 
# From -- ./inp_files/64655.got.cif
#   From: 2010.06.25/outbox.cif.g09.slc.cpg/sg12_33_cif.got.tgz:64655.got - 2010.06.28 00:19:55.
