data_PCOD8098417
_publ_section_title
;
Structure prediction by ZEFSAII (Michael W. Deem and Ramdas Pophale) SiO2 
 PCOD8098417
Probable space group: C 2/M
;
_chemical_formula_sum "Si O2"
_cell_formula_units_Z 64
_cell_length_a 19.535947
_cell_length_b 13.367907
_cell_length_c 26.356934
_cell_angle_alpha 90.000000
_cell_angle_beta 153.194943
_cell_angle_gamma 90.000000
_cell_volume 3104.039581
_symmetry_space_group_name_H-M "C 2/M"
_symmetry_group_IT_number 12
_symmetry_cell_setting 'monoclinic'
loop_
_space_group_symop_operation_xyz
x,y,z
-x,y,-z
-x,-y,-z
x,-y,z
1/2+x,1/2+y,z
1/2-x,1/2+y,-z
1/2-x,1/2-y,-z
1/2+x,1/2-y,z
loop_
_atom_site_type_symbol
_atom_site_label
_atom_site_fract_x
_atom_site_fract_y
_atom_site_fract_z
Si Si1 0.976266 0.610670 0.543702
Si Si2 0.803076 0.383341 0.681574
Si Si3 0.148796 0.881809 0.367573
Si Si4 0.177084 0.614766 0.124242
Si Si5 0.653937 0.386029 0.483879
Si Si6 0.855629 0.803657 0.329074
Si Si7 0.167660 0.808655 0.872091
Si Si8 0.349767 0.112162 0.084207
O O1 0.008383 0.500000 0.587853
O O2 0.804734 0.644309 0.442256
O O3 0.000000 0.609160 0.500000
O O4 0.092799 0.688996 0.645523
O O5 0.758045 0.500000 0.655062
O O6 0.777063 0.343414 0.606264
O O7 0.688789 0.321909 0.641938
O O8 0.974823 0.366877 0.813269
O O9 0.159696 0.835365 0.431966
O O10 0.012353 0.829899 0.246229
O O11 0.115551 0.000000 0.346354
O O12 0.231650 0.500000 0.162527
O O13 0.210544 0.671676 0.198708
O O14 0.267835 0.670490 0.140447
O O15 0.000000 0.622594 0.000000
O O16 0.695751 0.500000 0.501744
O O17 0.489061 0.377314 0.399991
O O18 0.202709 0.692778 0.908755
O O19 0.251207 0.879207 0.968033
O O20 0.329450 0.000000 0.092907
#
# Coordination Sequence:
#
# PCOD8098417 Si02
#       8
#     8   8   8   8   8   8   8   8
#     4  10  24  43  60  85 121 168 218 266 313 369
#     4  10  21  37  59  91 131 162 195 252 325 384
#     4  10  21  39  64  90 122 161 213 264 308 375
#     4  11  23  41  66  96 130 164 205 260 318 383
#     4  10  20  34  56  90 124 156 195 248 316 377
#     4  12  22  35  62  89 122 164 208 259 314 378
#     4  11  22  39  68  92 121 168 213 256 311 380
#     4  10  23  41  62  93 126 161 206 262 316 371
#
# _framework density 20.618293999999999
#
# number of rings (size 3 to 8) (size 9 to 14) (size 15 to 20)
#    0.000    1.500    1.250    4.125    3.500    4.500 
#    0.000    1.875    0.000    0.750    0.000    0.000 
#    0.000    0.000    0.000    0.000    0.000    0.000 
#
# Total GULP energy -396836.394508 kJ/mol
# GULP energy per Si atom -12401.137328 kJ/mol
# Density = 2.057137 g / cm^3
# Si number density = 20.618294 Si / 1000 Ang^3
#
#
#
# Elastic Constant Matrix: (Units=GPa)
#
#
# Indices 1 2 3 4 5 6 
#
# 1 103.8515 23.5163 49.0527 0.0020 -3.5181 0.0012
# 2 23.5163 91.1331 41.0565 -0.0005 1.0367 0.0025
# 3 49.0527 41.0565 133.5765 0.0060 -11.4591 0.0049
# 4 0.0020 -0.0005 0.0060 30.8127 0.0038 1.0921
# 5 -3.5181 1.0367 -11.4591 0.0038 30.5171 -0.0004
# 6 0.0012 0.0025 0.0049 1.0921 -0.0004 6.0044
#
#
#
# Elastic Compliance Matrix: (Units=1/GPa)
#
#
# Indices 1 2 3 4 5 6 
#
# 1 0.011774 -0.001261 -0.003943 0.000000 -0.000080 0.000001
# 2 -0.001261 0.012987 -0.003698 0.000001 -0.001975 -0.000003
# 3 -0.003943 -0.003698 0.010377 -0.000002 0.003568 -0.000005
# 4 0.000000 0.000001 -0.000002 0.032665 -0.000005 -0.005941
# 5 -0.000080 -0.001975 0.003568 -0.000005 0.034166 0.000001
# 6 0.000001 -0.000003 -0.000005 -0.005941 0.000001 0.167624
#
#
# Mechanical properties :
#
#
# Convention : Reuss Voigt Hill
#
# Bulk Modulus (GPa) = 57.69031 61.75691 59.72361
# Shear Modulus (GPa) = 17.05465 27.79589 22.42527
#
# Velocity S-wave (km/s) = 2.87916 3.67566 3.30152
# Velocity P-wave (km/s) = 6.25249 6.93047 6.60019
#
# Compressibility (1/GPa) = 0.01733393
#
# Stress axis : x y z
#
# Youngs Moduli (GPa) = 84.92966 77.00114 96.36608
#
# Poissons Ratio (x) = 0.09709 0.37999
# Poissons Ratio (y) = 0.10709 0.35637
# Poissons Ratio (z) = 0.33490 0.28475
#
# Static dielectric constant tensor:
#      x y z
#    x 3.675960 0.000000 -0.089550 
#    y 0.000000 3.923100 -0.000020 
#    z -0.089550 -0.000020 3.894250 
# 
# 
# High freq. dielectric constant tensor:
#      x y z
#    x 1.799020 0.000000 -0.003540 
#    y 0.000000 1.811700 0.000000 
#    z -0.003540 0.000000 1.810650 
# 
# From -- ./inp_files/344058.got.cif
#   From: 2010.06.25/outbox.cif.g09.slc.cpg/sg12_173_cif.got.tgz:344058.got - 2010.06.28 00:19:55.
