data_PCOD8098505
_publ_section_title
;
Structure prediction by ZEFSAII (Michael W. Deem and Ramdas Pophale) SiO2 
 PCOD8098505
Probable space group: C 2/M
;
_chemical_formula_sum "Si O2"
_cell_formula_units_Z 48
_cell_length_a 16.312439
_cell_length_b 28.295948
_cell_length_c 8.897329
_cell_angle_alpha 90.000000
_cell_angle_beta 146.654973
_cell_angle_gamma 90.000000
_cell_volume 2257.419785
_symmetry_space_group_name_H-M "C 2/M"
_symmetry_group_IT_number 12
_symmetry_cell_setting 'monoclinic'
loop_
_space_group_symop_operation_xyz
x,y,z
-x,y,-z
-x,-y,-z
x,-y,z
1/2+x,1/2+y,z
1/2-x,1/2+y,-z
1/2-x,1/2-y,-z
1/2+x,1/2-y,z
loop_
_atom_site_type_symbol
_atom_site_label
_atom_site_fract_x
_atom_site_fract_y
_atom_site_fract_z
Si Si1 0.170449 0.552100 0.028330
Si Si2 0.312095 0.553855 0.916190
Si Si3 0.532402 0.211878 0.876357
Si Si4 0.384159 0.709088 0.457818
Si Si5 0.573226 0.603636 0.448864
Si Si6 0.565327 0.881931 0.434924
O O1 0.134733 0.500000 0.030077
O O2 0.271483 0.576734 0.307507
O O3 0.242385 0.551443 0.974164
O O4 0.019105 0.580454 0.795503
O O5 0.310172 0.500000 0.845473
O O6 0.229085 0.594400 0.691728
O O7 0.478606 0.574369 0.182339
O O8 0.438791 0.256354 0.672722
O O9 0.452473 0.168741 0.668323
O O10 0.500000 0.205875 0.000000
O O11 0.713483 0.216462 0.133924
O O12 0.500000 0.716227 0.500000
O O13 0.398326 0.657568 0.554949
O O14 0.500000 0.603168 0.500000
O O15 0.500000 0.876263 0.500000
#
# Coordination Sequence:
#
# PCOD8098505 Si02
#       6
#     8   8   8   8   8   8
#     4   9  15  28  50  81 120 155 193 250 300 349
#     4   9  17  28  50  87 122 155 197 252 302 345
#     4  12  26  44  63  92 125 162 202 253 315 370
#     4  11  24  42  68  93 121 159 207 255 304 365
#     4   9  17  30  52  85 120 151 195 245 303 352
#     4  10  20  34  57  87 121 159 205 248 298 357
#
# _framework density 21.263214000000001
#
# number of rings (size 3 to 8) (size 9 to 14) (size 15 to 20)
#    0.000    2.000    1.667    2.500    4.667    4.000 
#    0.000    0.000    0.000    2.000    0.000    1.167 
#    0.000    0.000    0.000    0.000    0.000    0.000 
#
# Total GULP energy -297367.753919 kJ/mol
# GULP energy per Si atom -12390.323080 kJ/mol
# Density = 2.121482 g / cm^3
# Si number density = 21.263214 Si / 1000 Ang^3
#
#
#
# Elastic Constant Matrix: (Units=GPa)
#
#
# Indices 1 2 3 4 5 6 
#
# 1 33.5356 23.4593 29.3119 0.0000 2.2525 0.0000
# 2 23.4593 193.7133 90.1498 0.0000 -8.7903 0.0000
# 3 29.3119 90.1498 172.6110 0.0000 7.8356 0.0000
# 4 0.0000 0.0000 0.0000 58.3781 0.0000 4.1977
# 5 2.2525 -8.7903 7.8356 0.0000 16.6974 0.0000
# 6 0.0000 0.0000 0.0000 4.1977 0.0000 0.4476
#
#
#
# Elastic Compliance Matrix: (Units=1/GPa)
#
#
# Indices 1 2 3 4 5 6 
#
# 1 0.035806 -0.002329 -0.004689 0.000000 -0.003856 0.000000
# 2 -0.002329 0.007479 -0.003784 0.000000 0.006027 0.000000
# 3 -0.004689 -0.003784 0.008815 0.000000 -0.005496 0.000000
# 4 0.000000 0.000000 0.000000 0.052606 0.000000 -0.493382
# 5 -0.003856 0.006027 -0.005496 0.000000 0.066162 0.000000
# 6 0.000000 0.000000 0.000000 -0.493382 0.000000 6.861582
#
#
# Mechanical properties :
#
#
# Convention : Reuss Voigt Hill
#
# Bulk Modulus (GPa) = 32.79129 76.18909 54.49019
# Shear Modulus (GPa) = 0.70779 32.23389 16.47084
#
# Velocity S-wave (km/s) = 0.57758 3.89774 2.78621
# Velocity P-wave (km/s) = 3.98747 7.49438 6.00273
#
# Compressibility (1/GPa) = 0.03049590
#
# Stress axis : x y z
#
# Youngs Moduli (GPa) = 27.92856 133.71035 113.43731
#
# Poissons Ratio (x) = 0.31142 0.53189
# Poissons Ratio (y) = 0.06505 0.42926
# Poissons Ratio (z) = 0.13095 0.50597
#
# Static dielectric constant tensor:
#      x y z
#    x 3.239950 0.000000 0.207140 
#    y 0.000000 4.138910 0.000000 
#    z 0.207140 0.000000 4.202420 
# 
# 
# High freq. dielectric constant tensor:
#      x y z
#    x 1.779080 0.000000 0.011330 
#    y 0.000000 1.854040 0.000000 
#    z 0.011330 0.000000 1.851190 
# 
# From -- ./inp_files/80822.got.cif
#   From: 2010.06.25/outbox.cif.g09.slc.cpg/sg12_41_cif.got.tgz:80822.got - 2010.06.28 00:19:55.
