data_PCOD8098987
_publ_section_title
;
Structure prediction by ZEFSAII (Michael W. Deem and Ramdas Pophale) SiO2 
 PCOD8098987
Probable space group: C 2/M
;
_chemical_formula_sum "Si O2"
_cell_formula_units_Z 64
_cell_length_a 32.149931
_cell_length_b 9.142075
_cell_length_c 15.019421
_cell_angle_alpha 90.000000
_cell_angle_beta 132.636204
_cell_angle_gamma 90.000000
_cell_volume 3247.585633
_symmetry_space_group_name_H-M "C 2/M"
_symmetry_group_IT_number 12
_symmetry_cell_setting 'monoclinic'
loop_
_space_group_symop_operation_xyz
x,y,z
-x,y,-z
-x,-y,-z
x,-y,z
1/2+x,1/2+y,z
1/2-x,1/2+y,-z
1/2-x,1/2-y,-z
1/2+x,1/2-y,z
loop_
_atom_site_type_symbol
_atom_site_label
_atom_site_fract_x
_atom_site_fract_y
_atom_site_fract_z
Si Si1 0.431380 0.668529 0.254692
Si Si2 0.776410 0.665016 0.457572
Si Si3 0.752996 0.673688 0.226963
Si Si4 0.563952 0.673408 0.091692
Si Si5 0.954772 0.328528 0.582757
Si Si6 0.637281 0.330798 0.669077
Si Si7 0.127115 0.173464 0.008926
Si Si8 0.097002 0.663927 0.310544
O O1 0.450287 0.500000 0.271123
O O2 0.485731 0.762186 0.362052
O O3 0.384502 0.685480 0.262226
O O4 0.404777 0.731789 0.124909
O O5 0.755899 0.500000 0.439509
O O6 0.750000 0.750000 0.500000
O O7 0.754114 0.725643 0.331305
O O8 0.843544 0.679717 0.553897
O O9 0.763532 0.500000 0.234719
O O10 0.800991 0.757942 0.241909
O O11 0.692419 0.722816 0.100265
O O12 0.565472 0.500000 0.093507
O O13 0.596075 0.737150 0.051755
O O14 0.594681 0.725412 0.225459
O O15 0.500000 0.733055 0.000000
O O16 0.952556 0.500000 0.557022
O O17 0.904058 0.250497 0.458360
O O18 0.949292 0.299793 0.680910
O O19 0.641331 0.500000 0.646455
O O20 0.124358 0.000000 0.007798
O O21 0.088389 0.500000 0.260993
#
# Coordination Sequence:
#
# PCOD8098987 Si02
#       8
#     8   8   8   8   8   8   8   8
#     4  10  22  40  60  86 117 150 192 243 296 344
#     4  10  20  35  54  80 112 146 186 231 278 332
#     4  10  20  38  60  81 115 158 196 236 285 346
#     4  10  20  35  58  86 113 149 197 237 276 339
#     4  11  22  39  61  86 117 153 193 236 291 358
#     4  11  23  38  59  87 118 150 190 246 300 342
#     4   9  19  37  60  84 116 157 196 238 287 341
#     4  10  21  36  54  80 115 149 182 229 286 336
#
# _framework density 19.706948000000001
#
# number of rings (size 3 to 8) (size 9 to 14) (size 15 to 20)
#    0.000    1.875    1.250    2.625    0.000    7.250 
#    0.000    1.875    0.000    0.000    0.000    0.000 
#    0.000    0.000    0.000    0.000    0.000    0.000 
#
# Total GULP energy -396895.687477 kJ/mol
# GULP energy per Si atom -12402.990234 kJ/mol
# Density = 1.966209 g / cm^3
# Si number density = 19.706948 Si / 1000 Ang^3
#
#
#
# Elastic Constant Matrix: (Units=GPa)
#
#
# Indices 1 2 3 4 5 6 
#
# 1 118.1844 46.9253 36.6380 0.0000 10.6770 0.0000
# 2 46.9253 64.0518 30.7315 0.0000 3.7878 0.0000
# 3 36.6380 30.7315 94.1204 0.0000 6.0407 0.0000
# 4 0.0000 0.0000 0.0000 23.5396 0.0000 1.7820
# 5 10.6770 3.7878 6.0407 0.0000 33.9117 0.0000
# 6 0.0000 0.0000 0.0000 1.7820 0.0000 32.1584
#
#
#
# Elastic Compliance Matrix: (Units=1/GPa)
#
#
# Indices 1 2 3 4 5 6 
#
# 1 0.012537 -0.008024 -0.002088 0.000000 -0.002679 0.000000
# 2 -0.008024 0.023682 -0.004655 0.000000 0.000710 0.000000
# 3 -0.002088 -0.004655 0.013031 0.000000 -0.001144 0.000000
# 4 0.000000 0.000000 0.000000 0.042661 0.000000 -0.002364
# 5 -0.002679 0.000710 -0.001144 0.000000 0.030456 0.000000
# 6 0.000000 0.000000 0.000000 -0.002364 0.000000 0.031227
#
#
# Mechanical properties :
#
#
# Convention : Reuss Voigt Hill
#
# Bulk Modulus (GPa) = 50.72100 56.10514 53.41307
# Shear Modulus (GPa) = 26.35743 28.72605 27.54174
#
# Velocity S-wave (km/s) = 3.66111 3.82207 3.74246
# Velocity P-wave (km/s) = 6.60796 6.92887 6.77032
#
# Compressibility (1/GPa) = 0.01971570
#
# Stress axis : x y z
#
# Youngs Moduli (GPa) = 79.76514 42.22554 76.74161
#
# Poissons Ratio (x) = 0.33883 0.16025
# Poissons Ratio (y) = 0.64006 0.35720
# Poissons Ratio (z) = 0.16656 0.19654
#
# Static dielectric constant tensor:
#      x y z
#    x 3.844620 0.000000 0.090630 
#    y 0.000000 3.473090 0.000000 
#    z 0.090630 0.000000 3.652750 
# 
# 
# High freq. dielectric constant tensor:
#      x y z
#    x 1.780990 0.000000 0.001130 
#    y 0.000000 1.748070 0.000000 
#    z 0.001130 0.000000 1.771420 
# 
# From -- ./inp_files/250093.got.cif
#   From: 2010.06.25/outbox.cif.g09.slc.cpg/sg12_126_cif.got.tgz:250093.got - 2010.06.28 00:19:55.
