data_PCOD8098872
_publ_section_title
;
Structure prediction by ZEFSAII (Michael W. Deem and Ramdas Pophale) SiO2 
 PCOD8098872
Probable space group: C 2/M
;
_chemical_formula_sum "Si O2"
_cell_formula_units_Z 56
_cell_length_a 14.403687
_cell_length_b 8.714396
_cell_length_c 32.044517
_cell_angle_alpha 90.000000
_cell_angle_beta 47.205425
_cell_angle_gamma 90.000000
_cell_volume 2951.474038
_symmetry_space_group_name_H-M "C 2/M"
_symmetry_group_IT_number 12
_symmetry_cell_setting 'monoclinic'
loop_
_space_group_symop_operation_xyz
x,y,z
-x,y,-z
-x,-y,-z
x,-y,z
1/2+x,1/2+y,z
1/2-x,1/2+y,-z
1/2-x,1/2-y,-z
1/2+x,1/2-y,z
loop_
_atom_site_type_symbol
_atom_site_label
_atom_site_fract_x
_atom_site_fract_y
_atom_site_fract_z
Si Si1 0.228209 0.677688 0.353625
Si Si2 0.171287 0.181347 0.151838
Si Si3 0.051766 0.320910 0.555548
Si Si4 0.872053 0.818453 0.153828
Si Si5 0.278159 0.323793 0.431701
Si Si6 0.901148 0.319834 0.232833
Si Si7 0.342581 0.679106 0.938401
O O1 0.227972 0.500000 0.338770
O O2 0.297099 0.693762 0.376867
O O3 0.298316 0.783593 0.299175
O O4 0.088430 0.749493 0.402640
O O5 0.272735 0.265065 0.149716
O O6 0.198445 0.229612 0.095650
O O7 0.029989 0.233736 0.206389
O O8 0.181470 0.000000 0.155456
O O9 0.031898 0.500000 0.557631
O O10 0.140310 0.264467 0.490072
O O11 0.113627 0.278143 0.580705
O O12 0.844013 0.738181 0.206471
O O13 0.013229 0.769843 0.096218
O O14 0.862410 0.000000 0.163289
O O15 0.294534 0.500000 0.441039
O O16 0.927488 0.500000 0.222353
O O17 0.330063 0.500000 0.946660
O O18 0.250000 0.750000 0.000000
#
# Coordination Sequence:
#
# PCOD8098872 Si02
#       7
#     8   8   8   8   8   8   8
#     4  10  20  35  54  75 104 140 176 218 268 324
#     4  10  21  39  60  83 111 147 187 227 273 322
#     4   9  18  33  53  76 102 134 172 214 264 321
#     4  10  21  39  60  83 111 147 187 227 273 322
#     4   9  18  33  53  76 102 134 172 214 264 321
#     4  11  23  38  56  80 109 143 184 230 276 325
#     4   9  20  36  56  84 118 149 182 224 266 315
#
# _framework density 18.973569999999999
#
# number of rings (size 3 to 8) (size 9 to 14) (size 15 to 20)
#    0.000    2.286    0.000    3.429    0.000    8.000 
#    0.000    5.714    0.000    4.286    0.000    0.000 
#    0.000    0.000    0.000    0.000    0.000    0.000 
#
# Total GULP energy -347177.830165 kJ/mol
# GULP energy per Si atom -12399.208220 kJ/mol
# Density = 1.893039 g / cm^3
# Si number density = 18.973570 Si / 1000 Ang^3
#
#
#
# Elastic Constant Matrix: (Units=GPa)
#
#
# Indices 1 2 3 4 5 6 
#
# 1 92.5466 9.3411 39.2974 0.0003 5.9210 0.0005
# 2 9.3411 36.9777 24.4430 0.0006 2.7993 0.0006
# 3 39.2974 24.4430 104.1987 0.0001 8.0428 0.0002
# 4 0.0003 0.0006 0.0001 31.7442 0.0000 1.3495
# 5 5.9210 2.7993 8.0428 0.0000 17.6391 0.0000
# 6 0.0005 0.0006 0.0002 1.3495 0.0000 33.5721
#
#
#
# Elastic Compliance Matrix: (Units=1/GPa)
#
#
# Indices 1 2 3 4 5 6 
#
# 1 0.012947 0.000013 -0.004716 0.000000 -0.002198 0.000000
# 2 0.000013 0.032057 -0.007392 -0.000001 -0.001721 -0.000001
# 3 -0.004716 -0.007392 0.013368 0.000000 -0.003339 0.000000
# 4 0.000000 -0.000001 0.000000 0.031556 0.000000 -0.001268
# 5 -0.002198 -0.001721 -0.003339 0.000000 0.059226 0.000000
# 6 0.000000 -0.000001 0.000000 -0.001268 0.000000 0.029838
#
#
# Mechanical properties :
#
#
# Convention : Reuss Voigt Hill
#
# Bulk Modulus (GPa) = 29.25583 42.20956 35.73269
# Shear Modulus (GPa) = 23.30194 27.30050 25.30122
#
# Velocity S-wave (km/s) = 3.50827 3.79736 3.65567
# Velocity P-wave (km/s) = 5.64476 6.44371 6.05742
#
# Compressibility (1/GPa) = 0.03418123
#
# Stress axis : x y z
#
# Youngs Moduli (GPa) = 77.23593 31.19485 74.80797
#
# Poissons Ratio (x) = -0.00042 0.35283
# Poissons Ratio (y) = -0.00103 0.55298
# Poissons Ratio (z) = 0.36428 0.23059
#
# Static dielectric constant tensor:
#      x y z
#    x 3.541570 0.000000 0.020520 
#    y 0.000000 3.409340 0.000000 
#    z 0.020520 0.000000 3.031000 
# 
# 
# High freq. dielectric constant tensor:
#      x y z
#    x 1.740980 0.000000 -0.000020 
#    y 0.000000 1.732130 0.000000 
#    z -0.000020 0.000000 1.738370 
# 
# From -- ./inp_files/337895.got.cif
#   From: 2010.06.25/outbox.cif.g09.slc.cpg/sg12_169_cif.got.tgz:337895.got - 2010.06.28 00:19:55.
