data_PCOD8098830
_publ_section_title
;
Structure prediction by ZEFSAII (Michael W. Deem and Ramdas Pophale) SiO2 
 PCOD8098830
Probable space group: C 2/M
;
_chemical_formula_sum "Si O2"
_cell_formula_units_Z 32
_cell_length_a 27.726062
_cell_length_b 14.018075
_cell_length_c 8.117732
_cell_angle_alpha 90.000000
_cell_angle_beta 33.348328
_cell_angle_gamma 90.000000
_cell_volume 1734.438199
_symmetry_space_group_name_H-M "C 2/M"
_symmetry_group_IT_number 12
_symmetry_cell_setting 'monoclinic'
loop_
_space_group_symop_operation_xyz
x,y,z
-x,y,-z
-x,-y,-z
x,-y,z
1/2+x,1/2+y,z
1/2-x,1/2+y,-z
1/2-x,1/2-y,-z
1/2+x,1/2-y,z
loop_
_atom_site_type_symbol
_atom_site_label
_atom_site_fract_x
_atom_site_fract_y
_atom_site_fract_z
Si Si1 0.782767 0.391681 0.817317
Si Si2 0.976893 0.891229 0.879558
Si Si3 0.623612 0.726665 0.307550
Si Si4 0.306346 0.682951 0.224355
O O1 0.800607 0.500000 0.820170
O O2 0.867791 0.327518 0.620742
O O3 0.760677 0.386431 0.684326
O O4 0.699624 0.347134 0.155346
O O5 0.029986 0.820792 0.608379
O O6 0.002739 0.000000 0.764749
O O7 0.873315 0.877511 0.144999
O O8 0.000000 0.864681 0.000000
O O9 0.637367 0.743251 0.071866
O O10 0.250000 0.750000 0.500000
#
# Coordination Sequence:
#
# PCOD8098830 Si02
#       4
#     8   8   8   8
#     4   9  18  34  58  81 107 148 187 224 280 334
#     4  11  22  34  56  87 115 145 188 235 282 333
#     4   9  20  35  56  82 111 151 179 240 272 333
#     4  10  20  35  53  79 115 148 181 229 280 331
#
# _framework density 18.449777000000001
#
# number of rings (size 3 to 8) (size 9 to 14) (size 15 to 20)
#    1.500    0.750    0.000    3.750    0.000    1.000 
#    0.000    1.250    0.000   11.250    0.000    0.000 
#    0.000    0.000    0.000    0.000    0.000    0.000 
#
# Total GULP energy -198251.294358 kJ/mol
# GULP energy per Si atom -12390.705897 kJ/mol
# Density = 1.840778 g / cm^3
# Si number density = 18.449777 Si / 1000 Ang^3
#
#
#
# Elastic Constant Matrix: (Units=GPa)
#
#
# Indices 1 2 3 4 5 6 
#
# 1 99.0654 36.6487 25.0569 0.0000 6.0221 0.0000
# 2 36.6487 132.3963 41.6632 0.0000 1.5423 0.0000
# 3 25.0569 41.6632 85.0028 0.0000 10.9764 0.0000
# 4 0.0000 0.0000 0.0000 26.2697 0.0000 -2.9005
# 5 6.0221 1.5423 10.9764 0.0000 22.8552 0.0000
# 6 0.0000 0.0000 0.0000 -2.9005 0.0000 24.7139
#
#
#
# Elastic Compliance Matrix: (Units=1/GPa)
#
#
# Indices 1 2 3 4 5 6 
#
# 1 0.011660 -0.002605 -0.001904 0.000000 -0.001982 0.000000
# 2 -0.002605 0.009568 -0.004186 0.000000 0.002051 0.000000
# 3 -0.001904 -0.004186 0.015220 0.000000 -0.006525 0.000000
# 4 0.000000 0.000000 0.000000 0.038566 0.000000 0.004526
# 5 -0.001982 0.002051 -0.006525 0.000000 0.047271 0.000000
# 6 0.000000 0.000000 0.000000 0.004526 0.000000 0.040994
#
#
# Mechanical properties :
#
#
# Convention : Reuss Voigt Hill
#
# Bulk Modulus (GPa) = 52.47642 58.13355 55.30498
# Shear Modulus (GPa) = 26.73446 28.97415 27.85431
#
# Velocity S-wave (km/s) = 3.81076 3.96717 3.88975
# Velocity P-wave (km/s) = 6.91860 7.24997 7.08622
#
# Compressibility (1/GPa) = 0.01905618
#
# Stress axis : x y z
#
# Youngs Moduli (GPa) = 85.76099 104.51731 65.70203
#
# Poissons Ratio (x) = 0.27231 0.12511
# Poissons Ratio (y) = 0.22344 0.27506
# Poissons Ratio (z) = 0.16331 0.43756
#
# Static dielectric constant tensor:
#      x y z
#    x 3.412410 0.000000 -0.008760 
#    y 0.000000 3.106610 0.000000 
#    z -0.008760 0.000000 3.041980 
# 
# 
# High freq. dielectric constant tensor:
#      x y z
#    x 1.719300 0.000000 -0.000300 
#    y 0.000000 1.692190 0.000000 
#    z -0.000300 0.000000 1.686120 
# 
# From -- ./inp_files/71003.got.cif
#   From: 2010.06.25/outbox.cif.g09.slc.cpg/sg12_36_cif.got.tgz:71003.got - 2010.06.28 00:19:55.
