data_PCOD8098622
_publ_section_title
;
Structure prediction by ZEFSAII (Michael W. Deem and Ramdas Pophale) SiO2 
 PCOD8098622
Probable space group: C 2/M
;
_chemical_formula_sum "Si O2"
_cell_formula_units_Z 48
_cell_length_a 28.564147
_cell_length_b 8.812674
_cell_length_c 13.960626
_cell_angle_alpha 90.000000
_cell_angle_beta 141.905662
_cell_angle_gamma 90.000000
_cell_volume 2168.151035
_symmetry_space_group_name_H-M "C 2/M"
_symmetry_group_IT_number 12
_symmetry_cell_setting 'monoclinic'
loop_
_space_group_symop_operation_xyz
x,y,z
-x,y,-z
-x,-y,-z
x,-y,z
1/2+x,1/2+y,z
1/2-x,1/2+y,-z
1/2-x,1/2-y,-z
1/2+x,1/2-y,z
loop_
_atom_site_type_symbol
_atom_site_label
_atom_site_fract_x
_atom_site_fract_y
_atom_site_fract_z
Si Si1 0.491359 0.323109 0.377146
Si Si2 0.750299 0.665656 0.849491
Si Si3 0.832211 0.175929 0.643657
Si Si4 0.965147 0.320352 0.738528
Si Si5 0.620226 0.324844 0.062143
Si Si6 0.850006 0.334874 0.187756
O O1 0.500000 0.264306 0.500000
O O2 0.507841 0.500000 0.392810
O O3 0.542827 0.232225 0.384814
O O4 0.404118 0.280104 0.215599
O O5 0.729151 0.500000 0.771442
O O6 0.808654 0.747704 0.874269
O O7 0.674646 0.765868 0.747623
O O8 0.780346 0.639063 0.004792
O O9 0.750000 0.250000 0.500000
O O10 0.889380 0.262981 0.666517
O O11 0.865523 0.194126 0.802908
O O12 0.827131 0.000000 0.606030
O O13 0.970700 0.500000 0.754439
O O14 0.040426 0.251667 0.908034
O O15 0.615672 0.500000 0.023735
O O16 0.888076 0.500000 0.268491
#
# Coordination Sequence:
#
# PCOD8098622 Si02
#       6
#     8   8   8   8   8   8
#     4  11  24  41  63  91 126 170 215 262 318 380
#     4  10  20  34  58  90 123 162 205 253 310 370
#     4  11  26  47  70  98 131 171 216 268 330 391
#     4  12  25  43  69  99 131 172 218 269 326 387
#     4  11  23  41  68  99 132 171 218 271 325 384
#     4  10  20  35  56  86 123 164 207 254 309 367
#
# _framework density 22.138677999999999
#
# number of rings (size 3 to 8) (size 9 to 14) (size 15 to 20)
#    0.000    1.167    1.667    4.500    0.000    8.667 
#    0.000    0.000    0.000    0.000    0.000    0.000 
#    0.000    0.000    0.000    0.000    0.000    0.000 
#
# Total GULP energy -297506.721696 kJ/mol
# GULP energy per Si atom -12396.113404 kJ/mol
# Density = 2.208829 g / cm^3
# Si number density = 22.138678 Si / 1000 Ang^3
#
#
#
# Elastic Constant Matrix: (Units=GPa)
#
#
# Indices 1 2 3 4 5 6 
#
# 1 166.7940 79.4079 29.1122 0.0000 16.7235 0.0000
# 2 79.4079 183.0451 35.6882 0.0000 -0.8815 0.0000
# 3 29.1122 35.6882 38.4277 0.0000 -10.3875 0.0000
# 4 0.0000 0.0000 0.0000 27.5025 0.0000 5.7655
# 5 16.7235 -0.8815 -10.3875 0.0000 31.3341 0.0000
# 6 0.0000 0.0000 0.0000 5.7655 0.0000 38.8184
#
#
#
# Elastic Compliance Matrix: (Units=1/GPa)
#
#
# Indices 1 2 3 4 5 6 
#
# 1 0.009100 -0.002770 -0.006211 0.000000 -0.006994 0.000000
# 2 -0.002770 0.007636 -0.004982 0.000000 0.000042 0.000000
# 3 -0.006211 -0.004982 0.039778 0.000000 0.016362 0.000000
# 4 0.000000 0.000000 0.000000 0.037529 0.000000 -0.005574
# 5 -0.006994 0.000042 0.016362 0.000000 0.041072 0.000000
# 6 0.000000 0.000000 0.000000 -0.005574 0.000000 0.026589
#
#
# Mechanical properties :
#
#
# Convention : Reuss Voigt Hill
#
# Bulk Modulus (GPa) = 34.98119 75.18703 55.08411
# Shear Modulus (GPa) = 25.10537 35.80158 30.45348
#
# Velocity S-wave (km/s) = 3.37115 4.02574 3.71290
# Velocity P-wave (km/s) = 5.56670 7.45952 6.58151
#
# Compressibility (1/GPa) = 0.02858679
#
# Stress axis : x y z
#
# Youngs Moduli (GPa) = 109.89454 130.95098 25.13932
#
# Poissons Ratio (x) = 0.36276 0.15615
# Poissons Ratio (y) = 0.30443 0.12525
# Poissons Ratio (z) = 0.68261 0.65241
#
# Static dielectric constant tensor:
#      x y z
#    x 4.136060 0.000000 -0.033760 
#    y 0.000000 4.469080 0.000000 
#    z -0.033760 0.000000 3.919850 
# 
# 
# High freq. dielectric constant tensor:
#      x y z
#    x 1.885070 0.000000 0.005060 
#    y 0.000000 1.890490 0.000000 
#    z 0.005060 0.000000 1.856790 
# 
# From -- ./inp_files/244873.got.cif
#   From: 2010.06.25/outbox.cif.g09.slc.cpg/sg12_123_cif.got.tgz:244873.got - 2010.06.28 00:19:55.
