data_PCOD8098058
_publ_section_title
;
Structure prediction by ZEFSAII (Michael W. Deem and Ramdas Pophale) SiO2 
 PCOD8098058
Probable space group: C 2/M
;
_chemical_formula_sum "Si O2"
_cell_formula_units_Z 64
_cell_length_a 30.944195
_cell_length_b 19.129129
_cell_length_c 9.615392
_cell_angle_alpha 90.000000
_cell_angle_beta 39.404233
_cell_angle_gamma 90.000000
_cell_volume 3613.015415
_symmetry_space_group_name_H-M "C 2/M"
_symmetry_group_IT_number 12
_symmetry_cell_setting 'monoclinic'
loop_
_space_group_symop_operation_xyz
x,y,z
-x,y,-z
-x,-y,-z
x,-y,z
1/2+x,1/2+y,z
1/2-x,1/2+y,-z
1/2-x,1/2-y,-z
1/2+x,1/2-y,z
loop_
_atom_site_type_symbol
_atom_site_label
_atom_site_fract_x
_atom_site_fract_y
_atom_site_fract_z
Si Si1 0.422788 0.304024 0.217268
Si Si2 0.683718 0.579945 0.462806
Si Si3 0.731897 0.358933 0.065015
Si Si4 0.845295 0.257810 0.879187
Si Si5 0.592881 0.202469 0.994232
Si Si6 0.186612 0.419923 0.677620
Si Si7 0.332836 0.920142 0.589955
Si Si8 0.565369 0.194862 0.581711
O O1 0.379245 0.373856 0.331050
O O2 0.397536 0.252015 0.161018
O O3 0.413521 0.263202 0.384338
O O4 0.500000 0.327261 0.000000
O O5 0.662845 0.500000 0.538683
O O6 0.700749 0.589589 0.257489
O O7 0.746320 0.601368 0.405128
O O8 0.670916 0.320466 0.133505
O O9 0.776410 0.302347 0.037732
O O10 0.776506 0.401753 0.844388
O O11 0.906429 0.293701 0.642493
O O12 0.869679 0.255678 0.976547
O O13 0.625460 0.127287 0.885389
O O14 0.515041 0.185395 0.222612
O O15 0.166176 0.500000 0.759389
O O16 0.199644 0.407830 0.481350
O O17 0.400723 0.873887 0.435784
O O18 0.355581 0.000000 0.553830
#
# Coordination Sequence:
#
# PCOD8098058 Si02
#       8
#     8   8   8   8   8   8   8   8
#     4  10  22  38  58  85 109 140 187 230 273 335
#     4  11  22  39  60  82 111 145 182 229 285 334
#     4  10  20  35  57  81 106 141 186 229 274 332
#     4  10  20  34  55  83 108 141 186 230 276 320
#     4  11  21  35  57  82 115 149 182 234 275 321
#     4  10  22  36  54  84 116 148 186 227 276 330
#     4  10  21  36  54  80 115 150 188 229 270 326
#     4  10  20  37  55  80 111 148 191 225 271 327
#
# _framework density 17.713735
#
# number of rings (size 3 to 8) (size 9 to 14) (size 15 to 20)
#    0.000    1.750    3.750    0.750    1.750    1.250 
#    0.000    1.250    0.000    2.250    0.000    1.750 
#    0.000    0.000    0.000    0.000    0.000    0.000 
#
# Total GULP energy -396888.216304 kJ/mol
# GULP energy per Si atom -12402.756759 kJ/mol
# Density = 1.767342 g / cm^3
# Si number density = 17.713735 Si / 1000 Ang^3
#
#
#
# Elastic Constant Matrix: (Units=GPa)
#
#
# Indices 1 2 3 4 5 6 
#
# 1 99.2176 37.9380 35.0951 0.0000 -4.1602 0.0000
# 2 37.9380 88.6552 37.3169 0.0000 -22.5509 0.0000
# 3 35.0951 37.3169 72.8554 0.0000 -10.4842 0.0000
# 4 0.0000 0.0000 0.0000 28.6209 0.0000 -1.2463
# 5 -4.1602 -22.5509 -10.4842 0.0000 21.3674 0.0000
# 6 0.0000 0.0000 0.0000 -1.2463 0.0000 28.1268
#
#
#
# Elastic Compliance Matrix: (Units=1/GPa)
#
#
# Indices 1 2 3 4 5 6 
#
# 1 0.013439 -0.005096 -0.004585 0.000000 -0.005011 0.000000
# 2 -0.005096 0.020221 -0.005352 0.000000 0.017723 0.000000
# 3 -0.004585 -0.005352 0.019082 0.000000 0.002821 0.000000
# 4 0.000000 0.000000 0.000000 0.035007 0.000000 0.001551
# 5 -0.005011 0.017723 0.002821 0.000000 0.065914 0.000000
# 6 0.000000 0.000000 0.000000 0.001551 0.000000 0.035622
#
#
# Mechanical properties :
#
#
# Convention : Reuss Voigt Hill
#
# Bulk Modulus (GPa) = 44.09861 53.49202 48.79532
# Shear Modulus (GPa) = 22.03527 25.64824 23.84176
#
# Velocity S-wave (km/s) = 3.53082 3.80930 3.67270
# Velocity P-wave (km/s) = 6.44759 7.04353 6.75213
#
# Compressibility (1/GPa) = 0.02267645
#
# Stress axis : x y z
#
# Youngs Moduli (GPa) = 74.41094 49.45274 52.40588
#
# Poissons Ratio (x) = 0.25200 0.24026
# Poissons Ratio (y) = 0.37917 0.28050
# Poissons Ratio (z) = 0.34115 0.26469
#
# Static dielectric constant tensor:
#      x y z
#    x 3.364460 0.000000 0.108140 
#    y 0.000000 3.212850 0.000000 
#    z 0.108140 0.000000 3.212860 
# 
# 
# High freq. dielectric constant tensor:
#      x y z
#    x 1.689190 0.000000 0.010560 
#    y 0.000000 1.680380 0.000000 
#    z 0.010560 0.000000 1.688200 
# 
# From -- ./inp_files/99069.got.cif
#   From: 2010.06.25/outbox.cif.g09.slc.cpg/sg12_50_cif.got.tgz:99069.got - 2010.06.28 00:19:55.
