data_PCOD8098887
_publ_section_title
;
Structure prediction by ZEFSAII (Michael W. Deem and Ramdas Pophale) SiO2 
 PCOD8098887
Probable space group: C 2/M
;
_chemical_formula_sum "Si O2"
_cell_formula_units_Z 64
_cell_length_a 14.797053
_cell_length_b 8.851530
_cell_length_c 26.273690
_cell_angle_alpha 90.000000
_cell_angle_beta 103.600439
_cell_angle_gamma 90.000000
_cell_volume 3344.742440
_symmetry_space_group_name_H-M "C 2/M"
_symmetry_group_IT_number 12
_symmetry_cell_setting 'monoclinic'
loop_
_space_group_symop_operation_xyz
x,y,z
-x,y,-z
-x,-y,-z
x,-y,z
1/2+x,1/2+y,z
1/2-x,1/2+y,-z
1/2-x,1/2-y,-z
1/2+x,1/2-y,z
loop_
_atom_site_type_symbol
_atom_site_label
_atom_site_fract_x
_atom_site_fract_y
_atom_site_fract_z
Si Si1 0.260878 0.673267 0.879941
Si Si2 0.549716 0.679092 0.747007
Si Si3 0.723228 0.823231 0.423998
Si Si4 0.605312 0.821471 0.504863
Si Si5 0.458294 0.679184 0.942415
Si Si6 0.073550 0.177782 0.864194
Si Si7 0.133438 0.322089 0.305513
Si Si8 0.259062 0.174794 0.239382
O O1 0.234614 0.500000 0.886845
O O2 0.350709 0.723382 0.923795
O O3 0.179045 0.777341 0.889770
O O4 0.279308 0.698809 0.822582
O O5 0.537304 0.500000 0.740356
O O6 0.542312 0.737227 0.804559
O O7 0.472469 0.765716 0.703986
O O8 0.649321 0.726468 0.737821
O O9 0.645562 0.771315 0.455049
O O10 0.823042 0.743144 0.443888
O O11 0.685364 0.777400 0.364046
O O12 0.740764 0.000000 0.431578
O O13 0.500000 0.758096 0.500000
O O14 0.603439 0.000000 0.510628
O O15 0.471494 0.500000 0.943664
O O16 0.510692 0.749318 0.900387
O O17 0.500000 0.748204 0.000000
O O18 0.064837 0.000000 0.863044
O O19 0.136938 0.500000 0.295789
O O20 0.178517 0.231685 0.265303
O O21 0.281442 0.000000 0.253070
#
# Coordination Sequence:
#
# PCOD8098887 Si02
#       8
#     8   8   8   8   8   8   8   8
#     4   9  18  33  52  73  97 128 167 210 255 305
#     4  10  20  35  54  77 105 138 177 216 260 315
#     4   9  20  36  52  77 109 136 169 213 256 301
#     4   9  18  35  58  79 101 135 176 213 252 300
#     4   9  17  30  49  72  98 130 166 203 250 308
#     4   9  18  33  52  73  98 130 168 209 252 303
#     4  11  22  35  52  78 113 145 174 214 261 308
#     4  10  20  35  54  76 103 137 178 219 261 311
#
# _framework density 19.134506999999999
#
# number of rings (size 3 to 8) (size 9 to 14) (size 15 to 20)
#    0.000    2.500    0.000    1.875    0.000    5.750 
#    0.000    1.875    0.000    0.750    0.000    0.000 
#    0.000    0.000    0.000    0.000    0.000    0.000 
#
# Total GULP energy -396806.330271 kJ/mol
# GULP energy per Si atom -12400.197821 kJ/mol
# Density = 1.909096 g / cm^3
# Si number density = 19.134507 Si / 1000 Ang^3
#
#
#
# Elastic Constant Matrix: (Units=GPa)
#
#
# Indices 1 2 3 4 5 6 
#
# 1 84.0756 11.8753 29.2635 0.0000 20.5547 0.0000
# 2 11.8753 29.6921 23.8832 0.0000 5.3057 0.0000
# 3 29.2635 23.8832 70.7916 0.0000 26.5389 0.0000
# 4 0.0000 0.0000 0.0000 21.3263 0.0000 4.5934
# 5 20.5547 5.3057 26.5389 0.0000 29.0237 0.0000
# 6 0.0000 0.0000 0.0000 4.5934 0.0000 33.8019
#
#
#
# Elastic Compliance Matrix: (Units=1/GPa)
#
#
# Indices 1 2 3 4 5 6 
#
# 1 0.015047 -0.002756 -0.002258 0.000000 -0.008087 0.000000
# 2 -0.002756 0.048268 -0.019125 0.000000 0.010616 0.000000
# 3 -0.002258 -0.019125 0.029825 0.000000 -0.022177 0.000000
# 4 0.000000 0.000000 0.000000 0.048304 0.000000 -0.006564
# 5 -0.008087 0.010616 -0.022177 0.000000 0.058520 0.000000
# 6 0.000000 0.000000 0.000000 -0.006564 0.000000 0.030476
#
#
# Mechanical properties :
#
#
# Convention : Reuss Voigt Hill
#
# Bulk Modulus (GPa) = 22.29087 34.95593 28.62340
# Shear Modulus (GPa) = 17.02584 24.79952 20.91268
#
# Velocity S-wave (km/s) = 2.98618 3.60399 3.30954
# Velocity P-wave (km/s) = 4.85434 5.96880 5.44018
#
# Compressibility (1/GPa) = 0.04486143
#
# Stress axis : x y z
#
# Youngs Moduli (GPa) = 66.46058 20.71785 33.52863
#
# Poissons Ratio (x) = 0.05711 0.07571
# Poissons Ratio (y) = 0.18319 0.64122
# Poissons Ratio (z) = 0.15007 0.39622
#
# Static dielectric constant tensor:
#      x y z
#    x 3.586670 0.000000 -0.005300 
#    y 0.000000 3.278120 0.000000 
#    z -0.005300 0.000000 3.585100 
# 
# 
# High freq. dielectric constant tensor:
#      x y z
#    x 1.751570 0.000000 0.006880 
#    y 0.000000 1.726160 0.000000 
#    z 0.006880 0.000000 1.739760 
# 
# From -- ./inp_files/359775.got.cif
#   From: 2010.06.25/outbox.cif.g09.slc.cpg/sg12_180_cif.got.tgz:359775.got - 2010.06.28 00:19:55.
