data_PCOD8098429
_publ_section_title
;
Structure prediction by ZEFSAII (Michael W. Deem and Ramdas Pophale) SiO2 
 PCOD8098429
Probable space group: C 2/M
;
_chemical_formula_sum "Si O2"
_cell_formula_units_Z 56
_cell_length_a 11.017864
_cell_length_b 29.522458
_cell_length_c 9.490445
_cell_angle_alpha 90.000000
_cell_angle_beta 107.762573
_cell_angle_gamma 90.000000
_cell_volume 2939.838350
_symmetry_space_group_name_H-M "C 2/M"
_symmetry_group_IT_number 12
_symmetry_cell_setting 'monoclinic'
loop_
_space_group_symop_operation_xyz
x,y,z
-x,y,-z
-x,-y,-z
x,-y,z
1/2+x,1/2+y,z
1/2-x,1/2+y,-z
1/2-x,1/2-y,-z
1/2+x,1/2-y,z
loop_
_atom_site_type_symbol
_atom_site_label
_atom_site_fract_x
_atom_site_fract_y
_atom_site_fract_z
Si Si1 0.043776 0.370939 0.169246
Si Si2 0.912727 0.722618 0.680088
Si Si3 0.791534 0.051827 0.577455
Si Si4 0.516381 0.553490 0.850281
Si Si5 0.184185 0.720682 0.665453
Si Si6 0.247687 0.448155 0.245002
Si Si7 0.382595 0.875332 0.363668
O O1 0.110018 0.328614 0.272125
O O2 0.132435 0.414344 0.187355
O O3 0.925541 0.388536 0.221166
O O4 0.000000 0.354838 0.000000
O O5 0.863499 0.732087 0.506900
O O6 0.819198 0.753846 0.745750
O O7 0.066997 0.733149 0.734491
O O8 0.817586 0.056552 0.420626
O O9 0.669117 0.080713 0.576329
O O10 0.909835 0.072402 0.705962
O O11 0.763017 0.000000 0.608347
O O12 0.500526 0.500000 0.850691
O O13 0.653813 0.566656 0.840421
O O14 0.500000 0.574885 0.000000
O O15 0.214587 0.666824 0.684236
O O16 0.200603 0.500000 0.207400
O O17 0.500000 0.856766 0.500000
#
# Coordination Sequence:
#
# PCOD8098429 Si02
#       7
#     8   8   8   8   8   8   8
#     4  11  23  37  55  81 118 151 180 233 290 334
#     4   9  17  34  56  83 106 143 180 227 286 335
#     4  10  20  34  57  82 110 149 193 236 273 329
#     4   9  19  35  53  75 109 149 187 234 285 325
#     4   9  16  33  60  79 108 138 183 232 277 338
#     4  10  20  36  56  80 111 151 197 234 273 331
#     4  11  19  37  56  80 114 148 184 229 286 335
#
# _framework density 19.048666000000001
#
# number of rings (size 3 to 8) (size 9 to 14) (size 15 to 20)
#    0.000    2.143    4.286    0.429    2.000    2.857 
#    2.571    2.857    0.000    0.857    0.000    0.000 
#    0.000    0.000    0.000    0.000    0.000    0.000 
#
# Total GULP energy -346945.798484 kJ/mol
# GULP energy per Si atom -12390.921374 kJ/mol
# Density = 1.900531 g / cm^3
# Si number density = 19.048666 Si / 1000 Ang^3
#
#
#
# Elastic Constant Matrix: (Units=GPa)
#
#
# Indices 1 2 3 4 5 6 
#
# 1 115.0257 66.7985 27.9883 0.0000 -21.8185 0.0000
# 2 66.7985 93.9803 17.2994 0.0000 -5.5375 0.0000
# 3 27.9883 17.2994 66.1454 0.0000 -16.2501 0.0000
# 4 0.0000 0.0000 0.0000 13.9071 0.0000 -3.5060
# 5 -21.8185 -5.5375 -16.2501 0.0000 28.2229 0.0000
# 6 0.0000 0.0000 0.0000 -3.5060 0.0000 34.6950
#
#
#
# Elastic Compliance Matrix: (Units=1/GPa)
#
#
# Indices 1 2 3 4 5 6 
#
# 1 0.018037 -0.011842 -0.001957 0.000000 0.010494 0.000000
# 2 -0.011842 0.018962 -0.001495 0.000000 -0.006295 0.000000
# 3 -0.001957 -0.001495 0.018512 0.000000 0.008853 0.000000
# 4 0.000000 0.000000 0.000000 0.073786 0.000000 0.007456
# 5 0.010494 -0.006295 0.008853 0.000000 0.047407 0.000000
# 6 0.000000 0.000000 0.000000 0.007456 0.000000 0.029576
#
#
# Mechanical properties :
#
#
# Convention : Reuss Voigt Hill
#
# Bulk Modulus (GPa) = 40.12301 55.48042 47.80171
# Shear Modulus (GPa) = 20.39359 26.23602 23.31481
#
# Velocity S-wave (km/s) = 3.27556 3.71525 3.50231
# Velocity P-wave (km/s) = 5.95104 6.89876 6.44235
#
# Compressibility (1/GPa) = 0.02492336
#
# Stress axis : x y z
#
# Youngs Moduli (GPa) = 55.44070 52.73805 54.01861
#
# Poissons Ratio (x) = 0.62451 0.10572
# Poissons Ratio (y) = 0.65652 0.08076
# Poissons Ratio (z) = 0.10850 0.07884
#
# Static dielectric constant tensor:
#      x y z
#    x 3.730100 0.000000 -0.269550 
#    y 0.000000 3.320670 0.000000 
#    z -0.269550 0.000000 3.522390 
# 
# 
# High freq. dielectric constant tensor:
#      x y z
#    x 1.738560 0.000000 -0.020470 
#    y 0.000000 1.723090 0.000000 
#    z -0.020470 0.000000 1.723130 
# 
# From -- ./inp_files/54337.got.cif
#   From: 2010.06.25/outbox.cif.g09.slc.cpg/sg12_28_cif.got.tgz:54337.got - 2010.06.28 00:19:55.
