data_PCOD8098503
_publ_section_title
;
Structure prediction by ZEFSAII (Michael W. Deem and Ramdas Pophale) SiO2 
 PCOD8098503
Probable space group: C 2/M
;
_chemical_formula_sum "Si O2"
_cell_formula_units_Z 64
_cell_length_a 21.314454
_cell_length_b 8.795921
_cell_length_c 23.860524
_cell_angle_alpha 90.000000
_cell_angle_beta 134.547956
_cell_angle_gamma 90.000000
_cell_volume 3188.012776
_symmetry_space_group_name_H-M "C 2/M"
_symmetry_group_IT_number 12
_symmetry_cell_setting 'monoclinic'
loop_
_space_group_symop_operation_xyz
x,y,z
-x,y,-z
-x,-y,-z
x,-y,z
1/2+x,1/2+y,z
1/2-x,1/2+y,-z
1/2-x,1/2-y,-z
1/2+x,1/2-y,z
loop_
_atom_site_type_symbol
_atom_site_label
_atom_site_fract_x
_atom_site_fract_y
_atom_site_fract_z
Si Si1 0.217176 0.176686 0.307050
Si Si2 0.709845 0.175914 0.529627
Si Si3 0.107080 0.170908 0.858922
Si Si4 0.962222 0.321963 0.829275
Si Si5 0.730409 0.820856 0.849016
Si Si6 0.153237 0.820612 0.692434
Si Si7 0.602863 0.329613 0.979624
Si Si8 0.981340 0.319588 0.552124
O O1 0.222553 0.204633 0.376968
O O2 0.137766 0.268461 0.229211
O O3 0.307480 0.238142 0.337476
O O4 0.206547 0.000000 0.285936
O O5 0.750000 0.250000 0.500000
O O6 0.613553 0.240278 0.486083
O O7 0.699205 0.000000 0.510132
O O8 0.158826 0.282625 0.850998
O O9 0.151050 0.169006 0.948595
O O10 0.007727 0.236949 0.804619
O O11 0.103172 0.000000 0.831137
O O12 0.966450 0.500000 0.822739
O O13 0.015354 0.276302 0.919966
O O14 0.711838 0.725490 0.782177
O O15 0.727169 0.000000 0.834688
O O16 0.827122 0.769347 0.931173
O O17 0.053492 0.761201 0.637104
O O18 0.155358 0.000000 0.685949
O O19 0.571958 0.500000 0.975836
O O20 0.989603 0.500000 0.563274
O O21 0.000000 0.268449 0.500000
#
# Coordination Sequence:
#
# PCOD8098503 Si02
#       8
#     8   8   8   8   8   8   8   8
#     4  11  22  43  65  85 118 162 205 249 303 367
#     4  10  23  41  68  98 126 161 201 254 310 367
#     4   9  18  34  55  83 117 156 198 248 304 362
#     4  10  20  34  57  87 118 157 198 244 303 362
#     4  11  21  36  58  86 118 157 204 251 301 363
#     4  12  26  40  60  92 123 157 200 255 311 366
#     4   8  18  35  56  83 116 157 201 247 305 363
#     4  10  20  43  70  92 123 167 213 249 302 375
#
# _framework density 20.075202000000001
#
# number of rings (size 3 to 8) (size 9 to 14) (size 15 to 20)
#    0.750    1.125    1.250    3.375    0.000    3.750 
#    0.000    3.125    0.000    3.750    0.000    0.000 
#    0.000    0.000    0.000    0.000    0.000    0.000 
#
# Total GULP energy -396675.921464 kJ/mol
# GULP energy per Si atom -12396.122546 kJ/mol
# Density = 2.002951 g / cm^3
# Si number density = 20.075202 Si / 1000 Ang^3
#
#
#
# Elastic Constant Matrix: (Units=GPa)
#
#
# Indices 1 2 3 4 5 6 
#
# 1 85.4391 24.8899 50.4654 0.0000 9.6716 0.0000
# 2 24.8899 85.2802 42.7706 0.0000 5.3485 0.0000
# 3 50.4654 42.7706 98.8767 0.0000 10.6465 0.0000
# 4 0.0000 0.0000 0.0000 25.2107 0.0000 -0.8065
# 5 9.6716 5.3485 10.6465 0.0000 30.7928 0.0000
# 6 0.0000 0.0000 0.0000 -0.8065 0.0000 33.0138
#
#
#
# Elastic Compliance Matrix: (Units=1/GPa)
#
#
# Indices 1 2 3 4 5 6 
#
# 1 0.016965 -0.000751 -0.008075 0.000000 -0.002406 0.000000
# 2 -0.000751 0.015012 -0.006082 0.000000 -0.000269 0.000000
# 3 -0.008075 -0.006082 0.017116 0.000000 -0.002325 0.000000
# 4 0.000000 0.000000 0.000000 0.039697 0.000000 0.000970
# 5 -0.002406 -0.000269 -0.002325 0.000000 0.034082 0.000000
# 6 0.000000 0.000000 0.000000 0.000970 0.000000 0.030314
#
#
# Mechanical properties :
#
#
# Convention : Reuss Voigt Hill
#
# Bulk Modulus (GPa) = 51.87082 56.20530 54.03806
# Shear Modulus (GPa) = 26.39560 27.90146 27.14853
#
# Velocity S-wave (km/s) = 3.63000 3.73211 3.68141
# Velocity P-wave (km/s) = 6.59269 6.82859 6.71168
#
# Compressibility (1/GPa) = 0.01927866
#
# Stress axis : x y z
#
# Youngs Moduli (GPa) = 58.94572 66.61279 58.42515
#
# Poissons Ratio (x) = 0.05001 0.47177
# Poissons Ratio (y) = 0.04425 0.35532
# Poissons Ratio (z) = 0.47597 0.40511
#
# Static dielectric constant tensor:
#      x y z
#    x 3.558150 0.000000 0.130910 
#    y 0.000000 3.503800 0.000000 
#    z 0.130910 0.000000 3.653770 
# 
# 
# High freq. dielectric constant tensor:
#      x y z
#    x 1.768010 0.000000 0.009650 
#    y 0.000000 1.782130 0.000000 
#    z 0.009650 0.000000 1.782260 
# 
# From -- ./inp_files/346175.got.cif
#   From: 2010.06.25/outbox.cif.g09.slc.cpg/sg12_174_cif.got.tgz:346175.got - 2010.06.28 00:19:55.
