data_PCOD8098868
_publ_section_title
;
Structure prediction by ZEFSAII (Michael W. Deem and Ramdas Pophale) SiO2 
 PCOD8098868
Probable space group: C 2/M
;
_chemical_formula_sum "Si O2"
_cell_formula_units_Z 56
_cell_length_a 19.372235
_cell_length_b 8.819965
_cell_length_c 26.936369
_cell_angle_alpha 90.000000
_cell_angle_beta 140.841304
_cell_angle_gamma 90.000000
_cell_volume 2906.288355
_symmetry_space_group_name_H-M "C 2/M"
_symmetry_group_IT_number 12
_symmetry_cell_setting 'monoclinic'
loop_
_space_group_symop_operation_xyz
x,y,z
-x,y,-z
-x,-y,-z
x,-y,z
1/2+x,1/2+y,z
1/2-x,1/2+y,-z
1/2-x,1/2-y,-z
1/2+x,1/2-y,z
loop_
_atom_site_type_symbol
_atom_site_label
_atom_site_fract_x
_atom_site_fract_y
_atom_site_fract_z
Si Si1 0.163445 0.675627 0.310116
Si Si2 0.104601 0.180667 0.587946
Si Si3 0.446107 0.180651 0.233648
Si Si4 0.114400 0.830548 0.185974
Si Si5 0.928567 0.826446 0.005416
Si Si6 0.274912 0.321607 0.067138
Si Si7 0.349034 0.824998 0.283080
O O1 0.179442 0.500000 0.326212
O O2 0.286361 0.746477 0.379590
O O3 0.112025 0.707472 0.227712
O O4 0.074849 0.731165 0.301681
O O5 0.099482 0.237647 0.641568
O O6 0.000000 0.243386 0.500000
O O7 0.105341 0.000000 0.589766
O O8 0.384654 0.257053 0.152998
O O9 0.400143 0.240418 0.260574
O O10 0.432534 0.000000 0.221029
O O11 0.217889 0.801633 0.207251
O O12 0.000374 0.814392 0.094708
O O13 0.125484 0.000000 0.214802
O O14 0.890707 0.000000 0.974609
O O15 0.823970 0.719591 0.951157
O O16 0.000000 0.764737 0.000000
O O17 0.287290 0.500000 0.067368
O O18 0.250000 0.250000 0.000000
O O19 0.381223 0.000000 0.306720
#
# Coordination Sequence:
#
# PCOD8098868 Si02
#       7
#     8   8   8   8   8   8   8
#     4   9  18  32  52  74  96 129 169 207 249 302
#     4   9  18  34  55  79 108 138 167 203 251 309
#     4  10  20  36  55  75 102 135 175 221 267 314
#     4   9  17  30  49  71  95 127 167 209 254 305
#     4  10  20  35  54  75 102 136 175 222 274 320
#     4  12  25  38  53  75 106 144 185 227 273 323
#     4   9  18  33  54  78 103 133 169 211 258 306
#
# _framework density 19.268561999999999
#
# number of rings (size 3 to 8) (size 9 to 14) (size 15 to 20)
#    0.000    2.286    0.000    3.000    0.000    6.857 
#    0.000    3.571    0.000    0.000    0.000    0.000 
#    0.000    0.000    0.000    0.000    0.000    0.000 
#
# Total GULP energy -347069.268731 kJ/mol
# GULP energy per Si atom -12395.331026 kJ/mol
# Density = 1.922471 g / cm^3
# Si number density = 19.268562 Si / 1000 Ang^3
#
#
#
# Elastic Constant Matrix: (Units=GPa)
#
#
# Indices 1 2 3 4 5 6 
#
# 1 123.7199 24.4524 34.2948 0.0000 11.7745 0.0000
# 2 24.4524 40.0677 24.4508 0.0000 5.5831 0.0000
# 3 34.2948 24.4508 85.5392 0.0000 14.3849 0.0000
# 4 0.0000 0.0000 0.0000 25.2763 0.0000 -2.7746
# 5 11.7745 5.5831 14.3849 0.0000 25.5558 0.0000
# 6 0.0000 0.0000 0.0000 -2.7746 0.0000 23.8451
#
#
#
# Elastic Compliance Matrix: (Units=1/GPa)
#
#
# Indices 1 2 3 4 5 6 
#
# 1 0.009781 -0.004231 -0.002330 0.000000 -0.002271 0.000000
# 2 -0.004231 0.032147 -0.007334 0.000000 -0.000946 0.000000
# 3 -0.002330 -0.007334 0.015763 0.000000 -0.006197 0.000000
# 4 0.000000 0.000000 0.000000 0.040075 0.000000 0.004663
# 5 -0.002271 -0.000946 -0.006197 0.000000 0.043871 0.000000
# 6 0.000000 0.000000 0.000000 0.004663 0.000000 0.042480
#
#
# Mechanical properties :
#
#
# Convention : Reuss Voigt Hill
#
# Bulk Modulus (GPa) = 33.44301 46.19141 39.81721
# Shear Modulus (GPa) = 22.53541 26.01070 24.27305
#
# Velocity S-wave (km/s) = 3.42357 3.67809 3.55311
# Velocity P-wave (km/s) = 5.74645 6.48554 6.12715
#
# Compressibility (1/GPa) = 0.02990162
#
# Stress axis : x y z
#
# Youngs Moduli (GPa) = 102.23920 31.10733 63.43878
#
# Poissons Ratio (x) = 0.13161 0.14783
# Poissons Ratio (y) = 0.43255 0.46524
# Poissons Ratio (z) = 0.23825 0.22813
#
# Static dielectric constant tensor:
#      x y z
#    x 3.926430 0.000000 0.256380 
#    y 0.000000 3.354410 0.000000 
#    z 0.256380 0.000000 3.446890 
# 
# 
# High freq. dielectric constant tensor:
#      x y z
#    x 1.766200 0.000000 0.012750 
#    y 0.000000 1.729830 0.000000 
#    z 0.012750 0.000000 1.729370 
# 
# From -- ./inp_files/342577.got.cif
#   From: 2010.06.25/outbox.cif.g09.slc.cpg/sg12_172_cif.got.tgz:342577.got - 2010.06.28 00:19:55.
