data_PCOD8098256
_publ_section_title
;
Structure prediction by ZEFSAII (Michael W. Deem and Ramdas Pophale) SiO2 
 PCOD8098256
Probable space group: C 2/M
;
_chemical_formula_sum "Si O2"
_cell_formula_units_Z 56
_cell_length_a 20.596481
_cell_length_b 9.245076
_cell_length_c 28.838432
_cell_angle_alpha 90.000000
_cell_angle_beta 149.976612
_cell_angle_gamma 90.000000
_cell_volume 2747.590896
_symmetry_space_group_name_H-M "C 2/M"
_symmetry_group_IT_number 12
_symmetry_cell_setting 'monoclinic'
loop_
_space_group_symop_operation_xyz
x,y,z
-x,y,-z
-x,-y,-z
x,-y,z
1/2+x,1/2+y,z
1/2-x,1/2+y,-z
1/2-x,1/2-y,-z
1/2+x,1/2-y,z
loop_
_atom_site_type_symbol
_atom_site_label
_atom_site_fract_x
_atom_site_fract_y
_atom_site_fract_z
Si Si1 0.123367 0.170215 0.402284
Si Si2 0.142277 0.840971 0.605877
Si Si3 0.450336 0.168911 0.129559
Si Si4 0.357630 0.670626 0.287672
Si Si5 0.846606 0.831135 0.685665
Si Si6 0.699390 0.337401 0.030640
Si Si7 0.645370 0.665040 0.099713
O O1 0.250000 0.250000 0.500000
O O2 0.110070 0.207349 0.339605
O O3 0.991438 0.224839 0.345895
O O4 0.144306 0.000000 0.423304
O O5 0.140213 0.783462 0.657382
O O6 0.202545 0.725180 0.607322
O O7 0.000000 0.862374 0.500000
O O8 0.211213 0.000000 0.646475
O O9 0.575220 0.244452 0.227192
O O10 0.417511 0.233765 0.058565
O O11 0.475256 0.000000 0.140059
O O12 0.333739 0.212035 0.091411
O O13 0.345939 0.500000 0.273287
O O14 0.227493 0.741394 0.186489
O O15 0.858882 0.000000 0.702689
O O16 0.663126 0.500000 0.992963
O O17 0.722499 0.325647 0.099348
O O18 0.635965 0.500000 0.112325
O O19 0.500000 0.725193 0.000000
#
# Coordination Sequence:
#
# PCOD8098256 Si02
#       7
#     8   8   8   8   8   8   8
#     4  10  22  40  63  91 120 154 197 247 302 359
#     4  10  22  41  63  87 119 158 198 243 297 358
#     4  10  20  34  56  83 111 149 193 236 287 345
#     4  10  22  40  62  89 121 158 202 249 299 355
#     4  11  23  37  58  87 119 151 192 242 293 350
#     4   9  19  36  55  79 114 151 190 237 289 342
#     4  10  22  38  57  83 117 158 200 241 295 355
#
# _framework density 20.381492000000001
#
# number of rings (size 3 to 8) (size 9 to 14) (size 15 to 20)
#    0.000    2.000    0.000    2.571    2.000    5.143 
#    0.000    0.000    0.000    0.000    0.000    0.000 
#    0.000    0.000    0.000    0.000    0.000    0.000 
#
# Total GULP energy -347162.012121 kJ/mol
# GULP energy per Si atom -12398.643290 kJ/mol
# Density = 2.033510 g / cm^3
# Si number density = 20.381492 Si / 1000 Ang^3
#
#
#
# Elastic Constant Matrix: (Units=GPa)
#
#
# Indices 1 2 3 4 5 6 
#
# 1 86.3196 24.9397 19.3130 0.0000 -2.6455 0.0001
# 2 24.9397 70.6512 37.6536 0.0002 -3.9377 0.0006
# 3 19.3130 37.6536 104.7225 0.0013 -2.8343 0.0001
# 4 0.0000 0.0002 0.0013 38.3995 0.0001 2.1257
# 5 -2.6455 -3.9377 -2.8343 0.0001 31.0416 0.0000
# 6 0.0001 0.0006 0.0001 2.1257 0.0000 26.5753
#
#
#
# Elastic Compliance Matrix: (Units=1/GPa)
#
#
# Indices 1 2 3 4 5 6 
#
# 1 0.012980 -0.004064 -0.000919 0.000000 0.000507 0.000000
# 2 -0.004064 0.018866 -0.005993 0.000000 0.001500 0.000000
# 3 -0.000919 -0.005993 0.011880 0.000000 0.000246 0.000000
# 4 0.000000 0.000000 0.000000 0.026158 0.000000 -0.002092
# 5 0.000507 0.001500 0.000246 0.000000 0.032471 0.000000
# 6 0.000000 0.000000 0.000000 -0.002092 0.000000 0.037796
#
#
# Mechanical properties :
#
#
# Convention : Reuss Voigt Hill
#
# Bulk Modulus (GPa) = 45.92619 47.27845 46.60232
# Shear Modulus (GPa) = 29.52252 31.18908 30.35580
#
# Velocity S-wave (km/s) = 3.81004 3.91610 3.86344
# Velocity P-wave (km/s) = 6.47591 6.61021 6.54341
#
# Compressibility (1/GPa) = 0.02177407
#
# Stress axis : x y z
#
# Youngs Moduli (GPa) = 77.04065 53.00426 84.17411
#
# Poissons Ratio (x) = 0.21541 0.07734
# Poissons Ratio (y) = 0.31309 0.50449
# Poissons Ratio (z) = 0.07079 0.31768
#
# Static dielectric constant tensor:
#      x y z
#    x 3.907550 0.000000 0.015960 
#    y 0.000000 3.725320 0.000000 
#    z 0.015960 0.000000 3.657200 
# 
# 
# High freq. dielectric constant tensor:
#      x y z
#    x 1.804490 0.000000 0.000020 
#    y 0.000000 1.788470 0.000000 
#    z 0.000020 0.000000 1.802070 
# 
# From -- ./inp_files/380780.got.cif
#   From: 2010.06.25/outbox.cif.g09.slc.cpg/sg12_191_cif.got.tgz:380780.got - 2010.06.28 00:19:55.
