data_PCOD8098527
_publ_section_title
;
Structure prediction by ZEFSAII (Michael W. Deem and Ramdas Pophale) SiO2 
 PCOD8098527
Probable space group: C 2/M
;
_chemical_formula_sum "Si O2"
_cell_formula_units_Z 64
_cell_length_a 31.772774
_cell_length_b 13.744785
_cell_length_c 9.772743
_cell_angle_alpha 90.000000
_cell_angle_beta 50.369474
_cell_angle_gamma 90.000000
_cell_volume 3286.988232
_symmetry_space_group_name_H-M "C 2/M"
_symmetry_group_IT_number 12
_symmetry_cell_setting 'monoclinic'
loop_
_space_group_symop_operation_xyz
x,y,z
-x,y,-z
-x,-y,-z
x,-y,z
1/2+x,1/2+y,z
1/2-x,1/2+y,-z
1/2-x,1/2-y,-z
1/2+x,1/2-y,z
loop_
_atom_site_type_symbol
_atom_site_label
_atom_site_fract_x
_atom_site_fract_y
_atom_site_fract_z
Si Si1 0.954659 0.387483 0.316008
Si Si2 0.670633 0.389380 0.592588
Si Si3 0.918630 0.386330 0.900476
Si Si4 0.165797 0.110842 0.281390
Si Si5 0.766949 0.611186 0.885175
Si Si6 0.117402 0.298118 0.302684
Si Si7 0.728904 0.888649 0.430990
Si Si8 0.381322 0.797855 0.250708
O O1 0.942569 0.500000 0.312031
O O2 0.924032 0.356582 0.516365
O O3 0.934255 0.327328 0.227894
O O4 0.018260 0.367116 0.200935
O O5 0.655332 0.500000 0.664662
O O6 0.679190 0.378071 0.413216
O O7 0.726713 0.356030 0.549241
O O8 0.621769 0.320022 0.749811
O O9 0.906692 0.500000 0.896051
O O10 0.900637 0.319134 0.813277
O O11 0.882871 0.349793 0.101602
O O12 0.115973 0.182237 0.339977
O O13 0.148668 0.000000 0.281163
O O14 0.219512 0.143332 0.086722
O O15 0.782953 0.500000 0.878508
O O16 0.820555 0.672380 0.802415
O O17 0.746565 0.627520 0.771698
O O18 0.673755 0.827248 0.556428
O O19 0.712268 0.000000 0.489557
#
# Coordination Sequence:
#
# PCOD8098527 Si02
#       8
#     8   8   8   8   8   8   8   8
#     4  11  22  42  64  85 115 149 192 244 302 353
#     4  10  22  39  59  87 121 157 197 240 282 336
#     4  11  26  40  60  91 119 147 190 246 296 353
#     4  10  22  39  59  87 121 157 197 240 282 336
#     4  10  20  34  57  88 120 153 193 238 288 349
#     4  12  22  38  62  87 117 159 194 235 293 349
#     4  10  20  34  57  88 120 153 193 238 288 349
#     4  12  22  38  62  87 117 159 194 235 293 349
#
# _framework density 19.470711999999999
#
# number of rings (size 3 to 8) (size 9 to 14) (size 15 to 20)
#    0.000    1.250    2.500    3.750    3.500    2.000 
#    0.000    0.000    0.000    4.500    0.000    0.000 
#    0.000    0.000    0.000    0.000    0.000    0.000 
#
# Total GULP energy -396902.907965 kJ/mol
# GULP energy per Si atom -12403.215874 kJ/mol
# Density = 1.942640 g / cm^3
# Si number density = 19.470712 Si / 1000 Ang^3
#
#
#
# Elastic Constant Matrix: (Units=GPa)
#
#
# Indices 1 2 3 4 5 6 
#
# 1 ********************53697.5108 0.0000-5525.3902 0.0000
# 2 **********-5554.859020835.1402 0.0000-2154.6076 0.0000
# 3 53697.510820835.1402********** 0.0000 7917.8467 0.0000
# 4 0.0000 0.0000 0.0000 28.1192 0.0000 2.5244
# 5 -5525.3902-2154.6076 7917.8467 0.0000 -788.4472 0.0000
# 6 0.0000 0.0000 0.0000 2.5244 0.0000 30.3275
#
#
#
# Elastic Compliance Matrix: (Units=1/GPa)
#
#
# Indices 1 2 3 4 5 6 
#
# 1 0.015123 -0.012030 0.005861 0.000000 -0.014242 0.000000
# 2 -0.012030 0.018144 -0.002349 0.000000 0.011133 0.000000
# 3 0.005861 -0.002349 0.003232 0.000000 -0.002195 0.000000
# 4 0.000000 0.000000 0.000000 0.035831 0.000000 -0.002982
# 5 -0.014242 0.011133 -0.002195 0.000000 0.046074 0.000000
# 6 0.000000 0.000000 0.000000 -0.002982 0.000000 0.033222
#
#
# Mechanical properties :
#
#
# Convention : Reuss Voigt Hill
#
# Bulk Modulus (GPa) = 51.38073 46.55965 48.97019
# Shear Modulus (GPa) = 28.54700 -12119.89727 -6045.67513
#
# Velocity S-wave (km/s) = 3.83319 -78.98224 -55.78307
# Velocity P-wave (km/s) = 6.78507 91.06936 64.21678
#
# Compressibility (1/GPa) = 0.01946255
#
# Stress axis : x y z
#
# Youngs Moduli (GPa) = 66.12470 55.11486 309.35889
#
# Poissons Ratio (x) = 0.66306 -1.81330
# Poissons Ratio (y) = 0.79551 0.72680
# Poissons Ratio (z) = -0.38759 0.12949
#
# Static dielectric constant tensor:
#      x y z
#    x 3.526210 0.000000 0.177340 
#    y 0.000000 3.918490 0.000000 
#    z 0.177340 0.000000 3.574260 
# 
# 
# High freq. dielectric constant tensor:
#      x y z
#    x 1.746430 0.000000 0.019650 
#    y 0.000000 1.770630 0.000000 
#    z 0.019650 0.000000 1.757040 
# 
# From -- ./inp_files/111630.got.cif
#   From: 2010.06.25/outbox.cif.g09.slc.cpg/sg12_56_cif.got.tgz:111630.got - 2010.06.28 00:19:55.
