data_PCOD8098158
_publ_section_title
;
Structure prediction by ZEFSAII (Michael W. Deem and Ramdas Pophale) SiO2 
 PCOD8098158
Probable space group: C 2/M
;
_chemical_formula_sum "Si O2"
_cell_formula_units_Z 56
_cell_length_a 20.486400
_cell_length_b 8.785521
_cell_length_c 22.198563
_cell_angle_alpha 90.000000
_cell_angle_beta 132.258635
_cell_angle_gamma 90.000000
_cell_volume 2957.047399
_symmetry_space_group_name_H-M "C 2/M"
_symmetry_group_IT_number 12
_symmetry_cell_setting 'monoclinic'
loop_
_space_group_symop_operation_xyz
x,y,z
-x,y,-z
-x,-y,-z
x,-y,z
1/2+x,1/2+y,z
1/2-x,1/2+y,-z
1/2-x,1/2-y,-z
1/2+x,1/2-y,z
loop_
_atom_site_type_symbol
_atom_site_label
_atom_site_fract_x
_atom_site_fract_y
_atom_site_fract_z
Si Si1 0.609918 0.176349 0.913107
Si Si2 0.018751 0.678335 0.343372
Si Si3 0.448844 0.675288 0.763786
Si Si4 0.258452 0.323071 0.095983
Si Si5 0.680457 0.821866 0.751331
Si Si6 0.818739 0.821426 0.496560
Si Si7 0.248759 0.324512 0.663856
O O1 0.519534 0.272059 0.857863
O O2 0.667532 0.224483 0.891391
O O3 0.586608 0.000000 0.891414
O O4 0.662742 0.209836 0.007484
O O5 0.034239 0.500000 0.360294
O O6 0.039487 0.724002 0.288164
O O7 0.083186 0.763792 0.429182
O O8 0.920248 0.726016 0.300049
O O9 0.463893 0.500000 0.755855
O O10 0.353145 0.702698 0.732449
O O11 0.282986 0.500000 0.104815
O O12 0.256538 0.270981 0.164023
O O13 0.706856 0.773009 0.700745
O O14 0.696121 0.000000 0.771703
O O15 0.750000 0.750000 0.500000
O O16 0.794482 0.779607 0.413632
O O17 0.814894 0.000000 0.503378
O O18 0.227076 0.500000 0.635718
#
# Coordination Sequence:
#
# PCOD8098158 Si02
#       7
#     8   8   8   8   8   8   8
#     4  10  20  34  55  85 118 152 193 240 291 344
#     4  11  22  37  61  88 117 152 192 239 290 344
#     4  11  21  35  59  88 116 151 195 243 286 338
#     4  10  20  34  56  85 117 152 192 242 291 340
#     4  10  22  40  61  85 117 157 193 234 291 351
#     4  12  24  39  61  88 117 152 194 242 291 341
#     4  10  23  42  61  84 117 155 195 237 289 348
#
# _framework density 18.937808
#
# number of rings (size 3 to 8) (size 9 to 14) (size 15 to 20)
#    0.000    1.429    2.857    3.000    0.000    4.000 
#    0.000    3.571    0.000    4.286    0.000    0.000 
#    0.000    0.000    0.000    0.000    0.000    0.000 
#
# Total GULP energy -347352.775496 kJ/mol
# GULP energy per Si atom -12405.456268 kJ/mol
# Density = 1.889471 g / cm^3
# Si number density = 18.937808 Si / 1000 Ang^3
#
#
#
# Elastic Constant Matrix: (Units=GPa)
#
#
# Indices 1 2 3 4 5 6 
#
# 1 91.7086 33.9855 47.6807 0.0000 -7.4263 0.0000
# 2 33.9855 85.0768 55.6834 0.0000 1.0080 0.0000
# 3 47.6807 55.6834 137.9937 0.0000 2.4581 0.0000
# 4 0.0000 0.0000 0.0000 38.4295 0.0000 0.6074
# 5 -7.4263 1.0080 2.4581 0.0000 28.9626 0.0000
# 6 0.0000 0.0000 0.0000 0.6074 0.0000 24.6147
#
#
#
# Elastic Compliance Matrix: (Units=1/GPa)
#
#
# Indices 1 2 3 4 5 6 
#
# 1 0.014411 -0.003395 -0.003683 0.000000 0.004126 0.000000
# 2 -0.003395 0.016772 -0.005577 0.000000 -0.000981 0.000000
# 3 -0.003683 -0.005577 0.010800 0.000000 -0.001667 0.000000
# 4 0.000000 0.000000 0.000000 0.026032 0.000000 -0.000642
# 5 0.004126 -0.000981 -0.001667 0.000000 0.035761 0.000000
# 6 0.000000 0.000000 0.000000 -0.000642 0.000000 0.040642
#
#
# Mechanical properties :
#
#
# Convention : Reuss Voigt Hill
#
# Bulk Modulus (GPa) = 59.98043 65.49759 62.73901
# Shear Modulus (GPa) = 28.52477 30.23001 29.37739
#
# Velocity S-wave (km/s) = 3.88523 3.99968 3.94287
# Velocity P-wave (km/s) = 7.20193 7.48269 7.34365
#
# Compressibility (1/GPa) = 0.01667210
#
# Stress axis : x y z
#
# Youngs Moduli (GPa) = 69.39036 59.62164 92.59624
#
# Poissons Ratio (x) = 0.20243 0.34103
# Poissons Ratio (y) = 0.23559 0.51645
# Poissons Ratio (z) = 0.25556 0.33254
#
# Static dielectric constant tensor:
#      x y z
#    x 3.362190 0.000000 0.165000 
#    y 0.000000 3.517250 0.000000 
#    z 0.165000 0.000000 3.752330 
# 
# 
# High freq. dielectric constant tensor:
#      x y z
#    x 1.715710 0.000000 0.010380 
#    y 0.000000 1.744750 0.000000 
#    z 0.010380 0.000000 1.750190 
# 
# From -- ./inp_files/320253.got.cif
#   From: 2010.06.25/outbox.cif.g09.slc.cpg/sg12_161_cif.got.tgz:320253.got - 2010.06.28 00:19:55.
