data_PCOD8098896
_publ_section_title
;
Structure prediction by ZEFSAII (Michael W. Deem and Ramdas Pophale) SiO2 
 PCOD8098896
Probable space group: C 2/M
;
_chemical_formula_sum "Si O2"
_cell_formula_units_Z 56
_cell_length_a 24.967911
_cell_length_b 8.784571
_cell_length_c 16.399400
_cell_angle_alpha 90.000000
_cell_angle_beta 56.755259
_cell_angle_gamma 90.000000
_cell_volume 3008.235026
_symmetry_space_group_name_H-M "C 2/M"
_symmetry_group_IT_number 12
_symmetry_cell_setting 'monoclinic'
loop_
_space_group_symop_operation_xyz
x,y,z
-x,y,-z
-x,-y,-z
x,-y,z
1/2+x,1/2+y,z
1/2-x,1/2+y,-z
1/2-x,1/2-y,-z
1/2+x,1/2-y,z
loop_
_atom_site_type_symbol
_atom_site_label
_atom_site_fract_x
_atom_site_fract_y
_atom_site_fract_z
Si Si1 0.878617 0.320644 0.305852
Si Si2 0.257068 0.321105 0.120841
Si Si3 0.463313 0.326185 0.446976
Si Si4 0.835524 0.320686 0.516762
Si Si5 0.347151 0.821070 0.921935
Si Si6 0.513940 0.819761 0.248395
Si Si7 0.730536 0.820770 0.715301
O O1 0.876136 0.500000 0.312685
O O2 0.843057 0.262029 0.417300
O O3 0.953230 0.268906 0.242625
O O4 0.840154 0.266743 0.257302
O O5 0.262123 0.500000 0.121010
O O6 0.194609 0.269062 0.121603
O O7 0.250808 0.259624 0.216901
O O8 0.321136 0.258038 0.025120
O O9 0.500000 0.313432 0.500000
O O10 0.443179 0.500000 0.445017
O O11 0.401504 0.219101 0.507215
O O12 0.510291 0.265664 0.337299
O O13 0.821715 0.500000 0.536096
O O14 0.779156 0.225117 0.603986
O O15 0.420515 0.769317 0.849882
O O16 0.341340 0.000000 0.939840
O O17 0.513200 0.000000 0.265536
O O18 0.733168 0.000000 0.727518
#
# Coordination Sequence:
#
# PCOD8098896 Si02
#       7
#     8   8   8   8   8   8   8
#     4   8  17  34  54  78 106 139 180 221 262 314
#     4  10  21  36  54  81 109 137 175 219 266 322
#     4  10  21  34  48  76 112 142 176 216 260 315
#     4  10  20  35  54  76 105 143 184 222 262 309
#     4   9  19  37  59  80 103 135 175 220 271 319
#     4   9  18  35  58  79 101 137 180 220 266 317
#     4  11  21  34  54  79 109 142 177 221 270 315
#
# _framework density 18.615566000000001
#
# number of rings (size 3 to 8) (size 9 to 14) (size 15 to 20)
#    0.000    2.429    0.000    3.000    2.000    2.286 
#    0.000    7.143    0.000    4.286    0.000    0.000 
#    0.000    0.000    0.000    0.000    0.000    0.000 
#
# Total GULP energy -347138.980717 kJ/mol
# GULP energy per Si atom -12397.820740 kJ/mol
# Density = 1.857320 g / cm^3
# Si number density = 18.615566 Si / 1000 Ang^3
#
#
#
# Elastic Constant Matrix: (Units=GPa)
#
#
# Indices 1 2 3 4 5 6 
#
# 1 86.4320 10.0756 50.6619 0.0000 -10.3969 0.0000
# 2 10.0756 21.9086 12.9953 0.0001 -1.4202 0.0001
# 3 50.6619 12.9953 72.6062 0.0000 -14.9087 0.0000
# 4 0.0000 0.0001 0.0000 32.6179 0.0000 -2.2657
# 5 -10.3969 -1.4202 -14.9087 0.0000 28.2953 0.0000
# 6 0.0000 0.0001 0.0000 -2.2657 0.0000 20.3765
#
#
#
# Elastic Compliance Matrix: (Units=1/GPa)
#
#
# Indices 1 2 3 4 5 6 
#
# 1 0.019596 -0.001012 -0.013483 0.000000 0.000045 0.000000
# 2 -0.001012 0.051279 -0.008993 0.000000 -0.002536 0.000000
# 3 -0.013483 -0.008993 0.026553 0.000000 0.008585 0.000000
# 4 0.000000 0.000000 0.000000 0.030897 0.000000 0.003435
# 5 0.000045 -0.002536 0.008585 0.000000 0.039755 0.000000
# 6 0.000000 0.000000 0.000000 0.003435 0.000000 0.049458
#
#
# Mechanical properties :
#
#
# Convention : Reuss Voigt Hill
#
# Bulk Modulus (GPa) = 19.82030 36.49027 28.15528
# Shear Modulus (GPa) = 17.77261 23.40555 20.58908
#
# Velocity S-wave (km/s) = 3.09320 3.54970 3.32929
# Velocity P-wave (km/s) = 4.84019 6.03698 5.47141
#
# Compressibility (1/GPa) = 0.05045332
#
# Stress axis : x y z
#
# Youngs Moduli (GPa) = 51.03001 19.50109 37.65983
#
# Poissons Ratio (x) = 0.01973 0.50777
# Poissons Ratio (y) = 0.05162 0.33868
# Poissons Ratio (z) = 0.68805 0.17538
#
# Static dielectric constant tensor:
#      x y z
#    x 3.791160 0.000000 -0.030280 
#    y 0.000000 3.380820 0.000000 
#    z -0.030280 0.000000 3.300250 
# 
# 
# High freq. dielectric constant tensor:
#      x y z
#    x 1.729830 0.000000 -0.003800 
#    y 0.000000 1.716320 0.000000 
#    z -0.003800 0.000000 1.709100 
# 
# From -- ./inp_files/243666.got.cif
#   From: 2010.06.25/outbox.cif.g09.slc.cpg/sg12_122_cif.got.tgz:243666.got - 2010.06.28 00:19:55.
