data_PCOD8098101
_publ_section_title
;
Structure prediction by ZEFSAII (Michael W. Deem and Ramdas Pophale) SiO2 
 PCOD8098101
Probable space group: C 2/M
;
_chemical_formula_sum "Si O2"
_cell_formula_units_Z 64
_cell_length_a 30.361406
_cell_length_b 8.813235
_cell_length_c 16.242214
_cell_angle_alpha 90.000000
_cell_angle_beta 133.966087
_cell_angle_gamma 90.000000
_cell_volume 3128.128876
_symmetry_space_group_name_H-M "C 2/M"
_symmetry_group_IT_number 12
_symmetry_cell_setting 'monoclinic'
loop_
_space_group_symop_operation_xyz
x,y,z
-x,y,-z
-x,-y,-z
x,-y,z
1/2+x,1/2+y,z
1/2-x,1/2+y,-z
1/2-x,1/2-y,-z
1/2+x,1/2-y,z
loop_
_atom_site_type_symbol
_atom_site_label
_atom_site_fract_x
_atom_site_fract_y
_atom_site_fract_z
Si Si1 0.638838 0.326164 0.080391
Si Si2 0.062822 0.825458 0.823918
Si Si3 0.562602 0.167181 0.548186
Si Si4 0.152255 0.667527 0.813657
Si Si5 0.064071 0.321306 0.308478
Si Si6 0.644040 0.674637 0.537559
Si Si7 0.434882 0.177984 0.878059
Si Si8 0.735550 0.320899 0.795558
O O1 0.660461 0.500000 0.115153
O O2 0.617860 0.267477 0.142111
O O3 0.694522 0.225230 0.120438
O O4 0.582628 0.307088 0.944523
O O5 0.117974 0.756928 0.841410
O O6 0.997175 0.744277 0.727116
O O7 0.054879 0.000000 0.788462
O O8 0.500000 0.232970 0.500000
O O9 0.606502 0.145370 0.680618
O O10 0.583901 0.297061 0.514000
O O11 0.555049 0.000000 0.495115
O O12 0.172622 0.500000 0.872474
O O13 0.210534 0.754696 0.849943
O O14 0.059464 0.500000 0.307906
O O15 0.128284 0.266165 0.433437
O O16 0.067271 0.266382 0.218618
O O17 0.652877 0.500000 0.526096
O O18 0.700710 0.737465 0.666539
O O19 0.421703 0.000000 0.869635
O O20 0.500000 0.222206 0.000000
O O21 0.727196 0.500000 0.789246
#
# Coordination Sequence:
#
# PCOD8098101 Si02
#       8
#     8   8   8   8   8   8   8   8
#     4  11  24  40  62  89 117 153 196 244 295 347
#     4  11  23  37  56  87 123 155 193 242 296 349
#     4   9  17  30  49  75 108 147 192 237 284 339
#     4  10  20  34  55  83 116 155 199 244 288 340
#     4  11  22  37  61  90 120 154 191 237 293 351
#     4  10  21  36  56  83 114 151 192 238 290 342
#     4  10  21  40  64  90 119 151 190 235 291 355
#     4  10  22  41  62  83 116 160 202 243 289 343
#
# _framework density 20.459516000000001
#
# number of rings (size 3 to 8) (size 9 to 14) (size 15 to 20)
#    0.000    1.750    1.250    3.000    0.000    6.500 
#    0.000    0.625    0.000    0.000    0.000    0.000 
#    0.000    0.000    0.000    0.000    0.000    0.000 
#
# Total GULP energy -396663.586040 kJ/mol
# GULP energy per Si atom -12395.737064 kJ/mol
# Density = 2.041295 g / cm^3
# Si number density = 20.459516 Si / 1000 Ang^3
#
#
#
# Elastic Constant Matrix: (Units=GPa)
#
#
# Indices 1 2 3 4 5 6 
#
# 1 84.3610 26.9330 2.7137 0.0000 -10.8549 0.0000
# 2 26.9330 84.4938 19.6395 0.0000 -4.4879 0.0000
# 3 2.7137 19.6395 56.6910 0.0000 -14.3310 0.0000
# 4 0.0000 0.0000 0.0000 29.5664 0.0000 -2.4448
# 5 -10.8549 -4.4879 -14.3310 0.0000 30.0878 0.0000
# 6 0.0000 0.0000 0.0000 -2.4448 0.0000 36.2721
#
#
#
# Elastic Compliance Matrix: (Units=1/GPa)
#
#
# Indices 1 2 3 4 5 6 
#
# 1 0.013985 -0.004713 0.002343 0.000000 0.005459 0.000000
# 2 -0.004713 0.014461 -0.005308 0.000000 -0.002071 0.000000
# 3 0.002343 -0.005308 0.022033 0.000000 0.010548 0.000000
# 4 0.000000 0.000000 0.000000 0.034012 0.000000 0.002292
# 5 0.005459 -0.002071 0.010548 0.000000 0.039920 0.000000
# 6 0.000000 0.000000 0.000000 0.002292 0.000000 0.027724
#
#
# Mechanical properties :
#
#
# Convention : Reuss Voigt Hill
#
# Bulk Modulus (GPa) = 28.47038 36.01314 32.24176
# Shear Modulus (GPa) = 27.90211 30.93589 29.41900
#
# Velocity S-wave (km/s) = 3.69693 3.89273 3.79610
# Velocity P-wave (km/s) = 5.67175 6.15182 5.91666
#
# Compressibility (1/GPa) = 0.03512422
#
# Stress axis : x y z
#
# Youngs Moduli (GPa) = 71.50328 69.15116 45.38749
#
# Poissons Ratio (x) = 0.32588 -0.10634
# Poissons Ratio (y) = 0.33697 0.24091
# Poissons Ratio (z) = -0.16753 0.36704
#
# Static dielectric constant tensor:
#      x y z
#    x 3.441470 0.000000 -0.071210 
#    y 0.000000 3.769590 0.000000 
#    z -0.071210 0.000000 3.886610 
# 
# 
# High freq. dielectric constant tensor:
#      x y z
#    x 1.784290 0.000000 -0.004030 
#    y 0.000000 1.802530 0.000000 
#    z -0.004030 0.000000 1.804660 
# 
# From -- ./inp_files/249154.got.cif
#   From: 2010.06.25/outbox.cif.g09.slc.cpg/sg12_125_cif.got.tgz:249154.got - 2010.06.28 00:19:55.
