data_PCOD8098699
_publ_section_title
;
Structure prediction by ZEFSAII (Michael W. Deem and Ramdas Pophale) SiO2 
 PCOD8098699
Probable space group: C 2/M
;
_chemical_formula_sum "Si O2"
_cell_formula_units_Z 56
_cell_length_a 21.745469
_cell_length_b 11.332418
_cell_length_c 16.630988
_cell_angle_alpha 90.000000
_cell_angle_beta 128.582625
_cell_angle_gamma 90.000000
_cell_volume 3203.722384
_symmetry_space_group_name_H-M "C 2/M"
_symmetry_group_IT_number 12
_symmetry_cell_setting 'monoclinic'
loop_
_space_group_symop_operation_xyz
x,y,z
-x,y,-z
-x,-y,-z
x,-y,z
1/2+x,1/2+y,z
1/2-x,1/2+y,-z
1/2-x,1/2-y,-z
1/2+x,1/2-y,z
loop_
_atom_site_type_symbol
_atom_site_label
_atom_site_fract_x
_atom_site_fract_y
_atom_site_fract_z
Si Si1 0.960635 0.635890 0.153466
Si Si2 0.374907 0.867187 0.771766
Si Si3 0.784762 0.126850 0.940274
Si Si4 0.349265 0.700498 0.159622
Si Si5 0.763206 0.869414 0.459651
Si Si6 0.416137 0.739757 0.960042
Si Si7 0.898571 0.000000 0.500744
Si Si8 0.418493 0.500000 0.326915
O O1 0.945584 0.500000 0.163438
O O2 0.919580 0.715716 0.187070
O O3 0.053112 0.670359 0.228320
O O4 0.925878 0.659808 0.036186
O O5 0.292689 0.851667 0.661495
O O6 0.369336 0.790781 0.846822
O O7 0.391651 0.000000 0.813227
O O8 0.721167 0.222525 0.859997
O O9 0.863899 0.134674 0.952272
O O10 0.746103 0.000000 0.893587
O O11 0.809668 0.131613 0.053797
O O12 0.382885 0.615031 0.255238
O O13 0.750000 0.750000 0.500000
O O14 0.852517 0.883216 0.497747
O O15 0.742410 0.000000 0.484217
O O16 0.500000 0.688553 0.000000
O O17 0.895208 0.000000 0.401333
O O18 0.987111 0.000000 0.605967
#
# Coordination Sequence:
#
# PCOD8098699 Si02
#       8
#     8   8   8   8   8   8   4   4
#     4   9  17  30  49  81 112 145 186 226 266 335
#     4   9  17  30  53  78 108 142 184 227 286 331
#     4  10  20  35  49  80 113 147 187 223 269 345
#     4  10  21  33  57  76 108 151 187 229 277 323
#     4   9  20  37  59  86 112 143 184 246 296 348
#     4   9  18  31  49  77 113 150 183 224 272 330
#     4   9  24  40  64  86 111 141 203 248 280 345
#     4  11  22  42  60  86 108 155 194 242 282 328
#
# _framework density 17.479666999999999
#
# number of rings (size 3 to 8) (size 9 to 14) (size 15 to 20)
#    0.429    2.143    0.714    0.857    4.000    2.000 
#    1.286    0.714    0.000    0.000    0.000    5.000 
#    0.000    0.000    0.000    0.000    0.000    0.000 
#
# Total GULP energy -346902.402389 kJ/mol
# GULP energy per Si atom -12389.371514 kJ/mol
# Density = 1.743988 g / cm^3
# Si number density = 17.479667 Si / 1000 Ang^3
#
#
#
# Elastic Constant Matrix: (Units=GPa)
#
#
# Indices 1 2 3 4 5 6 
#
# 1 106.2132 53.9776 38.9690 0.0000 9.3744 0.0000
# 2 53.9776 114.8094 47.9323 0.0000 -0.8477 0.0000
# 3 38.9690 47.9323 90.3238 0.0000 10.8696 0.0000
# 4 0.0000 0.0000 0.0000 22.6485 0.0000 4.1970
# 5 9.3744 -0.8477 10.8696 0.0000 24.1109 0.0000
# 6 0.0000 0.0000 0.0000 4.1970 0.0000 12.8091
#
#
#
# Elastic Compliance Matrix: (Units=1/GPa)
#
#
# Indices 1 2 3 4 5 6 
#
# 1 0.013386 -0.005305 -0.002444 0.000000 -0.004289 0.000000
# 2 -0.005305 0.013537 -0.005499 0.000000 0.005017 0.000000
# 3 -0.002444 -0.005499 0.015810 0.000000 -0.006371 0.000000
# 4 0.000000 0.000000 0.000000 0.047007 0.000000 -0.015402
# 5 -0.004289 0.005017 -0.006371 0.000000 0.046191 0.000000
# 6 0.000000 0.000000 0.000000 -0.015402 0.000000 0.083116
#
#
# Mechanical properties :
#
#
# Convention : Reuss Voigt Hill
#
# Bulk Modulus (GPa) = 61.58263 65.90045 63.74154
# Shear Modulus (GPa) = 19.92383 23.27820 21.60101
#
# Velocity S-wave (km/s) = 3.37980 3.65325 3.51918
# Velocity P-wave (km/s) = 7.10902 7.45507 7.28410
#
# Compressibility (1/GPa) = 0.01623834
#
# Stress axis : x y z
#
# Youngs Moduli (GPa) = 74.70371 73.87207 63.24954
#
# Poissons Ratio (x) = 0.39188 0.15458
# Poissons Ratio (y) = 0.39629 0.34779
# Poissons Ratio (z) = 0.18257 0.40620
#
# Static dielectric constant tensor:
#      x y z
#    x 3.359000 0.000000 0.208890 
#    y 0.000000 3.211590 0.000000 
#    z 0.208890 0.000000 3.078220 
# 
# 
# High freq. dielectric constant tensor:
#      x y z
#    x 1.679860 0.000000 0.017670 
#    y 0.000000 1.665220 0.000000 
#    z 0.017670 0.000000 1.658320 
# 
# From -- ./inp_files/282983.got.cif
#   From: 2010.06.25/outbox.cif.g09.slc.cpg/sg12_142_cif.got.tgz:282983.got - 2010.06.28 00:19:55.
