data_PCOD8098653
_publ_section_title
;
Structure prediction by ZEFSAII (Michael W. Deem and Ramdas Pophale) SiO2 
 PCOD8098653
Probable space group: C 2/M
;
_chemical_formula_sum "Si O2"
_cell_formula_units_Z 40
_cell_length_a 16.447855
_cell_length_b 12.422759
_cell_length_c 19.543876
_cell_angle_alpha 90.000000
_cell_angle_beta 28.736318
_cell_angle_gamma 90.000000
_cell_volume 1919.923282
_symmetry_space_group_name_H-M "C 2/M"
_symmetry_group_IT_number 12
_symmetry_cell_setting 'monoclinic'
loop_
_space_group_symop_operation_xyz
x,y,z
-x,y,-z
-x,-y,-z
x,-y,z
1/2+x,1/2+y,z
1/2-x,1/2+y,-z
1/2-x,1/2-y,-z
1/2+x,1/2-y,z
loop_
_atom_site_type_symbol
_atom_site_label
_atom_site_fract_x
_atom_site_fract_y
_atom_site_fract_z
Si Si1 0.976280 0.000000 0.438876
Si Si2 0.552336 0.267382 0.540309
Si Si3 0.830517 0.786473 0.828474
Si Si4 0.629306 0.375624 0.695295
Si Si5 0.941739 0.122377 0.969213
Si Si6 0.686490 0.000000 0.892510
O O1 0.168503 0.000000 0.271258
O O2 0.000000 0.000000 0.500000
O O3 0.880164 0.889013 0.489093
O O4 0.500000 0.260509 0.500000
O O5 0.390112 0.248905 0.708552
O O6 0.691047 0.177496 0.453807
O O7 0.717256 0.689887 0.941710
O O8 0.712153 0.892447 0.918052
O O9 0.991361 0.806521 0.757135
O O10 0.629129 0.500000 0.670043
O O11 0.594333 0.369067 0.802285
O O12 0.880503 0.000000 0.022467
O O13 0.000000 0.168572 0.000000
O O14 0.500000 0.000000 0.000000
#
# Coordination Sequence:
#
# PCOD8098653 Si02
#       6
#     4   8   8   8   8   4
#     4   8  18  36  54  84 120 140 188 244 278 336
#     4  10  21  38  62  86 117 155 196 240 292 349
#     4  11  21  39  58  88 123 150 196 244 292 355
#     4  11  23  40  59  85 122 156 193 246 297 345
#     4  10  22  40  61  84 116 154 198 248 292 348
#     4  10  20  34  60  86 114 158 191 232 291 344
#
# _framework density 20.834166
#
# number of rings (size 3 to 8) (size 9 to 14) (size 15 to 20)
#    0.000    1.800    1.000    3.000    0.000    4.400 
#    1.800    0.000    0.000    0.000    0.000    0.000 
#    0.000    0.000    0.000    0.000    0.000    0.000 
#
# Total GULP energy -247916.528638 kJ/mol
# GULP energy per Si atom -12395.826432 kJ/mol
# Density = 2.078675 g / cm^3
# Si number density = 20.834166 Si / 1000 Ang^3
#
#
#
# Elastic Constant Matrix: (Units=GPa)
#
#
# Indices 1 2 3 4 5 6 
#
# 1 61.8137 16.0773 12.0581 -0.0004 -12.6282 0.0008
# 2 16.0773 108.8265 50.2143 0.0033 -18.2032 -0.0011
# 3 12.0581 50.2143 64.9552 0.0061 -7.0067 -0.0030
# 4 -0.0004 0.0033 0.0061 38.7109 -0.0027 -11.1538
# 5 -12.6282 -18.2032 -7.0067 -0.0027 35.4345 0.0011
# 6 0.0008 -0.0011 -0.0030 -11.1538 0.0011 32.9574
#
#
#
# Elastic Compliance Matrix: (Units=1/GPa)
#
#
# Indices 1 2 3 4 5 6 
#
# 1 0.017930 -0.000708 -0.002177 0.000001 0.005595 -0.000001
# 2 -0.000708 0.015343 -0.011145 0.000001 0.005426 0.000000
# 3 -0.002177 -0.011145 0.024230 -0.000003 -0.001710 0.000001
# 4 0.000001 0.000001 -0.000003 0.028624 0.000002 0.009687
# 5 0.005595 0.005426 -0.001710 0.000002 0.032665 -0.000001
# 6 -0.000001 0.000000 0.000001 0.009687 -0.000001 0.033621
#
#
# Mechanical properties :
#
#
# Convention : Reuss Voigt Hill
#
# Bulk Modulus (GPa) = 33.96364 43.58828 38.77596
# Shear Modulus (GPa) = 26.27604 31.90362 29.08983
#
# Velocity S-wave (km/s) = 3.55519 3.91744 3.74070
# Velocity P-wave (km/s) = 5.76106 6.43652 6.10813
#
# Compressibility (1/GPa) = 0.02944326
#
# Stress axis : x y z
#
# Youngs Moduli (GPa) = 55.77335 65.17418 41.27030
#
# Poissons Ratio (x) = 0.04616 0.08986
# Poissons Ratio (y) = 0.03950 0.45994
# Poissons Ratio (z) = 0.12144 0.72635
#
# Static dielectric constant tensor:
#      x y z
#    x 3.603650 0.000000 0.252240 
#    y 0.000000 4.516540 0.000000 
#    z 0.252240 0.000000 3.703390 
# 
# 
# High freq. dielectric constant tensor:
#      x y z
#    x 1.804010 0.000000 0.018810 
#    y 0.000000 1.828460 0.000000 
#    z 0.018810 0.000000 1.807860 
# 
# From -- ./inp_files/315557.got.cif
#   From: 2010.06.25/outbox.cif.g09.slc.cpg/sg12_158_cif.got.tgz:315557.got - 2010.06.28 00:19:55.
