data_PCOD8098498
_publ_section_title
;
Structure prediction by ZEFSAII (Michael W. Deem and Ramdas Pophale) SiO2 
 PCOD8098498
Probable space group: C 2/M
;
_chemical_formula_sum "Si O2"
_cell_formula_units_Z 40
_cell_length_a 15.554911
_cell_length_b 8.809912
_cell_length_c 16.252950
_cell_angle_alpha 90.000000
_cell_angle_beta 62.247975
_cell_angle_gamma 90.000000
_cell_volume 1971.062649
_symmetry_space_group_name_H-M "C 2/M"
_symmetry_group_IT_number 12
_symmetry_cell_setting 'monoclinic'
loop_
_space_group_symop_operation_xyz
x,y,z
-x,y,-z
-x,-y,-z
x,-y,z
1/2+x,1/2+y,z
1/2-x,1/2+y,-z
1/2-x,1/2-y,-z
1/2+x,1/2-y,z
loop_
_atom_site_type_symbol
_atom_site_label
_atom_site_fract_x
_atom_site_fract_y
_atom_site_fract_z
Si Si1 0.943948 0.320478 0.603866
Si Si2 0.886573 0.824391 0.900269
Si Si3 0.539491 0.823918 0.729810
Si Si4 0.709524 0.674716 0.891507
Si Si5 0.261596 0.826141 0.286535
O O1 0.947678 0.500000 0.599881
O O2 0.832286 0.271685 0.650286
O O3 0.000000 0.252006 0.500000
O O4 0.998058 0.261251 0.661769
O O5 0.813040 0.718257 0.883447
O O6 0.993615 0.774592 0.824495
O O7 0.866487 0.000000 0.887790
O O8 0.874940 0.797621 0.003390
O O9 0.656066 0.801380 0.680368
O O10 0.512782 0.000000 0.754727
O O11 0.714247 0.500000 0.861888
O O12 0.689435 0.777197 0.821303
O O13 0.229074 0.000000 0.295384
#
# Coordination Sequence:
#
# PCOD8098498 Si02
#       5
#     8   8   8   8   8
#     4  10  22  42  65  86 113 153 196 242 300 355
#     4  10  20  34  57  87 117 155 200 239 283 345
#     4  10  22  39  59  86 122 157 191 240 295 346
#     4  10  20  35  56  84 120 158 195 239 290 340
#     4  11  23  38  59  89 120 154 198 241 288 346
#
# _framework density 20.293621999999999
#
# number of rings (size 3 to 8) (size 9 to 14) (size 15 to 20)
#    0.000    1.800    2.000    1.800    0.000    6.000 
#    0.000    4.000    0.000    0.000    0.000    0.000 
#    0.000    0.000    0.000    0.000    0.000    0.000 
#
# Total GULP energy -248032.098908 kJ/mol
# GULP energy per Si atom -12401.604945 kJ/mol
# Density = 2.024743 g / cm^3
# Si number density = 20.293622 Si / 1000 Ang^3
#
#
#
# Elastic Constant Matrix: (Units=GPa)
#
#
# Indices 1 2 3 4 5 6 
#
# 1 101.9836 9.8682 49.4646 0.0000 -7.1525 0.0000
# 2 9.8682 18.6435 19.1939 0.0000 -0.7192 0.0001
# 3 49.4646 19.1939 123.7517 0.0000 -11.5087 0.0000
# 4 0.0000 0.0000 0.0000 24.2856 0.0000 -4.9183
# 5 -7.1525 -0.7192 -11.5087 0.0000 13.4879 0.0000
# 6 0.0000 0.0001 0.0000 -4.9183 0.0000 29.1016
#
#
#
# Elastic Compliance Matrix: (Units=1/GPa)
#
#
# Indices 1 2 3 4 5 6 
#
# 1 0.012298 -0.001907 -0.004370 0.000000 0.002691 0.000000
# 2 -0.001907 0.064501 -0.009793 0.000000 -0.005928 0.000000
# 3 -0.004370 -0.009793 0.012037 0.000000 0.007432 0.000000
# 4 0.000000 0.000000 0.000000 0.042636 0.000000 0.007206
# 5 0.002691 -0.005928 0.007432 0.000000 0.081593 0.000000
# 6 0.000000 0.000000 0.000000 0.007206 0.000000 0.035580
#
#
# Mechanical properties :
#
#
# Convention : Reuss Voigt Hill
#
# Bulk Modulus (GPa) = 17.63764 44.60358 31.12061
# Shear Modulus (GPa) = 16.68421 24.43182 20.55802
#
# Velocity S-wave (km/s) = 2.87041 3.47351 3.18626
# Velocity P-wave (km/s) = 4.43799 6.17364 5.37632
#
# Compressibility (1/GPa) = 0.05669692
#
# Stress axis : x y z
#
# Youngs Moduli (GPa) = 81.31305 15.50358 83.07510
#
# Poissons Ratio (x) = 0.02957 0.36300
# Poissons Ratio (y) = 0.15508 0.81357
# Poissons Ratio (z) = 0.35530 0.15183
#
# Static dielectric constant tensor:
#      x y z
#    x 3.523870 0.000000 0.069580 
#    y 0.000000 3.576310 0.000000 
#    z 0.069580 0.000000 3.895100 
# 
# 
# High freq. dielectric constant tensor:
#      x y z
#    x 1.786430 0.000000 -0.001650 
#    y 0.000000 1.790100 0.000000 
#    z -0.001650 0.000000 1.789830 
# 
# From -- ./inp_files/211156.got.cif
#   From: 2010.06.25/outbox.cif.g09.slc.cpg/sg12_106_cif.got.tgz:211156.got - 2010.06.28 00:19:55.
