data_PCOD8098995
_publ_section_title
;
Structure prediction by ZEFSAII (Michael W. Deem and Ramdas Pophale) SiO2 
 PCOD8098995
Probable space group: C 2/M
;
_chemical_formula_sum "Si O2"
_cell_formula_units_Z 64
_cell_length_a 21.287537
_cell_length_b 20.154225
_cell_length_c 17.807506
_cell_angle_alpha 90.000000
_cell_angle_beta 151.962257
_cell_angle_gamma 90.000000
_cell_volume 3591.216047
_symmetry_space_group_name_H-M "C 2/M"
_symmetry_group_IT_number 12
_symmetry_cell_setting 'monoclinic'
loop_
_space_group_symop_operation_xyz
x,y,z
-x,y,-z
-x,-y,-z
x,-y,z
1/2+x,1/2+y,z
1/2-x,1/2+y,-z
1/2-x,1/2-y,-z
1/2+x,1/2-y,z
loop_
_atom_site_type_symbol
_atom_site_label
_atom_site_fract_x
_atom_site_fract_y
_atom_site_fract_z
Si Si1 0.360518 0.705302 0.820150
Si Si2 0.301714 0.423634 0.954107
Si Si3 0.870194 0.678694 0.315357
Si Si4 0.093806 0.926539 0.776930
Si Si5 0.481394 0.693776 0.390550
Si Si6 0.093760 0.074224 0.206452
Si Si7 0.250671 0.290197 0.423040
Si Si8 0.291941 0.428247 0.515208
O O1 0.236554 0.715747 0.744042
O O2 0.356926 0.626050 0.802971
O O3 0.351348 0.750429 0.736436
O O4 0.500000 0.729354 0.000000
O O5 0.269738 0.500000 0.904102
O O6 0.306635 0.410329 0.048805
O O7 0.445059 0.403385 0.072286
O O8 0.186019 0.381888 0.792193
O O9 0.906838 0.736995 0.295769
O O10 0.000000 0.654886 0.500000
O O11 0.107894 0.869493 0.728938
O O12 0.942574 0.927639 0.645210
O O13 0.128838 0.000000 0.780943
O O14 0.500000 0.686512 0.500000
O O15 0.611156 0.701411 0.475590
O O16 0.198326 0.078197 0.384884
O O17 0.093688 0.000000 0.171946
O O18 0.250000 0.250000 0.500000
O O19 0.205006 0.366635 0.391552
O O20 0.225759 0.500000 0.424152
#
# Coordination Sequence:
#
# PCOD8098995 Si02
#       8
#     8   8   8   8   8   8   8   8
#     4  12  22  34  55  83 112 148 189 228 275 335
#     4   9  18  34  54  79 112 148 187 232 271 328
#     4  11  22  37  52  75 119 152 179 223 289 339
#     4   8  16  31  53  80 106 139 186 229 272 328
#     4  10  20  35  54  80 121 147 174 233 290 329
#     4   9  17  31  52  81 110 139 185 234 272 317
#     4  11  20  35  59  81 112 149 192 232 273 331
#     4   8  15  29  52  78 105 137 182 233 273 313
#
# _framework density 17.821262000000001
#
# number of rings (size 3 to 8) (size 9 to 14) (size 15 to 20)
#    0.000    2.250    5.000    1.500    0.000    1.750 
#    0.000    0.000    0.000    1.125    0.000    0.000 
#    0.000    0.000    0.000    0.000    0.000    0.000 
#
# Total GULP energy -396441.894059 kJ/mol
# GULP energy per Si atom -12388.809189 kJ/mol
# Density = 1.778070 g / cm^3
# Si number density = 17.821262 Si / 1000 Ang^3
#
#
#
# Elastic Constant Matrix: (Units=GPa)
#
#
# Indices 1 2 3 4 5 6 
#
# 1 66.5601 33.6603 28.0479 0.0003 -11.1197 0.0002
# 2 33.6603 142.9180 54.8104 0.0003 -19.3363 0.0002
# 3 28.0479 54.8104 86.7696 0.0015 -12.7420 0.0018
# 4 0.0003 0.0003 0.0015 13.9408 0.0006 2.8159
# 5 -11.1197 -19.3363 -12.7420 0.0006 19.5018 0.0006
# 6 0.0002 0.0002 0.0018 2.8159 0.0006 20.3077
#
#
#
# Elastic Compliance Matrix: (Units=1/GPa)
#
#
# Indices 1 2 3 4 5 6 
#
# 1 0.018722 -0.002123 -0.003819 0.000000 0.006075 0.000000
# 2 -0.002123 0.010135 -0.004887 0.000000 0.005646 0.000000
# 3 -0.003819 -0.004887 0.016387 -0.000001 0.003684 -0.000001
# 4 0.000000 0.000000 -0.000001 0.073799 -0.000003 -0.010233
# 5 0.006075 0.005646 0.003684 -0.000003 0.062746 -0.000002
# 6 0.000000 0.000000 -0.000001 -0.010233 -0.000002 0.050661
#
#
# Mechanical properties :
#
#
# Convention : Reuss Voigt Hill
#
# Bulk Modulus (GPa) = 42.39615 58.80943 50.60279
# Shear Modulus (GPa) = 19.08624 22.73199 20.90911
#
# Velocity S-wave (km/s) = 3.27614 3.57537 3.42902
# Velocity P-wave (km/s) = 6.17673 7.07923 6.64333
#
# Compressibility (1/GPa) = 0.02358705
#
# Stress axis : x y z
#
# Youngs Moduli (GPa) = 53.41406 98.66826 61.02403
#
# Poissons Ratio (x) = 0.20947 0.23302
# Poissons Ratio (y) = 0.11340 0.29821
# Poissons Ratio (z) = 0.20396 0.48217
#
# Static dielectric constant tensor:
#      x y z
#    x 3.204280 0.000000 -0.202480 
#    y 0.000000 3.792390 0.000000 
#    z -0.202480 0.000000 3.119640 
# 
# 
# High freq. dielectric constant tensor:
#      x y z
#    x 1.673590 0.000000 -0.019000 
#    y 0.000000 1.705610 0.000000 
#    z -0.019000 0.000000 1.657540 
# 
# From -- ./inp_files/285783.got.cif
#   From: 2010.06.25/outbox.cif.g09.slc.cpg/sg12_143_cif.got.tgz:285783.got - 2010.06.28 00:19:55.
