data_PCOD8098994
_publ_section_title
;
Structure prediction by ZEFSAII (Michael W. Deem and Ramdas Pophale) SiO2 
 PCOD8098994
Probable space group: C 2/M
;
_chemical_formula_sum "Si O2"
_cell_formula_units_Z 52
_cell_length_a 10.969811
_cell_length_b 18.068076
_cell_length_c 19.669310
_cell_angle_alpha 90.000000
_cell_angle_beta 133.424951
_cell_angle_gamma 90.000000
_cell_volume 2831.401827
_symmetry_space_group_name_H-M "C 2/M"
_symmetry_group_IT_number 12
_symmetry_cell_setting 'monoclinic'
loop_
_space_group_symop_operation_xyz
x,y,z
-x,y,-z
-x,-y,-z
x,-y,z
1/2+x,1/2+y,z
1/2-x,1/2+y,-z
1/2-x,1/2-y,-z
1/2+x,1/2-y,z
loop_
_atom_site_type_symbol
_atom_site_label
_atom_site_fract_x
_atom_site_fract_y
_atom_site_fract_z
Si Si1 0.871871 0.500000 0.190462
Si Si2 0.736279 0.650783 0.302027
Si Si3 0.896298 0.000000 0.793883
Si Si4 0.269179 0.000000 0.996970
Si Si5 0.866852 0.656691 0.001670
Si Si6 0.806430 0.240896 0.443484
Si Si7 0.057771 0.246866 0.844482
Si Si8 0.003015 0.350993 0.292944
O O1 0.724672 0.500000 0.188348
O O2 0.777560 0.500000 0.082039
O O3 0.988765 0.427903 0.246168
O O4 0.640177 0.571891 0.267065
O O5 0.763388 0.681548 0.388757
O O6 0.625363 0.710524 0.218382
O O7 0.915271 0.643293 0.333026
O O8 0.080829 0.000000 0.896346
O O9 0.370581 0.068895 0.006768
O O10 0.685436 0.680961 0.906876
O O11 0.916876 0.687500 0.093371
O O12 0.000000 0.687906 0.000000
O O13 0.750000 0.250000 0.500000
O O14 0.698863 0.170911 0.374780
O O15 0.000000 0.221447 0.500000
O O16 0.087489 0.284308 0.782588
#
# Coordination Sequence:
#
# PCOD8098994 Si02
#       8
#     4   8   4   4   8   8   8   8
#     4  10  21  37  57  86 119 161 197 240 299 343
#     4  10  20  37  61  87 117 152 196 247 298 357
#     4  10  21  37  57  87 120 157 199 245 288 347
#     4  12  20  38  52  80 123 163 206 235 290 350
#     4  11  22  34  51  78 114 161 206 251 291 347
#     4  11  22  41  66  94 119 149 194 246 310 369
#     4  10  20  35  54  80 115 151 206 247 292 348
#     4  10  20  37  61  86 117 153 195 248 297 362
#
# _framework density 18.365461
#
# number of rings (size 3 to 8) (size 9 to 14) (size 15 to 20)
#    0.000    1.538    4.615    1.385    0.000    0.000 
#    0.000    1.538    0.000    0.000    0.000    0.000 
#    0.000    0.000    0.000    0.000    0.000    0.000 
#
# Total GULP energy -322276.136708 kJ/mol
# GULP energy per Si atom -12395.236027 kJ/mol
# Density = 1.832366 g / cm^3
# Si number density = 18.365461 Si / 1000 Ang^3
#
#
#
# Elastic Constant Matrix: (Units=GPa)
#
#
# Indices 1 2 3 4 5 6 
#
# 1 88.3242 24.1609 46.6250 0.0000 1.5563 0.0000
# 2 24.1609 114.6605 47.0909 0.0000 4.6111 0.0000
# 3 46.6250 47.0909 107.9818 0.0000 3.6075 0.0000
# 4 0.0000 0.0000 0.0000 25.3679 0.0000 -1.7089
# 5 1.5563 4.6111 3.6075 0.0000 26.6403 0.0000
# 6 0.0000 0.0000 0.0000 -1.7089 0.0000 25.7840
#
#
#
# Elastic Compliance Matrix: (Units=1/GPa)
#
#
# Indices 1 2 3 4 5 6 
#
# 1 0.014698 -0.000600 -0.006087 0.000000 0.000069 0.000000
# 2 -0.000600 0.010688 -0.004361 0.000000 -0.001224 0.000000
# 3 -0.006087 -0.004361 0.013816 0.000000 -0.000760 0.000000
# 4 0.000000 0.000000 0.000000 0.039597 0.000000 0.002624
# 5 0.000069 -0.001224 -0.000760 0.000000 0.037848 0.000000
# 6 0.000000 0.000000 0.000000 0.002624 0.000000 0.038958
#
#
# Mechanical properties :
#
#
# Convention : Reuss Voigt Hill
#
# Bulk Modulus (GPa) = 58.45805 60.74666 59.60236
# Shear Modulus (GPa) = 27.26225 28.43107 27.84666
#
# Velocity S-wave (km/s) = 3.85701 3.93882 3.89813
# Velocity P-wave (km/s) = 7.19270 7.33718 7.26530
#
# Compressibility (1/GPa) = 0.01710628
#
# Stress axis : x y z
#
# Youngs Moduli (GPa) = 68.03593 93.56129 72.37744
#
# Poissons Ratio (x) = 0.05613 0.44057
# Poissons Ratio (y) = 0.04082 0.31565
# Poissons Ratio (z) = 0.41414 0.40804
#
# Static dielectric constant tensor:
#      x y z
#    x 3.188580 0.000000 0.006470 
#    y 0.000000 3.529610 0.000000 
#    z 0.006470 0.000000 3.486160 
# 
# 
# High freq. dielectric constant tensor:
#      x y z
#    x 1.699730 0.000000 0.000430 
#    y 0.000000 1.715770 0.000000 
#    z 0.000430 0.000000 1.716920 
# 
# From -- ./inp_files/251724.got.cif
#   From: 2010.06.25/outbox.cif.g09.slc.cpg/sg12_126_cif.got.tgz:251724.got - 2010.06.28 00:19:55.
