data_PCOD8098732
_publ_section_title
;
Structure prediction by ZEFSAII (Michael W. Deem and Ramdas Pophale) SiO2 
 PCOD8098732
Probable space group: C 2/M
;
_chemical_formula_sum "Si O2"
_cell_formula_units_Z 56
_cell_length_a 19.295541
_cell_length_b 9.008066
_cell_length_c 26.561459
_cell_angle_alpha 90.000000
_cell_angle_beta 140.308105
_cell_angle_gamma 90.000000
_cell_volume 2948.556567
_symmetry_space_group_name_H-M "C 2/M"
_symmetry_group_IT_number 12
_symmetry_cell_setting 'monoclinic'
loop_
_space_group_symop_operation_xyz
x,y,z
-x,y,-z
-x,-y,-z
x,-y,z
1/2+x,1/2+y,z
1/2-x,1/2+y,-z
1/2-x,1/2-y,-z
1/2+x,1/2-y,z
loop_
_atom_site_type_symbol
_atom_site_label
_atom_site_fract_x
_atom_site_fract_y
_atom_site_fract_z
Si Si1 0.334444 0.675208 0.272536
Si Si2 0.612225 0.324477 0.585648
Si Si3 0.321085 0.671707 0.675070
Si Si4 0.062822 0.174326 0.988809
Si Si5 0.715710 0.822586 0.928311
Si Si6 0.047884 0.824596 0.762727
Si Si7 0.873014 0.828429 0.816489
O O1 0.327362 0.500000 0.268320
O O2 0.381388 0.731508 0.352729
O O3 0.409023 0.729738 0.267675
O O4 0.214200 0.740149 0.198547
O O5 0.500000 0.264166 0.500000
O O6 0.618390 0.500000 0.586266
O O7 0.710163 0.263098 0.605315
O O8 0.290472 0.500000 0.653080
O O9 0.418832 0.714455 0.691610
O O10 0.366477 0.714235 0.754992
O O11 0.994814 0.215474 0.900720
O O12 0.064265 0.000000 0.997945
O O13 0.000000 0.251919 0.000000
O O14 0.186439 0.227277 0.054088
O O15 0.607395 0.757842 0.842304
O O16 0.705474 0.000000 0.929166
O O17 0.750000 0.750000 0.000000
O O18 0.064653 0.000000 0.780414
O O19 0.848411 0.000000 0.812831
#
# Coordination Sequence:
#
# PCOD8098732 Si02
#       7
#     8   8   8   8   8   8   8
#     4   9  18  32  51  74 100 131 164 203 253 301
#     4   9  18  34  55  78 104 132 163 201 247 301
#     4   9  18  32  51  72  96 130 167 203 244 294
#     4   9  17  29  46  68  93 124 164 208 250 289
#     4  11  22  35  52  73 100 135 173 213 257 301
#     4  10  20  35  52  72 101 133 168 209 252 299
#     4   9  16  29  48  67  90 123 165 206 243 291
#
# _framework density 18.992343999999999
#
# number of rings (size 3 to 8) (size 9 to 14) (size 15 to 20)
#    0.000    2.571    0.000    2.143    0.000    4.857 
#    0.000    5.000    0.000    3.857    0.000    0.000 
#    0.000    0.000    0.000    0.000    0.000    0.000 
#
# Total GULP energy -347017.978904 kJ/mol
# GULP energy per Si atom -12393.499247 kJ/mol
# Density = 1.894912 g / cm^3
# Si number density = 18.992344 Si / 1000 Ang^3
#
#
#
# Elastic Constant Matrix: (Units=GPa)
#
#
# Indices 1 2 3 4 5 6 
#
# 1 102.0425 22.3688 28.0302 0.0000 16.5006 0.0000
# 2 22.3688 30.3176 20.1667 0.0000 3.7860 0.0000
# 3 28.0302 20.1667 81.7311 0.0000 20.2354 0.0000
# 4 0.0000 0.0000 0.0000 24.0619 0.0000 5.7649
# 5 16.5006 3.7860 20.2354 0.0000 28.8436 0.0000
# 6 0.0000 0.0000 0.0000 5.7649 0.0000 25.8280
#
#
#
# Elastic Compliance Matrix: (Units=1/GPa)
#
#
# Indices 1 2 3 4 5 6 
#
# 1 0.012731 -0.008026 -0.001021 0.000000 -0.005513 0.000000
# 2 -0.008026 0.044616 -0.009613 0.000000 0.005479 0.000000
# 3 -0.001021 -0.009613 0.017548 0.000000 -0.010465 0.000000
# 4 0.000000 0.000000 0.000000 0.043908 0.000000 -0.009800
# 5 -0.005513 0.005479 -0.010465 0.000000 0.044447 0.000000
# 6 0.000000 0.000000 0.000000 -0.009800 0.000000 0.040905
#
#
# Mechanical properties :
#
#
# Convention : Reuss Voigt Hill
#
# Bulk Modulus (GPa) = 26.61233 39.46918 33.04075
# Shear Modulus (GPa) = 19.68516 25.31504 22.50010
#
# Velocity S-wave (km/s) = 3.22293 3.65486 3.44567
# Velocity P-wave (km/s) = 5.28131 6.21590 5.76757
#
# Compressibility (1/GPa) = 0.03757657
#
# Stress axis : x y z
#
# Youngs Moduli (GPa) = 78.54769 22.41370 56.98550
#
# Poissons Ratio (x) = 0.17988 0.05818
# Poissons Ratio (y) = 0.63039 0.54779
# Poissons Ratio (z) = 0.08019 0.21546
#
# Static dielectric constant tensor:
#      x y z
#    x 3.992010 0.000000 0.202090 
#    y 0.000000 3.229170 0.000000 
#    z 0.202090 0.000000 3.583350 
# 
# 
# High freq. dielectric constant tensor:
#      x y z
#    x 1.746240 0.000000 0.011190 
#    y 0.000000 1.713500 0.000000 
#    z 0.011190 0.000000 1.727290 
# 
# From -- ./inp_files/342605.got.cif
#   From: 2010.06.25/outbox.cif.g09.slc.cpg/sg12_172_cif.got.tgz:342605.got - 2010.06.28 00:19:55.
