data_PCOD8098580
_publ_section_title
;
Structure prediction by ZEFSAII (Michael W. Deem and Ramdas Pophale) SiO2 
 PCOD8098580
Probable space group: C 2/M
;
_chemical_formula_sum "Si O2"
_cell_formula_units_Z 64
_cell_length_a 20.145894
_cell_length_b 8.699375
_cell_length_c 31.369722
_cell_angle_alpha 90.000000
_cell_angle_beta 36.126665
_cell_angle_gamma 90.000000
_cell_volume 3241.323339
_symmetry_space_group_name_H-M "C 2/M"
_symmetry_group_IT_number 12
_symmetry_cell_setting 'monoclinic'
loop_
_space_group_symop_operation_xyz
x,y,z
-x,y,-z
-x,-y,-z
x,-y,z
1/2+x,1/2+y,z
1/2-x,1/2+y,-z
1/2-x,1/2-y,-z
1/2+x,1/2-y,z
loop_
_atom_site_type_symbol
_atom_site_label
_atom_site_fract_x
_atom_site_fract_y
_atom_site_fract_z
Si Si1 0.318548 0.182789 0.659026
Si Si2 0.062649 0.317461 0.557279
Si Si3 0.161811 0.180679 0.817184
Si Si4 0.571767 0.822354 0.083108
Si Si5 0.291326 0.321801 0.916292
Si Si6 0.253738 0.682429 0.395382
Si Si7 0.811246 0.180577 0.808277
Si Si8 0.455281 0.180756 0.337851
O O1 0.443395 0.248890 0.602748
O O2 0.235240 0.240406 0.739149
O O3 0.275068 0.247511 0.636411
O O4 0.321095 0.000000 0.656659
O O5 0.058970 0.500000 0.556015
O O6 0.162464 0.250475 0.476178
O O7 0.083765 0.265266 0.594885
O O8 0.201251 0.270246 0.838941
O O9 0.032531 0.217585 0.875664
O O10 0.177546 0.000000 0.816200
O O11 0.614822 0.776939 0.107774
O O12 0.536035 0.000000 0.101662
O O13 0.668181 0.786961 0.998646
O O14 0.322787 0.500000 0.905660
O O15 0.291477 0.270683 0.867260
O O16 0.251387 0.500000 0.396792
O O17 0.378035 0.737385 0.342996
O O18 0.916328 0.272278 0.735049
O O19 0.832721 0.000000 0.792880
O O20 0.443901 0.000000 0.338384
#
# Coordination Sequence:
#
# PCOD8098580 Si02
#       8
#     8   8   8   8   8   8   8   8
#     4   9  18  34  56  82 111 145 188 235 279 329
#     4   9  17  34  58  81 108 146 192 236 283 338
#     4  11  22  38  59  85 121 157 190 234 288 340
#     4  10  21  39  63  91 120 150 188 233 283 341
#     4   9  21  41  63  87 118 153 190 236 285 334
#     4  10  20  34  58  85 107 145 196 238 280 342
#     4  11  23  40  61  84 112 152 199 240 283 339
#     4  11  22  37  55  81 118 151 183 236 295 343
#
# _framework density 19.745021000000001
#
# number of rings (size 3 to 8) (size 9 to 14) (size 15 to 20)
#    0.000    2.000    1.250    2.250    1.750    3.500 
#    0.000    3.750    0.000    0.750    0.000    0.000 
#    0.000    0.000    0.000    0.000    0.000    0.000 
#
# Total GULP energy -396915.451092 kJ/mol
# GULP energy per Si atom -12403.607847 kJ/mol
# Density = 1.970008 g / cm^3
# Si number density = 19.745021 Si / 1000 Ang^3
#
#
#
# Elastic Constant Matrix: (Units=GPa)
#
#
# Indices 1 2 3 4 5 6 
#
# 1 137.7859 24.8215 45.3629 0.0065 9.0147 0.1711
# 2 24.8215 27.0817 18.8811 0.0209 8.1312 -0.0793
# 3 45.3629 18.8811 80.8982 0.0121 8.1339 -0.0028
# 4 0.0065 0.0209 0.0121 26.1891 -0.0031 -3.0228
# 5 9.0147 8.1312 8.1339 -0.0031 40.8297 -0.0036
# 6 0.1711 -0.0793 -0.0028 -3.0228 -0.0036 29.9562
#
#
#
# Elastic Compliance Matrix: (Units=1/GPa)
#
#
# Indices 1 2 3 4 5 6 
#
# 1 0.009671 -0.006033 -0.004001 -0.000004 -0.000137 -0.000072
# 2 -0.006033 0.049839 -0.007536 -0.000017 -0.007092 0.000163
# 3 -0.004001 -0.007536 0.016453 0.000000 -0.000894 0.000004
# 4 -0.000004 -0.000017 0.000000 0.038634 0.000008 0.003898
# 5 -0.000137 -0.007092 -0.000894 0.000008 0.026113 -0.000014
# 6 -0.000072 0.000163 0.000004 0.003898 -0.000014 0.033776
#
#
# Mechanical properties :
#
#
# Convention : Reuss Voigt Hill
#
# Bulk Modulus (GPa) = 24.49617 47.09966 35.79792
# Shear Modulus (GPa) = 22.39806 29.84168 26.11987
#
# Velocity S-wave (km/s) = 3.37169 3.89183 3.64106
# Velocity P-wave (km/s) = 5.25270 6.64085 5.98714
#
# Compressibility (1/GPa) = 0.04082270
#
# Stress axis : x y z
#
# Youngs Moduli (GPa) = 103.40442 20.06465 60.77792
#
# Poissons Ratio (x) = 0.12106 0.24317
# Poissons Ratio (y) = 0.62389 0.45801
# Poissons Ratio (z) = 0.41371 0.15120
#
# Static dielectric constant tensor:
#      x y z
#    x 3.735790 0.000030 0.115060 
#    y 0.000030 3.277240 -0.000050 
#    z 0.115060 -0.000050 3.681220 
# 
# 
# High freq. dielectric constant tensor:
#      x y z
#    x 1.784680 0.000000 0.000970 
#    y 0.000000 1.744730 0.000000 
#    z 0.000970 0.000000 1.774140 
# 
# From -- ./inp_files/378174.got.cif
#   From: 2010.06.25/outbox.cif.g09.slc.cpg/sg12_190_cif.got.tgz:378174.got - 2010.06.28 00:19:55.
