data_PCOD8098951
_publ_section_title
;
Structure prediction by ZEFSAII (Michael W. Deem and Ramdas Pophale) SiO2 
 PCOD8098951
Probable space group: C 2/M
;
_chemical_formula_sum "Si O2"
_cell_formula_units_Z 48
_cell_length_a 31.015009
_cell_length_b 8.995472
_cell_length_c 8.932533
_cell_angle_alpha 90.000000
_cell_angle_beta 90.355440
_cell_angle_gamma 90.000000
_cell_volume 2492.080919
_symmetry_space_group_name_H-M "C 2/M"
_symmetry_group_IT_number 12
_symmetry_cell_setting 'monoclinic'
loop_
_space_group_symop_operation_xyz
x,y,z
-x,y,-z
-x,-y,-z
x,-y,z
1/2+x,1/2+y,z
1/2-x,1/2+y,-z
1/2-x,1/2-y,-z
1/2+x,1/2-y,z
loop_
_atom_site_type_symbol
_atom_site_label
_atom_site_fract_x
_atom_site_fract_y
_atom_site_fract_z
Si Si1 0.957497 0.674835 0.588418
Si Si2 0.709652 0.675941 0.076974
Si Si3 0.209877 0.825030 0.420646
Si Si4 0.876244 0.823604 0.086063
Si Si5 0.377928 0.323590 0.424413
Si Si6 0.457726 0.329233 0.900495
O O1 0.950068 0.500000 0.583205
O O2 0.916772 0.753850 0.515819
O O3 0.963458 0.726652 0.757689
O O4 0.000000 0.723181 0.500000
O O5 0.713673 0.500000 0.061033
O O6 0.707569 0.726031 0.248862
O O7 0.750000 0.750000 0.000000
O O8 0.666736 0.736302 0.994974
O O9 0.250000 0.750000 0.500000
O O10 0.166472 0.771531 0.500871
O O11 0.215613 0.000000 0.435264
O O12 0.878475 0.761860 0.254973
O O13 0.875862 0.000000 0.090545
O O14 0.917545 0.767177 0.995072
O O15 0.383008 0.500000 0.430374
O O16 0.449926 0.500000 0.850766
O O17 0.500000 0.314736 0.000000
#
# Coordination Sequence:
#
# PCOD8098951 Si02
#       6
#     8   8   8   8   8   8
#     4  11  24  39  55  80 115 150 182 223 277 332
#     4  10  20  35  54  78 109 143 180 222 269 320
#     4  10  21  36  57  84 113 146 184 228 276 328
#     4   9  18  34  57  83 108 135 175 228 276 317
#     4  10  20  37  61  84 107 142 187 231 274 323
#     4  10  20  36  60  86 109 139 182 227 271 325
#
# _framework density 19.261012999999998
#
# number of rings (size 3 to 8) (size 9 to 14) (size 15 to 20)
#    0.000    2.000    0.000    3.500    0.000    8.333 
#    0.000    4.167    0.000    0.000    0.000    0.000 
#    0.000    0.000    0.000    0.000    0.000    0.000 
#
# Total GULP energy -297694.012212 kJ/mol
# GULP energy per Si atom -12403.917175 kJ/mol
# Density = 1.921717 g / cm^3
# Si number density = 19.261013 Si / 1000 Ang^3
#
#
#
# Elastic Constant Matrix: (Units=GPa)
#
#
# Indices 1 2 3 4 5 6 
#
# 1 172.3065 37.0446 71.3649 0.0000 -12.7014 0.0000
# 2 37.0446 25.6536 28.9668 0.0000 -3.2447 0.0000
# 3 71.3649 28.9668 149.8024 0.0000 -15.0295 0.0000
# 4 0.0000 0.0000 0.0000 26.0352 0.0000 1.3024
# 5 -12.7014 -3.2447 -15.0295 0.0000 44.0106 0.0000
# 6 0.0000 0.0000 0.0000 1.3024 0.0000 29.3725
#
#
#
# Elastic Compliance Matrix: (Units=1/GPa)
#
#
# Indices 1 2 3 4 5 6 
#
# 1 0.009030 -0.010450 -0.002172 0.000000 0.001094 0.000000
# 2 -0.010450 0.061968 -0.007092 0.000000 -0.000869 0.000000
# 3 -0.002172 -0.007092 0.009284 0.000000 0.002021 0.000000
# 4 0.000000 0.000000 0.000000 0.038495 0.000000 -0.001707
# 5 0.001094 -0.000869 0.002021 0.000000 0.023664 0.000000
# 6 0.000000 0.000000 0.000000 -0.001707 0.000000 0.034121
#
#
# Mechanical properties :
#
#
# Convention : Reuss Voigt Hill
#
# Bulk Modulus (GPa) = 24.47575 69.16834 46.82205
# Shear Modulus (GPa) = 21.77640 33.90941 27.84290
#
# Velocity S-wave (km/s) = 3.36608 4.20041 3.80617
# Velocity P-wave (km/s) = 5.27658 7.71450 6.60893
#
# Compressibility (1/GPa) = 0.04085677
#
# Stress axis : x y z
#
# Youngs Moduli (GPa) = 110.73886 16.13737 107.71189
#
# Poissons Ratio (x) = 0.16863 0.23391
# Poissons Ratio (y) = 1.15717 0.76385
# Poissons Ratio (z) = 0.24048 0.11444
#
# Static dielectric constant tensor:
#      x y z
#    x 3.706150 0.000000 -0.030430 
#    y 0.000000 3.257700 0.000000 
#    z -0.030430 0.000000 3.600020 
# 
# 
# High freq. dielectric constant tensor:
#      x y z
#    x 1.770360 0.000000 -0.001130 
#    y 0.000000 1.719830 0.000000 
#    z -0.001130 0.000000 1.770110 
# 
# From -- ./inp_files/108582.got.cif
#   From: 2010.06.25/outbox.cif.g09.slc.cpg/sg12_55_cif.got.tgz:108582.got - 2010.06.28 00:19:55.
