data_PCOD8098703
_publ_section_title
;
Structure prediction by ZEFSAII (Michael W. Deem and Ramdas Pophale) SiO2 
 PCOD8098703
Probable space group: C 2/M
;
_chemical_formula_sum "Si O2"
_cell_formula_units_Z 64
_cell_length_a 30.017606
_cell_length_b 18.224585
_cell_length_c 20.746619
_cell_angle_alpha 90.000000
_cell_angle_beta 19.637203
_cell_angle_gamma 90.000000
_cell_volume 3814.186974
_symmetry_space_group_name_H-M "C 2/M"
_symmetry_group_IT_number 12
_symmetry_cell_setting 'monoclinic'
loop_
_space_group_symop_operation_xyz
x,y,z
-x,y,-z
-x,-y,-z
x,-y,z
1/2+x,1/2+y,z
1/2-x,1/2+y,-z
1/2-x,1/2-y,-z
1/2+x,1/2-y,z
loop_
_atom_site_type_symbol
_atom_site_label
_atom_site_fract_x
_atom_site_fract_y
_atom_site_fract_z
Si Si1 0.518375 0.347912 0.151454
Si Si2 0.089511 0.083919 0.822169
Si Si3 0.639784 0.834217 0.532970
Si Si4 0.026055 0.685038 0.824101
Si Si5 0.876500 0.583344 0.120968
Si Si6 0.211964 0.415534 0.194010
Si Si7 0.967260 0.584342 0.441240
Si Si8 0.281165 0.326895 0.566459
O O1 0.486856 0.409091 0.141111
O O2 0.519300 0.269534 0.114045
O O3 0.410630 0.356957 0.354372
O O4 0.661127 0.363738 0.987958
O O5 0.231374 0.120285 0.625728
O O6 0.114708 0.000000 0.804874
O O7 0.000000 0.120651 0.000000
O O8 0.546295 0.838269 0.722832
O O9 0.554570 0.865901 0.590925
O O10 0.685273 0.752887 0.451503
O O11 0.162731 0.678598 0.676595
O O12 0.913263 0.632882 0.008780
O O13 0.839845 0.500000 0.149559
O O14 0.753524 0.619701 0.326684
O O15 0.000000 0.581503 0.000000
O O16 0.251495 0.500000 0.129346
O O17 0.154004 0.404700 0.344456
O O18 0.104027 0.391086 0.288322
O O19 0.975470 0.500000 0.408409
#
# Coordination Sequence:
#
# PCOD8098703 Si02
#       8
#     8   8   8   8   8   8   8   8
#     4  11  19  33  52  76 104 140 174 208 265 319
#     4  11  22  29  44  79 111 136 165 204 258 324
#     4  11  19  33  52  76 104 140 174 208 265 319
#     4  10  20  35  50  75 107 139 175 217 265 310
#     4   9  20  34  50  70  97 142 187 213 250 310
#     4   9  19  35  53  76 107 141 176 213 256 311
#     4   9  19  35  53  76 107 141 176 213 256 311
#     4  10  20  35  50  75 107 139 175 217 265 310
#
# _framework density 16.77946
#
# number of rings (size 3 to 8) (size 9 to 14) (size 15 to 20)
#    0.000    2.000    2.500    3.000    3.500    4.000 
#    0.000    2.500    0.000    0.000    0.000    0.000 
#    0.000    4.000    0.000    0.000    0.000    0.000 
#
# Total GULP energy -396821.289008 kJ/mol
# GULP energy per Si atom -12400.665281 kJ/mol
# Density = 1.674127 g / cm^3
# Si number density = 16.779460 Si / 1000 Ang^3
#
#
#
# Elastic Constant Matrix: (Units=GPa)
#
#
# Indices 1 2 3 4 5 6 
#
# 1 79.5088 34.6221 38.1082 0.0016 2.8334 -0.0009
# 2 34.6221 80.9248 55.0707 0.0028 12.0408 -0.0017
# 3 38.1082 55.0707 103.0918 0.0078 4.0131 -0.0046
# 4 0.0016 0.0028 0.0078 24.9048 -0.0032 -0.4152
# 5 2.8334 12.0408 4.0131 -0.0032 26.5929 0.0013
# 6 -0.0009 -0.0017 -0.0046 -0.4152 0.0013 28.6239
#
#
#
# Elastic Compliance Matrix: (Units=1/GPa)
#
#
# Indices 1 2 3 4 5 6 
#
# 1 0.016289 -0.004689 -0.003552 0.000001 0.000924 0.000000
# 2 -0.004689 0.022270 -0.009848 0.000000 -0.008098 0.000000
# 3 -0.003552 -0.009848 0.016181 -0.000003 0.002396 0.000002
# 4 0.000001 0.000000 -0.000003 0.040163 0.000005 0.000583
# 5 0.000924 -0.008098 0.002396 0.000005 0.040811 -0.000002
# 6 0.000000 0.000000 0.000002 0.000583 -0.000002 0.034944
#
#
# Mechanical properties :
#
#
# Convention : Reuss Voigt Hill
#
# Bulk Modulus (GPa) = 53.87650 57.68082 55.77866
# Shear Modulus (GPa) = 23.47183 25.07260 24.27221
#
# Velocity S-wave (km/s) = 3.74417 3.86974 3.80747
# Velocity P-wave (km/s) = 7.13232 7.37679 7.25558
#
# Compressibility (1/GPa) = 0.01856097
#
# Stress axis : x y z
#
# Youngs Moduli (GPa) = 61.39226 44.90430 61.80239
#
# Poissons Ratio (x) = 0.21054 0.21955
# Poissons Ratio (y) = 0.28785 0.60862
# Poissons Ratio (z) = 0.21809 0.44221
#
# Static dielectric constant tensor:
#      x y z
#    x 3.069640 0.000000 0.178560 
#    y 0.000000 3.260790 0.000000 
#    z 0.178560 0.000000 3.156720 
# 
# 
# High freq. dielectric constant tensor:
#      x y z
#    x 1.626450 0.000000 0.014550 
#    y 0.000000 1.648310 0.000000 
#    z 0.014550 0.000000 1.643000 
# 
# From -- ./inp_files/157859.got.cif
#   From: 2010.06.25/outbox.cif.g09.slc.cpg/sg12_79_cif.got.tgz:157859.got - 2010.06.28 00:19:55.
