data_PCOD8098262
_publ_section_title
;
Structure prediction by ZEFSAII (Michael W. Deem and Ramdas Pophale) SiO2 
 PCOD8098262
Probable space group: C 2/M
;
_chemical_formula_sum "Si O2"
_cell_formula_units_Z 56
_cell_length_a 30.283398
_cell_length_b 8.998495
_cell_length_c 11.759782
_cell_angle_alpha 90.000000
_cell_angle_beta 116.532871
_cell_angle_gamma 90.000000
_cell_volume 2867.085363
_symmetry_space_group_name_H-M "C 2/M"
_symmetry_group_IT_number 12
_symmetry_cell_setting 'monoclinic'
loop_
_space_group_symop_operation_xyz
x,y,z
-x,y,-z
-x,-y,-z
x,-y,z
1/2+x,1/2+y,z
1/2-x,1/2+y,-z
1/2-x,1/2-y,-z
1/2+x,1/2-y,z
loop_
_atom_site_type_symbol
_atom_site_label
_atom_site_fract_x
_atom_site_fract_y
_atom_site_fract_z
Si Si1 0.580128 0.823976 0.817861
Si Si2 0.943074 0.825174 0.436887
Si Si3 0.490390 0.174969 0.864705
Si Si4 0.324621 0.329097 0.045127
Si Si5 0.098447 0.672955 0.390928
Si Si6 0.274256 0.828209 0.192748
Si Si7 0.710371 0.827213 0.533356
O O1 0.584116 0.757153 0.696822
O O2 0.531164 0.762648 0.823962
O O3 0.627978 0.765267 0.941048
O O4 0.580754 0.000000 0.811878
O O5 0.917921 0.773131 0.523364
O O6 0.000000 0.777189 0.500000
O O7 0.936334 0.000000 0.415356
O O8 0.435642 0.214982 0.756740
O O9 0.497616 0.000000 0.882051
O O10 0.500000 0.246924 0.000000
O O11 0.339559 0.500000 0.076298
O O12 0.306248 0.271602 0.145852
O O13 0.283473 0.307175 0.901164
O O14 0.091521 0.500000 0.416218
O O15 0.155165 0.707781 0.424866
O O16 0.284146 0.769969 0.331186
O O17 0.290326 0.000000 0.196073
O O18 0.750000 0.750000 0.500000
O O19 0.722188 0.000000 0.542795
#
# Coordination Sequence:
#
# PCOD8098262 Si02
#       7
#     8   8   8   8   8   8   8
#     4  11  21  34  56  83 113 149 187 227 275 337
#     4  11  22  35  56  86 119 148 182 232 285 338
#     4   9  19  35  54  78 109 145 187 231 272 325
#     4  10  20  34  56  83 114 146 181 233 287 338
#     4  10  20  37  60  84 111 148 192 236 283 335
#     4   9  19  37  56  80 113 148 187 232 286 342
#     4  10  22  38  58  82 110 147 191 238 283 335
#
# _framework density 19.532029999999999
#
# number of rings (size 3 to 8) (size 9 to 14) (size 15 to 20)
#    0.000    2.000    1.429    2.143    0.000    4.571 
#    0.000    1.429    0.000    3.857    0.000    0.000 
#    0.000    0.000    0.000    0.000    0.000    0.000 
#
# Total GULP energy -347259.291063 kJ/mol
# GULP energy per Si atom -12402.117538 kJ/mol
# Density = 1.948757 g / cm^3
# Si number density = 19.532030 Si / 1000 Ang^3
#
#
#
# Elastic Constant Matrix: (Units=GPa)
#
#
# Indices 1 2 3 4 5 6 
#
# 1 111.0879 36.0088 55.2028 0.0000 16.9748 0.0000
# 2 36.0088 60.8317 29.5540 0.0000 6.6755 0.0000
# 3 55.2028 29.5540 131.3672 0.0000 7.0131 0.0000
# 4 0.0000 0.0000 0.0000 22.0897 0.0000 3.9768
# 5 16.9748 6.6755 7.0131 0.0000 32.5736 0.0000
# 6 0.0000 0.0000 0.0000 3.9768 0.0000 31.3851
#
#
#
# Elastic Compliance Matrix: (Units=1/GPa)
#
#
# Indices 1 2 3 4 5 6 
#
# 1 0.013657 -0.005467 -0.004237 0.000000 -0.005084 0.000000
# 2 -0.005467 0.020924 -0.002360 0.000000 -0.000931 0.000000
# 3 -0.004237 -0.002360 0.009894 0.000000 0.000562 0.000000
# 4 0.000000 0.000000 0.000000 0.046327 0.000000 -0.005870
# 5 -0.005084 -0.000931 0.000562 0.000000 0.033419 0.000000
# 6 0.000000 0.000000 0.000000 -0.005870 0.000000 0.032606
#
#
# Mechanical properties :
#
#
# Convention : Reuss Voigt Hill
#
# Bulk Modulus (GPa) = 49.15285 60.53532 54.84409
# Shear Modulus (GPa) = 26.63296 29.37776 28.00536
#
# Velocity S-wave (km/s) = 3.69664 3.88246 3.79069
# Velocity P-wave (km/s) = 6.59091 7.15249 6.87743
#
# Compressibility (1/GPa) = 0.02034470
#
# Stress axis : x y z
#
# Youngs Moduli (GPa) = 73.22454 47.79219 101.07305
#
# Poissons Ratio (x) = 0.26130 0.42828
# Poissons Ratio (y) = 0.40035 0.23855
# Poissons Ratio (z) = 0.31028 0.11280
#
# Static dielectric constant tensor:
#      x y z
#    x 3.608060 0.000000 0.234880 
#    y 0.000000 3.389730 0.000000 
#    z 0.234880 0.000000 3.830770 
# 
# 
# High freq. dielectric constant tensor:
#      x y z
#    x 1.760760 0.000000 0.018070 
#    y 0.000000 1.744380 0.000000 
#    z 0.018070 0.000000 1.767430 
# 
# From -- ./inp_files/187702.got.cif
#   From: 2010.06.25/outbox.cif.g09.slc.cpg/sg12_94_cif.got.tgz:187702.got - 2010.06.28 00:19:55.
