data_PCOD8098962
_publ_section_title
;
Structure prediction by ZEFSAII (Michael W. Deem and Ramdas Pophale) SiO2 
 PCOD8098962
Probable space group: C 2/M
;
_chemical_formula_sum "Si O2"
_cell_formula_units_Z 56
_cell_length_a 14.922143
_cell_length_b 13.992157
_cell_length_c 15.132088
_cell_angle_alpha 90.000000
_cell_angle_beta 96.782875
_cell_angle_gamma 90.000000
_cell_volume 3137.359941
_symmetry_space_group_name_H-M "C 2/M"
_symmetry_group_IT_number 12
_symmetry_cell_setting 'monoclinic'
loop_
_space_group_symop_operation_xyz
x,y,z
-x,y,-z
-x,-y,-z
x,-y,z
1/2+x,1/2+y,z
1/2-x,1/2+y,-z
1/2-x,1/2-y,-z
1/2+x,1/2-y,z
loop_
_atom_site_type_symbol
_atom_site_label
_atom_site_fract_x
_atom_site_fract_y
_atom_site_fract_z
Si Si1 0.235764 0.891108 0.874839
Si Si2 0.327854 0.273975 0.295056
Si Si3 0.545836 0.610364 0.917520
Si Si4 0.510395 0.246279 0.233676
Si Si5 0.828021 0.223444 0.616937
Si Si6 0.211587 0.887849 0.551818
Si Si7 0.436997 0.111038 0.914797
O O1 0.225668 0.822757 0.790870
O O2 0.154398 0.873496 0.935239
O O3 0.332886 0.870178 0.930900
O O4 0.232393 0.000000 0.840075
O O5 0.417156 0.220048 0.272568
O O6 0.257421 0.197601 0.329023
O O7 0.350471 0.356056 0.371453
O O8 0.520246 0.500000 0.905330
O O9 0.504147 0.659715 0.826788
O O10 0.500000 0.653932 0.000000
O O11 0.581452 0.269802 0.317206
O O12 0.540525 0.158712 0.176243
O O13 0.839344 0.141065 0.544788
O O14 0.805912 0.327178 0.568764
O O15 0.232083 0.000000 0.555977
O O16 0.457566 0.000000 0.903785
O O17 0.500000 0.153298 0.000000
#
# Coordination Sequence:
#
# PCOD8098962 Si02
#       7
#     8   8   8   8   8   8   8
#     4   9  16  31  55  76  99 137 179 218 259 305
#     4   9  18  33  52  79 103 136 174 215 256 315
#     4   9  19  35  52  77 108 138 176 219 267 317
#     4  11  20  34  55  78 109 137 175 222 267 309
#     4   9  20  35  53  81 106 138 175 218 264 316
#     4   9  18  37  58  78 108 140 174 219 265 311
#     4  10  20  35  54  79 106 139 184 221 257 311
#
# _framework density 17.849402000000001
#
# number of rings (size 3 to 8) (size 9 to 14) (size 15 to 20)
#    0.857    1.714    1.429    0.857    0.000    2.286 
#    2.571    3.571    0.000    0.857    0.000    0.000 
#    0.000    0.000    0.000    0.000    0.000    0.000 
#
# Total GULP energy -346970.907926 kJ/mol
# GULP energy per Si atom -12391.818140 kJ/mol
# Density = 1.780878 g / cm^3
# Si number density = 17.849402 Si / 1000 Ang^3
#
#
#
# Elastic Constant Matrix: (Units=GPa)
#
#
# Indices 1 2 3 4 5 6 
#
# 1 110.7158 23.2955 51.7162 0.0000 10.6078 0.0000
# 2 23.2955 52.2182 13.0820 0.0000 1.0158 0.0000
# 3 51.7162 13.0820 90.4205 0.0000 12.0863 0.0000
# 4 0.0000 0.0000 0.0000 19.9271 0.0000 -1.4572
# 5 10.6078 1.0158 12.0863 0.0000 33.1326 0.0000
# 6 0.0000 0.0000 0.0000 -1.4572 0.0000 18.9021
#
#
#
# Elastic Compliance Matrix: (Units=1/GPa)
#
#
# Indices 1 2 3 4 5 6 
#
# 1 0.013214 -0.004176 -0.006733 0.000000 -0.001646 0.000000
# 2 -0.004176 0.021197 -0.000810 0.000000 0.000982 0.000000
# 3 -0.006733 -0.000810 0.015492 0.000000 -0.003471 0.000000
# 4 0.000000 0.000000 0.000000 0.050467 0.000000 0.003891
# 5 -0.001646 0.000982 -0.003471 0.000000 0.031945 0.000000
# 6 0.000000 0.000000 0.000000 0.003891 0.000000 0.053204
#
#
# Mechanical properties :
#
#
# Convention : Reuss Voigt Hill
#
# Bulk Modulus (GPa) = 37.78651 47.72688 42.75670
# Shear Modulus (GPa) = 22.95912 25.40974 24.18443
#
# Velocity S-wave (km/s) = 3.59035 3.77711 3.68491
# Velocity P-wave (km/s) = 6.19702 6.76895 6.48929
#
# Compressibility (1/GPa) = 0.02646447
#
# Stress axis : x y z
#
# Youngs Moduli (GPa) = 75.67875 47.17620 64.55088
#
# Poissons Ratio (x) = 0.19701 0.43465
# Poissons Ratio (y) = 0.31603 0.05226
# Poissons Ratio (z) = 0.50958 0.03820
#
# Static dielectric constant tensor:
#      x y z
#    x 3.374680 0.000000 -0.097510 
#    y 0.000000 3.048980 0.000000 
#    z -0.097510 0.000000 3.346600 
# 
# 
# High freq. dielectric constant tensor:
#      x y z
#    x 1.686190 0.000000 -0.001970 
#    y 0.000000 1.669240 0.000000 
#    z -0.001970 0.000000 1.692410 
# 
# From -- ./inp_files/214323.got.cif
#   From: 2010.06.25/outbox.cif.g09.slc.cpg/sg12_108_cif.got.tgz:214323.got - 2010.06.28 00:19:55.
