data_PCOD8098923
_publ_section_title
;
Structure prediction by ZEFSAII (Michael W. Deem and Ramdas Pophale) SiO2 
 PCOD8098923
Probable space group: C 2/M
;
_chemical_formula_sum "Si O2"
_cell_formula_units_Z 48
_cell_length_a 14.114031
_cell_length_b 8.885598
_cell_length_c 21.137275
_cell_angle_alpha 90.000000
_cell_angle_beta 91.303549
_cell_angle_gamma 90.000000
_cell_volume 2650.173559
_symmetry_space_group_name_H-M "C 2/M"
_symmetry_group_IT_number 12
_symmetry_cell_setting 'monoclinic'
loop_
_space_group_symop_operation_xyz
x,y,z
-x,y,-z
-x,-y,-z
x,-y,z
1/2+x,1/2+y,z
1/2-x,1/2+y,-z
1/2-x,1/2-y,-z
1/2+x,1/2-y,z
loop_
_atom_site_type_symbol
_atom_site_label
_atom_site_fract_x
_atom_site_fract_y
_atom_site_fract_z
Si Si1 0.394273 0.824035 0.330052
Si Si2 0.757594 0.824163 0.095727
Si Si3 0.902843 0.178980 0.671842
Si Si4 0.754745 0.827241 0.566988
Si Si5 0.105161 0.322376 0.992040
Si Si6 0.240871 0.678027 0.240791
O O1 0.490406 0.731304 0.334658
O O2 0.341593 0.797519 0.395806
O O3 0.330966 0.760585 0.272351
O O4 0.413888 0.000000 0.318356
O O5 0.667497 0.770803 0.053142
O O6 0.738905 0.778584 0.167368
O O7 0.774519 0.000000 0.088605
O O8 0.852012 0.743147 0.072076
O O9 0.844128 0.231547 0.609072
O O10 0.856898 0.259412 0.731887
O O11 0.896600 0.000000 0.681131
O O12 0.750000 0.750000 0.500000
O O13 0.769438 0.000000 0.552703
O O14 0.102294 0.500000 0.984978
O O15 0.000000 0.256636 0.000000
O O16 0.248607 0.500000 0.252395
#
# Coordination Sequence:
#
# PCOD8098923 Si02
#       6
#     8   8   8   8   8   8
#     4  10  21  37  55  78 106 138 177 219 263 312
#     4   9  19  34  51  75 104 133 170 212 256 306
#     4  10  21  37  55  79 108 139 176 216 261 313
#     4   9  20  36  54  77 106 138 174 215 258 308
#     4   9  18  33  52  74 102 136 171 209 254 304
#     4  10  20  35  54  77 107 141 176 218 263 310
#
# _framework density 18.112020999999999
#
# number of rings (size 3 to 8) (size 9 to 14) (size 15 to 20)
#    0.000    2.500    0.000    2.500    0.000    7.667 
#    0.000    5.000    0.000    0.000    0.000    0.000 
#    0.000    0.000    0.000    0.000    0.000    0.000 
#
# Total GULP energy -297629.013847 kJ/mol
# GULP energy per Si atom -12401.208910 kJ/mol
# Density = 1.807080 g / cm^3
# Si number density = 18.112021 Si / 1000 Ang^3
#
#
#
# Elastic Constant Matrix: (Units=GPa)
#
#
# Indices 1 2 3 4 5 6 
#
# 1 110.4988 19.6118 40.2118 0.0000 -8.6047 0.0000
# 2 19.6118 45.4169 41.0061 0.0000 -5.3275 0.0000
# 3 40.2118 41.0061 131.2105 0.0000 -9.2103 0.0000
# 4 0.0000 0.0000 0.0000 32.6820 0.0000 -3.3671
# 5 -8.6047 -5.3275 -9.2103 0.0000 15.2802 0.0000
# 6 0.0000 0.0000 0.0000 -3.3671 0.0000 33.2844
#
#
#
# Elastic Compliance Matrix: (Units=1/GPa)
#
#
# Indices 1 2 3 4 5 6 
#
# 1 0.010555 -0.001992 -0.002343 0.000000 0.003837 0.000000
# 2 -0.001992 0.031440 -0.008901 0.000000 0.004475 0.000000
# 3 -0.002343 -0.008901 0.011288 0.000000 0.002381 0.000000
# 4 0.000000 0.000000 0.000000 0.030920 0.000000 0.003128
# 5 0.003837 0.004475 0.002381 0.000000 0.070600 0.000000
# 6 0.000000 0.000000 0.000000 0.003128 0.000000 0.030360
#
#
# Mechanical properties :
#
#
# Convention : Reuss Voigt Hill
#
# Bulk Modulus (GPa) = 37.29845 54.30950 45.80397
# Shear Modulus (GPa) = 22.66821 28.66910 25.66866
#
# Velocity S-wave (km/s) = 3.54157 3.98286 3.76868
# Velocity P-wave (km/s) = 6.11241 7.15551 6.65443
#
# Compressibility (1/GPa) = 0.02681076
#
# Stress axis : x y z
#
# Youngs Moduli (GPa) = 94.74342 31.80663 88.58802
#
# Poissons Ratio (x) = 0.06337 0.20753
# Poissons Ratio (y) = 0.18878 0.78852
# Poissons Ratio (z) = 0.22195 0.28311
#
# Static dielectric constant tensor:
#      x y z
#    x 3.497280 0.000000 0.043080 
#    y 0.000000 3.352950 0.000000 
#    z 0.043080 0.000000 3.442440 
# 
# 
# High freq. dielectric constant tensor:
#      x y z
#    x 1.705940 0.000000 -0.002950 
#    y 0.000000 1.706050 0.000000 
#    z -0.002950 0.000000 1.702700 
# 
# From -- ./inp_files/307990.got.cif
#   From: 2010.06.25/outbox.cif.g09.slc.cpg/sg12_154_cif.got.tgz:307990.got - 2010.06.28 00:19:55.
