data_PCOD8098159
_publ_section_title
;
Structure prediction by ZEFSAII (Michael W. Deem and Ramdas Pophale) SiO2 
 PCOD8098159
Probable space group: C 2/M
;
_chemical_formula_sum "Si O2"
_cell_formula_units_Z 64
_cell_length_a 15.366947
_cell_length_b 8.879837
_cell_length_c 30.755979
_cell_angle_alpha 90.000000
_cell_angle_beta 129.149024
_cell_angle_gamma 90.000000
_cell_volume 3254.674670
_symmetry_space_group_name_H-M "C 2/M"
_symmetry_group_IT_number 12
_symmetry_cell_setting 'monoclinic'
loop_
_space_group_symop_operation_xyz
x,y,z
-x,y,-z
-x,-y,-z
x,-y,z
1/2+x,1/2+y,z
1/2-x,1/2+y,-z
1/2-x,1/2-y,-z
1/2+x,1/2-y,z
loop_
_atom_site_type_symbol
_atom_site_label
_atom_site_fract_x
_atom_site_fract_y
_atom_site_fract_z
Si Si1 0.541576 0.822375 0.060768
Si Si2 0.682822 0.822563 0.238783
Si Si3 0.920531 0.823466 0.553789
Si Si4 0.677510 0.677417 0.633971
Si Si5 0.260782 0.327441 0.833020
Si Si6 0.073097 0.671692 0.837180
Si Si7 0.265252 0.176736 0.436798
Si Si8 0.646179 0.677261 0.943081
O O1 0.666892 0.765318 0.108759
O O2 0.468599 0.737149 0.073251
O O3 0.532750 0.000000 0.065289
O O4 0.500000 0.775937 0.000000
O O5 0.755514 0.768367 0.302557
O O6 0.732095 0.741092 0.212375
O O7 0.554805 0.772962 0.207084
O O8 0.693061 0.000000 0.234494
O O9 0.850449 0.779841 0.574947
O O10 0.871599 0.739029 0.496612
O O11 0.048763 0.771312 0.599759
O O12 0.911245 0.000000 0.541417
O O13 0.686151 0.500000 0.630296
O O14 0.736778 0.752915 0.611508
O O15 0.302086 0.500000 0.845091
O O16 0.131993 0.315783 0.808609
O O17 0.077260 0.500000 0.855741
O O18 0.144031 0.776260 0.892134
O O19 0.279010 0.000000 0.436764
O O20 0.657014 0.500000 0.951054
O O21 0.750000 0.750000 0.000000
#
# Coordination Sequence:
#
# PCOD8098159 Si02
#       8
#     8   8   8   8   8   8   8   8
#     4  11  23  39  60  87 119 153 191 237 292 354
#     4  10  22  41  62  83 115 159 200 243 294 356
#     4   9  19  36  56  81 118 157 195 241 294 356
#     4  10  21  37  58  83 113 156 203 240 292 353
#     4  11  23  39  61  88 116 151 194 242 295 349
#     4  10  22  41  62  85 118 154 191 240 297 351
#     4  10  20  34  55  85 118 153 194 246 302 348
#     4  12  24  38  60  89 120 153 192 238 291 351
#
# _framework density 19.664023
#
# number of rings (size 3 to 8) (size 9 to 14) (size 15 to 20)
#    0.000    1.625    1.250    3.375    0.000    8.000 
#    0.000    0.000    0.000    0.000    0.000    0.000 
#    0.000    0.000    0.000    0.000    0.000    0.000 
#
# Total GULP energy -396918.191852 kJ/mol
# GULP energy per Si atom -12403.693495 kJ/mol
# Density = 1.961927 g / cm^3
# Si number density = 19.664023 Si / 1000 Ang^3
#
#
#
# Elastic Constant Matrix: (Units=GPa)
#
#
# Indices 1 2 3 4 5 6 
#
# 1 123.9720 38.6768 64.5360 0.0000 -11.7580 0.0000
# 2 38.6768 74.0247 45.6666 0.0000 -9.9411 0.0000
# 3 64.5360 45.6666 143.4988 0.0000 -14.4079 0.0000
# 4 0.0000 0.0000 0.0000 27.8446 0.0000 -7.3843
# 5 -11.7580 -9.9411 -14.4079 0.0000 30.8693 0.0000
# 6 0.0000 0.0000 0.0000 -7.3843 0.0000 30.0582
#
#
#
# Elastic Compliance Matrix: (Units=1/GPa)
#
#
# Indices 1 2 3 4 5 6 
#
# 1 0.011241 -0.003300 -0.003863 0.000000 0.001416 0.000000
# 2 -0.003300 0.018058 -0.003992 0.000000 0.002695 0.000000
# 3 -0.003863 -0.003992 0.010177 0.000000 0.001993 0.000000
# 4 0.000000 0.000000 0.000000 0.038417 0.000000 0.009438
# 5 0.001416 0.002695 0.001993 0.000000 0.034732 0.000000
# 6 0.000000 0.000000 0.000000 0.009438 0.000000 0.035587
#
#
# Mechanical properties :
#
#
# Convention : Reuss Voigt Hill
#
# Bulk Modulus (GPa) = 58.25689 71.02826 64.64258
# Shear Modulus (GPa) = 28.36985 30.59549 29.48267
#
# Velocity S-wave (km/s) = 3.80245 3.94878 3.87631
# Velocity P-wave (km/s) = 6.99776 7.54916 7.27868
#
# Compressibility (1/GPa) = 0.01716535
#
# Stress axis : x y z
#
# Youngs Moduli (GPa) = 88.95835 55.37771 98.26487
#
# Poissons Ratio (x) = 0.18274 0.37962
# Poissons Ratio (y) = 0.29356 0.39227
# Poissons Ratio (z) = 0.34366 0.22107
#
# Static dielectric constant tensor:
#      x y z
#    x -5.020250 0.000000 -1.734830 
#    y 0.000000 3.565320 0.000000 
#    z -1.734830 0.000000 3.237990 
# 
# 
# High freq. dielectric constant tensor:
#      x y z
#    x 1.781290 0.000000 -0.000370 
#    y 0.000000 1.765530 0.000000 
#    z -0.000370 0.000000 1.760220 
# 
# From -- ./inp_files/375644.got.cif
#   From: 2010.06.25/outbox.cif.g09.slc.cpg/sg12_188_cif.got.tgz:375644.got - 2010.06.28 00:19:55.
