data_PCOD8098698
_publ_section_title
;
Structure prediction by ZEFSAII (Michael W. Deem and Ramdas Pophale) SiO2 
 PCOD8098698
Probable space group: C 2/M
;
_chemical_formula_sum "Si O2"
_cell_formula_units_Z 64
_cell_length_a 22.773033
_cell_length_b 20.066979
_cell_length_c 11.972983
_cell_angle_alpha 90.000000
_cell_angle_beta 38.931965
_cell_angle_gamma 90.000000
_cell_volume 3438.265706
_symmetry_space_group_name_H-M "C 2/M"
_symmetry_group_IT_number 12
_symmetry_cell_setting 'monoclinic'
loop_
_space_group_symop_operation_xyz
x,y,z
-x,y,-z
-x,-y,-z
x,-y,z
1/2+x,1/2+y,z
1/2-x,1/2+y,-z
1/2-x,1/2-y,-z
1/2+x,1/2-y,z
loop_
_atom_site_type_symbol
_atom_site_label
_atom_site_fract_x
_atom_site_fract_y
_atom_site_fract_z
Si Si1 0.880571 0.242208 0.905204
Si Si2 0.007157 0.352317 0.365794
Si Si3 0.367620 0.424611 0.211497
Si Si4 0.574371 0.575611 0.487169
Si Si5 0.704103 0.323784 0.176728
Si Si6 0.512601 0.621406 0.156166
Si Si7 0.314656 0.927274 0.868461
Si Si8 0.323582 0.924532 0.601545
O O1 0.867686 0.213785 0.798564
O O2 0.931825 0.190794 0.911405
O O3 0.952699 0.302327 0.784913
O O4 0.782029 0.269748 0.104548
O O5 0.909355 0.374810 0.457924
O O6 0.000000 0.318894 0.500000
O O7 0.074576 0.416043 0.281526
O O8 0.372552 0.500000 0.252217
O O9 0.417418 0.372673 0.222752
O O10 0.259953 0.402402 0.357116
O O11 0.418173 0.426098 0.015778
O O12 0.500000 0.579931 0.500000
O O13 0.617369 0.500000 0.428756
O O14 0.652781 0.633957 0.351202
O O15 0.515845 0.589628 0.684779
O O16 0.756148 0.375116 0.021906
O O17 0.284804 0.919784 0.784486
O O18 0.289842 0.000000 0.951378
O O19 0.355311 0.000000 0.528388
#
# Coordination Sequence:
#
# PCOD8098698 Si02
#       8
#     8   8   8   8   8   8   8   8
#     4  10  21  34  52  71 110 149 182 211 257 334
#     4   9  18  30  49  76 110 145 173 214 268 324
#     4  10  21  38  61  79 104 141 182 228 273 320
#     4  11  22  34  55  84 113 139 177 233 283 326
#     4  10  20  35  49  77 107 148 179 210 267 332
#     4  11  21  38  55  81 105 143 181 223 269 324
#     4   9  16  29  51  79 109 135 171 222 275 321
#     4   9  17  30  52  81 104 132 180 229 271 312
#
# _framework density 18.614034
#
# number of rings (size 3 to 8) (size 9 to 14) (size 15 to 20)
#    0.000    2.125    1.250    3.000    1.750    2.500 
#    0.000    0.625    2.750    0.000    0.000    0.000 
#    0.000    7.750    0.000    0.000    0.000    0.000 
#
# Total GULP energy -396535.427489 kJ/mol
# GULP energy per Si atom -12391.732109 kJ/mol
# Density = 1.857167 g / cm^3
# Si number density = 18.614034 Si / 1000 Ang^3
#
#
#
# Elastic Constant Matrix: (Units=GPa)
#
#
# Indices 1 2 3 4 5 6 
#
# 1 118.9567 50.0096 33.9700 0.0000 -21.1397 0.0000
# 2 50.0096 80.8235 21.6887 0.0000 -6.4785 0.0000
# 3 33.9700 21.6887 62.6091 0.0000 -1.9136 0.0000
# 4 0.0000 0.0000 0.0000 26.0391 0.0000 -4.5537
# 5 -21.1397 -6.4785 -1.9136 0.0000 27.3623 0.0000
# 6 0.0000 0.0000 0.0000 -4.5537 0.0000 18.2315
#
#
#
# Elastic Compliance Matrix: (Units=1/GPa)
#
#
# Indices 1 2 3 4 5 6 
#
# 1 0.014342 -0.006758 -0.005162 0.000000 0.009119 0.000000
# 2 -0.006758 0.017060 -0.002284 0.000000 -0.001342 0.000000
# 3 -0.005162 -0.002284 0.019467 0.000000 -0.003167 0.000000
# 4 0.000000 0.000000 0.000000 0.040158 0.000000 0.010030
# 5 0.009119 -0.001342 -0.003167 0.000000 0.043053 0.000000
# 6 0.000000 0.000000 0.000000 0.010030 0.000000 0.057356
#
#
# Mechanical properties :
#
#
# Convention : Reuss Voigt Hill
#
# Bulk Modulus (GPa) = 44.52125 52.63619 48.57872
# Shear Modulus (GPa) = 21.99443 24.77463 23.38453
#
# Velocity S-wave (km/s) = 3.44118 3.65220 3.54826
# Velocity P-wave (km/s) = 6.30547 6.79145 6.55297
#
# Compressibility (1/GPa) = 0.02246118
#
# Stress axis : x y z
#
# Youngs Moduli (GPa) = 69.72426 58.61822 51.36852
#
# Poissons Ratio (x) = 0.39615 0.26516
# Poissons Ratio (y) = 0.47120 0.11732
# Poissons Ratio (z) = 0.35991 0.13388
#
# Static dielectric constant tensor:
#      x y z
#    x 3.430450 0.000000 -0.256460 
#    y 0.000000 3.639030 0.000000 
#    z -0.256460 0.000000 3.472790 
# 
# 
# High freq. dielectric constant tensor:
#      x y z
#    x 1.700070 0.000000 -0.026250 
#    y 0.000000 1.724060 0.000000 
#    z -0.026250 0.000000 1.708530 
# 
# From -- ./inp_files/177714.got.cif
#   From: 2010.06.25/outbox.cif.g09.slc.cpg/sg12_89_cif.got.tgz:177714.got - 2010.06.28 00:19:55.
