data_PCOD8098739
_publ_section_title
;
Structure prediction by ZEFSAII (Michael W. Deem and Ramdas Pophale) SiO2 
 PCOD8098739
Probable space group: C 2/M
;
_chemical_formula_sum "Si O2"
_cell_formula_units_Z 48
_cell_length_a 22.894821
_cell_length_b 8.664753
_cell_length_c 20.139738
_cell_angle_alpha 90.000000
_cell_angle_beta 137.408414
_cell_angle_gamma 90.000000
_cell_volume 2703.877332
_symmetry_space_group_name_H-M "C 2/M"
_symmetry_group_IT_number 12
_symmetry_cell_setting 'monoclinic'
loop_
_space_group_symop_operation_xyz
x,y,z
-x,y,-z
-x,-y,-z
x,-y,z
1/2+x,1/2+y,z
1/2-x,1/2+y,-z
1/2-x,1/2-y,-z
1/2+x,1/2-y,z
loop_
_atom_site_type_symbol
_atom_site_label
_atom_site_fract_x
_atom_site_fract_y
_atom_site_fract_z
Si Si1 0.064395 0.330007 0.492613
Si Si2 0.554836 0.817388 0.955698
Si Si3 0.656432 0.818204 0.911762
Si Si4 0.617082 0.318297 0.141152
Si Si5 0.203032 0.820624 0.689446
Si Si6 0.404682 0.817131 0.282438
O O1 0.103721 0.500000 0.511511
O O2 0.141910 0.213473 0.574593
O O3 0.000000 0.340405 0.500000
O O4 0.005335 0.273738 0.381191
O O5 0.593737 0.763270 0.918164
O O6 0.455932 0.763545 0.875646
O O7 0.560175 0.000000 0.970233
O O8 0.610953 0.737206 0.060016
O O9 0.616179 0.759634 0.808922
O O10 0.665222 0.000000 0.918602
O O11 0.750000 0.750000 0.000000
O O12 0.603086 0.500000 0.132641
O O13 0.709252 0.273258 0.248014
O O14 0.158882 0.770437 0.720993
O O15 0.224434 0.000000 0.710146
O O16 0.390411 0.000000 0.280312
#
# Coordination Sequence:
#
# PCOD8098739 Si02
#       6
#     8   8   8   8   8   8
#     4   8  15  29  48  69  96 129 162 198 241 290
#     4  10  20  35  52  74 101 127 160 203 247 283
#     4  10  21  34  51  74 101 132 162 195 236 286
#     4  11  21  34  52  72  96 130 167 201 241 291
#     4  11  20  30  48  75 102 127 161 206 248 284
#     4   9  18  33  50  71 101 134 164 195 239 294
#
# _framework density 17.752284
#
# number of rings (size 3 to 8) (size 9 to 14) (size 15 to 20)
#    0.000    2.167    0.000    6.500    0.000    7.667 
#    0.000    0.000    0.000    1.000    0.000    0.000 
#    0.000    0.000    0.000    0.000    0.000    0.000 
#
# Total GULP energy -297577.235779 kJ/mol
# GULP energy per Si atom -12399.051491 kJ/mol
# Density = 1.771188 g / cm^3
# Si number density = 17.752284 Si / 1000 Ang^3
#
#
#
# Elastic Constant Matrix: (Units=GPa)
#
#
# Indices 1 2 3 4 5 6 
#
# 1 80.5086 9.9982 53.4114 0.0000 -3.2434 0.0000
# 2 9.9982 39.1429 13.5471 0.0000 -0.8284 0.0000
# 3 53.4114 13.5471 139.5456 0.0000 -0.3338 0.0000
# 4 0.0000 0.0000 0.0000 27.8327 0.0000 6.1471
# 5 -3.2434 -0.8284 -0.3338 0.0000 25.7337 0.0000
# 6 0.0000 0.0000 0.0000 6.1471 0.0000 22.4018
#
#
#
# Elastic Compliance Matrix: (Units=1/GPa)
#
#
# Indices 1 2 3 4 5 6 
#
# 1 0.016921 -0.002111 -0.006267 0.000000 0.001983 0.000000
# 2 -0.002111 0.026716 -0.001784 0.000000 0.000571 0.000000
# 3 -0.006267 -0.001784 0.009736 0.000000 -0.000721 0.000000
# 4 0.000000 0.000000 0.000000 0.038247 0.000000 -0.010495
# 5 0.001983 0.000571 -0.000721 0.000000 0.039119 0.000000
# 6 0.000000 0.000000 0.000000 -0.010495 0.000000 0.047519
#
#
# Mechanical properties :
#
#
# Convention : Reuss Voigt Hill
#
# Bulk Modulus (GPa) = 30.25816 45.90115 38.07966
# Shear Modulus (GPa) = 23.85517 27.34300 25.59908
#
# Velocity S-wave (km/s) = 3.66974 3.92886 3.80151
# Velocity P-wave (km/s) = 5.91926 6.81864 6.38481
#
# Compressibility (1/GPa) = 0.03304894
#
# Stress axis : x y z
#
# Youngs Moduli (GPa) = 59.09950 37.43036 102.70945
#
# Poissons Ratio (x) = 0.07902 0.64365
# Poissons Ratio (y) = 0.12477 0.18325
# Poissons Ratio (z) = 0.37036 0.06678
#
# Static dielectric constant tensor:
#      x y z
#    x 3.152240 0.000000 -0.047770 
#    y 0.000000 3.265450 0.000000 
#    z -0.047770 0.000000 3.694880 
# 
# 
# High freq. dielectric constant tensor:
#      x y z
#    x 1.655130 0.000000 0.010250 
#    y 0.000000 1.688870 0.000000 
#    z 0.010250 0.000000 1.697750 
# 
# From -- ./inp_files/323871.got.cif
#   From: 2010.06.25/outbox.cif.g09.slc.cpg/sg12_162_cif.got.tgz:323871.got - 2010.06.28 00:19:55.
