data_PCOD8098655
_publ_section_title
;
Structure prediction by ZEFSAII (Michael W. Deem and Ramdas Pophale) SiO2 
 PCOD8098655
Probable space group: C 2/M
;
_chemical_formula_sum "Si O2"
_cell_formula_units_Z 40
_cell_length_a 12.440559
_cell_length_b 27.927202
_cell_length_c 8.048577
_cell_angle_alpha 90.000000
_cell_angle_beta 43.388933
_cell_angle_gamma 90.000000
_cell_volume 1920.922107
_symmetry_space_group_name_H-M "C 2/M"
_symmetry_group_IT_number 12
_symmetry_cell_setting 'monoclinic'
loop_
_space_group_symop_operation_xyz
x,y,z
-x,y,-z
-x,-y,-z
x,-y,z
1/2+x,1/2+y,z
1/2-x,1/2+y,-z
1/2-x,1/2-y,-z
1/2+x,1/2-y,z
loop_
_atom_site_type_symbol
_atom_site_label
_atom_site_fract_x
_atom_site_fract_y
_atom_site_fract_z
Si Si1 0.813779 0.109736 0.197136
Si Si2 0.673582 0.210378 0.369375
Si Si3 0.340344 0.555574 0.855306
Si Si4 0.171933 0.696489 0.755707
Si Si5 0.678368 0.400864 0.446042
O O1 0.756949 0.162468 0.209364
O O2 0.744758 0.092572 0.455336
O O3 0.752098 0.073635 0.121603
O O4 0.000000 0.109626 0.000000
O O5 0.500000 0.213531 0.500000
O O6 0.771644 0.257335 0.200340
O O7 0.665420 0.211328 0.574141
O O8 0.380614 0.500000 0.829082
O O9 0.247965 0.565263 0.784003
O O10 0.495735 0.587483 0.667623
O O11 0.295330 0.653554 0.643348
O O12 0.000000 0.679075 0.000000
#
# Coordination Sequence:
#
# PCOD8098655 Si02
#       5
#     8   8   8   8   8
#     4   9  19  36  56  83 117 151 188 239 289 340
#     4  10  22  37  57  85 118 154 194 234 281 345
#     4  10  20  34  60  89 110 146 199 244 292 339
#     4  10  22  38  55  86 120 154 191 231 286 351
#     4   9  19  34  54  83 118 144 184 239 283 339
#
# _framework density 20.823333000000002
#
# number of rings (size 3 to 8) (size 9 to 14) (size 15 to 20)
#    0.000    2.400    0.000    1.800    5.600    6.800 
#    0.000    0.000    0.000    3.000    0.000    0.000 
#    0.000    0.000    0.000    0.000    0.000    0.000 
#
# Total GULP energy -247764.485015 kJ/mol
# GULP energy per Si atom -12388.224251 kJ/mol
# Density = 2.077594 g / cm^3
# Si number density = 20.823333 Si / 1000 Ang^3
#
#
#
# Elastic Constant Matrix: (Units=GPa)
#
#
# Indices 1 2 3 4 5 6 
#
# 1 67.2429 61.6753 31.7245 0.0000 14.2129 0.0000
# 2 61.6753 161.0921 60.2677 0.0000 17.1596 0.0000
# 3 31.7245 60.2677 71.4094 0.0000 21.1229 0.0000
# 4 0.0000 0.0000 0.0000 22.5312 0.0000 9.5115
# 5 14.2129 17.1596 21.1229 0.0000 28.6629 0.0000
# 6 0.0000 0.0000 0.0000 9.5115 0.0000 27.9526
#
#
#
# Elastic Compliance Matrix: (Units=1/GPa)
#
#
# Indices 1 2 3 4 5 6 
#
# 1 0.024411 -0.007762 -0.002670 0.000000 -0.005490 0.000000
# 2 -0.007762 0.011542 -0.006889 0.000000 0.002016 0.000000
# 3 -0.002670 -0.006889 0.024798 0.000000 -0.012827 0.000000
# 4 0.000000 0.000000 0.000000 0.051828 0.000000 -0.017636
# 5 -0.005490 0.002016 -0.012827 0.000000 0.045856 0.000000
# 6 0.000000 0.000000 0.000000 -0.017636 0.000000 0.041776
#
#
# Mechanical properties :
#
#
# Convention : Reuss Voigt Hill
#
# Bulk Modulus (GPa) = 38.30089 67.45326 52.87707
# Shear Modulus (GPa) = 20.52912 25.56779 23.04846
#
# Velocity S-wave (km/s) = 3.14326 3.50786 3.33056
# Velocity P-wave (km/s) = 5.62198 6.99072 6.34338
#
# Compressibility (1/GPa) = 0.02610906
#
# Stress axis : x y z
#
# Youngs Moduli (GPa) = 40.96503 86.63949 40.32562
#
# Poissons Ratio (x) = 0.67253 0.10766
# Poissons Ratio (y) = 0.31799 0.27780
# Poissons Ratio (z) = 0.10937 0.59686
#
# Static dielectric constant tensor:
#      x y z
#    x 3.669500 0.000000 0.962930 
#    y 0.000000 3.833050 0.000000 
#    z 0.962930 0.000000 4.057160 
# 
# 
# High freq. dielectric constant tensor:
#      x y z
#    x 1.800760 0.000000 0.037550 
#    y 0.000000 1.812750 0.000000 
#    z 0.037550 0.000000 1.801100 
# 
# From -- ./inp_files/53890.got.cif
#   From: 2010.06.25/outbox.cif.g09.slc.cpg/sg12_27_cif.got.tgz:53890.got - 2010.06.28 00:19:55.
