data_PCOD8098357
_publ_section_title
;
Structure prediction by ZEFSAII (Michael W. Deem and Ramdas Pophale) SiO2 
 PCOD8098357
Probable space group: C 2/M
;
_chemical_formula_sum "Si O2"
_cell_formula_units_Z 64
_cell_length_a 28.620205
_cell_length_b 8.867375
_cell_length_c 23.298784
_cell_angle_alpha 90.000000
_cell_angle_beta 32.191871
_cell_angle_gamma 90.000000
_cell_volume 3150.138111
_symmetry_space_group_name_H-M "C 2/M"
_symmetry_group_IT_number 12
_symmetry_cell_setting 'monoclinic'
loop_
_space_group_symop_operation_xyz
x,y,z
-x,y,-z
-x,-y,-z
x,-y,z
1/2+x,1/2+y,z
1/2-x,1/2+y,-z
1/2-x,1/2-y,-z
1/2+x,1/2-y,z
loop_
_atom_site_type_symbol
_atom_site_label
_atom_site_fract_x
_atom_site_fract_y
_atom_site_fract_z
Si Si1 0.785469 0.328604 0.907605
Si Si2 0.250283 0.677908 0.323472
Si Si3 0.481484 0.826443 0.226293
Si Si4 0.900649 0.676435 0.092929
Si Si5 0.940044 0.321389 0.510767
Si Si6 0.283610 0.174865 0.407202
Si Si7 0.522902 0.821765 0.309449
Si Si8 0.121252 0.827853 0.002345
O O1 0.801262 0.500000 0.909155
O O2 0.878169 0.256738 0.792812
O O3 0.750000 0.250000 0.000000
O O4 0.718945 0.313251 0.924564
O O5 0.258877 0.500000 0.321781
O O6 0.336576 0.738259 0.202738
O O7 0.163406 0.720023 0.376353
O O8 0.239913 0.747346 0.397594
O O9 0.388093 0.803948 0.293608
O O10 0.475359 0.776260 0.299362
O O11 0.551078 0.720772 0.122659
O O12 0.512796 0.000000 0.188979
O O13 0.888964 0.500000 0.116236
O O14 0.879121 0.715751 0.050333
O O15 0.000000 0.729274 0.000000
O O16 0.951474 0.500000 0.499099
O O17 0.000000 0.252975 0.500000
O O18 0.972882 0.251465 0.416083
O O19 0.250000 0.250000 0.500000
O O20 0.257641 0.000000 0.435259
O O21 0.522893 0.000000 0.316786
O O22 0.101409 0.000000 0.004358
#
# Coordination Sequence:
#
# PCOD8098357 Si02
#       8
#     8   8   8   8   8   8   8   8
#     4  10  20  34  56  85 120 155 195 243 295 356
#     4  11  23  40  64  94 125 157 201 255 307 356
#     4  10  20  36  58  83 115 158 198 238 296 367
#     4  11  25  44  64  86 118 164 209 245 296 366
#     4   9  19  35  59  88 118 156 203 249 295 356
#     4  11  23  39  62  90 120 156 201 246 298 359
#     4   9  17  32  55  81 114 154 197 241 286 346
#     4  11  23  36  57  91 121 148 194 249 304 356
#
# _framework density 20.316569000000001
#
# number of rings (size 3 to 8) (size 9 to 14) (size 15 to 20)
#    0.000    1.750    1.250    3.000    1.750    7.500 
#    0.000    0.000    0.000    2.250    0.000    0.000 
#    0.000    0.000    0.000    0.000    0.000    0.000 
#
# Total GULP energy -396818.856008 kJ/mol
# GULP energy per Si atom -12400.589250 kJ/mol
# Density = 2.027033 g / cm^3
# Si number density = 20.316569 Si / 1000 Ang^3
#
#
#
# Elastic Constant Matrix: (Units=GPa)
#
#
# Indices 1 2 3 4 5 6 
#
# 1 126.7278 38.8594 46.2066 -0.0046 1.2327 0.0012
# 2 38.8594 64.8506 37.2808 -0.0557 -8.1578 0.0338
# 3 46.2066 37.2808 113.1404 -0.0166 1.7235 0.0101
# 4 -0.0046 -0.0557 -0.0166 30.1587 0.0042 4.5213
# 5 1.2327 -8.1578 1.7235 0.0042 37.8090 -0.0011
# 6 0.0012 0.0338 0.0101 4.5213 -0.0011 25.9608
#
#
#
# Elastic Compliance Matrix: (Units=1/GPa)
#
#
# Indices 1 2 3 4 5 6 
#
# 1 0.010343 -0.004861 -0.002603 -0.000010 -0.001267 0.000009
# 2 -0.004861 0.022066 -0.005365 0.000041 0.005164 -0.000033
# 3 -0.002603 -0.005365 0.011694 -0.000004 -0.001606 0.000003
# 4 -0.000010 0.000041 -0.000004 0.034047 0.000005 -0.005930
# 5 -0.001267 0.005164 -0.001606 0.000005 0.027677 -0.000006
# 6 0.000009 -0.000033 0.000003 -0.005930 -0.000006 0.039552
#
#
# Mechanical properties :
#
#
# Convention : Reuss Voigt Hill
#
# Bulk Modulus (GPa) = 54.21141 61.04583 57.62862
# Shear Modulus (GPa) = 28.21909 30.94383 29.58146
#
# Velocity S-wave (km/s) = 3.73093 3.90690 3.81993
# Velocity P-wave (km/s) = 6.73061 7.10383 6.91974
#
# Compressibility (1/GPa) = 0.01844630
#
# Stress axis : x y z
#
# Youngs Moduli (GPa) = 96.68553 45.31815 85.51509
#
# Poissons Ratio (x) = 0.22027 0.22261
# Poissons Ratio (y) = 0.46994 0.45876
# Poissons Ratio (z) = 0.25168 0.24312
#
# Static dielectric constant tensor:
#      x y z
#    x 3.893960 -0.000060 0.097970 
#    y -0.000060 3.487650 0.000020 
#    z 0.097970 0.000020 4.019130 
# 
# 
# High freq. dielectric constant tensor:
#      x y z
#    x 1.807970 0.000000 -0.004780 
#    y 0.000000 1.766570 0.000000 
#    z -0.004780 0.000000 1.804630 
# 
# From -- ./inp_files/353335.got.cif
#   From: 2010.06.25/outbox.cif.g09.slc.cpg/sg12_177_cif.got.tgz:353335.got - 2010.06.28 00:19:55.
