data_PCOD8098055
_publ_section_title
;
Structure prediction by ZEFSAII (Michael W. Deem and Ramdas Pophale) SiO2 
 PCOD8098055
Probable space group: C 2/M
;
_chemical_formula_sum "Si O2"
_cell_formula_units_Z 64
_cell_length_a 15.364614
_cell_length_b 9.419930
_cell_length_c 23.897919
_cell_angle_alpha 90.000000
_cell_angle_beta 88.542364
_cell_angle_gamma 90.000000
_cell_volume 3457.712317
_symmetry_space_group_name_H-M "C 2/M"
_symmetry_group_IT_number 12
_symmetry_cell_setting 'monoclinic'
loop_
_space_group_symop_operation_xyz
x,y,z
-x,y,-z
-x,-y,-z
x,-y,z
1/2+x,1/2+y,z
1/2-x,1/2+y,-z
1/2-x,1/2-y,-z
1/2+x,1/2-y,z
loop_
_atom_site_type_symbol
_atom_site_label
_atom_site_fract_x
_atom_site_fract_y
_atom_site_fract_z
Si Si1 0.657946 0.332034 0.369767
Si Si2 0.487253 0.166259 0.565022
Si Si3 0.648983 0.168729 0.761269
Si Si4 0.856418 0.331992 0.361659
Si Si5 0.759590 0.335034 0.056357
Si Si6 0.341364 0.332440 0.755055
Si Si7 0.090897 0.165643 0.130637
Si Si8 0.428021 0.167142 0.123332
O O1 0.649237 0.500000 0.380301
O O2 0.598569 0.248792 0.414386
O O3 0.758046 0.280113 0.376841
O O4 0.625245 0.290571 0.307486
O O5 0.500000 0.197803 0.500000
O O6 0.573021 0.226606 0.595376
O O7 0.473678 0.000000 0.577421
O O8 0.613214 0.217743 0.701037
O O9 0.745669 0.232954 0.766421
O O10 0.590423 0.223906 0.813308
O O11 0.653689 0.000000 0.764701
O O12 0.854159 0.500000 0.364070
O O13 0.760201 0.500000 0.041365
O O14 0.681157 0.297798 0.099181
O O15 0.848978 0.289402 0.084573
O O16 0.750000 0.250000 0.000000
O O17 0.331652 0.500000 0.759111
O O18 0.403502 0.281300 0.804509
O O19 0.014504 0.252595 0.101253
O O20 0.068980 0.000000 0.126784
O O21 0.444787 0.000000 0.121286
#
# Coordination Sequence:
#
# PCOD8098055 Si02
#       8
#     8   8   8   8   8   8   8   8
#     4   9  18  33  54  77  99 132 178 219 255 307
#     4  10  21  35  50  73 107 142 175 214 263 314
#     4   8  13  27  52  76 100 133 173 210 251 311
#     4   8  16  31  51  74 101 137 174 208 256 316
#     4  10  22  40  59  77 106 145 182 216 257 308
#     4   8  14  29  53  77 103 133 168 212 261 313
#     4  10  20  35  55  80 108 139 170 209 267 321
#     4  10  20  34  55  83 107 135 176 220 259 303
#
# _framework density 18.509347999999999
#
# number of rings (size 3 to 8) (size 9 to 14) (size 15 to 20)
#    0.000    2.875    1.250    1.500    1.750    2.250 
#    0.000    3.125    0.000    3.000    0.000    0.000 
#    0.000    0.000    0.000    0.000    0.000    0.000 
#
# Total GULP energy -396597.302407 kJ/mol
# GULP energy per Si atom -12393.665700 kJ/mol
# Density = 1.846722 g / cm^3
# Si number density = 18.509348 Si / 1000 Ang^3
#
#
#
# Elastic Constant Matrix: (Units=GPa)
#
#
# Indices 1 2 3 4 5 6 
#
# 1 101.7702 31.9863 44.6390 0.0000 22.7013 0.0000
# 2 31.9863 29.3988 32.2128 0.0000 3.4417 0.0000
# 3 44.6390 32.2128 108.3655 0.0000 18.9847 0.0000
# 4 0.0000 0.0000 0.0000 20.5091 0.0000 -2.5722
# 5 22.7013 3.4417 18.9847 0.0000 22.8398 0.0000
# 6 0.0000 0.0000 0.0000 -2.5722 0.0000 26.8450
#
#
#
# Elastic Compliance Matrix: (Units=1/GPa)
#
#
# Indices 1 2 3 4 5 6 
#
# 1 0.019692 -0.020518 0.001024 0.000000 -0.017332 0.000000
# 2 -0.020518 0.072465 -0.017263 0.000000 0.023823 0.000000
# 3 0.001024 -0.017263 0.015989 0.000000 -0.011706 0.000000
# 4 0.000000 0.000000 0.000000 0.049352 0.000000 0.004729
# 5 -0.017332 0.023823 -0.011706 0.000000 0.067150 0.000000
# 6 0.000000 0.000000 0.000000 0.004729 0.000000 0.037704
#
#
# Mechanical properties :
#
#
# Convention : Reuss Voigt Hill
#
# Bulk Modulus (GPa) = 28.87494 50.80120 39.83807
# Shear Modulus (GPa) = 14.39229 22.75187 18.57208
#
# Velocity S-wave (km/s) = 2.79152 3.50981 3.17107
# Velocity P-wave (km/s) = 5.10139 6.62804 5.91418
#
# Compressibility (1/GPa) = 0.03463211
#
# Stress axis : x y z
#
# Youngs Moduli (GPa) = 50.78262 13.79982 62.54461
#
# Poissons Ratio (x) = 0.28314 -0.06404
# Poissons Ratio (y) = 1.04195 1.07968
# Poissons Ratio (z) = -0.05199 0.23822
#
# Static dielectric constant tensor:
#      x y z
#    x 3.488400 0.000000 0.157140 
#    y 0.000000 2.916970 0.000000 
#    z 0.157140 0.000000 3.687090 
# 
# 
# High freq. dielectric constant tensor:
#      x y z
#    x 1.723380 0.000000 0.004250 
#    y 0.000000 1.670060 0.000000 
#    z 0.004250 0.000000 1.723230 
# 
# From -- ./inp_files/335623.got.cif
#   From: 2010.06.25/outbox.cif.g09.slc.cpg/sg12_168_cif.got.tgz:335623.got - 2010.06.28 00:19:55.
