data_PCOD8098282
_publ_section_title
;
Structure prediction by ZEFSAII (Michael W. Deem and Ramdas Pophale) SiO2 
 PCOD8098282
Probable space group: C 2/M
;
_chemical_formula_sum "Si O2"
_cell_formula_units_Z 56
_cell_length_a 20.981431
_cell_length_b 9.395446
_cell_length_c 29.243315
_cell_angle_alpha 90.000000
_cell_angle_beta 149.950733
_cell_angle_gamma 90.000000
_cell_volume 2886.657669
_symmetry_space_group_name_H-M "C 2/M"
_symmetry_group_IT_number 12
_symmetry_cell_setting 'monoclinic'
loop_
_space_group_symop_operation_xyz
x,y,z
-x,y,-z
-x,-y,-z
x,-y,z
1/2+x,1/2+y,z
1/2-x,1/2+y,-z
1/2-x,1/2-y,-z
1/2+x,1/2-y,z
loop_
_atom_site_type_symbol
_atom_site_label
_atom_site_fract_x
_atom_site_fract_y
_atom_site_fract_z
Si Si1 0.406034 0.834332 0.400691
Si Si2 0.159693 0.664971 0.223226
Si Si3 0.979000 0.657608 0.772644
Si Si4 0.505041 0.667827 0.056131
Si Si5 0.738257 0.661007 0.038097
Si Si6 0.420776 0.161554 0.577440
Si Si7 0.364656 0.335918 0.625914
O O1 0.500000 0.787463 0.500000
O O2 0.281804 0.736263 0.323239
O O3 0.474092 0.806769 0.394886
O O4 0.367880 0.000000 0.383214
O O5 0.188663 0.500000 0.229599
O O6 0.043852 0.679374 0.187348
O O7 0.119528 0.747709 0.152145
O O8 0.930529 0.500000 0.728304
O O9 0.901352 0.776566 0.697858
O O10 0.127431 0.672746 0.852431
O O11 0.531965 0.500000 0.077919
O O12 0.500000 0.712780 0.000000
O O13 0.371212 0.714668 0.995571
O O14 0.708807 0.500000 0.004894
O O15 0.750000 0.750000 0.000000
O O16 0.446364 0.260298 0.636994
O O17 0.284000 0.195763 0.471165
O O18 0.427100 0.000000 0.598652
O O19 0.399053 0.500000 0.645298
#
# Coordination Sequence:
#
# PCOD8098282 Si02
#       7
#     8   8   8   8   8   8   8
#     4  10  21  38  60  84 114 155 199 238 284 348
#     4  11  23  38  58  86 120 153 191 245 300 350
#     4  10  21  36  55  82 115 150 188 233 292 346
#     4  10  22  40  62  88 118 157 202 246 296 357
#     4  10  20  37  60  83 112 148 189 235 283 342
#     4   9  19  36  55  77 112 151 186 233 287 336
#     4  10  20  34  56  84 110 144 191 237 281 337
#
# _framework density 19.399598000000001
#
# number of rings (size 3 to 8) (size 9 to 14) (size 15 to 20)
#    0.000    2.000    1.429    1.714    0.000    5.714 
#    0.000    2.857    0.000    0.000    0.000    0.000 
#    0.000    0.000    0.000    0.000    0.000    0.000 
#
# Total GULP energy -347251.192582 kJ/mol
# GULP energy per Si atom -12401.828306 kJ/mol
# Density = 1.935544 g / cm^3
# Si number density = 19.399598 Si / 1000 Ang^3
#
#
#
# Elastic Constant Matrix: (Units=GPa)
#
#
# Indices 1 2 3 4 5 6 
#
# 1 94.8148 43.0913 43.2460 0.0002 -5.1560 0.0001
# 2 43.0913 87.2350 55.7131 0.0002 -10.0791 0.0002
# 3 43.2460 55.7131 94.7491 0.0010 -8.7943 0.0003
# 4 0.0002 0.0002 0.0010 31.8292 0.0002 -6.5541
# 5 -5.1560 -10.0791 -8.7943 0.0002 33.4461 0.0000
# 6 0.0001 0.0002 0.0003 -6.5541 0.0000 29.6056
#
#
#
# Elastic Compliance Matrix: (Units=1/GPa)
#
#
# Indices 1 2 3 4 5 6 
#
# 1 0.014421 -0.004694 -0.003841 0.000000 -0.000201 0.000000
# 2 -0.004694 0.020137 -0.009432 0.000000 0.002865 0.000000
# 3 -0.003841 -0.009432 0.017973 -0.000001 0.001291 0.000000
# 4 0.000000 0.000000 -0.000001 0.032918 0.000000 0.007287
# 5 -0.000201 0.002865 0.001291 0.000000 0.031071 0.000000
# 6 0.000000 0.000000 0.000000 0.007287 0.000000 0.035391
#
#
# Mechanical properties :
#
#
# Convention : Reuss Voigt Hill
#
# Bulk Modulus (GPa) = 60.25077 62.32219 61.28648
# Shear Modulus (GPa) = 25.85619 27.95940 26.90780
#
# Velocity S-wave (km/s) = 3.65474 3.80048 3.72832
# Velocity P-wave (km/s) = 6.99533 7.17311 7.08478
#
# Compressibility (1/GPa) = 0.01659730
#
# Stress axis : x y z
#
# Youngs Moduli (GPa) = 69.34330 49.66017 55.63780
#
# Poissons Ratio (x) = 0.23310 0.21370
# Poissons Ratio (y) = 0.32548 0.52480
# Poissons Ratio (z) = 0.26634 0.46841
#
# Static dielectric constant tensor:
#      x y z
#    x 3.657950 0.000000 0.097700 
#    y 0.000000 3.549770 0.000000 
#    z 0.097700 0.000000 3.433940 
# 
# 
# High freq. dielectric constant tensor:
#      x y z
#    x 1.757870 0.000000 0.001490 
#    y 0.000000 1.754370 0.000000 
#    z 0.001490 0.000000 1.749530 
# 
# From -- ./inp_files/380791.got.cif
#   From: 2010.06.25/outbox.cif.g09.slc.cpg/sg12_191_cif.got.tgz:380791.got - 2010.06.28 00:19:55.
