data_PCOD8098245
_publ_section_title
;
Structure prediction by ZEFSAII (Michael W. Deem and Ramdas Pophale) SiO2 
 PCOD8098245
Probable space group: C 2/M
;
_chemical_formula_sum "Si O2"
_cell_formula_units_Z 48
_cell_length_a 17.954146
_cell_length_b 9.993856
_cell_length_c 12.931550
_cell_angle_alpha 90.000000
_cell_angle_beta 92.539369
_cell_angle_gamma 90.000000
_cell_volume 2318.044360
_symmetry_space_group_name_H-M "C 2/M"
_symmetry_group_IT_number 12
_symmetry_cell_setting 'monoclinic'
loop_
_space_group_symop_operation_xyz
x,y,z
-x,y,-z
-x,-y,-z
x,-y,z
1/2+x,1/2+y,z
1/2-x,1/2+y,-z
1/2-x,1/2-y,-z
1/2+x,1/2-y,z
loop_
_atom_site_type_symbol
_atom_site_label
_atom_site_fract_x
_atom_site_fract_y
_atom_site_fract_z
Si Si1 0.160934 0.648922 0.695232
Si Si2 0.077924 0.847386 0.555732
Si Si3 0.415843 0.353822 0.968768
Si Si4 0.176597 0.850155 0.366851
Si Si5 0.205617 0.211885 0.894390
Si Si6 0.149908 0.351711 0.193836
O O1 0.128636 0.500000 0.678842
O O2 0.097682 0.753743 0.654700
O O3 0.234433 0.668102 0.629069
O O4 0.180718 0.665769 0.818320
O O5 0.145689 0.832712 0.479785
O O6 0.000000 0.801009 0.500000
O O7 0.070521 0.000000 0.595114
O O8 0.408183 0.500000 0.913308
O O9 0.388964 0.229977 0.899644
O O10 0.500000 0.322130 0.000000
O O11 0.368536 0.363752 0.072716
O O12 0.137758 0.735752 0.295615
O O13 0.156395 0.000000 0.324172
O O14 0.262428 0.125687 0.827487
O O15 0.250000 0.250000 0.000000
O O16 0.114342 0.500000 0.205259
#
# Coordination Sequence:
#
# PCOD8098245 Si02
#       6
#     8   8   8   8   8   8
#     4  10  21  37  60  87 113 145 187 235 282 328
#     4  10  22  39  58  82 114 151 189 230 278 334
#     4  10  21  36  54  77 108 147 186 225 274 332
#     4   9  19  37  58  80 109 144 183 227 274 329
#     4   9  20  37  58  83 113 146 183 227 277 332
#     4  10  20  34  56  83 108 140 183 231 279 326
#
# _framework density 20.70711
#
# number of rings (size 3 to 8) (size 9 to 14) (size 15 to 20)
#    0.000    2.333    0.000    1.500    0.000   12.667 
#    0.000    5.000    0.000    0.000    0.000    0.000 
#    0.000    0.000    0.000    0.000    0.000    0.000 
#
# Total GULP energy -297367.519243 kJ/mol
# GULP energy per Si atom -12390.313302 kJ/mol
# Density = 2.065998 g / cm^3
# Si number density = 20.707110 Si / 1000 Ang^3
#
#
#
# Elastic Constant Matrix: (Units=GPa)
#
#
# Indices 1 2 3 4 5 6 
#
# 1 90.3256 38.2254 28.5721 0.0000 11.9538 0.0000
# 2 38.2254 166.8614 50.1986 0.0000 25.4633 0.0000
# 3 28.5721 50.1986 80.0232 0.0000 18.0502 0.0000
# 4 0.0000 0.0000 0.0000 29.4363 0.0000 9.5404
# 5 11.9538 25.4633 18.0502 0.0000 21.0197 0.0000
# 6 0.0000 0.0000 0.0000 9.5404 0.0000 21.4280
#
#
#
# Elastic Compliance Matrix: (Units=1/GPa)
#
#
# Indices 1 2 3 4 5 6 
#
# 1 0.013100 -0.001665 -0.002986 0.000000 -0.002869 0.000000
# 2 -0.001665 0.008304 -0.003174 0.000000 -0.006387 0.000000
# 3 -0.002986 -0.003174 0.017739 0.000000 -0.009690 0.000000
# 4 0.000000 0.000000 0.000000 0.039700 0.000000 -0.017676
# 5 -0.002869 -0.006387 -0.009690 0.000000 0.065265 0.000000
# 6 0.000000 0.000000 0.000000 -0.017676 0.000000 0.054538
#
#
# Mechanical properties :
#
#
# Convention : Reuss Voigt Hill
#
# Bulk Modulus (GPa) = 42.56451 63.46694 53.01572
# Shear Modulus (GPa) = 22.50976 29.05774 25.78375
#
# Velocity S-wave (km/s) = 3.30063 3.75009 3.53252
# Velocity P-wave (km/s) = 5.92669 7.03330 6.50357
#
# Compressibility (1/GPa) = 0.02349375
#
# Stress axis : x y z
#
# Youngs Moduli (GPa) = 76.33719 120.42498 56.37245
#
# Poissons Ratio (x) = 0.20050 0.16831
# Poissons Ratio (y) = 0.12710 0.17892
# Poissons Ratio (z) = 0.22792 0.38222
#
# Static dielectric constant tensor:
#      x y z
#    x 3.812070 0.000000 -0.231500 
#    y 0.000000 3.715790 0.000000 
#    z -0.231500 0.000000 3.587090 
# 
# 
# High freq. dielectric constant tensor:
#      x y z
#    x 1.800060 0.000000 -0.005480 
#    y 0.000000 1.809330 0.000000 
#    z -0.005480 0.000000 1.795470 
# 
# From -- ./inp_files/221605.got.cif
#   From: 2010.06.25/outbox.cif.g09.slc.cpg/sg12_111_cif.got.tgz:221605.got - 2010.06.28 00:19:55.
