data_PCOD8098935
_publ_section_title
;
Structure prediction by ZEFSAII (Michael W. Deem and Ramdas Pophale) SiO2 
 PCOD8098935
Probable space group: C 2/M
;
_chemical_formula_sum "Si O2"
_cell_formula_units_Z 56
_cell_length_a 15.055549
_cell_length_b 8.865227
_cell_length_c 28.842604
_cell_angle_alpha 90.000000
_cell_angle_beta 49.057690
_cell_angle_gamma 90.000000
_cell_volume 2907.907081
_symmetry_space_group_name_H-M "C 2/M"
_symmetry_group_IT_number 12
_symmetry_cell_setting 'monoclinic'
loop_
_space_group_symop_operation_xyz
x,y,z
-x,y,-z
-x,-y,-z
x,-y,z
1/2+x,1/2+y,z
1/2-x,1/2+y,-z
1/2-x,1/2-y,-z
1/2+x,1/2-y,z
loop_
_atom_site_type_symbol
_atom_site_label
_atom_site_fract_x
_atom_site_fract_y
_atom_site_fract_z
Si Si1 0.192567 0.178245 0.064770
Si Si2 0.443410 0.177590 0.149413
Si Si3 0.290049 0.175681 0.376925
Si Si4 0.390256 0.178240 0.065793
Si Si5 0.755054 0.821689 0.709855
Si Si6 0.642001 0.323608 0.511103
Si Si7 0.503027 0.178961 0.367585
O O1 0.269360 0.227870 0.082973
O O2 0.063446 0.237693 0.119249
O O3 0.191470 0.000000 0.058227
O O4 0.250000 0.250000 0.000000
O O5 0.392145 0.236386 0.117951
O O6 0.351853 0.222007 0.220360
O O7 0.468663 0.000000 0.139658
O O8 0.275368 0.245535 0.330748
O O9 0.168353 0.203759 0.447374
O O10 0.404908 0.240685 0.364596
O O11 0.313496 0.000000 0.363127
O O12 0.402709 0.000000 0.061159
O O13 0.500000 0.249090 0.000000
O O14 0.870550 0.741252 0.690787
O O15 0.777954 0.000000 0.700833
O O16 0.634153 0.500000 0.524794
O O17 0.750000 0.250000 0.500000
O O18 0.525169 0.243350 0.570896
O O19 0.503831 0.000000 0.369555
#
# Coordination Sequence:
#
# PCOD8098935 Si02
#       7
#     8   8   8   8   8   8   8
#     4  11  21  35  58  83 109 139 173 214 263 315
#     4  10  21  38  57  79 108 143 181 218 261 319
#     4   8  17  34  54  76 106 143 176 219 276 321
#     4   9  17  33  56  79 109 142 167 205 267 320
#     4  10  21  37  56  77 104 143 187 220 258 322
#     4   9  16  30  53  79 107 140 180 223 273 322
#     4  10  20  35  54  77 109 143 179 224 276 319
#
# _framework density 19.257836999999999
#
# number of rings (size 3 to 8) (size 9 to 14) (size 15 to 20)
#    0.000    2.429    1.429    2.143    0.000    2.286 
#    0.000    9.286    0.000    0.000    0.000    0.000 
#    0.000    0.000    0.000    0.000    0.000    0.000 
#
# Total GULP energy -347081.703888 kJ/mol
# GULP energy per Si atom -12395.775139 kJ/mol
# Density = 1.921400 g / cm^3
# Si number density = 19.257837 Si / 1000 Ang^3
#
#
#
# Elastic Constant Matrix: (Units=GPa)
#
#
# Indices 1 2 3 4 5 6 
#
# 1 115.2134 28.3859 58.6079 0.0006 -2.1939 0.0011
# 2 28.3859 54.5338 39.2569 0.0011 -7.1641 0.0019
# 3 58.6079 39.2569 129.9265 0.0000 -1.1436 0.0000
# 4 0.0006 0.0011 0.0000 26.6142 0.0002 -9.6440
# 5 -2.1939 -7.1641 -1.1436 0.0002 36.0868 0.0003
# 6 0.0011 0.0019 0.0000 -9.6440 0.0003 24.8235
#
#
#
# Elastic Compliance Matrix: (Units=1/GPa)
#
#
# Indices 1 2 3 4 5 6 
#
# 1 0.011614 -0.002908 -0.004360 0.000000 -0.000009 0.000000
# 2 -0.002908 0.024892 -0.006169 -0.000002 0.004569 -0.000003
# 3 -0.004360 -0.006169 0.011518 0.000001 -0.001125 0.000001
# 4 0.000000 -0.000002 0.000001 0.043730 -0.000001 0.016989
# 5 -0.000009 0.004569 -0.001125 -0.000001 0.028582 -0.000001
# 6 0.000000 -0.000003 0.000001 0.016989 -0.000001 0.046885
#
#
# Mechanical properties :
#
#
# Convention : Reuss Voigt Hill
#
# Bulk Modulus (GPa) = 47.28338 61.35277 54.31808
# Shear Modulus (GPa) = 24.85774 29.06643 26.96208
#
# Velocity S-wave (km/s) = 3.59665 3.88922 3.74579
# Velocity P-wave (km/s) = 6.46946 7.21775 6.85382
#
# Compressibility (1/GPa) = 0.02114908
#
# Stress axis : x y z
#
# Youngs Moduli (GPa) = 86.10445 40.17354 86.82299
#
# Poissons Ratio (x) = 0.11681 0.37858
# Poissons Ratio (y) = 0.25035 0.53563
# Poissons Ratio (z) = 0.37545 0.24784
#
# Static dielectric constant tensor:
#      x y z
#    x 3.727260 0.000000 0.121520 
#    y 0.000000 3.303050 0.000000 
#    z 0.121520 0.000000 3.820530 
# 
# 
# High freq. dielectric constant tensor:
#      x y z
#    x 1.750410 0.000000 -0.000470 
#    y 0.000000 1.722310 0.000000 
#    z -0.000470 0.000000 1.753540 
# 
# From -- ./inp_files/374938.got.cif
#   From: 2010.06.25/outbox.cif.g09.slc.cpg/sg12_188_cif.got.tgz:374938.got - 2010.06.28 00:19:55.
