data_PCOD8098264
_publ_section_title
;
Structure prediction by ZEFSAII (Michael W. Deem and Ramdas Pophale) SiO2 
 PCOD8098264
Probable space group: C 2/M
;
_chemical_formula_sum "Si O2"
_cell_formula_units_Z 56
_cell_length_a 21.955243
_cell_length_b 14.686506
_cell_length_c 9.416229
_cell_angle_alpha 90.000000
_cell_angle_beta 95.110781
_cell_angle_gamma 90.000000
_cell_volume 3024.152519
_symmetry_space_group_name_H-M "C 2/M"
_symmetry_group_IT_number 12
_symmetry_cell_setting 'monoclinic'
loop_
_space_group_symop_operation_xyz
x,y,z
-x,y,-z
-x,-y,-z
x,-y,z
1/2+x,1/2+y,z
1/2-x,1/2+y,-z
1/2-x,1/2-y,-z
1/2+x,1/2-y,z
loop_
_atom_site_type_symbol
_atom_site_label
_atom_site_fract_x
_atom_site_fract_y
_atom_site_fract_z
Si Si1 0.928004 0.806271 0.975261
Si Si2 0.760961 0.894627 0.770194
Si Si3 0.969345 0.000000 0.342886
Si Si4 0.126993 0.152383 0.755058
Si Si5 0.247914 0.600604 0.094534
Si Si6 0.158707 0.271636 0.247401
Si Si7 0.942605 0.000000 0.888960
Si Si8 0.813177 0.712835 0.449100
O O1 0.903594 0.731863 0.856762
O O2 0.905583 0.907724 0.919458
O O3 0.899168 0.784927 0.122893
O O4 0.000000 0.796561 0.000000
O O5 0.816987 0.832053 0.730802
O O6 0.701700 0.871698 0.658901
O O7 0.779610 0.000000 0.755000
O O8 0.745758 0.869770 0.929702
O O9 0.927670 0.912013 0.308367
O O10 0.000000 0.000000 0.500000
O O11 0.030961 0.000000 0.263034
O O12 0.183635 0.096365 0.830152
O O13 0.148456 0.212294 0.627550
O O14 0.219228 0.500000 0.104336
O O15 0.209843 0.671527 0.177006
O O16 0.146933 0.314248 0.402314
O O17 0.000000 0.000000 0.000000
O O18 0.750000 0.750000 0.500000
#
# Coordination Sequence:
#
# PCOD8098264 Si02
#       8
#     8   8   4   8   8   8   4   8
#     4  11  22  36  61  81 114 160 207 244 291 347
#     4  10  20  34  56  83 115 152 194 239 301 367
#     4  12  26  38  54  88 130 166 205 243 296 361
#     4  12  20  37  58  79 119 161 194 248 288 353
#     4  11  21  35  61  89 111 156 202 248 308 349
#     4  11  22  38  55  85 123 153 199 249 304 365
#     4  10  20  40  54  84 118 158 214 242 280 358
#     4  10  22  37  50  83 120 158 195 236 307 367
#
# _framework density 18.517586000000001
#
# number of rings (size 3 to 8) (size 9 to 14) (size 15 to 20)
#    0.000    1.143    7.857    1.286    3.000    0.571 
#    5.143    0.000    0.000    0.429    0.000    0.000 
#    0.000    5.143    0.000    0.000    0.000    0.000 
#
# Total GULP energy -347026.033449 kJ/mol
# GULP energy per Si atom -12393.786909 kJ/mol
# Density = 1.847544 g / cm^3
# Si number density = 18.517586 Si / 1000 Ang^3
#
#
#
# Elastic Constant Matrix: (Units=GPa)
#
#
# Indices 1 2 3 4 5 6 
#
# 1 65.6580 17.4753 40.5456 0.0000 4.8782 0.0000
# 2 17.4753 43.9064 25.9401 0.0000 2.7800 0.0000
# 3 40.5456 25.9401 154.3463 0.0000 12.3202 0.0000
# 4 0.0000 0.0000 0.0000 12.9171 0.0000 1.5616
# 5 4.8782 2.7800 12.3202 0.0000 38.2345 0.0000
# 6 0.0000 0.0000 0.0000 1.5616 0.0000 21.3337
#
#
#
# Elastic Compliance Matrix: (Units=1/GPa)
#
#
# Indices 1 2 3 4 5 6 
#
# 1 0.019203 -0.005163 -0.004117 0.000000 -0.000748 0.000000
# 2 -0.005163 0.026683 -0.003106 0.000000 -0.000281 0.000000
# 3 -0.004117 -0.003106 0.008234 0.000000 -0.001902 0.000000
# 4 0.000000 0.000000 0.000000 0.078108 0.000000 -0.005718
# 5 -0.000748 -0.000281 -0.001902 0.000000 0.026883 0.000000
# 6 0.000000 0.000000 0.000000 -0.005718 0.000000 0.047293
#
#
# Mechanical properties :
#
#
# Convention : Reuss Voigt Hill
#
# Bulk Modulus (GPa) = 34.07345 47.98141 41.02743
# Shear Modulus (GPa) = 20.75046 26.49371 23.62208
#
# Velocity S-wave (km/s) = 3.35114 3.78661 3.57551
# Velocity P-wave (km/s) = 5.78049 6.71456 6.26496
#
# Compressibility (1/GPa) = 0.02934836
#
# Stress axis : x y z
#
# Youngs Moduli (GPa) = 52.07649 37.47645 121.44436
#
# Poissons Ratio (x) = 0.19350 0.49997
# Poissons Ratio (y) = 0.26888 0.37718
# Poissons Ratio (z) = 0.21439 0.11639
#
# Static dielectric constant tensor:
#      x y z
#    x 3.165970 0.000000 0.243970 
#    y 0.000000 3.597040 0.000000 
#    z 0.243970 0.000000 4.027850 
# 
# 
# High freq. dielectric constant tensor:
#      x y z
#    x 1.693970 0.000000 0.006700 
#    y 0.000000 1.687810 0.000000 
#    z 0.006700 0.000000 1.745040 
# 
# From -- ./inp_files/86418.got.cif
#   From: 2010.06.25/outbox.cif.g09.slc.cpg/sg12_44_cif.got.tgz:86418.got - 2010.06.28 00:19:55.
