data_PCOD8098757
_publ_section_title
;
Structure prediction by ZEFSAII (Michael W. Deem and Ramdas Pophale) SiO2 
 PCOD8098757
Probable space group: C 2/M
;
_chemical_formula_sum "Si O2"
_cell_formula_units_Z 40
_cell_length_a 27.812367
_cell_length_b 9.162811
_cell_length_c 19.745925
_cell_angle_alpha 90.000000
_cell_angle_beta 26.946969
_cell_angle_gamma 90.000000
_cell_volume 2280.347941
_symmetry_space_group_name_H-M "C 2/M"
_symmetry_group_IT_number 12
_symmetry_cell_setting 'monoclinic'
loop_
_space_group_symop_operation_xyz
x,y,z
-x,y,-z
-x,-y,-z
x,-y,z
1/2+x,1/2+y,z
1/2-x,1/2+y,-z
1/2-x,1/2-y,-z
1/2+x,1/2-y,z
loop_
_atom_site_type_symbol
_atom_site_label
_atom_site_fract_x
_atom_site_fract_y
_atom_site_fract_z
Si Si1 0.836208 0.169771 0.082410
Si Si2 0.581646 0.331126 0.768436
Si Si3 0.065701 0.330449 0.653348
Si Si4 0.176159 0.327942 0.039124
Si Si5 0.256687 0.328289 0.323808
O O1 0.773326 0.231439 0.226880
O O2 0.811752 0.000000 0.097748
O O3 0.797123 0.265304 0.068386
O O4 0.960129 0.194202 0.941760
O O5 0.607573 0.500000 0.724535
O O6 0.609734 0.252395 0.663284
O O7 0.655536 0.263892 0.734712
O O8 0.075932 0.500000 0.657405
O O9 0.138460 0.287662 0.497609
O O10 0.944632 0.288440 0.788899
O O11 0.197289 0.500000 0.013131
O O12 0.250000 0.250000 0.000000
O O13 0.275442 0.500000 0.296543
#
# Coordination Sequence:
#
# PCOD8098757 Si02
#       5
#     8   8   8   8   8
#     4   9  17  30  49  72  96 123 155 188 223 267
#     4   9  16  27  46  71  98 129 159 183 214 263
#     4   9  18  31  47  69  95 123 156 191 227 270
#     4  10  20  35  53  69  87 116 155 196 237 280
#     4   9  16  28  47  71  99 127 154 185 221 266
#
# _framework density 17.541183
#
# number of rings (size 3 to 8) (size 9 to 14) (size 15 to 20)
#    0.000    2.800    0.000    1.800    0.000    3.200 
#    0.000    3.000    0.000   10.800    0.000    0.000 
#    0.000    0.000    0.000    0.000    0.000    0.000 
#
# Total GULP energy -247977.094955 kJ/mol
# GULP energy per Si atom -12398.854748 kJ/mol
# Density = 1.750126 g / cm^3
# Si number density = 17.541183 Si / 1000 Ang^3
#
#
#
# Elastic Constant Matrix: (Units=GPa)
#
#
# Indices 1 2 3 4 5 6 
#
# 1 149.4311 52.8971 79.0756 -0.0007 8.4967 0.0004
# 2 52.8971 51.3236 39.2373 -0.0031 5.4518 0.0021
# 3 79.0756 39.2373 128.6394 -0.0025 25.5963 0.0019
# 4 -0.0007 -0.0031 -0.0025 20.2294 0.0005 4.4772
# 5 8.4967 5.4518 25.5963 0.0005 22.7630 0.0001
# 6 0.0004 0.0021 0.0019 4.4772 0.0001 26.3349
#
#
#
# Elastic Compliance Matrix: (Units=1/GPa)
#
#
# Indices 1 2 3 4 5 6 
#
# 1 0.012813 -0.009128 -0.005894 -0.000002 0.004031 0.000001
# 2 -0.009128 0.032116 -0.004293 0.000005 0.000543 -0.000003
# 3 -0.005894 -0.004293 0.015541 0.000002 -0.014247 -0.000001
# 4 -0.000002 0.000005 0.000002 0.051366 -0.000003 -0.008733
# 5 0.004031 0.000543 -0.014247 -0.000003 0.058317 0.000001
# 6 0.000001 -0.000003 -0.000001 -0.008733 0.000001 0.039457
#
#
# Mechanical properties :
#
#
# Convention : Reuss Voigt Hill
#
# Bulk Modulus (GPa) = 45.78692 74.64603 60.21648
# Shear Modulus (GPa) = 19.56785 24.41107 21.98946
#
# Velocity S-wave (km/s) = 3.34359 3.73452 3.54445
# Velocity P-wave (km/s) = 6.40822 7.82577 7.15220
#
# Compressibility (1/GPa) = 0.02184030
#
# Stress axis : x y z
#
# Youngs Moduli (GPa) = 78.04466 31.13667 64.34483
#
# Poissons Ratio (x) = 0.28422 0.37927
# Poissons Ratio (y) = 0.71239 0.27623
# Poissons Ratio (z) = 0.46002 0.13367
#
# Static dielectric constant tensor:
#      x y z
#    x 3.240900 0.000000 0.115780 
#    y 0.000000 3.092220 0.000000 
#    z 0.115780 0.000000 3.464040 
# 
# 
# High freq. dielectric constant tensor:
#      x y z
#    x 1.669240 0.000000 0.006140 
#    y 0.000000 1.655760 0.000000 
#    z 0.006140 0.000000 1.682130 
# 
# From -- ./inp_files/151643.got.cif
#   From: 2010.06.25/outbox.cif.g09.slc.cpg/sg12_76_cif.got.tgz:151643.got - 2010.06.28 00:19:55.
