data_PCOD8098179
_publ_section_title
;
Structure prediction by ZEFSAII (Michael W. Deem and Ramdas Pophale) SiO2 
 PCOD8098179
Probable space group: C 2/M
;
_chemical_formula_sum "Si O2"
_cell_formula_units_Z 56
_cell_length_a 24.023817
_cell_length_b 8.826345
_cell_length_c 15.076832
_cell_angle_alpha 90.000000
_cell_angle_beta 120.024199
_cell_angle_gamma 90.000000
_cell_volume 2767.946457
_symmetry_space_group_name_H-M "C 2/M"
_symmetry_group_IT_number 12
_symmetry_cell_setting 'monoclinic'
loop_
_space_group_symop_operation_xyz
x,y,z
-x,y,-z
-x,-y,-z
x,-y,z
1/2+x,1/2+y,z
1/2-x,1/2+y,-z
1/2-x,1/2-y,-z
1/2+x,1/2-y,z
loop_
_atom_site_type_symbol
_atom_site_label
_atom_site_fract_x
_atom_site_fract_y
_atom_site_fract_z
Si Si1 0.309339 0.322763 0.309703
Si Si2 0.198468 0.670763 0.019772
Si Si3 0.820439 0.821607 0.811866
Si Si4 0.061446 0.179481 0.493190
Si Si5 0.987927 0.322512 0.711725
Si Si6 0.455326 0.179229 0.882659
Si Si7 0.871043 0.668537 0.205364
O O1 0.300602 0.500000 0.315333
O O2 0.243147 0.243571 0.288686
O O3 0.371547 0.260003 0.411687
O O4 0.321553 0.282336 0.215262
O O5 0.217705 0.500000 0.066761
O O6 0.182071 0.777976 0.087590
O O7 0.250000 0.750000 0.000000
O O8 0.136465 0.662614 0.906951
O O9 0.884972 0.751566 0.824331
O O10 0.821919 0.000000 0.800838
O O11 0.062219 0.236671 0.392005
O O12 0.000000 0.242353 0.500000
O O13 0.060694 0.000000 0.493870
O O14 0.974400 0.500000 0.695028
O O15 0.985155 0.270876 0.812052
O O16 0.056219 0.277258 0.723120
O O17 0.447386 0.000000 0.885876
O O18 0.500000 0.239297 0.000000
O O19 0.859153 0.500000 0.235349
#
# Coordination Sequence:
#
# PCOD8098179 Si02
#       7
#     8   8   8   8   8   8   8
#     4  11  22  37  59  85 119 161 201 246 305 365
#     4  11  21  34  54  83 119 157 198 244 300 364
#     4  12  25  40  59  87 123 162 205 256 309 364
#     4  10  21  38  59  89 125 162 202 251 310 365
#     4  10  21  37  62  92 119 157 203 251 307 363
#     4  10  22  44  69  91 121 162 207 254 304 367
#     4  10  20  34  55  86 121 154 194 244 300 363
#
# _framework density 20.231604000000001
#
# number of rings (size 3 to 8) (size 9 to 14) (size 15 to 20)
#    0.000    1.429    2.857    3.000    0.000    5.143 
#    0.000    2.143    0.000    0.000    0.000    0.000 
#    0.000    0.000    0.000    0.000    0.000    0.000 
#
# Total GULP energy -347110.692755 kJ/mol
# GULP energy per Si atom -12396.810456 kJ/mol
# Density = 2.018556 g / cm^3
# Si number density = 20.231604 Si / 1000 Ang^3
#
#
#
# Elastic Constant Matrix: (Units=GPa)
#
#
# Indices 1 2 3 4 5 6 
#
# 1 93.0207 35.8086 33.6476 0.0000 18.6487 0.0000
# 2 35.8086 47.3490 25.6760 0.0000 7.9559 0.0000
# 3 33.6476 25.6760 106.5924 0.0000 11.5783 0.0000
# 4 0.0000 0.0000 0.0000 28.6060 0.0000 -2.3053
# 5 18.6487 7.9559 11.5783 0.0000 35.2678 0.0000
# 6 0.0000 0.0000 0.0000 -2.3053 0.0000 29.2325
#
#
#
# Elastic Compliance Matrix: (Units=1/GPa)
#
#
# Indices 1 2 3 4 5 6 
#
# 1 0.016728 -0.010533 -0.002116 0.000000 -0.005775 0.000000
# 2 -0.010533 0.031398 -0.004224 0.000000 -0.000126 0.000000
# 3 -0.002116 -0.004224 0.011243 0.000000 -0.001619 0.000000
# 4 0.000000 0.000000 0.000000 0.035181 0.000000 0.002774
# 5 -0.005775 -0.000126 -0.001619 0.000000 0.031968 0.000000
# 6 0.000000 0.000000 0.000000 0.002774 0.000000 0.034427
#
#
# Mechanical properties :
#
#
# Convention : Reuss Voigt Hill
#
# Bulk Modulus (GPa) = 39.02967 48.58073 43.80520
# Shear Modulus (GPa) = 24.60224 28.74325 26.67275
#
# Velocity S-wave (km/s) = 3.49095 3.77332 3.63488
# Velocity P-wave (km/s) = 5.96509 6.56112 6.27019
#
# Compressibility (1/GPa) = 0.02562154
#
# Stress axis : x y z
#
# Youngs Moduli (GPa) = 59.77926 31.84935 88.94477
#
# Poissons Ratio (x) = 0.33548 0.18821
# Poissons Ratio (y) = 0.62967 0.37574
# Poissons Ratio (z) = 0.12649 0.13454
#
# Static dielectric constant tensor:
#      x y z
#    x 3.515790 0.000000 0.344330 
#    y 0.000000 3.500250 0.000000 
#    z 0.344330 0.000000 3.954480 
# 
# 
# High freq. dielectric constant tensor:
#      x y z
#    x 1.778630 0.000000 0.018820 
#    y 0.000000 1.781700 0.000000 
#    z 0.018820 0.000000 1.796970 
# 
# From -- ./inp_files/238898.got.cif
#   From: 2010.06.25/outbox.cif.g09.slc.cpg/sg12_120_cif.got.tgz:238898.got - 2010.06.28 00:19:55.
