data_PCOD8098267
_publ_section_title
;
Structure prediction by ZEFSAII (Michael W. Deem and Ramdas Pophale) SiO2 
 PCOD8098267
Probable space group: C 2/M
;
_chemical_formula_sum "Si O2"
_cell_formula_units_Z 56
_cell_length_a 25.004409
_cell_length_b 12.230285
_cell_length_c 9.424919
_cell_angle_alpha 90.000000
_cell_angle_beta 76.590997
_cell_angle_gamma 90.000000
_cell_volume 2803.672797
_symmetry_space_group_name_H-M "C 2/M"
_symmetry_group_IT_number 12
_symmetry_cell_setting 'monoclinic'
loop_
_space_group_symop_operation_xyz
x,y,z
-x,y,-z
-x,-y,-z
x,-y,z
1/2+x,1/2+y,z
1/2-x,1/2+y,-z
1/2-x,1/2-y,-z
1/2+x,1/2-y,z
loop_
_atom_site_type_symbol
_atom_site_label
_atom_site_fract_x
_atom_site_fract_y
_atom_site_fract_z
Si Si1 0.304040 0.260655 0.376757
Si Si2 0.254669 0.375736 0.154039
Si Si3 0.027825 0.212209 0.838052
Si Si4 0.121022 0.629528 0.860733
Si Si5 0.164135 0.766118 0.098030
Si Si6 0.061410 0.872213 0.297904
Si Si7 0.100460 0.119997 0.572943
O O1 0.250000 0.250000 0.500000
O O2 0.291779 0.353264 0.268561
O O3 0.328909 0.153783 0.280723
O O4 0.349047 0.297651 0.462916
O O5 0.236633 0.500000 0.160776
O O6 0.197563 0.308374 0.189265
O O7 0.291414 0.348113 0.995460
O O8 0.061390 0.325805 0.841137
O O9 0.071213 0.126322 0.745489
O O10 0.979582 0.215457 0.749986
O O11 0.000000 0.169158 0.000000
O O12 0.116117 0.500000 0.886004
O O13 0.133809 0.689441 0.001021
O O14 0.122118 0.843195 0.206816
O O15 0.058638 0.853632 0.469727
O O16 0.047387 0.000000 0.269718
O O17 0.124670 0.000000 0.536683
#
# Coordination Sequence:
#
# PCOD8098267 Si02
#       7
#     8   8   8   8   8   8   8
#     4  10  21  38  59  86 118 153 196 243 284 348
#     4  10  20  34  56  83 116 151 191 241 287 339
#     4  11  22  40  59  89 115 152 199 250 295 347
#     4  10  22  40  60  85 118 158 201 244 298 353
#     4  10  20  37  55  85 118 151 196 242 291 348
#     4  11  22  38  60  86 118 157 195 242 305 356
#     4  10  22  38  59  87 121 154 189 239 300 361
#
# _framework density 19.973800000000001
#
# number of rings (size 3 to 8) (size 9 to 14) (size 15 to 20)
#    0.000    1.714    1.429    3.000    0.000    3.714 
#    0.000    3.571    0.000    7.714    0.000    0.000 
#    0.000    0.000    0.000    0.000    0.000    0.000 
#
# Total GULP energy -346956.213593 kJ/mol
# GULP energy per Si atom -12391.293343 kJ/mol
# Density = 1.992834 g / cm^3
# Si number density = 19.973800 Si / 1000 Ang^3
#
#
#
# Elastic Constant Matrix: (Units=GPa)
#
#
# Indices 1 2 3 4 5 6 
#
# 1 102.1816 29.2409 25.0066 0.0000 2.4095 0.0000
# 2 29.2409 82.5576 27.4717 0.0000 10.3492 0.0000
# 3 25.0066 27.4717 92.5245 0.0000 -4.9968 0.0000
# 4 0.0000 0.0000 0.0000 16.8484 0.0000 2.3427
# 5 2.4095 10.3492 -4.9968 0.0000 36.2702 0.0000
# 6 0.0000 0.0000 0.0000 2.3427 0.0000 24.5099
#
#
#
# Elastic Compliance Matrix: (Units=1/GPa)
#
#
# Indices 1 2 3 4 5 6 
#
# 1 0.011233 -0.003279 -0.002068 0.000000 -0.000096 0.000000
# 2 -0.003279 0.015139 -0.003859 0.000000 -0.004634 0.000000
# 3 -0.002068 -0.003859 0.012674 0.000000 0.002985 0.000000
# 4 0.000000 0.000000 0.000000 0.060152 0.000000 -0.005749
# 5 -0.000096 -0.004634 0.002985 0.000000 0.029310 0.000000
# 6 0.000000 0.000000 0.000000 -0.005749 0.000000 0.041349
#
#
# Mechanical properties :
#
#
# Convention : Reuss Voigt Hill
#
# Bulk Modulus (GPa) = 48.46113 48.96690 48.71401
# Shear Modulus (GPa) = 25.62173 28.56200 27.09186
#
# Velocity S-wave (km/s) = 3.58546 3.78560 3.68689
# Velocity P-wave (km/s) = 6.43861 6.60882 6.52427
#
# Compressibility (1/GPa) = 0.02063510
#
# Stress axis : x y z
#
# Youngs Moduli (GPa) = 89.02365 66.05460 78.90314
#
# Poissons Ratio (x) = 0.21656 0.16314
# Poissons Ratio (y) = 0.29187 0.30450
# Poissons Ratio (z) = 0.18407 0.25491
#
# Static dielectric constant tensor:
#      x y z
#    x 4.064250 0.000000 0.157720 
#    y 0.000000 3.342330 0.000000 
#    z 0.157720 0.000000 3.911950 
# 
# 
# High freq. dielectric constant tensor:
#      x y z
#    x 1.798150 0.000000 0.001620 
#    y 0.000000 1.748190 0.000000 
#    z 0.001620 0.000000 1.783900 
# 
# From -- ./inp_files/103143.got.cif
#   From: 2010.06.25/outbox.cif.g09.slc.cpg/sg12_52_cif.got.tgz:103143.got - 2010.06.28 00:19:55.
