data_PCOD8098587
_publ_section_title
;
Structure prediction by ZEFSAII (Michael W. Deem and Ramdas Pophale) SiO2 
 PCOD8098587
Probable space group: C 2/M
;
_chemical_formula_sum "Si O2"
_cell_formula_units_Z 56
_cell_length_a 23.631920
_cell_length_b 8.568312
_cell_length_c 18.811236
_cell_angle_alpha 90.000000
_cell_angle_beta 128.391962
_cell_angle_gamma 90.000000
_cell_volume 2985.424662
_symmetry_space_group_name_H-M "C 2/M"
_symmetry_group_IT_number 12
_symmetry_cell_setting 'monoclinic'
loop_
_space_group_symop_operation_xyz
x,y,z
-x,y,-z
-x,-y,-z
x,-y,z
1/2+x,1/2+y,z
1/2-x,1/2+y,-z
1/2-x,1/2-y,-z
1/2+x,1/2-y,z
loop_
_atom_site_type_symbol
_atom_site_label
_atom_site_fract_x
_atom_site_fract_y
_atom_site_fract_z
Si Si1 0.511610 0.819984 0.141118
Si Si2 0.130175 0.815568 0.964236
Si Si3 0.815320 0.816465 0.595310
Si Si4 0.169480 0.679298 0.239292
Si Si5 0.972411 0.180261 0.696860
Si Si6 0.382223 0.182746 0.203214
Si Si7 0.744998 0.815925 0.156554
O O1 0.437922 0.761784 0.045255
O O2 0.584457 0.800838 0.151849
O O3 0.517676 0.702740 0.211632
O O4 0.502841 0.000000 0.159337
O O5 0.132995 0.744488 0.887669
O O6 0.122225 0.000000 0.953457
O O7 0.203231 0.771703 0.061161
O O8 0.750000 0.750000 0.500000
O O9 0.809504 0.768219 0.672795
O O10 0.890711 0.759785 0.617016
O O11 0.812433 0.000000 0.590246
O O12 0.187965 0.500000 0.268181
O O13 0.216025 0.744492 0.210087
O O14 0.035560 0.278465 0.707079
O O15 0.982219 0.000000 0.684158
O O16 0.328749 0.269919 0.215948
O O17 0.368309 0.000000 0.196088
O O18 0.733418 0.000000 0.139636
#
# Coordination Sequence:
#
# PCOD8098587 Si02
#       7
#     8   8   8   8   8   8   8
#     4   9  16  30  50  72  98 131 169 211 254 301
#     4  11  21  33  49  72 100 134 177 222 259 297
#     4  10  20  34  58  86 111 133 161 201 248 302
#     4   9  20  36  54  75 103 136 170 206 255 310
#     4   9  17  31  51  77 103 132 166 204 248 296
#     4  11  21  34  52  74 100 135 176 218 256 297
#     4  11  22  36  51  70 100 139 176 215 257 302
#
# _framework density 18.757798999999999
#
# number of rings (size 3 to 8) (size 9 to 14) (size 15 to 20)
#    0.000    2.000    0.000    6.429    0.000    4.000 
#    0.000    2.857    0.000    0.857    0.000    6.000 
#    0.000    0.000    0.000    0.000    0.000    0.000 
#
# Total GULP energy -347033.819518 kJ/mol
# GULP energy per Si atom -12394.064983 kJ/mol
# Density = 1.871511 g / cm^3
# Si number density = 18.757799 Si / 1000 Ang^3
#
#
#
# Elastic Constant Matrix: (Units=GPa)
#
#
# Indices 1 2 3 4 5 6 
#
# 1 139.8193 27.6365 45.2734 0.0000 19.8575 0.0000
# 2 27.6365 65.4132 21.1109 0.0000 3.5882 0.0000
# 3 45.2734 21.1109 52.2752 0.0000 21.3380 0.0000
# 4 0.0000 0.0000 0.0000 25.4260 0.0000 6.0712
# 5 19.8575 3.5882 21.3380 0.0000 25.7466 0.0000
# 6 0.0000 0.0000 0.0000 6.0712 0.0000 28.7958
#
#
#
# Elastic Compliance Matrix: (Units=1/GPa)
#
#
# Indices 1 2 3 4 5 6 
#
# 1 0.010124 -0.001783 -0.007498 0.000000 -0.001345 0.000000
# 2 -0.001783 0.018364 -0.008143 0.000000 0.005565 0.000000
# 3 -0.007498 -0.008143 0.039426 0.000000 -0.025757 0.000000
# 4 0.000000 0.000000 0.000000 0.041415 0.000000 -0.008732
# 5 -0.001345 0.005565 -0.025757 0.000000 0.060448 0.000000
# 6 0.000000 0.000000 0.000000 -0.008732 0.000000 0.036568
#
#
# Mechanical properties :
#
#
# Convention : Reuss Voigt Hill
#
# Bulk Modulus (GPa) = 30.24509 49.50547 39.87528
# Shear Modulus (GPa) = 19.82439 26.89281 23.35860
#
# Velocity S-wave (km/s) = 3.25447 3.79051 3.53267
# Velocity P-wave (km/s) = 5.50283 6.75326 6.15986
#
# Compressibility (1/GPa) = 0.03306322
#
# Stress axis : x y z
#
# Youngs Moduli (GPa) = 98.77922 54.45548 25.36428
#
# Poissons Ratio (x) = 0.09711 0.19019
# Poissons Ratio (y) = 0.17616 0.20654
# Poissons Ratio (z) = 0.74069 0.44343
#
# Static dielectric constant tensor:
#      x y z
#    x 3.926060 0.000000 0.482560 
#    y 0.000000 3.462120 0.000000 
#    z 0.482560 0.000000 3.173330 
# 
# 
# High freq. dielectric constant tensor:
#      x y z
#    x 1.736720 0.000000 0.032860 
#    y 0.000000 1.739610 0.000000 
#    z 0.032860 0.000000 1.683800 
# 
# From -- ./inp_files/288443.got.cif
#   From: 2010.06.25/outbox.cif.g09.slc.cpg/sg12_145_cif.got.tgz:288443.got - 2010.06.28 00:19:55.
