data_PCOD8098521
_publ_section_title
;
Structure prediction by ZEFSAII (Michael W. Deem and Ramdas Pophale) SiO2 
 PCOD8098521
Probable space group: C 2/M
;
_chemical_formula_sum "Si O2"
_cell_formula_units_Z 48
_cell_length_a 19.000418
_cell_length_b 20.250321
_cell_length_c 9.587914
_cell_angle_alpha 90.000000
_cell_angle_beta 40.146039
_cell_angle_gamma 90.000000
_cell_volume 2378.496440
_symmetry_space_group_name_H-M "C 2/M"
_symmetry_group_IT_number 12
_symmetry_cell_setting 'monoclinic'
loop_
_space_group_symop_operation_xyz
x,y,z
-x,y,-z
-x,-y,-z
x,-y,z
1/2+x,1/2+y,z
1/2-x,1/2+y,-z
1/2-x,1/2-y,-z
1/2+x,1/2-y,z
loop_
_atom_site_type_symbol
_atom_site_label
_atom_site_fract_x
_atom_site_fract_y
_atom_site_fract_z
Si Si1 0.620990 0.427846 0.756824
Si Si2 0.038204 0.196895 0.786343
Si Si3 0.603168 0.306410 0.250880
Si Si4 0.838261 0.659466 0.866592
Si Si5 0.328559 0.074936 0.610657
Si Si6 0.525823 0.157144 0.798774
O O1 0.644526 0.500000 0.648827
O O2 0.626564 0.364025 0.642155
O O3 0.700748 0.418298 0.767654
O O4 0.500000 0.427977 0.000000
O O5 0.080428 0.270451 0.681935
O O6 0.931766 0.181895 0.855429
O O7 0.000000 0.203794 0.000000
O O8 0.500000 0.329485 0.500000
O O9 0.635552 0.231293 0.236166
O O10 0.712947 0.348758 0.109614
O O11 0.861479 0.610446 0.703801
O O12 0.913759 0.645168 0.884484
O O13 0.388773 0.103585 0.383378
O O14 0.365128 0.000000 0.574882
O O15 0.500000 0.146182 0.000000
#
# Coordination Sequence:
#
# PCOD8098521 Si02
#       6
#     8   8   8   8   8   8
#     4   9  18  33  55  83 112 144 187 235 281 337
#     4   9  17  33  56  82 113 149 188 233 284 339
#     4  10  20  34  57  88 118 150 192 242 292 340
#     4  10  20  37  58  83 117 155 196 238 285 345
#     4  11  23  39  61  85 112 154 201 241 288 352
#     4  10  22  37  55  85 117 149 194 245 298 346
#
# _framework density 20.180817000000001
#
# number of rings (size 3 to 8) (size 9 to 14) (size 15 to 20)
#    0.000    2.167    0.000    4.500    0.000    5.000 
#    0.000    0.000    0.000    2.000    0.000    0.000 
#    0.000    0.000    0.000    0.000    0.000    0.000 
#
# Total GULP energy -297325.451192 kJ/mol
# GULP energy per Si atom -12388.560466 kJ/mol
# Density = 2.013488 g / cm^3
# Si number density = 20.180817 Si / 1000 Ang^3
#
#
#
# Elastic Constant Matrix: (Units=GPa)
#
#
# Indices 1 2 3 4 5 6 
#
# 1 131.5105 58.1257 43.1472 0.0000 15.7044 0.0000
# 2 58.1257 138.0158 29.9175 0.0000 15.6020 0.0000
# 3 43.1472 29.9175 93.4274 0.0000 4.6526 0.0000
# 4 0.0000 0.0000 0.0000 17.8181 0.0000 4.0696
# 5 15.7044 15.6020 4.6526 0.0000 20.1130 0.0000
# 6 0.0000 0.0000 0.0000 4.0696 0.0000 42.7392
#
#
#
# Elastic Compliance Matrix: (Units=1/GPa)
#
#
# Indices 1 2 3 4 5 6 
#
# 1 0.010848 -0.003178 -0.003736 0.000000 -0.005141 0.000000
# 2 -0.003178 0.009375 -0.001311 0.000000 -0.004488 0.000000
# 3 -0.003736 -0.001311 0.012800 0.000000 0.000973 0.000000
# 4 0.000000 0.000000 0.000000 0.057370 0.000000 -0.005463
# 5 -0.005141 -0.004488 0.000973 0.000000 0.056990 0.000000
# 6 0.000000 0.000000 0.000000 -0.005463 0.000000 0.023918
#
#
# Mechanical properties :
#
#
# Convention : Reuss Voigt Hill
#
# Bulk Modulus (GPa) = 60.33686 69.48161 64.90923
# Shear Modulus (GPa) = 25.86958 31.58494 28.72726
#
# Velocity S-wave (km/s) = 3.58423 3.96042 3.77701
# Velocity P-wave (km/s) = 6.86236 7.44430 7.15924
#
# Compressibility (1/GPa) = 0.01657362
#
# Stress axis : x y z
#
# Youngs Moduli (GPa) = 92.18082 106.66195 78.12215
#
# Poissons Ratio (x) = 0.33893 0.29190
# Poissons Ratio (y) = 0.29292 0.10243
# Poissons Ratio (z) = 0.34443 0.13985
#
# Static dielectric constant tensor:
#      x y z
#    x 3.855270 0.000000 -0.117030 
#    y 0.000000 4.989940 0.000000 
#    z -0.117030 0.000000 3.305810 
# 
# 
# High freq. dielectric constant tensor:
#      x y z
#    x 1.804680 0.000000 -0.006780 
#    y 0.000000 1.786420 0.000000 
#    z -0.006780 0.000000 1.750410 
# 
# From -- ./inp_files/77270.got.cif
#   From: 2010.06.25/outbox.cif.g09.slc.cpg/sg12_39_cif.got.tgz:77270.got - 2010.06.28 00:19:55.
