data_PCOD8098305
_publ_section_title
;
Structure prediction by ZEFSAII (Michael W. Deem and Ramdas Pophale) SiO2 
 PCOD8098305
Probable space group: C 2/M
;
_chemical_formula_sum "Si O2"
_cell_formula_units_Z 64
_cell_length_a 32.287998
_cell_length_b 9.044327
_cell_length_c 20.426146
_cell_angle_alpha 90.000000
_cell_angle_beta 34.176637
_cell_angle_gamma 90.000000
_cell_volume 3350.764115
_symmetry_space_group_name_H-M "C 2/M"
_symmetry_group_IT_number 12
_symmetry_cell_setting 'monoclinic'
loop_
_space_group_symop_operation_xyz
x,y,z
-x,y,-z
-x,-y,-z
x,-y,z
1/2+x,1/2+y,z
1/2-x,1/2+y,-z
1/2-x,1/2-y,-z
1/2+x,1/2-y,z
loop_
_atom_site_type_symbol
_atom_site_label
_atom_site_fract_x
_atom_site_fract_y
_atom_site_fract_z
Si Si1 0.166001 0.829598 0.444240
Si Si2 0.139301 0.327918 0.160375
Si Si3 0.501822 0.332779 0.669652
Si Si4 0.455096 0.170480 0.994957
Si Si5 0.708412 0.831310 0.821540
Si Si6 0.680586 0.174843 0.559202
Si Si7 0.721248 0.672598 0.939834
Si Si8 0.965620 0.827002 0.223220
O O1 0.221936 0.788095 0.313760
O O2 0.180895 0.716982 0.482928
O O3 0.081400 0.807187 0.531513
O O4 0.176811 0.000000 0.453786
O O5 0.137066 0.500000 0.149184
O O6 0.058115 0.271894 0.286981
O O7 0.196194 0.288274 0.143898
O O8 0.161669 0.249750 0.063795
O O9 0.475453 0.500000 0.693792
O O10 0.505297 0.294507 0.742082
O O11 0.475362 0.269585 0.906113
O O12 0.474973 0.000000 0.954398
O O13 0.500000 0.225943 0.000000
O O14 0.367201 0.190714 0.120765
O O15 0.710231 0.725148 0.880876
O O16 0.714999 0.000000 0.837221
O O17 0.750000 0.250000 0.500000
O O18 0.609600 0.237648 0.689829
O O19 0.683501 0.000000 0.564070
O O20 0.705231 0.500000 0.964206
O O21 0.950602 0.000000 0.232496
#
# Coordination Sequence:
#
# PCOD8098305 Si02
#       8
#     8   8   8   8   8   8   8   8
#     4   9  20  38  57  81 110 146 189 230 273 330
#     4  10  20  34  56  84 113 143 184 231 277 332
#     4   9  18  34  56  81 111 143 180 230 279 323
#     4  10  22  37  54  81 111 145 184 226 280 336
#     4  10  21  38  59  80 111 150 187 226 274 336
#     4  11  22  36  57  82 108 142 183 232 282 329
#     4  10  21  36  55  83 114 146 183 228 279 331
#     4  10  21  37  55  80 110 142 183 229 275 328
#
# _framework density 19.100121000000001
#
# number of rings (size 3 to 8) (size 9 to 14) (size 15 to 20)
#    0.000    2.125    0.000    3.750    1.750    7.250 
#    0.000    0.625    0.000    3.750    0.000    0.000 
#    0.000    0.000    0.000    0.000    0.000    0.000 
#
# Total GULP energy -396861.702806 kJ/mol
# GULP energy per Si atom -12401.928213 kJ/mol
# Density = 1.905665 g / cm^3
# Si number density = 19.100121 Si / 1000 Ang^3
#
#
#
# Elastic Constant Matrix: (Units=GPa)
#
#
# Indices 1 2 3 4 5 6 
#
# 1 84.5195 36.0132 44.3605 -0.0008 -20.4283 0.0014
# 2 36.0132 85.1653 33.6980 -0.0020 -13.0566 0.0068
# 3 44.3605 33.6980 103.4875 -0.0130 -15.3448 0.0075
# 4 -0.0008 -0.0020 -0.0130 27.7746 0.0053 -3.2422
# 5 -20.4283 -13.0566 -15.3448 0.0053 30.2257 -0.0081
# 6 0.0014 0.0068 0.0075 -3.2422 -0.0081 33.1765
#
#
#
# Elastic Compliance Matrix: (Units=1/GPa)
#
#
# Indices 1 2 3 4 5 6 
#
# 1 0.018402 -0.004500 -0.005263 -0.000003 0.007821 0.000003
# 2 -0.004500 0.015015 -0.002649 -0.000001 0.002100 -0.000002
# 3 -0.005263 -0.002649 0.013068 0.000005 0.001933 -0.000001
# 4 -0.000003 -0.000001 0.000005 0.036420 -0.000006 0.003559
# 5 0.007821 0.002100 0.001933 -0.000006 0.040259 0.000008
# 6 0.000003 -0.000002 -0.000001 0.003559 0.000008 0.030490
#
#
# Mechanical properties :
#
#
# Convention : Reuss Voigt Hill
#
# Bulk Modulus (GPa) = 46.16578 55.70173 50.93375
# Shear Modulus (GPa) = 26.92565 28.84208 27.88386
#
# Velocity S-wave (km/s) = 3.75868 3.89015 3.82498
# Velocity P-wave (km/s) = 6.56200 7.02880 6.79941
#
# Compressibility (1/GPa) = 0.02166107
#
# Stress axis : x y z
#
# Youngs Moduli (GPa) = 54.34299 66.60127 76.52165
#
# Poissons Ratio (x) = 0.29969 0.40273
# Poissons Ratio (y) = 0.24453 0.20270
# Poissons Ratio (z) = 0.28601 0.17642
#
# Static dielectric constant tensor:
#      x y z
#    x 3.728680 -0.000020 -0.360330 
#    y -0.000020 3.460810 0.000060 
#    z -0.360330 0.000060 3.640470 
# 
# 
# High freq. dielectric constant tensor:
#      x y z
#    x 1.736050 0.000000 -0.022350 
#    y 0.000000 1.745630 0.000000 
#    z -0.022350 0.000000 1.740440 
# 
# From -- ./inp_files/295458.got.cif
#   From: 2010.06.25/outbox.cif.g09.slc.cpg/sg12_148_cif.got.tgz:295458.got - 2010.06.28 00:19:55.
