data_PCOD8098674
_publ_section_title
;
Structure prediction by ZEFSAII (Michael W. Deem and Ramdas Pophale) SiO2 
 PCOD8098674
Probable space group: C 2/M
;
_chemical_formula_sum "Si O2"
_cell_formula_units_Z 52
_cell_length_a 8.680478
_cell_length_b 23.901869
_cell_length_c 15.203189
_cell_angle_alpha 90.000000
_cell_angle_beta 123.501720
_cell_angle_gamma 90.000000
_cell_volume 2630.317397
_symmetry_space_group_name_H-M "C 2/M"
_symmetry_group_IT_number 12
_symmetry_cell_setting 'monoclinic'
loop_
_space_group_symop_operation_xyz
x,y,z
-x,y,-z
-x,-y,-z
x,-y,z
1/2+x,1/2+y,z
1/2-x,1/2+y,-z
1/2-x,1/2-y,-z
1/2+x,1/2-y,z
loop_
_atom_site_type_symbol
_atom_site_label
_atom_site_fract_x
_atom_site_fract_y
_atom_site_fract_z
Si Si1 0.123257 0.000000 0.950867
Si Si2 0.200183 0.000000 0.610515
Si Si3 0.182542 0.879381 0.998415
Si Si4 0.461134 0.307828 0.802411
Si Si5 0.278231 0.610129 0.623005
Si Si6 0.916439 0.607599 0.613363
Si Si7 0.904857 0.685881 0.200580
Si Si8 0.503494 0.500000 0.287491
O O1 0.012805 0.000000 0.823275
O O2 0.241929 0.942629 0.988980
O O3 0.000000 0.000000 0.000000
O O4 0.319814 0.946419 0.622394
O O5 0.182709 0.000000 0.711861
O O6 0.000000 0.000000 0.500000
O O7 0.359022 0.852431 0.101620
O O8 0.000000 0.883273 0.000000
O O9 0.132119 0.841618 0.898453
O O10 0.407828 0.339348 0.695924
O O11 0.284842 0.305330 0.808748
O O12 0.520008 0.245103 0.804488
O O13 0.199349 0.631341 0.505222
O O14 0.390615 0.554040 0.644343
O O15 0.122183 0.593365 0.644798
O O16 0.934868 0.655925 0.692406
#
# Coordination Sequence:
#
# PCOD8098674 Si02
#       8
#     4   4   8   8   8   8   8   4
#     4  10  20  34  61  95 116 150 199 250 297 346
#     4  12  23  38  60  90 129 161 189 243 315 372
#     4   9  18  35  59  88 115 148 198 246 295 350
#     4  10  20  37  58  86 116 157 204 248 293 349
#     4  10  20  37  63  87 118 157 209 248 283 359
#     4  10  22  39  57  89 123 158 198 244 302 359
#     4  10  22  37  59  85 117 158 199 248 298 352
#     4  12  21  36  62  94 118 156 197 247 301 361
#
# _framework density 19.769476000000001
#
# number of rings (size 3 to 8) (size 9 to 14) (size 15 to 20)
#    0.000    1.846    3.077    0.923    2.154    3.692 
#    0.000    0.000    0.000    0.923    0.000    0.000 
#    0.000    0.000    0.000    0.000    0.000    0.000 
#
# Total GULP energy -322293.863589 kJ/mol
# GULP energy per Si atom -12395.917830 kJ/mol
# Density = 1.972448 g / cm^3
# Si number density = 19.769476 Si / 1000 Ang^3
#
#
#
# Elastic Constant Matrix: (Units=GPa)
#
#
# Indices 1 2 3 4 5 6 
#
# 1 44.3720 36.6070 38.0709 0.0000 -7.1012 0.0000
# 2 36.6070 199.7960 92.2851 0.0000 2.9016 0.0000
# 3 38.0709 92.2851 156.0018 0.0000 -13.0917 0.0000
# 4 0.0000 0.0000 0.0000 -24.6194 0.0000 25.4663
# 5 -7.1012 2.9016 -13.0917 0.0000 20.2552 0.0000
# 6 0.0000 0.0000 0.0000 25.4663 0.0000 19.4064
#
#
#
# Elastic Compliance Matrix: (Units=1/GPa)
#
#
# Indices 1 2 3 4 5 6 
#
# 1 0.030876 -0.003604 -0.004707 0.000000 0.008299 0.000000
# 2 -0.003604 0.007600 -0.004033 0.000000 -0.004959 0.000000
# 3 -0.004707 -0.004033 0.010420 0.000000 0.005662 0.000000
# 4 0.000000 0.000000 0.000000 -0.017230 0.000000 0.022610
# 5 0.008299 -0.004959 0.005662 0.000000 0.056650 0.000000
# 6 0.000000 0.000000 0.000000 0.022610 0.000000 0.021859
#
#
# Mechanical properties :
#
#
# Convention : Reuss Voigt Hill
#
# Bulk Modulus (GPa) = 41.30572 81.56617 61.43595
# Shear Modulus (GPa) = 34.98213 18.55555 26.76884
#
# Velocity S-wave (km/s) = 4.21111 3.06697 3.68373
# Velocity P-wave (km/s) = 6.67710 7.34098 7.01689
#
# Compressibility (1/GPa) = 0.02420972
#
# Stress axis : x y z
#
# Youngs Moduli (GPa) = 32.38722 131.57853 95.97337
#
# Poissons Ratio (x) = 0.47416 0.45173
# Poissons Ratio (y) = 0.11671 0.38702
# Poissons Ratio (z) = 0.15244 0.53060
#
# Static dielectric constant tensor:
#      x y z
#    x 3.407500 0.000000 -0.169440 
#    y 0.000000 3.860190 0.000000 
#    z -0.169440 0.000000 3.883660 
# 
# 
# High freq. dielectric constant tensor:
#      x y z
#    x 1.742940 0.000000 -0.013370 
#    y 0.000000 1.779740 0.000000 
#    z -0.013370 0.000000 1.780180 
# 
# From -- ./inp_files/258575.got.cif
#   From: 2010.06.25/outbox.cif.g09.slc.cpg/sg12_130_cif.got.tgz:258575.got - 2010.06.28 00:19:55.
