data_PCOD8098552
_publ_section_title
;
Structure prediction by ZEFSAII (Michael W. Deem and Ramdas Pophale) SiO2 
 PCOD8098552
Probable space group: C 2/M
;
_chemical_formula_sum "Si O2"
_cell_formula_units_Z 64
_cell_length_a 18.576302
_cell_length_b 13.803281
_cell_length_c 16.468167
_cell_angle_alpha 90.000000
_cell_angle_beta 135.136713
_cell_angle_gamma 90.000000
_cell_volume 2978.743540
_symmetry_space_group_name_H-M "C 2/M"
_symmetry_group_IT_number 12
_symmetry_cell_setting 'monoclinic'
loop_
_space_group_symop_operation_xyz
x,y,z
-x,y,-z
-x,-y,-z
x,-y,z
1/2+x,1/2+y,z
1/2-x,1/2+y,-z
1/2-x,1/2-y,-z
1/2+x,1/2-y,z
loop_
_atom_site_type_symbol
_atom_site_label
_atom_site_fract_x
_atom_site_fract_y
_atom_site_fract_z
Si Si1 0.791101 0.888720 0.966195
Si Si2 0.310248 0.209518 0.701484
Si Si3 0.897751 0.391442 0.456219
Si Si4 0.308571 0.606004 0.795088
Si Si5 0.998907 0.389116 0.090817
Si Si6 0.101064 0.271382 0.858896
Si Si7 0.391479 0.246552 0.598995
Si Si8 0.602785 0.613498 0.531875
O O1 0.836357 0.884268 0.911718
O O2 0.687048 0.827959 0.878114
O O3 0.773395 0.000000 0.978972
O O4 0.866599 0.838584 0.092123
O O5 0.356474 0.304368 0.784009
O O6 0.389549 0.123260 0.779931
O O7 0.305380 0.236107 0.601042
O O8 0.199587 0.173766 0.645970
O O9 0.919675 0.500000 0.505028
O O10 0.812779 0.389850 0.318215
O O11 0.862170 0.328756 0.504488
O O12 0.000000 0.345496 0.500000
O O13 0.349544 0.500000 0.797338
O O14 0.965824 0.500000 0.070524
O O15 0.913635 0.327003 0.068060
O O16 0.000000 0.352233 0.000000
O O17 0.000140 0.276344 0.725128
O O18 0.403917 0.352984 0.567830
O O19 0.500000 0.638529 0.500000
O O20 0.626170 0.500000 0.553673
#
# Coordination Sequence:
#
# PCOD8098552 Si02
#       8
#     8   8   8   8   8   8   8   8
#     4  10  21  39  61  91 124 158 204 254 311 373
#     4  11  23  40  63  89 123 164 207 257 318 369
#     4  10  20  34  57  90 119 152 195 247 310 367
#     4  10  21  36  59  86 116 153 197 251 306 365
#     4  10  21  39  61  88 120 158 211 260 302 361
#     4  10  22  37  62  89 120 164 199 256 313 363
#     4  11  23  39  60  89 123 161 203 261 309 365
#     4  11  25  42  60  86 124 169 210 252 306 378
#
# _framework density 21.485569000000002
#
# number of rings (size 3 to 8) (size 9 to 14) (size 15 to 20)
#    0.000    1.625    1.250    3.000    1.750    5.000 
#    0.000    1.875    0.000    6.750    0.000    0.000 
#    0.000    0.000    0.000    0.000    0.000    0.000 
#
# Total GULP energy -396703.641599 kJ/mol
# GULP energy per Si atom -12396.988800 kJ/mol
# Density = 2.143667 g / cm^3
# Si number density = 21.485569 Si / 1000 Ang^3
#
#
#
# Elastic Constant Matrix: (Units=GPa)
#
#
# Indices 1 2 3 4 5 6 
#
# 1 90.2219 30.5054 3.8473 0.0000 -6.3758 0.0000
# 2 30.5054 130.4542 18.4263 0.0000 -15.7084 0.0000
# 3 3.8473 18.4263 53.1932 0.0000 -10.6011 0.0000
# 4 0.0000 0.0000 0.0000 24.8769 0.0000 -4.0980
# 5 -6.3758 -15.7084 -10.6011 0.0000 30.8201 0.0000
# 6 0.0000 0.0000 0.0000 -4.0980 0.0000 24.8266
#
#
#
# Elastic Compliance Matrix: (Units=1/GPa)
#
#
# Indices 1 2 3 4 5 6 
#
# 1 0.012077 -0.002721 0.000312 0.000000 0.001219 0.000000
# 2 -0.002721 0.009015 -0.002279 0.000000 0.003248 0.000000
# 3 0.000312 -0.002279 0.020771 0.000000 0.006048 0.000000
# 4 0.000000 0.000000 0.000000 0.041321 0.000000 0.006821
# 5 0.001219 0.003248 0.006048 0.000000 0.036434 0.000000
# 6 0.000000 0.000000 0.000000 0.006821 0.000000 0.041405
#
#
# Mechanical properties :
#
#
# Convention : Reuss Voigt Hill
#
# Bulk Modulus (GPa) = 30.78137 42.15858 36.46997
# Shear Modulus (GPa) = 27.58943 30.84408 29.21676
#
# Velocity S-wave (km/s) = 3.58731 3.79300 3.69159
# Velocity P-wave (km/s) = 5.61391 6.23273 5.93140
#
# Compressibility (1/GPa) = 0.03248719
#
# Stress axis : x y z
#
# Youngs Moduli (GPa) = 82.80393 110.92828 48.14297
#
# Poissons Ratio (x) = 0.30188 -0.01502
# Poissons Ratio (y) = 0.22534 0.10970
# Poissons Ratio (z) = -0.02584 0.25277
#
# Static dielectric constant tensor:
#      x y z
#    x 3.838420 0.000000 -0.039870 
#    y 0.000000 4.072880 0.000000 
#    z -0.039870 0.000000 3.762690 
# 
# 
# High freq. dielectric constant tensor:
#      x y z
#    x 1.836960 0.000000 0.003530 
#    y 0.000000 1.854030 0.000000 
#    z 0.003530 0.000000 1.841330 
# 
# From -- ./inp_files/225749.got.cif
#   From: 2010.06.25/outbox.cif.g09.slc.cpg/sg12_113_cif.got.tgz:225749.got - 2010.06.28 00:19:55.
