data_PCOD8098107
_publ_section_title
;
Structure prediction by ZEFSAII (Michael W. Deem and Ramdas Pophale) SiO2 
 PCOD8098107
Probable space group: C 2/M
;
_chemical_formula_sum "Si O2"
_cell_formula_units_Z 64
_cell_length_a 24.331277
_cell_length_b 9.027016
_cell_length_c 30.994599
_cell_angle_alpha 90.000000
_cell_angle_beta 151.389779
_cell_angle_gamma 90.000000
_cell_volume 3259.817183
_symmetry_space_group_name_H-M "C 2/M"
_symmetry_group_IT_number 12
_symmetry_cell_setting 'monoclinic'
loop_
_space_group_symop_operation_xyz
x,y,z
-x,y,-z
-x,-y,-z
x,-y,z
1/2+x,1/2+y,z
1/2-x,1/2+y,-z
1/2-x,1/2-y,-z
1/2+x,1/2-y,z
loop_
_atom_site_type_symbol
_atom_site_label
_atom_site_fract_x
_atom_site_fract_y
_atom_site_fract_z
Si Si1 0.971550 0.825121 0.431423
Si Si2 0.247685 0.323875 0.762371
Si Si3 0.198279 0.172165 0.106325
Si Si4 0.612172 0.334990 0.369801
Si Si5 0.819844 0.165829 0.484413
Si Si6 0.627129 0.675379 0.915044
Si Si7 0.086986 0.671101 0.803013
Si Si8 0.000727 0.175668 0.088539
O O1 0.855362 0.749026 0.335033
O O2 0.000000 0.776700 0.500000
O O3 0.076490 0.772089 0.473409
O O4 0.953319 0.000000 0.415276
O O5 0.229587 0.500000 0.748653
O O6 0.255760 0.259315 0.817002
O O7 0.367592 0.273762 0.823288
O O8 0.287281 0.201025 0.129172
O O9 0.183330 0.000000 0.106038
O O10 0.076087 0.236585 0.004912
O O11 0.579742 0.500000 0.331598
O O12 0.711241 0.274751 0.405840
O O13 0.647347 0.339158 0.443314
O O14 0.505455 0.223005 0.295656
O O15 0.786552 0.000000 0.445779
O O16 0.642658 0.500000 0.926879
O O17 0.562527 0.728024 0.827677
O O18 0.552020 0.734516 0.903193
O O19 0.750000 0.750000 0.000000
O O20 0.070307 0.500000 0.803171
O O21 0.992113 0.000000 0.081263
#
# Coordination Sequence:
#
# PCOD8098107 Si02
#       8
#     8   8   8   8   8   8   8   8
#     4  10  22  40  59  78 109 149 183 223 280 341
#     4  10  20  35  60  87 108 139 185 235 277 321
#     4   9  17  32  56  84 112 145 184 225 273 325
#     4  10  20  34  55  84 112 140 180 233 281 325
#     4   9  19  37  58  79 108 145 182 224 280 337
#     4  11  21  36  55  77 109 147 186 225 268 319
#     4  11  21  34  54  81 113 149 187 224 269 330
#     4   9  18  34  56  83 114 145 183 228 273 324
#
# _framework density 19.633002000000001
#
# number of rings (size 3 to 8) (size 9 to 14) (size 15 to 20)
#    0.000    2.125    1.250    2.250    0.000    3.750 
#    0.000    4.375    0.000    0.750    0.000    0.000 
#    0.000    0.000    0.000    0.000    0.000    0.000 
#
# Total GULP energy -396689.796966 kJ/mol
# GULP energy per Si atom -12396.556155 kJ/mol
# Density = 1.958832 g / cm^3
# Si number density = 19.633002 Si / 1000 Ang^3
#
#
#
# Elastic Constant Matrix: (Units=GPa)
#
#
# Indices 1 2 3 4 5 6 
#
# 1 113.4383 42.9397 35.8834 -0.0017 1.2923 -0.0008
# 2 42.9397 54.7860 37.4633 -0.0006 6.4357 -0.0040
# 3 35.8834 37.4633 84.7087 -0.0060 4.4952 -0.0011
# 4 -0.0017 -0.0006 -0.0060 33.7982 -0.0012 1.3664
# 5 1.2923 6.4357 4.4952 -0.0012 29.0287 0.0002
# 6 -0.0008 -0.0040 -0.0011 1.3664 0.0002 23.4288
#
#
#
# Elastic Compliance Matrix: (Units=1/GPa)
#
#
# Indices 1 2 3 4 5 6 
#
# 1 0.012729 -0.009213 -0.001407 0.000000 0.001694 -0.000001
# 2 -0.009213 0.033313 -0.010547 -0.000002 -0.005342 0.000005
# 3 -0.001407 -0.010547 0.017079 0.000003 -0.000244 -0.000001
# 4 0.000000 -0.000002 0.000003 0.029657 0.000001 -0.001730
# 5 0.001694 -0.005342 -0.000244 0.000001 0.035595 -0.000001
# 6 -0.000001 0.000005 -0.000001 -0.001730 -0.000001 0.042783
#
#
# Mechanical properties :
#
#
# Convention : Reuss Voigt Hill
#
# Bulk Modulus (GPa) = 48.10878 53.94511 51.02694
# Shear Modulus (GPa) = 22.68393 26.36091 24.52242
#
# Velocity S-wave (km/s) = 3.40280 3.66824 3.53801
# Velocity P-wave (km/s) = 6.32424 6.74372 6.53734
#
# Compressibility (1/GPa) = 0.02078623
#
# Stress axis : x y z
#
# Youngs Moduli (GPa) = 78.56311 30.01787 58.55214
#
# Poissons Ratio (x) = 0.27655 0.08240
# Poissons Ratio (y) = 0.72380 0.61755
# Poissons Ratio (z) = 0.11056 0.31660
#
# Static dielectric constant tensor:
#      x y z
#    x 3.796230 0.000000 -0.024960 
#    y 0.000000 3.406640 0.000000 
#    z -0.024960 0.000000 3.690390 
# 
# 
# High freq. dielectric constant tensor:
#      x y z
#    x 1.771640 0.000000 0.002400 
#    y 0.000000 1.735340 0.000000 
#    z 0.002400 0.000000 1.771520 
# 
# From -- ./inp_files/382451.got.cif
#   From: 2010.06.25/outbox.cif.g09.slc.cpg/sg12_192_cif.got.tgz:382451.got - 2010.06.28 00:19:55.
