data_PCOD8098646
_publ_section_title
;
Structure prediction by ZEFSAII (Michael W. Deem and Ramdas Pophale) SiO2 
 PCOD8098646
Probable space group: C 2/M
;
_chemical_formula_sum "Si O2"
_cell_formula_units_Z 64
_cell_length_a 8.695531
_cell_length_b 18.114742
_cell_length_c 28.182235
_cell_angle_alpha 90.000000
_cell_angle_beta 138.497485
_cell_angle_gamma 90.000000
_cell_volume 2941.641953
_symmetry_space_group_name_H-M "C 2/M"
_symmetry_group_IT_number 12
_symmetry_cell_setting 'monoclinic'
loop_
_space_group_symop_operation_xyz
x,y,z
-x,y,-z
-x,-y,-z
x,-y,z
1/2+x,1/2+y,z
1/2-x,1/2+y,-z
1/2-x,1/2-y,-z
1/2+x,1/2-y,z
loop_
_atom_site_type_symbol
_atom_site_label
_atom_site_fract_x
_atom_site_fract_y
_atom_site_fract_z
Si Si1 0.252800 0.703629 0.080636
Si Si2 0.608311 0.417612 0.954108
Si Si3 0.982300 0.206717 0.227171
Si Si4 0.134493 0.412903 0.483538
Si Si5 0.293203 0.151091 0.752434
Si Si6 0.601151 0.662197 0.614775
Si Si7 0.978081 0.322882 0.361176
Si Si8 0.844707 0.373758 0.095701
O O1 0.409139 0.643029 0.090731
O O2 0.282072 0.681997 0.143133
O O3 0.354098 0.784697 0.094468
O O4 0.000000 0.699078 0.000000
O O5 0.620430 0.500000 0.935417
O O6 0.381370 0.406635 0.932483
O O7 0.838287 0.404700 0.040407
O O8 0.897876 0.195595 0.261370
O O9 0.021158 0.293471 0.228414
O O10 0.229029 0.164364 0.277599
O O11 0.158252 0.500000 0.485660
O O12 0.390035 0.377848 0.540471
O O13 0.000000 0.388416 0.500000
O O14 0.994933 0.384349 0.405863
O O15 0.171729 0.113498 0.678498
O O16 0.434094 0.098148 0.821729
O O17 0.520491 0.742476 0.614075
O O18 0.812446 0.668365 0.627130
#
# Coordination Sequence:
#
# PCOD8098646 Si02
#       8
#     8   8   8   8   8   8   8   8
#     4  11  22  35  63  90 120 160 216 268 317 379
#     4  11  23  39  57  86 124 162 208 261 325 387
#     4  10  21  34  58  91 129 156 208 260 320 361
#     4  11  24  43  66  91 126 165 207 255 309 375
#     4  10  20  34  59  91 124 159 201 264 307 369
#     4  11  22  38  65  96 127 162 209 255 313 363
#     4  11  22  39  64  93 130 167 203 260 308 375
#     4  10  21  35  64  84 120 158 216 258 315 378
#
# _framework density 21.756557999999998
#
# number of rings (size 3 to 8) (size 9 to 14) (size 15 to 20)
#    0.000    1.375    1.250    7.125    8.750    1.250 
#    0.000    1.875    0.000    3.750    0.000    0.000 
#    0.000    0.000    0.000    0.000    0.000    0.000 
#
# Total GULP energy -396547.529562 kJ/mol
# GULP energy per Si atom -12392.110299 kJ/mol
# Density = 2.170704 g / cm^3
# Si number density = 21.756558 Si / 1000 Ang^3
#
#
#
# Elastic Constant Matrix: (Units=GPa)
#
#
# Indices 1 2 3 4 5 6 
#
# 1 82.7885 21.9890 18.5850 0.0003 -11.4405 0.0003
# 2 21.9890 80.5294 20.9544 -0.0002 -1.8108 -0.0002
# 3 18.5850 20.9544 129.0882 0.0000 -1.3227 0.0001
# 4 0.0003 -0.0002 0.0000 -11.4154 0.0002 -34.2663
# 5 -11.4405 -1.8108 -1.3227 0.0002 33.0074 0.0003
# 6 0.0003 -0.0002 0.0001 -34.2663 0.0003 -19.1565
#
#
#
# Elastic Compliance Matrix: (Units=1/GPa)
#
#
# Indices 1 2 3 4 5 6 
#
# 1 0.013914 -0.003328 -0.001416 0.000000 0.004583 0.000000
# 2 -0.003328 0.013774 -0.001762 0.000000 -0.000468 0.000000
# 3 -0.001416 -0.001762 0.008234 0.000000 -0.000258 0.000000
# 4 0.000000 0.000000 0.000000 0.020049 0.000000 -0.035862
# 5 0.004583 -0.000468 -0.000258 0.000000 0.031849 0.000000
# 6 0.000000 0.000000 0.000000 -0.035862 0.000000 0.011947
#
#
# Mechanical properties :
#
#
# Convention : Reuss Voigt Hill
#
# Bulk Modulus (GPa) = 43.64659 46.16256 44.90457
# Shear Modulus (GPa) = 41.52308 15.87895 28.70101
#
# Velocity S-wave (km/s) = 4.37341 2.70450 3.63600
# Velocity P-wave (km/s) = 6.75331 5.56922 6.18965
#
# Compressibility (1/GPa) = 0.02291130
#
# Stress axis : x y z
#
# Youngs Moduli (GPa) = 71.86940 72.59870 121.45002
#
# Poissons Ratio (x) = 0.24159 0.17198
# Poissons Ratio (y) = 0.23917 0.21395
# Poissons Ratio (z) = 0.10177 0.12789
#
# Static dielectric constant tensor:
#      x y z
#    x 3.954570 0.000000 -0.189330 
#    y 0.000000 3.550880 0.000000 
#    z -0.189330 0.000000 4.636270 
# 
# 
# High freq. dielectric constant tensor:
#      x y z
#    x 1.861630 0.000000 -0.006320 
#    y 0.000000 1.805360 0.000000 
#    z -0.006320 0.000000 1.876970 
# 
# From -- ./inp_files/372970.got.cif
#   From: 2010.06.25/outbox.cif.g09.slc.cpg/sg12_187_cif.got.tgz:372970.got - 2010.06.28 00:19:55.
