data_PCOD8098627
_publ_section_title
;
Structure prediction by ZEFSAII (Michael W. Deem and Ramdas Pophale) SiO2 
 PCOD8098627
Probable space group: C 2/M
;
_chemical_formula_sum "Si O2"
_cell_formula_units_Z 60
_cell_length_a 17.116319
_cell_length_b 15.481885
_cell_length_c 11.445979
_cell_angle_alpha 90.000000
_cell_angle_beta 63.320597
_cell_angle_gamma 90.000000
_cell_volume 2710.177151
_symmetry_space_group_name_H-M "C 2/M"
_symmetry_group_IT_number 12
_symmetry_cell_setting 'monoclinic'
loop_
_space_group_symop_operation_xyz
x,y,z
-x,y,-z
-x,-y,-z
x,-y,z
1/2+x,1/2+y,z
1/2-x,1/2+y,-z
1/2-x,1/2-y,-z
1/2+x,1/2-y,z
loop_
_atom_site_type_symbol
_atom_site_label
_atom_site_fract_x
_atom_site_fract_y
_atom_site_fract_z
Si Si1 0.500000 0.211511 0.500000
Si Si2 0.294418 0.597983 0.556655
Si Si3 0.427842 0.731772 0.779452
Si Si4 0.851367 0.400794 0.522084
Si Si5 0.781232 0.141499 0.194667
Si Si6 0.349136 0.904855 0.910281
Si Si7 0.573528 0.598913 0.732799
Si Si8 0.749448 0.673902 0.171051
O O1 0.551761 0.270366 0.373088
O O2 0.558702 0.150761 0.543739
O O3 0.318668 0.500000 0.565141
O O4 0.197515 0.607483 0.568434
O O5 0.367819 0.632794 0.416287
O O6 0.293804 0.645814 0.678881
O O7 0.421708 0.831379 0.830268
O O8 0.495488 0.668476 0.801552
O O9 0.331319 0.692941 0.862489
O O10 0.867729 0.500000 0.545279
O O11 0.794418 0.355244 0.658615
O O12 0.737763 0.095295 0.112612
O O13 0.867385 0.095264 0.188996
O O14 0.806782 0.239839 0.148918
O O15 0.393385 0.000000 0.871048
O O16 0.314126 0.894250 0.066846
O O17 0.539416 0.500000 0.735935
#
# Coordination Sequence:
#
# PCOD8098627 Si02
#       8
#     4   8   8   8   8   8   8   8
#     4  12  21  34  61  94 132 162 192 260 324 370
#     4   9  20  37  60  92 125 164 209 250 309 382
#     4  11  24  39  60  98 128 160 206 257 321 374
#     4  10  20  34  58  92 126 161 206 255 311 369
#     4  10  20  38  65  90 123 162 215 261 308 364
#     4  11  23  43  68  90 122 169 215 260 306 366
#     4  10  22  39  65  96 129 161 202 263 322 371
#     4  11  22  40  62  88 124 169 212 252 304 375
#
# _framework density 22.138774000000002
#
# number of rings (size 3 to 8) (size 9 to 14) (size 15 to 20)
#    0.000    1.600    2.667    5.000    1.867    2.667 
#    0.000    4.333    0.000    4.800    0.000    0.000 
#    0.000    0.000    0.000    0.000    0.000    0.000 
#
# Total GULP energy -371812.101046 kJ/mol
# GULP energy per Si atom -12393.736702 kJ/mol
# Density = 2.208838 g / cm^3
# Si number density = 22.138774 Si / 1000 Ang^3
#
#
#
# Elastic Constant Matrix: (Units=GPa)
#
#
# Indices 1 2 3 4 5 6 
#
# 1 71.5435 42.9160 11.8337 0.0000 -3.0232 0.0000
# 2 42.9160 115.8345 33.4056 0.0000 -2.8875 0.0000
# 3 11.8337 33.4056 58.8886 0.0000 0.7966 0.0000
# 4 0.0000 0.0000 0.0000 30.9272 0.0000 -2.8143
# 5 -3.0232 -2.8875 0.7966 0.0000 21.3480 0.0000
# 6 0.0000 0.0000 0.0000 -2.8143 0.0000 31.7046
#
#
#
# Elastic Compliance Matrix: (Units=1/GPa)
#
#
# Indices 1 2 3 4 5 6 
#
# 1 0.018031 -0.006681 0.000144 0.000000 0.001644 0.000000
# 2 -0.006681 0.012853 -0.005962 0.000000 0.001015 0.000000
# 3 0.000144 -0.005962 0.020355 0.000000 -0.001546 0.000000
# 4 0.000000 0.000000 0.000000 0.032597 0.000000 0.002894
# 5 0.001644 0.001015 -0.001546 0.000000 0.047271 0.000000
# 6 0.000000 0.000000 0.000000 0.002894 0.000000 0.031798
#
#
# Mechanical properties :
#
#
# Convention : Reuss Voigt Hill
#
# Bulk Modulus (GPa) = 38.10779 46.95302 42.53040
# Shear Modulus (GPa) = 25.42590 27.33672 26.38131
#
# Velocity S-wave (km/s) = 3.39260 3.51777 3.45575
# Velocity P-wave (km/s) = 5.70936 6.14444 5.93089
#
# Compressibility (1/GPa) = 0.02624135
#
# Stress axis : x y z
#
# Youngs Moduli (GPa) = 55.46087 77.80275 49.12714
#
# Poissons Ratio (x) = 0.51979 -0.00709
# Poissons Ratio (y) = 0.37053 0.29291
# Poissons Ratio (z) = -0.00801 0.46388
#
# Static dielectric constant tensor:
#      x y z
#    x 3.889030 0.000000 0.083750 
#    y 0.000000 3.984760 0.000000 
#    z 0.083750 0.000000 3.804340 
# 
# 
# High freq. dielectric constant tensor:
#      x y z
#    x 1.847990 0.000000 0.004270 
#    y 0.000000 1.874810 0.000000 
#    z 0.004270 0.000000 1.861280 
# 
# From -- ./inp_files/156605.got.cif
#   From: 2010.06.25/outbox.cif.g09.slc.cpg/sg12_79_cif.got.tgz:156605.got - 2010.06.28 00:19:55.
