data_PCOD8098861
_publ_section_title
;
Structure prediction by ZEFSAII (Michael W. Deem and Ramdas Pophale) SiO2 
 PCOD8098861
Probable space group: C 2/M
;
_chemical_formula_sum "Si O2"
_cell_formula_units_Z 64
_cell_length_a 28.702853
_cell_length_b 9.229594
_cell_length_c 17.314201
_cell_angle_alpha 90.000000
_cell_angle_beta 129.438971
_cell_angle_gamma 90.000000
_cell_volume 3542.395865
_symmetry_space_group_name_H-M "C 2/M"
_symmetry_group_IT_number 12
_symmetry_cell_setting 'monoclinic'
loop_
_space_group_symop_operation_xyz
x,y,z
-x,y,-z
-x,-y,-z
x,-y,z
1/2+x,1/2+y,z
1/2-x,1/2+y,-z
1/2-x,1/2-y,-z
1/2+x,1/2-y,z
loop_
_atom_site_type_symbol
_atom_site_label
_atom_site_fract_x
_atom_site_fract_y
_atom_site_fract_z
Si Si1 0.049412 0.334568 0.209701
Si Si2 0.785080 0.166595 0.102962
Si Si3 0.615485 0.171035 0.592662
Si Si4 0.365506 0.167904 0.836695
Si Si5 0.766330 0.168037 0.257299
Si Si6 0.917626 0.170741 0.289238
Si Si7 0.968138 0.665835 0.637752
Si Si8 0.455728 0.338159 0.025522
O O1 0.033072 0.500000 0.173165
O O2 0.105883 0.285489 0.215727
O O3 0.066633 0.313859 0.317396
O O4 0.989250 0.242167 0.130545
O O5 0.757864 0.207109 0.158093
O O6 0.856306 0.205136 0.177696
O O7 0.774819 0.000000 0.073512
O O8 0.750000 0.250000 0.000000
O O9 0.682559 0.232455 0.650958
O O10 0.582557 0.248707 0.628884
O O11 0.578237 0.211053 0.477233
O O12 0.618092 0.000000 0.610576
O O13 0.294596 0.202241 0.760149
O O14 0.377079 0.000000 0.866566
O O15 0.394672 0.256361 0.937935
O O16 0.785813 0.000000 0.285118
O O17 0.973695 0.230985 0.300073
O O18 0.924301 0.000000 0.311007
O O19 0.989617 0.500000 0.649550
O O20 0.439043 0.500000 0.034764
O O21 0.500000 0.338370 0.000000
#
# Coordination Sequence:
#
# PCOD8098861 Si02
#       8
#     8   8   8   8   8   8   8   8
#     4   9  18  33  51  72 101 135 170 208 250 298
#     4   9  19  34  50  72 102 130 159 199 243 290
#     4  10  20  35  54  75 100 130 166 208 254 303
#     4   9  17  32  54  74  96 134 177 209 244 298
#     4   9  19  35  53  74  99 130 171 211 247 295
#     4  10  21  36  54  77 103 132 168 206 247 300
#     4  10  21  35  52  76 103 131 166 209 255 301
#     4   9  17  29  46  70 100 130 163 207 252 292
#
# _framework density 18.066867999999999
#
# number of rings (size 3 to 8) (size 9 to 14) (size 15 to 20)
#    0.000    2.625    0.000    2.250    0.000    8.500 
#    0.000    4.375    0.000    0.000    0.000    0.000 
#    0.000    0.000    0.000    0.000    0.000    0.000 
#
# Total GULP energy -396794.682832 kJ/mol
# GULP energy per Si atom -12399.833838 kJ/mol
# Density = 1.802575 g / cm^3
# Si number density = 18.066868 Si / 1000 Ang^3
#
#
#
# Elastic Constant Matrix: (Units=GPa)
#
#
# Indices 1 2 3 4 5 6 
#
# 1 106.6113 45.8686 53.6273 0.0000 6.8681 0.0000
# 2 45.8686 83.8406 56.0417 0.0000 7.6810 0.0000
# 3 53.6273 56.0417 123.9155 0.0000 3.1582 0.0000
# 4 0.0000 0.0000 0.0000 25.1831 0.0000 5.0521
# 5 6.8681 7.6810 3.1582 0.0000 17.5680 0.0000
# 6 0.0000 0.0000 0.0000 5.0521 0.0000 26.6922
#
#
#
# Elastic Compliance Matrix: (Units=1/GPa)
#
#
# Indices 1 2 3 4 5 6 
#
# 1 0.013367 -0.004668 -0.003609 0.000000 -0.002536 0.000000
# 2 -0.004668 0.019405 -0.006616 0.000000 -0.005470 0.000000
# 3 -0.003609 -0.006616 0.012572 0.000000 0.002044 0.000000
# 4 0.000000 0.000000 0.000000 0.041276 0.000000 -0.007812
# 5 -0.002536 -0.005470 0.002044 0.000000 0.059937 0.000000
# 6 0.000000 0.000000 0.000000 -0.007812 0.000000 0.038943
#
#
# Mechanical properties :
#
#
# Convention : Reuss Voigt Hill
#
# Bulk Modulus (GPa) = 64.28010 69.49362 66.88686
# Shear Modulus (GPa) = 22.67840 24.47731 23.57785
#
# Velocity S-wave (km/s) = 3.54679 3.68478 3.61644
# Velocity P-wave (km/s) = 7.24080 7.52673 7.38515
#
# Compressibility (1/GPa) = 0.01555691
#
# Stress axis : x y z
#
# Youngs Moduli (GPa) = 74.81023 51.53270 79.54112
#
# Poissons Ratio (x) = 0.24057 0.28706
# Poissons Ratio (y) = 0.34924 0.52627
# Poissons Ratio (z) = 0.26999 0.34096
#
# Static dielectric constant tensor:
#      x y z
#    x 3.355790 0.000000 0.017100 
#    y 0.000000 3.416170 0.000000 
#    z 0.017100 0.000000 3.216660 
# 
# 
# High freq. dielectric constant tensor:
#      x y z
#    x 1.692370 0.000000 0.001530 
#    y 0.000000 1.702950 0.000000 
#    z 0.001530 0.000000 1.690070 
# 
# From -- ./inp_files/249229.got.cif
#   From: 2010.06.25/outbox.cif.g09.slc.cpg/sg12_125_cif.got.tgz:249229.got - 2010.06.28 00:19:55.
