data_PCOD8098161
_publ_section_title
;
Structure prediction by ZEFSAII (Michael W. Deem and Ramdas Pophale) SiO2 
 PCOD8098161
Probable space group: C 2/M
;
_chemical_formula_sum "Si O2"
_cell_formula_units_Z 52
_cell_length_a 18.676053
_cell_length_b 19.701013
_cell_length_c 11.783679
_cell_angle_alpha 90.000000
_cell_angle_beta 143.601526
_cell_angle_gamma 90.000000
_cell_volume 2572.765680
_symmetry_space_group_name_H-M "C 2/M"
_symmetry_group_IT_number 12
_symmetry_cell_setting 'monoclinic'
loop_
_space_group_symop_operation_xyz
x,y,z
-x,y,-z
-x,-y,-z
x,-y,z
1/2+x,1/2+y,z
1/2-x,1/2+y,-z
1/2-x,1/2-y,-z
1/2+x,1/2-y,z
loop_
_atom_site_type_symbol
_atom_site_label
_atom_site_fract_x
_atom_site_fract_y
_atom_site_fract_z
Si Si1 0.117618 0.077060 0.581035
Si Si2 0.174384 0.925080 0.411591
Si Si3 0.384418 0.713245 0.776024
Si Si4 0.500000 0.765025 0.500000
Si Si5 0.947570 0.424472 0.817951
Si Si6 0.745999 0.203029 0.204126
Si Si7 0.983707 0.697020 0.229784
O O1 0.083698 0.083451 0.403167
O O2 0.237862 0.122061 0.758126
O O3 0.000000 0.101907 0.500000
O O4 0.151148 0.000000 0.656989
O O5 0.162982 0.862983 0.309186
O O6 0.304327 0.924676 0.636059
O O7 0.153147 0.000000 0.326100
O O8 0.286819 0.757890 0.720502
O O9 0.416393 0.753434 0.700869
O O10 0.500000 0.703595 0.000000
O O11 0.379094 0.722283 0.334454
O O12 0.498285 0.807919 0.613043
O O13 0.000933 0.500000 0.873882
O O14 0.996196 0.380556 0.777031
O O15 0.000000 0.389849 0.000000
O O16 0.649427 0.219823 0.982307
#
# Coordination Sequence:
#
# PCOD8098161 Si02
#       7
#     8   8   8   4   8   8   8
#     4  10  20  34  55  85 119 153 189 233 291 348
#     4  10  20  35  57  86 117 150 190 240 295 348
#     4  10  22  39  61  86 115 151 202 247 288 344
#     4  12  24  38  56  82 120 158 190 242 296 354
#     4  10  20  36  61  89 113 145 194 247 294 341
#     4  11  22  39  60  86 116 156 198 243 295 348
#     4  11  23  38  59  87 117 153 196 242 297 352
#
# _framework density 20.211711000000001
#
# number of rings (size 3 to 8) (size 9 to 14) (size 15 to 20)
#    0.000    1.538    0.769    5.538    0.000    4.000 
#    0.000    0.385    0.000    1.385    0.000    0.000 
#    0.000    0.000    0.000    0.000    0.000    0.000 
#
# Total GULP energy -322233.160168 kJ/mol
# GULP energy per Si atom -12393.583083 kJ/mol
# Density = 2.016571 g / cm^3
# Si number density = 20.211711 Si / 1000 Ang^3
#
#
#
# Elastic Constant Matrix: (Units=GPa)
#
#
# Indices 1 2 3 4 5 6 
#
# 1 106.6657 51.8823 40.8909 0.0000 -12.8407 0.0000
# 2 51.8823 132.7007 41.1296 0.0000 -9.8721 0.0000
# 3 40.8909 41.1296 62.2083 0.0000 -13.3873 0.0000
# 4 0.0000 0.0000 0.0000 25.1500 0.0000 5.1286
# 5 -12.8407 -9.8721 -13.3873 0.0000 36.2444 0.0000
# 6 0.0000 0.0000 0.0000 5.1286 0.0000 20.1988
#
#
#
# Elastic Compliance Matrix: (Units=1/GPa)
#
#
# Indices 1 2 3 4 5 6 
#
# 1 0.013605 -0.003189 -0.006501 0.000000 0.001550 0.000000
# 2 -0.003189 0.010228 -0.004682 0.000000 -0.000073 0.000000
# 3 -0.006501 -0.004682 0.024632 0.000000 0.005520 0.000000
# 4 0.000000 0.000000 0.000000 0.041933 0.000000 -0.010647
# 5 0.001550 -0.000073 0.005520 0.000000 0.030158 0.000000
# 6 0.000000 0.000000 0.000000 -0.010647 0.000000 0.052211
#
#
# Mechanical properties :
#
#
# Convention : Reuss Voigt Hill
#
# Bulk Modulus (GPa) = 50.70727 63.26449 56.98588
# Shear Modulus (GPa) = 24.02868 27.49674 25.76271
#
# Velocity S-wave (km/s) = 3.45171 3.69241 3.57409
# Velocity P-wave (km/s) = 6.40533 7.03899 6.72962
#
# Compressibility (1/GPa) = 0.01972104
#
# Stress axis : x y z
#
# Youngs Moduli (GPa) = 73.50266 97.76804 40.59827
#
# Poissons Ratio (x) = 0.31178 0.26392
# Poissons Ratio (y) = 0.23440 0.19009
# Poissons Ratio (z) = 0.47783 0.45776
#
# Static dielectric constant tensor:
#      x y z
#    x 3.681160 0.000000 0.105800 
#    y 0.000000 3.849750 0.000000 
#    z 0.105800 0.000000 3.644590 
# 
# 
# High freq. dielectric constant tensor:
#      x y z
#    x 1.782980 0.000000 0.015310 
#    y 0.000000 1.796020 0.000000 
#    z 0.015310 0.000000 1.779630 
# 
# From -- ./inp_files/159622.got.cif
#   From: 2010.06.25/outbox.cif.g09.slc.cpg/sg12_80_cif.got.tgz:159622.got - 2010.06.28 00:19:55.
