data_PCOD8098087
_publ_section_title
;
Structure prediction by ZEFSAII (Michael W. Deem and Ramdas Pophale) SiO2 
 PCOD8098087
Probable space group: C 2/M
;
_chemical_formula_sum "Si O2"
_cell_formula_units_Z 56
_cell_length_a 24.867008
_cell_length_b 8.603716
_cell_length_c 16.608921
_cell_angle_alpha 90.000000
_cell_angle_beta 59.698350
_cell_angle_gamma 90.000000
_cell_volume 3067.987017
_symmetry_space_group_name_H-M "C 2/M"
_symmetry_group_IT_number 12
_symmetry_cell_setting 'monoclinic'
loop_
_space_group_symop_operation_xyz
x,y,z
-x,y,-z
-x,-y,-z
x,-y,z
1/2+x,1/2+y,z
1/2-x,1/2+y,-z
1/2-x,1/2-y,-z
1/2+x,1/2-y,z
loop_
_atom_site_type_symbol
_atom_site_label
_atom_site_fract_x
_atom_site_fract_y
_atom_site_fract_z
Si Si1 0.220271 0.180119 0.400003
Si Si2 0.878886 0.319786 0.112812
Si Si3 0.061049 0.179241 0.777289
Si Si4 0.841985 0.679767 0.407058
Si Si5 0.078411 0.820871 0.080583
Si Si6 0.803347 0.817916 0.903582
Si Si7 0.756467 0.681258 0.782305
O O1 0.166836 0.223528 0.504300
O O2 0.287858 0.223391 0.384699
O O3 0.210420 0.280176 0.327088
O O4 0.215365 0.000000 0.381605
O O5 0.884713 0.500000 0.131090
O O6 0.911784 0.220292 0.156458
O O7 0.806907 0.276451 0.159670
O O8 0.913267 0.287567 0.003059
O O9 0.092383 0.278549 0.682599
O O10 0.987935 0.216069 0.829579
O O11 0.075294 0.000000 0.749452
O O12 0.839330 0.500000 0.431964
O O13 0.129951 0.781750 0.108060
O O14 0.083083 0.000000 0.048925
O O15 0.802878 0.732603 0.818068
O O16 0.791890 0.000000 0.900572
O O17 0.750000 0.750000 0.000000
O O18 0.741459 0.500000 0.800155
#
# Coordination Sequence:
#
# PCOD8098087 Si02
#       7
#     8   8   8   8   8   8   8
#     4  10  20  35  56  83 114 146 183 226 279 335
#     4  12  23  35  54  82 114 150 188 230 279 332
#     4  11  22  37  57  81 114 153 188 226 277 336
#     4  10  20  34  55  83 115 147 183 226 276 331
#     4  10  23  40  57  79 111 152 192 229 277 335
#     4  11  22  38  59  82 110 147 191 236 279 328
#     4  12  23  36  57  83 115 149 185 232 283 332
#
# _framework density 18.253011000000001
#
# number of rings (size 3 to 8) (size 9 to 14) (size 15 to 20)
#    0.000    1.143    2.857    4.714    0.000    4.571 
#    0.000    0.000    0.000    0.857    0.000    6.000 
#    0.000    0.000    0.000    0.000    0.000    0.000 
#
# Total GULP energy -347396.744207 kJ/mol
# GULP energy per Si atom -12407.026579 kJ/mol
# Density = 1.821147 g / cm^3
# Si number density = 18.253011 Si / 1000 Ang^3
#
#
#
# Elastic Constant Matrix: (Units=GPa)
#
#
# Indices 1 2 3 4 5 6 
#
# 1 78.2734 13.4342 47.7905 0.0000 -10.9420 0.0001
# 2 13.4342 56.8751 31.7561 0.0000 -1.7976 0.0004
# 3 47.7905 31.7561 118.7431 0.0000 2.0642 0.0000
# 4 0.0000 0.0000 0.0000 36.2602 0.0000 2.4142
# 5 -10.9420 -1.7976 2.0642 0.0000 22.1886 -0.0001
# 6 0.0001 0.0004 0.0000 2.4142 -0.0001 23.4416
#
#
#
# Elastic Compliance Matrix: (Units=1/GPa)
#
#
# Indices 1 2 3 4 5 6 
#
# 1 0.018948 0.000234 -0.007864 0.000000 0.010095 0.000000
# 2 0.000234 0.020779 -0.005692 0.000000 0.002328 0.000000
# 3 -0.007864 -0.005692 0.013206 0.000000 -0.005568 0.000000
# 4 0.000000 0.000000 0.000000 0.027769 0.000000 -0.002860
# 5 0.010095 0.002328 -0.005568 0.000000 0.050753 0.000000
# 6 0.000000 0.000000 0.000000 -0.002860 0.000000 0.042954
#
#
# Mechanical properties :
#
#
# Convention : Reuss Voigt Hill
#
# Bulk Modulus (GPa) = 38.03841 48.87259 43.45550
# Shear Modulus (GPa) = 23.83058 27.10545 25.46801
#
# Velocity S-wave (km/s) = 3.61719 3.85773 3.73939
# Velocity P-wave (km/s) = 6.19114 6.83198 6.51944
#
# Compressibility (1/GPa) = 0.02628921
#
# Stress axis : x y z
#
# Youngs Moduli (GPa) = 52.77522 48.12646 75.72522
#
# Poissons Ratio (x) = -0.01128 0.59552
# Poissons Ratio (y) = -0.01237 0.43101
# Poissons Ratio (z) = 0.41504 0.27392
#
# Static dielectric constant tensor:
#      x y z
#    x 3.404770 0.000000 0.081270 
#    y 0.000000 3.456300 0.000000 
#    z 0.081270 0.000000 3.408400 
# 
# 
# High freq. dielectric constant tensor:
#      x y z
#    x 1.683790 0.000000 0.003170 
#    y 0.000000 1.721860 0.000000 
#    z 0.003170 0.000000 1.710910 
# 
# From -- ./inp_files/238267.got.cif
#   From: 2010.06.25/outbox.cif.g09.slc.cpg/sg12_120_cif.got.tgz:238267.got - 2010.06.28 00:19:55.
