data_PCOD8098934
_publ_section_title
;
Structure prediction by ZEFSAII (Michael W. Deem and Ramdas Pophale) SiO2 
 PCOD8098934
Probable space group: C 2/M
;
_chemical_formula_sum "Si O2"
_cell_formula_units_Z 64
_cell_length_a 19.719857
_cell_length_b 9.498136
_cell_length_c 18.691641
_cell_angle_alpha 90.000000
_cell_angle_beta 89.690672
_cell_angle_gamma 90.000000
_cell_volume 3500.928547
_symmetry_space_group_name_H-M "C 2/M"
_symmetry_group_IT_number 12
_symmetry_cell_setting 'monoclinic'
loop_
_space_group_symop_operation_xyz
x,y,z
-x,y,-z
-x,-y,-z
x,-y,z
1/2+x,1/2+y,z
1/2-x,1/2+y,-z
1/2-x,1/2-y,-z
1/2+x,1/2-y,z
loop_
_atom_site_type_symbol
_atom_site_label
_atom_site_fract_x
_atom_site_fract_y
_atom_site_fract_z
Si Si1 0.636579 0.840642 0.831981
Si Si2 0.239007 0.833925 0.072884
Si Si3 0.896655 0.838327 0.847100
Si Si4 0.812909 0.161873 0.417344
Si Si5 0.071935 0.837468 0.310690
Si Si6 0.181981 0.165059 0.418596
Si Si7 0.920260 0.834949 0.297351
Si Si8 0.505492 0.840613 0.920661
O O1 0.706348 0.790745 0.867639
O O2 0.618066 0.739441 0.767336
O O3 0.582704 0.832232 0.896073
O O4 0.642227 0.000000 0.802323
O O5 0.167683 0.787572 0.107331
O O6 0.242606 0.000000 0.056269
O O7 0.250000 0.750000 0.000000
O O8 0.885867 0.814604 0.762617
O O9 0.962044 0.750109 0.866816
O O10 0.912859 0.000000 0.863482
O O11 0.833372 0.197132 0.498587
O O12 0.750057 0.256895 0.392502
O O13 0.878647 0.195685 0.369664
O O14 0.790461 0.000000 0.409602
O O15 0.118128 0.773564 0.373985
O O16 0.996182 0.770608 0.307176
O O17 0.060333 0.000000 0.328023
O O18 0.192650 0.000000 0.403269
O O19 0.923340 0.000000 0.278817
O O20 0.477608 0.000000 0.920120
O O21 0.500000 0.776328 0.000000
#
# Coordination Sequence:
#
# PCOD8098934 Si02
#       8
#     8   8   8   8   8   8   8   8
#     4  10  21  36  54  78 106 138 177 216 258 316
#     4  10  22  38  56  78 105 136 175 222 265 315
#     4  10  20  35  54  78 105 134 174 218 257 306
#     4   9  19  34  53  82 111 137 175 217 259 307
#     4   9  18  33  54  79 105 137 176 215 256 304
#     4   9  18  34  57  80 106 142 177 212 258 311
#     4  10  20  35  54  77 109 141 174 219 261 305
#     4  10  20  35  55  77 103 136 172 213 262 312
#
# _framework density 18.280866
#
# number of rings (size 3 to 8) (size 9 to 14) (size 15 to 20)
#    0.000    2.375    1.250    0.750    1.750    3.250 
#    0.000    3.750    0.000    0.000    0.000    4.375 
#    0.000    0.000    0.000    0.000    0.000    0.000 
#
# Total GULP energy -396813.884070 kJ/mol
# GULP energy per Si atom -12400.433877 kJ/mol
# Density = 1.823926 g / cm^3
# Si number density = 18.280866 Si / 1000 Ang^3
#
#
#
# Elastic Constant Matrix: (Units=GPa)
#
#
# Indices 1 2 3 4 5 6 
#
# 1 99.1161 32.8318 42.1741 0.0000 3.3970 0.0000
# 2 32.8318 42.7929 33.3668 0.0000 4.0899 0.0000
# 3 42.1741 33.3668 89.8624 0.0000 2.5900 0.0000
# 4 0.0000 0.0000 0.0000 27.7751 0.0000 0.9499
# 5 3.3970 4.0899 2.5900 0.0000 37.4265 0.0000
# 6 0.0000 0.0000 0.0000 0.9499 0.0000 26.3902
#
#
#
# Elastic Compliance Matrix: (Units=1/GPa)
#
#
# Indices 1 2 3 4 5 6 
#
# 1 0.014364 -0.008096 -0.003730 0.000000 -0.000161 0.000000
# 2 -0.008096 0.037740 -0.010136 0.000000 -0.002688 0.000000
# 3 -0.003730 -0.010136 0.016634 0.000000 0.000295 0.000000
# 4 0.000000 0.000000 0.000000 0.036048 0.000000 -0.001297
# 5 -0.000161 -0.002688 0.000295 0.000000 0.027007 0.000000
# 6 0.000000 0.000000 0.000000 -0.001297 0.000000 0.037940
#
#
# Mechanical properties :
#
#
# Convention : Reuss Voigt Hill
#
# Bulk Modulus (GPa) = 40.30209 49.83519 45.06864
# Shear Modulus (GPa) = 22.52976 26.54494 24.53735
#
# Velocity S-wave (km/s) = 3.51440 3.81473 3.66764
# Velocity P-wave (km/s) = 6.20982 6.83541 6.53011
#
# Compressibility (1/GPa) = 0.02481261
#
# Stress axis : x y z
#
# Youngs Moduli (GPa) = 69.61943 26.49691 60.11786
#
# Poissons Ratio (x) = 0.21452 0.22426
# Poissons Ratio (y) = 0.56365 0.60936
# Poissons Ratio (z) = 0.25971 0.26858
#
# Static dielectric constant tensor:
#      x y z
#    x 3.536890 0.000000 -0.016200 
#    y 0.000000 3.233180 0.000000 
#    z -0.016200 0.000000 3.404780 
# 
# 
# High freq. dielectric constant tensor:
#      x y z
#    x 1.716150 0.000000 -0.003060 
#    y 0.000000 1.686860 0.000000 
#    z -0.003060 0.000000 1.715410 
# 
# From -- ./inp_files/281314.got.cif
#   From: 2010.06.25/outbox.cif.g09.slc.cpg/sg12_141_cif.got.tgz:281314.got - 2010.06.28 00:19:55.
