data_PCOD8098597
_publ_section_title
;
Structure prediction by ZEFSAII (Michael W. Deem and Ramdas Pophale) SiO2 
 PCOD8098597
Probable space group: C 2/M
;
_chemical_formula_sum "Si O2"
_cell_formula_units_Z 64
_cell_length_a 20.109574
_cell_length_b 8.831906
_cell_length_c 21.528805
_cell_angle_alpha 90.000000
_cell_angle_beta 117.921503
_cell_angle_gamma 90.000000
_cell_volume 3378.531735
_symmetry_space_group_name_H-M "C 2/M"
_symmetry_group_IT_number 12
_symmetry_cell_setting 'monoclinic'
loop_
_space_group_symop_operation_xyz
x,y,z
-x,y,-z
-x,-y,-z
x,-y,z
1/2+x,1/2+y,z
1/2-x,1/2+y,-z
1/2-x,1/2-y,-z
1/2+x,1/2-y,z
loop_
_atom_site_type_symbol
_atom_site_label
_atom_site_fract_x
_atom_site_fract_y
_atom_site_fract_z
Si Si1 0.952518 0.674398 0.297972
Si Si2 0.914067 0.826151 0.709852
Si Si3 0.326883 0.324698 0.553352
Si Si4 0.679365 0.823720 0.849989
Si Si5 0.930075 0.172440 0.854529
Si Si6 0.163778 0.676994 0.083871
Si Si7 0.105556 0.175346 0.935109
Si Si8 0.520668 0.320533 0.441438
O O1 0.963457 0.500000 0.318735
O O2 0.871646 0.707664 0.232516
O O3 0.015625 0.721767 0.276109
O O4 0.958600 0.765596 0.364949
O O5 0.843754 0.791179 0.633549
O O6 0.890001 0.797054 0.770511
O O7 0.940281 0.000000 0.712010
O O8 0.317289 0.500000 0.535978
O O9 0.250000 0.250000 0.500000
O O10 0.396752 0.261132 0.543086
O O11 0.762575 0.773229 0.867594
O O12 0.652667 0.723838 0.895999
O O13 0.677445 0.000000 0.867953
O O14 0.898035 0.287350 0.890866
O O15 0.018135 0.203690 0.884100
O O16 0.916161 0.000000 0.870801
O O17 0.182402 0.500000 0.092377
O O18 0.131112 0.722544 0.003320
O O19 0.122648 0.000000 0.957218
O O20 0.500000 0.254395 0.500000
O O21 0.519129 0.500000 0.441126
#
# Coordination Sequence:
#
# PCOD8098597 Si02
#       8
#     8   8   8   8   8   8   8   8
#     4  10  20  34  58  88 114 144 186 238 282 326
#     4   9  18  36  60  83 110 150 192 228 274 337
#     4   9  18  33  55  82 112 145 182 224 273 324
#     4  11  23  40  60  84 117 151 190 237 286 339
#     4  10  21  39  62  85 113 149 190 235 286 342
#     4  12  26  40  56  83 119 153 188 237 289 337
#     4  11  22  39  65  88 110 147 192 234 284 346
#     4   9  19  37  59  81 111 150 190 229 273 332
#
# _framework density 18.94314
#
# number of rings (size 3 to 8) (size 9 to 14) (size 15 to 20)
#    0.000    1.875    1.250    3.750    0.000    6.750 
#    2.250    0.000    0.000    0.000    0.000    0.000 
#    0.000    0.000    0.000    0.000    0.000    0.000 
#
# Total GULP energy -396873.468598 kJ/mol
# GULP energy per Si atom -12402.295894 kJ/mol
# Density = 1.890002 g / cm^3
# Si number density = 18.943140 Si / 1000 Ang^3
#
#
#
# Elastic Constant Matrix: (Units=GPa)
#
#
# Indices 1 2 3 4 5 6 
#
# 1 61.6209 21.8543 39.6637 0.0000 -0.3199 0.0000
# 2 21.8543 43.0823 36.5576 0.0000 2.1162 0.0000
# 3 39.6637 36.5576 115.9783 0.0000 4.2006 0.0000
# 4 0.0000 0.0000 0.0000 29.6031 0.0000 7.0346
# 5 -0.3199 2.1162 4.2006 0.0000 29.6856 0.0000
# 6 0.0000 0.0000 0.0000 7.0346 0.0000 18.1457
#
#
#
# Elastic Compliance Matrix: (Units=1/GPa)
#
#
# Indices 1 2 3 4 5 6 
#
# 1 0.022148 -0.006601 -0.005548 0.000000 0.001494 0.000000
# 2 -0.006601 0.033675 -0.008310 0.000000 -0.001296 0.000000
# 3 -0.005548 -0.008310 0.013188 0.000000 -0.001333 0.000000
# 4 0.000000 0.000000 0.000000 0.037208 0.000000 -0.014424
# 5 0.001494 -0.001296 -0.001333 0.000000 0.033983 0.000000
# 6 0.000000 0.000000 0.000000 -0.014424 0.000000 0.060702
#
#
# Mechanical properties :
#
#
# Convention : Reuss Voigt Hill
#
# Bulk Modulus (GPa) = 35.59665 46.31475 40.95570
# Shear Modulus (GPa) = 19.90556 23.66062 21.78309
#
# Velocity S-wave (km/s) = 3.24513 3.53800 3.39473
# Velocity P-wave (km/s) = 5.73352 6.41813 6.08546
#
# Compressibility (1/GPa) = 0.02809253
#
# Stress axis : x y z
#
# Youngs Moduli (GPa) = 45.15060 29.69547 75.82933
#
# Poissons Ratio (x) = 0.19601 0.42070
# Poissons Ratio (y) = 0.29802 0.63018
# Poissons Ratio (z) = 0.25050 0.24678
#
# Static dielectric constant tensor:
#      x y z
#    x 3.422170 0.000000 -0.020880 
#    y 0.000000 3.513920 0.000000 
#    z -0.020880 0.000000 3.685390 
# 
# 
# High freq. dielectric constant tensor:
#      x y z
#    x 1.722300 0.000000 0.000250 
#    y 0.000000 1.735620 0.000000 
#    z 0.000250 0.000000 1.749150 
# 
# From -- ./inp_files/320074.got.cif
#   From: 2010.06.25/outbox.cif.g09.slc.cpg/sg12_161_cif.got.tgz:320074.got - 2010.06.28 00:19:55.
