data_PCOD8098983
_publ_section_title
;
Structure prediction by ZEFSAII (Michael W. Deem and Ramdas Pophale) SiO2 
 PCOD8098983
Probable space group: C 2/M
;
_chemical_formula_sum "Si O2"
_cell_formula_units_Z 64
_cell_length_a 32.038672
_cell_length_b 15.633489
_cell_length_c 8.959558
_cell_angle_alpha 90.000000
_cell_angle_beta 44.180622
_cell_angle_gamma 90.000000
_cell_volume 3127.530474
_symmetry_space_group_name_H-M "C 2/M"
_symmetry_group_IT_number 12
_symmetry_cell_setting 'monoclinic'
loop_
_space_group_symop_operation_xyz
x,y,z
-x,y,-z
-x,-y,-z
x,-y,z
1/2+x,1/2+y,z
1/2-x,1/2+y,-z
1/2-x,1/2-y,-z
1/2+x,1/2-y,z
loop_
_atom_site_type_symbol
_atom_site_label
_atom_site_fract_x
_atom_site_fract_y
_atom_site_fract_z
Si Si1 0.065850 0.907369 0.397506
Si Si2 0.435815 0.239351 0.736553
Si Si3 0.729603 0.654406 0.086234
Si Si4 0.297196 0.403717 0.168143
Si Si5 0.621533 0.403369 0.554086
Si Si6 0.388700 0.700621 0.137348
Si Si7 0.336275 0.903290 0.997590
Si Si8 0.204748 0.673054 0.594631
O O1 0.097692 0.821771 0.254306
O O2 0.067555 0.903673 0.572435
O O3 0.000000 0.901703 0.500000
O O4 0.094037 0.000000 0.272896
O O5 0.500000 0.217830 0.500000
O O6 0.443710 0.266051 0.892101
O O7 0.392894 0.158460 0.825228
O O8 0.679039 0.649132 0.345716
O O9 0.788942 0.604090 0.984457
O O10 0.750000 0.750000 0.000000
O O11 0.700551 0.610464 0.015598
O O12 0.315480 0.500000 0.158294
O O13 0.341893 0.342917 0.143745
O O14 0.229153 0.386822 0.399301
O O15 0.642386 0.500000 0.536717
O O16 0.593082 0.362386 0.776317
O O17 0.359098 0.785692 0.285751
O O18 0.301117 0.880819 0.238766
O O19 0.360797 0.000000 0.941634
O O20 0.250000 0.750000 0.500000
#
# Coordination Sequence:
#
# PCOD8098983 Si02
#       8
#     8   8   8   8   8   8   8   8
#     4   9  19  37  59  82 112 151 193 239 291 348
#     4  10  22  41  62  81 108 151 200 251 306 356
#     4  12  22  34  53  83 120 155 190 230 282 346
#     4  11  20  31  51  80 115 150 182 218 272 343
#     4  11  21  34  56  86 119 152 187 230 286 354
#     4  10  20  35  54  80 110 146 190 234 284 342
#     4  11  22  37  58  86 120 156 200 250 295 346
#     4   9  18  33  51  76 113 154 187 223 276 338
#
# _framework density 20.463429999999999
#
# number of rings (size 3 to 8) (size 9 to 14) (size 15 to 20)
#    0.000    1.625    0.000    7.875    0.000    2.250 
#    0.000    2.500    0.000    6.750    0.000    0.000 
#    0.000   15.000    0.000    0.000    0.000    0.000 
#
# Total GULP energy -396480.233307 kJ/mol
# GULP energy per Si atom -12390.007291 kJ/mol
# Density = 2.041685 g / cm^3
# Si number density = 20.463430 Si / 1000 Ang^3
#
#
#
# Elastic Constant Matrix: (Units=GPa)
#
#
# Indices 1 2 3 4 5 6 
#
# 1 85.8210 33.8259 40.1954 0.0000 9.6803 0.0000
# 2 33.8259 135.3975 39.8833 0.0000 1.1401 0.0000
# 3 40.1954 39.8833 134.5384 0.0000 6.0248 0.0000
# 4 0.0000 0.0000 0.0000 22.2165 0.0000 8.2627
# 5 9.6803 1.1401 6.0248 0.0000 24.6655 0.0000
# 6 0.0000 0.0000 0.0000 8.2627 0.0000 22.8856
#
#
#
# Elastic Compliance Matrix: (Units=1/GPa)
#
#
# Indices 1 2 3 4 5 6 
#
# 1 0.014857 -0.002660 -0.003432 0.000000 -0.004870 0.000000
# 2 -0.002660 0.008570 -0.001794 0.000000 0.001086 0.000000
# 3 -0.003432 -0.001794 0.009025 0.000000 -0.000774 0.000000
# 4 0.000000 0.000000 0.000000 0.051993 0.000000 -0.018772
# 5 -0.004870 0.001086 -0.000774 0.000000 0.042593 0.000000
# 6 0.000000 0.000000 0.000000 -0.018772 0.000000 0.050473
#
#
# Mechanical properties :
#
#
# Convention : Reuss Voigt Hill
#
# Bulk Modulus (GPa) = 59.95600 64.84067 62.39833
# Shear Modulus (GPa) = 25.14547 30.07701 27.61124
#
# Velocity S-wave (km/s) = 3.50923 3.83795 3.67726
# Velocity P-wave (km/s) = 6.76626 7.16901 6.97054
#
# Compressibility (1/GPa) = 0.01667890
#
# Stress axis : x y z
#
# Youngs Moduli (GPa) = 67.30692 116.69220 110.80451
#
# Poissons Ratio (x) = 0.31037 0.38032
# Poissons Ratio (y) = 0.17902 0.19883
# Poissons Ratio (z) = 0.23102 0.20939
#
# Static dielectric constant tensor:
#      x y z
#    x 3.445180 0.000000 0.193930 
#    y 0.000000 4.099610 0.000000 
#    z 0.193930 0.000000 4.042660 
# 
# 
# High freq. dielectric constant tensor:
#      x y z
#    x 1.773730 0.000000 0.012790 
#    y 0.000000 1.805160 0.000000 
#    z 0.012790 0.000000 1.804310 
# 
# From -- ./inp_files/111951.got.cif
#   From: 2010.06.25/outbox.cif.g09.slc.cpg/sg12_56_cif.got.tgz:111951.got - 2010.06.28 00:19:55.
