data_PCOD8098661
_publ_section_title
;
Structure prediction by ZEFSAII (Michael W. Deem and Ramdas Pophale) SiO2 
 PCOD8098661
Probable space group: C 2/M
;
_chemical_formula_sum "Si O2"
_cell_formula_units_Z 56
_cell_length_a 15.270202
_cell_length_b 10.635321
_cell_length_c 19.583211
_cell_angle_alpha 90.000000
_cell_angle_beta 62.272679
_cell_angle_gamma 90.000000
_cell_volume 2815.184686
_symmetry_space_group_name_H-M "C 2/M"
_symmetry_group_IT_number 12
_symmetry_cell_setting 'monoclinic'
loop_
_space_group_symop_operation_xyz
x,y,z
-x,y,-z
-x,-y,-z
x,-y,z
1/2+x,1/2+y,z
1/2-x,1/2+y,-z
1/2-x,1/2-y,-z
1/2+x,1/2-y,z
loop_
_atom_site_type_symbol
_atom_site_label
_atom_site_fract_x
_atom_site_fract_y
_atom_site_fract_z
Si Si1 0.840131 0.356909 0.134739
Si Si2 0.248884 0.640217 0.359589
Si Si3 0.580801 0.857113 0.522179
Si Si4 0.330739 0.639702 0.709614
Si Si5 0.172802 0.644487 0.011509
Si Si6 0.504599 0.857564 0.820559
Si Si7 0.539835 0.717832 0.673457
O O1 0.875780 0.500000 0.123940
O O2 0.724887 0.340496 0.197331
O O3 0.864924 0.311002 0.049511
O O4 0.907800 0.288871 0.167801
O O5 0.225321 0.500000 0.337783
O O6 0.190767 0.656961 0.451886
O O7 0.208357 0.749958 0.325291
O O8 0.366357 0.642316 0.331170
O O9 0.500000 0.793574 0.500000
O O10 0.581408 0.799563 0.596755
O O11 0.548318 0.000000 0.544298
O O12 0.302367 0.500000 0.690701
O O13 0.448825 0.635835 0.677702
O O14 0.214870 0.500000 0.992237
O O15 0.250000 0.750000 0.000000
O O16 0.092611 0.653185 0.099094
O O17 0.490440 0.795232 0.752499
O O18 0.532171 0.000000 0.793631
#
# Coordination Sequence:
#
# PCOD8098661 Si02
#       7
#     8   8   8   8   8   8   8
#     4   9  18  36  59  85 119 159 201 247 294 358
#     4  11  24  43  63  89 125 162 204 255 314 369
#     4  10  21  39  62  88 123 167 207 248 308 376
#     4  11  23  40  63  92 125 161 206 253 306 367
#     4  10  20  36  59  86 121 159 201 249 299 358
#     4  10  20  34  60  94 119 156 209 250 298 367
#     4  12  22  38  64  93 124 158 204 262 312 358
#
# _framework density 19.892123999999999
#
# number of rings (size 3 to 8) (size 9 to 14) (size 15 to 20)
#    0.000    1.571    2.857    2.571    0.000    2.857 
#    0.000    3.571    0.000    0.857    0.000    0.000 
#    0.000    0.000    0.000    0.000    0.000    0.000 
#
# Total GULP energy -346879.001796 kJ/mol
# GULP energy per Si atom -12388.535778 kJ/mol
# Density = 1.984685 g / cm^3
# Si number density = 19.892124 Si / 1000 Ang^3
#
#
#
# Elastic Constant Matrix: (Units=GPa)
#
#
# Indices 1 2 3 4 5 6 
#
# 1 99.9545 43.3615 24.6820 0.0000 -4.6840 0.0000
# 2 43.3615 103.7711 52.4863 0.0000 6.7171 0.0000
# 3 24.6820 52.4863 120.5085 0.0000 12.2646 0.0000
# 4 0.0000 0.0000 0.0000 27.7167 0.0000 1.5224
# 5 -4.6840 6.7171 12.2646 0.0000 35.3474 0.0000
# 6 0.0000 0.0000 0.0000 1.5224 0.0000 26.8419
#
#
#
# Elastic Compliance Matrix: (Units=1/GPa)
#
#
# Indices 1 2 3 4 5 6 
#
# 1 0.012501 -0.005087 -0.000634 0.000000 0.002843 0.000000
# 2 -0.005087 0.014438 -0.005078 0.000000 -0.001656 0.000000
# 3 -0.000634 -0.005078 0.010936 0.000000 -0.002914 0.000000
# 4 0.000000 0.000000 0.000000 0.036192 0.000000 -0.002053
# 5 0.002843 -0.001656 -0.002914 0.000000 0.029993 0.000000
# 6 0.000000 0.000000 0.000000 -0.002053 0.000000 0.037372
#
#
# Mechanical properties :
#
#
# Convention : Reuss Voigt Hill
#
# Bulk Modulus (GPa) = 61.43602 62.81041 62.12322
# Shear Modulus (GPa) = 29.68145 31.56150 30.62148
#
# Velocity S-wave (km/s) = 3.86699 3.98758 3.92775
# Velocity P-wave (km/s) = 7.13371 7.26946 7.20191
#
# Compressibility (1/GPa) = 0.01627710
#
# Stress axis : x y z
#
# Youngs Moduli (GPa) = 79.99240 69.26317 91.43959
#
# Poissons Ratio (x) = 0.35234 0.05799
# Poissons Ratio (y) = 0.40692 0.46431
# Poissons Ratio (z) = 0.05073 0.35170
#
# Static dielectric constant tensor:
#      x y z
#    x 3.869610 0.000000 0.186510 
#    y 0.000000 3.493620 0.000000 
#    z 0.186510 0.000000 4.697730 
# 
# 
# High freq. dielectric constant tensor:
#      x y z
#    x 1.774150 0.000000 -0.007750 
#    y 0.000000 1.751830 0.000000 
#    z -0.007750 0.000000 1.792150 
# 
# From -- ./inp_files/268629.got.cif
#   From: 2010.06.25/outbox.cif.g09.slc.cpg/sg12_135_cif.got.tgz:268629.got - 2010.06.28 00:19:55.
