data_PCOD8098969
_publ_section_title
;
Structure prediction by ZEFSAII (Michael W. Deem and Ramdas Pophale) SiO2 
 PCOD8098969
Probable space group: C 2/M
;
_chemical_formula_sum "Si O2"
_cell_formula_units_Z 64
_cell_length_a 28.894547
_cell_length_b 8.906903
_cell_length_c 25.684274
_cell_angle_alpha 90.000000
_cell_angle_beta 30.271888
_cell_angle_gamma 90.000000
_cell_volume 3332.191863
_symmetry_space_group_name_H-M "C 2/M"
_symmetry_group_IT_number 12
_symmetry_cell_setting 'monoclinic'
loop_
_space_group_symop_operation_xyz
x,y,z
-x,y,-z
-x,-y,-z
x,-y,z
1/2+x,1/2+y,z
1/2-x,1/2+y,-z
1/2-x,1/2-y,-z
1/2+x,1/2-y,z
loop_
_atom_site_type_symbol
_atom_site_label
_atom_site_fract_x
_atom_site_fract_y
_atom_site_fract_z
Si Si1 0.083156 0.828738 0.556969
Si Si2 0.850090 0.677826 0.405746
Si Si3 0.088263 0.822531 0.756475
Si Si4 0.898577 0.174818 0.990286
Si Si5 0.261110 0.173880 0.321001
Si Si6 0.121986 0.174518 0.259773
Si Si7 0.275117 0.822865 0.189811
Si Si8 0.740564 0.174880 0.064158
O O1 0.101584 0.718841 0.587131
O O2 0.156174 0.804600 0.440212
O O3 0.984965 0.792065 0.626238
O O4 0.086336 0.000000 0.574743
O O5 0.840075 0.500000 0.410462
O O6 0.750000 0.750000 0.500000
O O7 0.912819 0.739829 0.297999
O O8 0.177824 0.775924 0.701145
O O9 0.999529 0.770945 0.875570
O O10 0.088058 0.000000 0.746771
O O11 0.897103 0.000000 0.004545
O O12 0.866642 0.258833 0.073664
O O13 0.830686 0.216111 0.009408
O O14 0.270439 0.235755 0.253369
O O15 0.291480 0.000000 0.296293
O O16 0.182875 0.231796 0.249500
O O17 0.150672 0.262202 0.179980
O O18 0.140923 0.000000 0.231600
O O19 0.281723 0.000000 0.182972
O O20 0.728122 0.000000 0.068229
O O21 0.750000 0.250000 0.000000
#
# Coordination Sequence:
#
# PCOD8098969 Si02
#       8
#     8   8   8   8   8   8   8   8
#     4  10  21  37  58  84 117 154 191 231 281 338
#     4  12  24  39  59  84 116 152 190 234 286 338
#     4  11  23  39  59  84 113 151 194 235 283 341
#     4   9  21  39  57  79 111 149 189 233 285 341
#     4  10  21  37  58  85 115 150 191 238 286 336
#     4   9  19  36  57  82 113 150 189 233 280 335
#     4   9  19  37  60  85 114 148 191 239 286 333
#     4  10  20  35  54  79 109 145 187 234 286 341
#
# _framework density 19.206575999999998
#
# number of rings (size 3 to 8) (size 9 to 14) (size 15 to 20)
#    0.000    2.000    1.250    1.875    1.750    3.500 
#    0.000    5.000    0.000    0.000    0.000    5.250 
#    0.000    0.000    0.000    0.000    0.000    0.000 
#
# Total GULP energy -396903.103886 kJ/mol
# GULP energy per Si atom -12403.221996 kJ/mol
# Density = 1.916286 g / cm^3
# Si number density = 19.206576 Si / 1000 Ang^3
#
#
#
# Elastic Constant Matrix: (Units=GPa)
#
#
# Indices 1 2 3 4 5 6 
#
# 1 49.8613 20.5405 34.0119 0.0064 15.9405 0.0000
# 2 20.5405 64.9453 34.5320 0.0053 6.9336 0.0049
# 3 34.0119 34.5320 125.1459 0.0142 5.4706 -0.0237
# 4 0.0064 0.0053 0.0142 30.6912 -0.0069 1.2505
# 5 15.9405 6.9336 5.4706 -0.0069 41.2473 0.0076
# 6 0.0000 0.0049 -0.0237 1.2505 0.0076 25.6297
#
#
#
# Elastic Compliance Matrix: (Units=1/GPa)
#
#
# Indices 1 2 3 4 5 6 
#
# 1 0.029445 -0.004976 -0.006205 -0.000005 -0.009720 -0.000002
# 2 -0.004976 0.019123 -0.003890 0.000000 -0.000775 -0.000007
# 3 -0.006205 -0.003890 0.010679 -0.000003 0.001635 0.000010
# 4 -0.000005 0.000000 -0.000003 0.032647 0.000008 -0.001593
# 5 -0.009720 -0.000775 0.001635 0.000008 0.027914 -0.000007
# 6 -0.000002 -0.000007 0.000010 -0.001593 -0.000007 0.039095
#
#
# Mechanical properties :
#
#
# Convention : Reuss Voigt Hill
#
# Bulk Modulus (GPa) = 34.35837 46.45794 40.40815
# Shear Modulus (GPa) = 25.15761 29.57152 27.36457
#
# Velocity S-wave (km/s) = 3.62310 3.92810 3.77868
# Velocity P-wave (km/s) = 5.95233 6.69435 6.33422
#
# Compressibility (1/GPa) = 0.02910499
#
# Stress axis : x y z
#
# Youngs Moduli (GPa) = 33.96118 52.29399 93.64221
#
# Poissons Ratio (x) = 0.26022 0.58102
# Poissons Ratio (y) = 0.16899 0.36430
# Poissons Ratio (z) = 0.21072 0.20344
#
# Static dielectric constant tensor:
#      x y z
#    x 3.540810 0.000160 0.015440 
#    y 0.000160 3.536450 -0.000180 
#    z 0.015440 -0.000180 3.867860 
# 
# 
# High freq. dielectric constant tensor:
#      x y z
#    x 1.743100 0.000000 0.001220 
#    y 0.000000 1.742630 0.000010 
#    z 0.001220 0.000010 1.757200 
# 
# From -- ./inp_files/353425.got.cif
#   From: 2010.06.25/outbox.cif.g09.slc.cpg/sg12_177_cif.got.tgz:353425.got - 2010.06.28 00:19:55.
