data_PCOD8098889
_publ_section_title
;
Structure prediction by ZEFSAII (Michael W. Deem and Ramdas Pophale) SiO2 
 PCOD8098889
Probable space group: C 2/M
;
_chemical_formula_sum "Si O2"
_cell_formula_units_Z 64
_cell_length_a 14.975548
_cell_length_b 9.070247
_cell_length_c 30.593201
_cell_angle_alpha 90.000000
_cell_angle_beta 126.873904
_cell_angle_gamma 90.000000
_cell_volume 3324.252217
_symmetry_space_group_name_H-M "C 2/M"
_symmetry_group_IT_number 12
_symmetry_cell_setting 'monoclinic'
loop_
_space_group_symop_operation_xyz
x,y,z
-x,y,-z
-x,-y,-z
x,-y,z
1/2+x,1/2+y,z
1/2-x,1/2+y,-z
1/2-x,1/2-y,-z
1/2+x,1/2-y,z
loop_
_atom_site_type_symbol
_atom_site_label
_atom_site_fract_x
_atom_site_fract_y
_atom_site_fract_z
Si Si1 0.546247 0.173346 0.633592
Si Si2 0.389263 0.325459 0.175026
Si Si3 0.900369 0.831004 0.048246
Si Si4 0.294570 0.171478 0.555590
Si Si5 0.252790 0.668714 0.931097
Si Si6 0.080298 0.830456 0.165212
Si Si7 0.401871 0.672180 0.439571
Si Si8 0.328751 0.175213 0.242483
O O1 0.418958 0.225630 0.603323
O O2 0.598179 0.247300 0.606427
O O3 0.617399 0.224146 0.696097
O O4 0.553369 0.000000 0.628965
O O5 0.385879 0.500000 0.178486
O O6 0.273063 0.270607 0.118366
O O7 0.493371 0.268784 0.175988
O O8 0.400930 0.251653 0.225710
O O9 0.830250 0.710360 0.054015
O O10 0.029623 0.808407 0.101097
O O11 0.865703 0.000000 0.051411
O O12 0.877414 0.809576 0.989245
O O13 0.250000 0.250000 0.500000
O O14 0.217112 0.209312 0.574018
O O15 0.291278 0.000000 0.543936
O O16 0.234640 0.500000 0.911257
O O17 0.202655 0.757918 0.204196
O O18 0.098465 0.000000 0.181663
O O19 0.500000 0.732266 0.500000
O O20 0.419759 0.500000 0.436449
O O21 0.333226 0.000000 0.236858
#
# Coordination Sequence:
#
# PCOD8098889 Si02
#       8
#     8   8   8   8   8   8   8   8
#     4  10  22  37  55  81 110 139 174 220 265 305
#     4  10  20  35  54  76 103 139 179 219 265 316
#     4   8  14  26  46  73 102 134 173 216 264 319
#     4  10  20  35  55  81 112 142 172 209 255 306
#     4   9  15  25  46  75 103 133 171 217 269 319
#     4   8  16  33  55  74 100 138 176 215 260 317
#     4  10  20  35  56  81 109 142 175 207 252 311
#     4  10  21  38  56  76 104 138 179 221 262 309
#
# _framework density 19.25245
#
# number of rings (size 3 to 8) (size 9 to 14) (size 15 to 20)
#    0.000    2.625    1.250    1.500    0.000    2.750 
#    0.000    3.750    0.000    3.750    0.000    0.000 
#    0.000    0.000    0.000    0.000    0.000    0.000 
#
# Total GULP energy -396585.030522 kJ/mol
# GULP energy per Si atom -12393.282204 kJ/mol
# Density = 1.920863 g / cm^3
# Si number density = 19.252450 Si / 1000 Ang^3
#
#
#
# Elastic Constant Matrix: (Units=GPa)
#
#
# Indices 1 2 3 4 5 6 
#
# 1 76.3735 21.2874 46.3622 0.0000 6.8446 0.0000
# 2 21.2874 38.8380 33.6332 0.0000 -3.1448 0.0000
# 3 46.3622 33.6332 137.2419 0.0000 3.1131 0.0000
# 4 0.0000 0.0000 0.0000 28.3858 0.0000 -9.1712
# 5 6.8446 -3.1448 3.1131 0.0000 33.2085 0.0000
# 6 0.0000 0.0000 0.0000 -9.1712 0.0000 23.2193
#
#
#
# Elastic Compliance Matrix: (Units=1/GPa)
#
#
# Indices 1 2 3 4 5 6 
#
# 1 0.017869 -0.006291 -0.004407 0.000000 -0.003865 0.000000
# 2 -0.006291 0.035399 -0.006670 0.000000 0.005274 0.000000
# 3 -0.004407 -0.006670 0.010426 0.000000 -0.000701 0.000000
# 4 0.000000 0.000000 0.000000 0.040382 0.000000 0.015950
# 5 -0.003865 0.005274 -0.000701 0.000000 0.031475 0.000000
# 6 0.000000 0.000000 0.000000 0.015950 0.000000 0.049368
#
#
# Mechanical properties :
#
#
# Convention : Reuss Voigt Hill
#
# Bulk Modulus (GPa) = 34.53204 50.55767 42.54486
# Shear Modulus (GPa) = 21.80510 27.04078 24.42294
#
# Velocity S-wave (km/s) = 3.36905 3.75178 3.56555
# Velocity P-wave (km/s) = 5.75407 6.71455 6.25278
#
# Compressibility (1/GPa) = 0.02895861
#
# Stress axis : x y z
#
# Youngs Moduli (GPa) = 55.96430 28.24961 95.91854
#
# Poissons Ratio (x) = 0.17770 0.42271
# Poissons Ratio (y) = 0.35204 0.63974
# Poissons Ratio (z) = 0.24663 0.18841
#
# Static dielectric constant tensor:
#      x y z
#    x 3.442390 0.000000 0.176480 
#    y 0.000000 3.324370 0.000000 
#    z 0.176480 0.000000 3.848970 
# 
# 
# High freq. dielectric constant tensor:
#      x y z
#    x 1.730970 0.000000 0.002130 
#    y 0.000000 1.729620 0.000000 
#    z 0.002130 0.000000 1.758700 
# 
# From -- ./inp_files/375685.got.cif
#   From: 2010.06.25/outbox.cif.g09.slc.cpg/sg12_188_cif.got.tgz:375685.got - 2010.06.28 00:19:55.
