data_PCOD8098660
_publ_section_title
;
Structure prediction by ZEFSAII (Michael W. Deem and Ramdas Pophale) SiO2 
 PCOD8098660
Probable space group: C 2/M
;
_chemical_formula_sum "Si O2"
_cell_formula_units_Z 52
_cell_length_a 17.984030
_cell_length_b 19.979740
_cell_length_c 14.005892
_cell_angle_alpha 90.000000
_cell_angle_beta 147.614529
_cell_angle_gamma 90.000000
_cell_volume 2695.494617
_symmetry_space_group_name_H-M "C 2/M"
_symmetry_group_IT_number 12
_symmetry_cell_setting 'monoclinic'
loop_
_space_group_symop_operation_xyz
x,y,z
-x,y,-z
-x,-y,-z
x,-y,z
1/2+x,1/2+y,z
1/2-x,1/2+y,-z
1/2-x,1/2-y,-z
1/2+x,1/2-y,z
loop_
_atom_site_type_symbol
_atom_site_label
_atom_site_fract_x
_atom_site_fract_y
_atom_site_fract_z
Si Si1 0.726148 0.172793 0.999842
Si Si2 0.075645 0.925131 0.880703
Si Si3 0.307315 0.421520 0.468398
Si Si4 0.000000 0.117486 0.000000
Si Si5 0.842909 0.832749 0.331420
Si Si6 0.796003 0.776995 0.699198
Si Si7 0.407008 0.822911 0.674670
O O1 0.798335 0.126217 0.998837
O O2 0.793378 0.149859 0.172092
O O3 0.750000 0.250000 0.000000
O O4 0.564095 0.155865 0.826436
O O5 0.940290 0.900513 0.675611
O O6 0.117322 0.000000 0.892932
O O7 0.042100 0.928285 0.956622
O O8 0.279143 0.500000 0.439785
O O9 0.331539 0.398428 0.385776
O O10 0.173292 0.385443 0.366776
O O11 0.869483 0.161992 0.829481
O O12 0.745133 0.774328 0.263320
O O13 0.000000 0.806776 0.500000
O O14 0.658148 0.802380 0.496997
O O15 0.900405 0.741266 0.737666
#
# Coordination Sequence:
#
# PCOD8098660 Si02
#       7
#     8   8   8   4   8   8   8
#     4  12  24  39  63  95 127 162 202 257 315 371
#     4  11  24  42  63  90 123 163 210 256 310 369
#     4  10  22  41  63  87 122 170 211 248 304 373
#     4  12  21  40  66  92 111 162 212 254 301 374
#     4  11  21  36  59  91 124 161 202 252 307 367
#     4  10  20  34  60  90 123 157 200 249 307 360
#     4  10  21  38  60  88 127 160 195 253 306 361
#
# _framework density 19.291450000000001
#
# number of rings (size 3 to 8) (size 9 to 14) (size 15 to 20)
#    0.000    1.231    3.077    3.923    2.154    3.385 
#    0.000    0.769    0.000    0.923    0.000    0.000 
#    0.000    0.000    0.000    0.000    0.000    0.000 
#
# Total GULP energy -322531.273818 kJ/mol
# GULP energy per Si atom -12405.048993 kJ/mol
# Density = 1.924754 g / cm^3
# Si number density = 19.291450 Si / 1000 Ang^3
#
#
#
# Elastic Constant Matrix: (Units=GPa)
#
#
# Indices 1 2 3 4 5 6 
#
# 1 98.8868 31.5855 44.2552 0.0000 0.2913 0.0000
# 2 31.5855 93.5691 31.1456 0.0000 7.8055 0.0000
# 3 44.2552 31.1456 100.6859 0.0000 15.4521 0.0000
# 4 0.0000 0.0000 0.0000 26.5548 0.0000 -0.2572
# 5 0.2913 7.8055 15.4521 0.0000 39.0231 0.0000
# 6 0.0000 0.0000 0.0000 -0.2572 0.0000 22.4231
#
#
#
# Elastic Compliance Matrix: (Units=1/GPa)
#
#
# Indices 1 2 3 4 5 6 
#
# 1 0.013473 -0.002968 -0.005408 0.000000 0.002635 0.000000
# 2 -0.002968 0.012603 -0.002354 0.000000 -0.001567 0.000000
# 3 -0.005408 -0.002354 0.013797 0.000000 -0.004952 0.000000
# 4 0.000000 0.000000 0.000000 0.037662 0.000000 0.000432
# 5 0.002635 -0.001567 -0.004952 0.000000 0.027881 0.000000
# 6 0.000000 0.000000 0.000000 0.000432 0.000000 0.044602
#
#
# Mechanical properties :
#
#
# Convention : Reuss Voigt Hill
#
# Bulk Modulus (GPa) = 54.30615 56.34604 55.32609
# Shear Modulus (GPa) = 28.15072 30.01054 29.08063
#
# Velocity S-wave (km/s) = 3.82414 3.94844 3.88678
# Velocity P-wave (km/s) = 6.90725 7.07517 6.99172
#
# Compressibility (1/GPa) = 0.01841412
#
# Stress axis : x y z
#
# Youngs Moduli (GPa) = 74.22207 79.34472 72.47886
#
# Poissons Ratio (x) = 0.23546 0.39199
# Poissons Ratio (y) = 0.22026 0.17060
# Poissons Ratio (z) = 0.40141 0.18676
#
# Static dielectric constant tensor:
#      x y z
#    x 3.689680 0.000000 -0.138150 
#    y 0.000000 3.343160 0.000000 
#    z -0.138150 0.000000 3.535870 
# 
# 
# High freq. dielectric constant tensor:
#      x y z
#    x 1.759810 0.000000 -0.005980 
#    y 0.000000 1.744180 0.000000 
#    z -0.005980 0.000000 1.752380 
# 
# From -- ./inp_files/227447.got.cif
#   From: 2010.06.25/outbox.cif.g09.slc.cpg/sg12_114_cif.got.tgz:227447.got - 2010.06.28 00:19:55.
