data_PCOD8098268
_publ_section_title
;
Structure prediction by ZEFSAII (Michael W. Deem and Ramdas Pophale) SiO2 
 PCOD8098268
Probable space group: C 2/M
;
_chemical_formula_sum "Si O2"
_cell_formula_units_Z 56
_cell_length_a 9.021256
_cell_length_b 12.897686
_cell_length_c 28.358508
_cell_angle_alpha 90.000000
_cell_angle_beta 121.431456
_cell_angle_gamma 90.000000
_cell_volume 2815.437738
_symmetry_space_group_name_H-M "C 2/M"
_symmetry_group_IT_number 12
_symmetry_cell_setting 'monoclinic'
loop_
_space_group_symop_operation_xyz
x,y,z
-x,y,-z
-x,-y,-z
x,-y,z
1/2+x,1/2+y,z
1/2-x,1/2+y,-z
1/2-x,1/2-y,-z
1/2+x,1/2-y,z
loop_
_atom_site_type_symbol
_atom_site_label
_atom_site_fract_x
_atom_site_fract_y
_atom_site_fract_z
Si Si1 0.150240 0.610992 0.702495
Si Si2 0.484542 0.614523 0.270603
Si Si3 0.546531 0.250513 0.876165
Si Si4 0.898247 0.379967 0.934829
Si Si5 0.083923 0.879566 0.564807
Si Si6 0.582438 0.269694 0.378721
Si Si7 0.174572 0.301606 0.801012
O O1 0.081325 0.500000 0.673477
O O2 0.357987 0.614878 0.740370
O O3 0.087867 0.626386 0.746473
O O4 0.082517 0.694478 0.654187
O O5 0.405721 0.500000 0.264800
O O6 0.573514 0.651137 0.333969
O O7 0.335167 0.684974 0.222936
O O8 0.714227 0.322793 0.910502
O O9 0.519072 0.170734 0.914551
O O10 0.377177 0.324071 0.844602
O O11 0.567386 0.184910 0.831289
O O12 0.864655 0.500000 0.916657
O O13 0.000000 0.367805 0.000000
O O14 0.248711 0.803367 0.593575
O O15 0.000000 0.873708 0.500000
O O16 0.939091 0.836252 0.577179
O O17 0.132992 0.000000 0.584970
#
# Coordination Sequence:
#
# PCOD8098268 Si02
#       7
#     8   8   8   8   8   8   8
#     4  10  20  34  56  83 116 154 192 237 287 349
#     4  10  20  35  59  84 115 157 197 236 285 353
#     4  10  21  37  60  87 121 154 195 244 292 348
#     4  10  22  41  64  88 116 156 202 248 299 348
#     4  11  24  41  62  88 118 153 196 249 304 353
#     4  11  21  41  60  86 117 154 199 243 293 352
#     4  10  20  35  54  86 120 152 190 235 292 348
#
# _framework density 19.890335
#
# number of rings (size 3 to 8) (size 9 to 14) (size 15 to 20)
#    0.000    1.714    2.857    1.714    0.000    3.429 
#    0.000    3.571    0.000   11.143    0.000    0.000 
#    0.000    0.000    0.000    0.000    0.000    0.000 
#
# Total GULP energy -346991.342558 kJ/mol
# GULP energy per Si atom -12392.547949 kJ/mol
# Density = 1.984506 g / cm^3
# Si number density = 19.890335 Si / 1000 Ang^3
#
#
#
# Elastic Constant Matrix: (Units=GPa)
#
#
# Indices 1 2 3 4 5 6 
#
# 1 96.3706 40.2449 31.9386 0.0000 -12.0548 0.0000
# 2 40.2449 124.6982 38.2170 0.0000 -7.0644 0.0000
# 3 31.9386 38.2170 84.6216 0.0000 -17.5277 0.0000
# 4 0.0000 0.0000 0.0000 17.5820 0.0000 1.6537
# 5 -12.0548 -7.0644 -17.5277 0.0000 38.0349 0.0000
# 6 0.0000 0.0000 0.0000 1.6537 0.0000 27.0916
#
#
#
# Elastic Compliance Matrix: (Units=1/GPa)
#
#
# Indices 1 2 3 4 5 6 
#
# 1 0.012956 -0.003131 -0.003036 0.000000 0.002126 0.000000
# 2 -0.003131 0.010066 -0.003519 0.000000 -0.000744 0.000000
# 3 -0.003036 -0.003519 0.015718 0.000000 0.005628 0.000000
# 4 0.000000 0.000000 0.000000 0.057205 0.000000 -0.003492
# 5 0.002126 -0.000744 0.005628 0.000000 0.029421 0.000000
# 6 0.000000 0.000000 0.000000 -0.003492 0.000000 0.037125
#
#
# Mechanical properties :
#
#
# Convention : Reuss Voigt Hill
#
# Bulk Modulus (GPa) = 51.62654 58.49906 55.06280
# Shear Modulus (GPa) = 26.55104 29.56101 28.05602
#
# Velocity S-wave (km/s) = 3.65755 3.85931 3.75978
# Velocity P-wave (km/s) = 6.62185 7.02379 6.82578
#
# Compressibility (1/GPa) = 0.01936988
#
# Stress axis : x y z
#
# Youngs Moduli (GPa) = 77.18454 99.34517 63.62206
#
# Poissons Ratio (x) = 0.31101 0.19314
# Poissons Ratio (y) = 0.24163 0.22386
# Poissons Ratio (z) = 0.23432 0.34955
#
# Static dielectric constant tensor:
#      x y z
#    x 3.597540 0.000000 -0.105930 
#    y 0.000000 3.682540 0.000000 
#    z -0.105930 0.000000 3.604540 
# 
# 
# High freq. dielectric constant tensor:
#      x y z
#    x 1.776610 0.000000 -0.008590 
#    y 0.000000 1.771820 0.000000 
#    z -0.008590 0.000000 1.779080 
# 
# From -- ./inp_files/356194.got.cif
#   From: 2010.06.25/outbox.cif.g09.slc.cpg/sg12_179_cif.got.tgz:356194.got - 2010.06.28 00:19:55.
