data_PCOD8098316
_publ_section_title
;
Structure prediction by ZEFSAII (Michael W. Deem and Ramdas Pophale) SiO2 
 PCOD8098316
Probable space group: C 2/M
;
_chemical_formula_sum "Si O2"
_cell_formula_units_Z 56
_cell_length_a 28.678226
_cell_length_b 9.130252
_cell_length_c 21.321504
_cell_angle_alpha 90.000000
_cell_angle_beta 30.696121
_cell_angle_gamma 90.000000
_cell_volume 2849.939343
_symmetry_space_group_name_H-M "C 2/M"
_symmetry_group_IT_number 12
_symmetry_cell_setting 'monoclinic'
loop_
_space_group_symop_operation_xyz
x,y,z
-x,y,-z
-x,-y,-z
x,-y,z
1/2+x,1/2+y,z
1/2-x,1/2+y,-z
1/2-x,1/2-y,-z
1/2+x,1/2-y,z
loop_
_atom_site_type_symbol
_atom_site_label
_atom_site_fract_x
_atom_site_fract_y
_atom_site_fract_z
Si Si1 0.447761 0.330666 0.122179
Si Si2 0.945155 0.672919 0.654301
Si Si3 0.019599 0.829857 0.173761
Si Si4 0.672332 0.666745 0.553225
Si Si5 0.763664 0.332607 0.319560
Si Si6 0.635135 0.826804 0.381871
Si Si7 0.652702 0.825031 0.107277
O O1 0.419978 0.500000 0.147859
O O2 0.512562 0.305413 0.107230
O O3 0.356293 0.238882 0.237146
O O4 0.500000 0.275132 0.000000
O O5 0.950030 0.500000 0.648868
O O6 0.878012 0.720747 0.675314
O O7 0.906593 0.731042 0.764659
O O8 0.047564 0.730557 0.522904
O O9 0.103215 0.732083 0.101807
O O10 0.927379 0.771567 0.314033
O O11 0.038030 0.000000 0.168366
O O12 0.677900 0.500000 0.569898
O O13 0.750000 0.750000 0.500000
O O14 0.687452 0.682479 0.461665
O O15 0.783526 0.500000 0.279457
O O16 0.726188 0.251363 0.301356
O O17 0.648190 0.000000 0.373612
O O18 0.663058 0.000000 0.093469
O O19 0.750000 0.750000 0.000000
#
# Coordination Sequence:
#
# PCOD8098316 Si02
#       7
#     8   8   8   8   8   8   8
#     4  10  22  40  60  79 105 149 197 231 267 326
#     4   8  17  35  58  83 107 139 187 235 274 324
#     4  10  21  39  60  84 113 144 186 239 284 328
#     4  10  20  34  56  84 115 148 183 227 279 335
#     4  11  22  34  52  85 120 146 178 225 284 340
#     4   9  17  34  60  83 107 142 184 229 277 330
#     4  11  23  39  59  83 112 148 190 233 280 334
#
# _framework density 19.649542
#
# number of rings (size 3 to 8) (size 9 to 14) (size 15 to 20)
#    0.000    2.143    1.429    2.571    0.000    3.143 
#    0.000    9.286    0.000    0.000    0.000    0.000 
#    0.000    0.000    0.000    0.000    0.000    0.000 
#
# Total GULP energy -347234.084121 kJ/mol
# GULP energy per Si atom -12401.217290 kJ/mol
# Density = 1.960482 g / cm^3
# Si number density = 19.649542 Si / 1000 Ang^3
#
#
#
# Elastic Constant Matrix: (Units=GPa)
#
#
# Indices 1 2 3 4 5 6 
#
# 1 129.9567 50.1116 40.2533 -0.0080 -9.5911 0.0018
# 2 50.1116 71.7436 29.6964 -0.0266 -8.6011 0.0134
# 3 40.2533 29.6964 85.3171 -0.0208 3.9174 0.0097
# 4 -0.0080 -0.0266 -0.0208 25.8316 0.0096 -5.8891
# 5 -9.5911 -8.6011 3.9174 0.0096 34.3117 -0.0038
# 6 0.0018 0.0134 0.0097 -5.8891 -0.0038 34.3795
#
#
#
# Elastic Compliance Matrix: (Units=1/GPa)
#
#
# Indices 1 2 3 4 5 6 
#
# 1 0.011263 -0.006308 -0.003207 -0.000006 0.001933 0.000002
# 2 -0.006308 0.020627 -0.004383 0.000013 0.003908 -0.000004
# 3 -0.003207 -0.004383 0.014930 0.000008 -0.003700 -0.000001
# 4 -0.000006 0.000013 0.000008 0.040286 -0.000010 0.006901
# 5 0.001933 0.003908 -0.003700 -0.000010 0.031087 0.000001
# 6 0.000002 -0.000004 -0.000001 0.006901 0.000001 0.030269
#
#
# Mechanical properties :
#
#
# Convention : Reuss Voigt Hill
#
# Bulk Modulus (GPa) = 52.56582 58.57113 55.56847
# Shear Modulus (GPa) = 27.38228 30.03497 28.70862
#
# Velocity S-wave (km/s) = 3.73706 3.91389 3.82649
# Velocity P-wave (km/s) = 6.74022 7.09206 6.91837
#
# Compressibility (1/GPa) = 0.01902377
#
# Stress axis : x y z
#
# Youngs Moduli (GPa) = 88.78366 48.47963 66.98048
#
# Poissons Ratio (x) = 0.30580 0.21483
# Poissons Ratio (y) = 0.56004 0.29358
# Poissons Ratio (z) = 0.28476 0.21249
#
# Static dielectric constant tensor:
#      x y z
#    x 3.613820 -0.000010 0.191720 
#    y -0.000010 3.404980 0.000020 
#    z 0.191720 0.000020 3.781260 
# 
# 
# High freq. dielectric constant tensor:
#      x y z
#    x 1.776110 0.000000 0.002890 
#    y 0.000000 1.746000 0.000000 
#    z 0.002890 0.000000 1.759570 
# 
# From -- ./inp_files/329459.got.cif
#   From: 2010.06.25/outbox.cif.g09.slc.cpg/sg12_165_cif.got.tgz:329459.got - 2010.06.28 00:19:55.
