data_PCOD8098154
_publ_section_title
;
Structure prediction by ZEFSAII (Michael W. Deem and Ramdas Pophale) SiO2 
 PCOD8098154
Probable space group: C 2/M
;
_chemical_formula_sum "Si O2"
_cell_formula_units_Z 64
_cell_length_a 15.250373
_cell_length_b 8.991552
_cell_length_c 33.453251
_cell_angle_alpha 90.000000
_cell_angle_beta 134.576893
_cell_angle_gamma 90.000000
_cell_volume 3267.548071
_symmetry_space_group_name_H-M "C 2/M"
_symmetry_group_IT_number 12
_symmetry_cell_setting 'monoclinic'
loop_
_space_group_symop_operation_xyz
x,y,z
-x,y,-z
-x,-y,-z
x,-y,z
1/2+x,1/2+y,z
1/2-x,1/2+y,-z
1/2-x,1/2-y,-z
1/2+x,1/2-y,z
loop_
_atom_site_type_symbol
_atom_site_label
_atom_site_fract_x
_atom_site_fract_y
_atom_site_fract_z
Si Si1 0.443930 0.671289 0.566297
Si Si2 0.165580 0.669572 0.673087
Si Si3 0.716474 0.824587 0.134614
Si Si4 0.434574 0.173269 0.052644
Si Si5 0.749101 0.174036 0.936891
Si Si6 0.118483 0.175674 0.739599
Si Si7 0.660826 0.670521 0.339885
Si Si8 0.749906 0.328195 0.559043
O O1 0.477026 0.500000 0.585233
O O2 0.565065 0.769174 0.609711
O O3 0.385802 0.692761 0.503516
O O4 0.346258 0.722216 0.567954
O O5 0.133448 0.500000 0.673061
O O6 0.172376 0.760122 0.715999
O O7 0.296426 0.684386 0.692469
O O8 0.576478 0.778376 0.099589
O O9 0.768574 0.748750 0.111580
O O10 0.799136 0.765247 0.197555
O O11 0.728964 0.000000 0.132991
O O12 0.370708 0.211858 0.074555
O O13 0.419308 0.000000 0.037641
O O14 0.371620 0.263644 0.996853
O O15 0.766033 0.000000 0.936371
O O16 0.978701 0.229081 0.701517
O O17 0.126842 0.000000 0.739485
O O18 0.671775 0.500000 0.357884
O O19 0.750122 0.774607 0.395186
O O20 0.790775 0.500000 0.568653
#
# Coordination Sequence:
#
# PCOD8098154 Si02
#       8
#     8   8   8   8   8   8   8   8
#     4  10  20  35  56  83 115 146 178 226 284 337
#     4  11  23  38  58  84 111 145 189 233 281 336
#     4  10  21  37  58  81 109 149 192 228 275 334
#     4   9  19  36  56  81 116 152 184 224 274 331
#     4  10  20  34  55  85 117 147 183 228 278 327
#     4  10  22  41  60  79 108 149 191 233 282 332
#     4  10  22  39  58  81 113 148 183 231 287 336
#     4  10  20  34  57  86 112 143 184 226 276 340
#
# _framework density 19.586552000000001
#
# number of rings (size 3 to 8) (size 9 to 14) (size 15 to 20)
#    0.000    2.000    1.250    1.875    0.000    7.000 
#    0.000    2.500    0.000    0.000    0.000    0.000 
#    0.000    0.000    0.000    0.000    0.000    0.000 
#
# Total GULP energy -396870.728168 kJ/mol
# GULP energy per Si atom -12402.210255 kJ/mol
# Density = 1.954197 g / cm^3
# Si number density = 19.586552 Si / 1000 Ang^3
#
#
#
# Elastic Constant Matrix: (Units=GPa)
#
#
# Indices 1 2 3 4 5 6 
#
# 1 85.2083 23.7398 54.3101 0.0000 -20.0801 0.0000
# 2 23.7398 40.6146 38.3409 0.0000 -7.1113 0.0000
# 3 54.3101 38.3409 138.5353 0.0000 -17.8106 0.0000
# 4 0.0000 0.0000 0.0000 29.3042 0.0000 -7.9106
# 5 -20.0801 -7.1113 -17.8106 0.0000 18.6020 0.0000
# 6 0.0000 0.0000 0.0000 -7.9106 0.0000 28.8726
#
#
#
# Elastic Compliance Matrix: (Units=1/GPa)
#
#
# Indices 1 2 3 4 5 6 
#
# 1 0.019316 -0.004523 -0.004404 0.000000 0.014905 0.000000
# 2 -0.004523 0.034716 -0.007705 0.000000 0.001012 0.000000
# 3 -0.004404 -0.007705 0.011504 0.000000 0.003314 0.000000
# 4 0.000000 0.000000 0.000000 0.036850 0.000000 0.010096
# 5 0.014905 0.001012 0.003314 0.000000 0.073407 0.000000
# 6 0.000000 0.000000 0.000000 0.010096 0.000000 0.037401
#
#
# Mechanical properties :
#
#
# Convention : Reuss Voigt Hill
#
# Bulk Modulus (GPa) = 30.98737 55.23778 43.11257
# Shear Modulus (GPa) = 19.43901 25.22025 22.32963
#
# Velocity S-wave (km/s) = 3.15376 3.59225 3.38012
# Velocity P-wave (km/s) = 5.39599 6.74306 6.10678
#
# Compressibility (1/GPa) = 0.03227122
#
# Stress axis : x y z
#
# Youngs Moduli (GPa) = 51.77122 28.80522 86.93003
#
# Poissons Ratio (x) = 0.13028 0.38288
# Poissons Ratio (y) = 0.23415 0.66977
# Poissons Ratio (z) = 0.22802 0.22194
#
# Static dielectric constant tensor:
#      x y z
#    x 3.534780 0.000000 0.016870 
#    y 0.000000 3.524460 0.000000 
#    z 0.016870 0.000000 3.649470 
# 
# 
# High freq. dielectric constant tensor:
#      x y z
#    x 1.763830 0.000000 -0.004660 
#    y 0.000000 1.762870 0.000000 
#    z -0.004660 0.000000 1.758320 
# 
# From -- ./inp_files/375623.got.cif
#   From: 2010.06.25/outbox.cif.g09.slc.cpg/sg12_188_cif.got.tgz:375623.got - 2010.06.28 00:19:55.
