data_PCOD8098205
_publ_section_title
;
Structure prediction by ZEFSAII (Michael W. Deem and Ramdas Pophale) SiO2 
 PCOD8098205
Probable space group: C 2/M
;
_chemical_formula_sum "Si O2"
_cell_formula_units_Z 64
_cell_length_a 15.060111
_cell_length_b 17.357806
_cell_length_c 31.336510
_cell_angle_alpha 90.000000
_cell_angle_beta 156.791563
_cell_angle_gamma 90.000000
_cell_volume 3228.159576
_symmetry_space_group_name_H-M "C 2/M"
_symmetry_group_IT_number 12
_symmetry_cell_setting 'monoclinic'
loop_
_space_group_symop_operation_xyz
x,y,z
-x,y,-z
-x,-y,-z
x,-y,z
1/2+x,1/2+y,z
1/2-x,1/2+y,-z
1/2-x,1/2-y,-z
1/2+x,1/2-y,z
loop_
_atom_site_type_symbol
_atom_site_label
_atom_site_fract_x
_atom_site_fract_y
_atom_site_fract_z
Si Si1 0.343157 0.310339 0.007272
Si Si2 0.434404 0.169618 0.193990
Si Si3 0.131810 0.910323 0.637926
Si Si4 0.665268 0.197640 0.105707
Si Si5 0.758286 0.090569 0.810627
Si Si6 0.350849 0.414487 0.255058
Si Si7 0.372492 0.908166 0.577166
Si Si8 0.367457 0.911616 0.480599
O O1 0.147833 0.346343 0.891096
O O2 0.250000 0.250000 0.000000
O O3 0.514032 0.269612 0.051145
O O4 0.497192 0.377182 0.096769
O O5 0.698349 0.145662 0.312771
O O6 0.392499 0.261039 0.186989
O O7 0.302622 0.113458 0.168068
O O8 0.179000 0.898261 0.708591
O O9 0.874978 0.883986 0.514550
O O10 0.170238 0.000000 0.641895
O O11 0.705405 0.145100 0.164044
O O12 0.500000 0.150869 0.000000
O O13 0.564358 0.124072 0.693363
O O14 0.769909 0.000000 0.811473
O O15 0.265446 0.500000 0.206052
O O16 0.606981 0.404954 0.353944
O O17 0.415396 0.873680 0.548379
O O18 0.372373 0.000000 0.573740
O O19 0.500000 0.870278 0.500000
O O20 0.446464 0.000000 0.518219
#
# Coordination Sequence:
#
# PCOD8098205 Si02
#       8
#     8   8   8   8   8   8   8   8
#     4  10  21  38  56  73 105 153 188 222 270 327
#     4  10  20  34  56  79 107 153 187 215 270 338
#     4   9  17  31  56  84 109 140 180 224 270 324
#     4   9  19  35  51  71 105 144 177 216 276 329
#     4  10  20  35  58  86 115 142 181 235 276 324
#     4   9  17  31  55  80 102 133 178 231 273 316
#     4   8  16  31  51  81 116 144 172 221 286 329
#     4   8  14  28  51  75 103 140 177 217 269 326
#
# _framework density 19.825538999999999
#
# number of rings (size 3 to 8) (size 9 to 14) (size 15 to 20)
#    0.000    2.875    0.000    3.750    0.000    2.250 
#    4.500    2.500    5.500    6.750    0.000    0.000 
#    0.000    0.000    0.000    0.000    0.000    0.000 
#
# Total GULP energy -396454.321981 kJ/mol
# GULP energy per Si atom -12389.197562 kJ/mol
# Density = 1.978042 g / cm^3
# Si number density = 19.825539 Si / 1000 Ang^3
#
#
#
# Elastic Constant Matrix: (Units=GPa)
#
#
# Indices 1 2 3 4 5 6 
#
# 1 75.6644 18.3557 28.9603 0.0067 9.9432 -0.0063
# 2 18.3557 44.8562 30.4503 0.0016 -3.4054 -0.0029
# 3 28.9603 30.4503 90.6720 0.0247 -9.1114 -0.0190
# 4 0.0067 0.0016 0.0247 20.3318 -0.0020 3.4459
# 5 9.9432 -3.4054 -9.1114 -0.0020 32.2329 0.0049
# 6 -0.0063 -0.0029 -0.0190 3.4459 0.0049 27.3646
#
#
#
# Elastic Compliance Matrix: (Units=1/GPa)
#
#
# Indices 1 2 3 4 5 6 
#
# 1 0.016973 -0.004300 -0.004682 -0.000001 -0.007014 0.000002
# 2 -0.004300 0.029969 -0.008481 0.000010 0.002095 -0.000005
# 3 -0.004682 -0.008481 0.015878 -0.000018 0.005037 0.000010
# 4 -0.000001 0.000010 -0.000018 0.050257 0.000000 -0.006329
# 5 -0.007014 0.002095 0.005037 0.000000 0.034833 -0.000004
# 6 0.000002 -0.000005 0.000010 -0.006329 -0.000004 0.037340
#
#
# Mechanical properties :
#
#
# Convention : Reuss Voigt Hill
#
# Bulk Modulus (GPa) = 35.84762 40.74724 38.29743
# Shear Modulus (GPa) = 21.78902 24.88095 23.33499
#
# Velocity S-wave (km/s) = 3.31877 3.54643 3.43449
# Velocity P-wave (km/s) = 5.72769 6.11286 5.92341
#
# Compressibility (1/GPa) = 0.02789585
#
# Stress axis : x y z
#
# Youngs Moduli (GPa) = 58.91719 33.36780 62.97893
#
# Poissons Ratio (x) = 0.14347 0.29486
# Poissons Ratio (y) = 0.25333 0.53410
# Poissons Ratio (z) = 0.27585 0.28298
#
# Static dielectric constant tensor:
#      x y z
#    x 3.669140 0.000000 -0.013500 
#    y 0.000000 3.237600 -0.000030 
#    z -0.013500 -0.000030 4.045720 
# 
# 
# High freq. dielectric constant tensor:
#      x y z
#    x 1.772320 0.000000 -0.000630 
#    y 0.000000 1.733010 0.000000 
#    z -0.000630 0.000000 1.775730 
# 
# From -- ./inp_files/377116.got.cif
#   From: 2010.06.25/outbox.cif.g09.slc.cpg/sg12_189_cif.got.tgz:377116.got - 2010.06.28 00:19:55.
