data_PCOD8098640
_publ_section_title
;
Structure prediction by ZEFSAII (Michael W. Deem and Ramdas Pophale) SiO2 
 PCOD8098640
Probable space group: C 2/M
;
_chemical_formula_sum "Si O2"
_cell_formula_units_Z 64
_cell_length_a 30.261565
_cell_length_b 8.955275
_cell_length_c 19.896543
_cell_angle_alpha 90.000000
_cell_angle_beta 142.359404
_cell_angle_gamma 90.000000
_cell_volume 3292.914004
_symmetry_space_group_name_H-M "C 2/M"
_symmetry_group_IT_number 12
_symmetry_cell_setting 'monoclinic'
loop_
_space_group_symop_operation_xyz
x,y,z
-x,y,-z
-x,-y,-z
x,-y,z
1/2+x,1/2+y,z
1/2-x,1/2+y,-z
1/2-x,1/2-y,-z
1/2+x,1/2-y,z
loop_
_atom_site_type_symbol
_atom_site_label
_atom_site_fract_x
_atom_site_fract_y
_atom_site_fract_z
Si Si1 0.163533 0.826213 0.462186
Si Si2 0.321369 0.326498 0.058972
Si Si3 0.077742 0.676060 0.467133
Si Si4 0.816086 0.173309 0.899536
Si Si5 0.830688 0.173728 0.310278
Si Si6 0.928811 0.826806 0.301030
Si Si7 0.419697 0.674778 0.905192
Si Si8 0.187319 0.174583 0.337991
O O1 0.095940 0.745904 0.416364
O O2 0.155127 0.795060 0.372972
O O3 0.237958 0.761658 0.581443
O O4 0.161102 0.000000 0.476039
O O5 0.307654 0.500000 0.053198
O O6 0.390798 0.276606 0.185905
O O7 0.250000 0.250000 0.000000
O O8 0.338013 0.285812 0.001976
O O9 0.078964 0.500000 0.463326
O O10 0.137722 0.729609 0.591582
O O11 0.999589 0.729001 0.397775
O O12 0.751611 0.278727 0.798707
O O13 0.884923 0.208787 0.935785
O O14 0.792681 0.000000 0.865030
O O15 0.873862 0.209046 0.294569
O O16 0.834652 0.000000 0.334038
O O17 0.951498 0.000000 0.327653
O O18 0.426938 0.500000 0.900489
O O19 0.369414 0.739246 0.784768
O O20 0.500000 0.747794 0.000000
O O21 0.203669 0.000000 0.346219
#
# Coordination Sequence:
#
# PCOD8098640 Si02
#       8
#     8   8   8   8   8   8   8   8
#     4  10  20  35  57  83 111 148 188 232 286 348
#     4  10  20  36  58  84 115 151 191 235 280 335
#     4  12  25  38  55  82 115 149 190 242 292 346
#     4  10  20  34  59  90 117 150 194 238 281 336
#     4  11  22  38  60  83 113 151 189 234 290 352
#     4  10  22  39  57  81 114 153 191 234 287 345
#     4   9  18  33  54  83 114 145 184 232 281 329
#     4   9  18  34  58  84 112 147 188 234 282 338
#
# _framework density 19.435672
#
# number of rings (size 3 to 8) (size 9 to 14) (size 15 to 20)
#    0.000    1.875    1.250    3.000    0.000    5.500 
#    0.000    3.750    0.000    1.500    0.000    0.000 
#    0.000    0.000    0.000    0.000    0.000    0.000 
#
# Total GULP energy -396916.776324 kJ/mol
# GULP energy per Si atom -12403.649260 kJ/mol
# Density = 1.939144 g / cm^3
# Si number density = 19.435672 Si / 1000 Ang^3
#
#
#
# Elastic Constant Matrix: (Units=GPa)
#
#
# Indices 1 2 3 4 5 6 
#
# 1 116.3427 37.1659 41.6988 0.0000 -0.8228 0.0000
# 2 37.1659 69.4182 23.7781 0.0000 2.1049 0.0000
# 3 41.6988 23.7781 58.9817 0.0000 -14.7158 0.0000
# 4 0.0000 0.0000 0.0000 26.4586 0.0000 3.2487
# 5 -0.8228 2.1049 -14.7158 0.0000 30.8937 0.0000
# 6 0.0000 0.0000 0.0000 3.2487 0.0000 28.9096
#
#
#
# Elastic Compliance Matrix: (Units=1/GPa)
#
#
# Indices 1 2 3 4 5 6 
#
# 1 0.012797 -0.003903 -0.008310 0.000000 -0.003351 0.000000
# 2 -0.003903 0.018594 -0.005764 0.000000 -0.004116 0.000000
# 3 -0.008310 -0.005764 0.028594 0.000000 0.013792 0.000000
# 4 0.000000 0.000000 0.000000 0.038324 0.000000 -0.004307
# 5 -0.003351 -0.004116 0.013792 0.000000 0.039130 0.000000
# 6 0.000000 0.000000 0.000000 -0.004307 0.000000 0.035075
#
#
# Mechanical properties :
#
#
# Convention : Reuss Voigt Hill
#
# Bulk Modulus (GPa) = 41.61180 50.00315 45.80748
# Shear Modulus (GPa) = 23.09719 26.72568 24.91143
#
# Velocity S-wave (km/s) = 3.45105 3.71224 3.58402
# Velocity P-wave (km/s) = 6.11033 6.64512 6.38333
#
# Compressibility (1/GPa) = 0.02403164
#
# Stress axis : x y z
#
# Youngs Moduli (GPa) = 78.14446 53.77990 34.97273
#
# Poissons Ratio (x) = 0.20992 0.29061
# Poissons Ratio (y) = 0.30503 0.20157
# Poissons Ratio (z) = 0.64935 0.30997
#
# Static dielectric constant tensor:
#      x y z
#    x 3.794120 0.000000 -0.185860 
#    y 0.000000 3.408600 0.000000 
#    z -0.185860 0.000000 3.730690 
# 
# 
# High freq. dielectric constant tensor:
#      x y z
#    x 1.767630 0.000000 -0.009130 
#    y 0.000000 1.739700 0.000000 
#    z -0.009130 0.000000 1.760400 
# 
# From -- ./inp_files/295545.got.cif
#   From: 2010.06.25/outbox.cif.g09.slc.cpg/sg12_148_cif.got.tgz:295545.got - 2010.06.28 00:19:55.
