data_PCOD8098258
_publ_section_title
;
Structure prediction by ZEFSAII (Michael W. Deem and Ramdas Pophale) SiO2 
 PCOD8098258
Probable space group: C 2/M
;
_chemical_formula_sum "Si O2"
_cell_formula_units_Z 64
_cell_length_a 32.427353
_cell_length_b 15.089186
_cell_length_c 12.815755
_cell_angle_alpha 90.000000
_cell_angle_beta 151.579664
_cell_angle_gamma 90.000000
_cell_volume 2984.492023
_symmetry_space_group_name_H-M "C 2/M"
_symmetry_group_IT_number 12
_symmetry_cell_setting 'monoclinic'
loop_
_space_group_symop_operation_xyz
x,y,z
-x,y,-z
-x,-y,-z
x,-y,z
1/2+x,1/2+y,z
1/2-x,1/2+y,-z
1/2-x,1/2-y,-z
1/2+x,1/2-y,z
loop_
_atom_site_type_symbol
_atom_site_label
_atom_site_fract_x
_atom_site_fract_y
_atom_site_fract_z
Si Si1 0.914874 0.721183 0.247922
Si Si2 0.821730 0.095937 0.383597
Si Si3 0.846886 0.649240 0.896106
Si Si4 0.731729 0.897129 0.988878
Si Si5 0.276511 0.666008 0.671006
Si Si6 0.595411 0.100046 0.191193
Si Si7 0.663869 0.598633 0.978471
Si Si8 0.097582 0.105906 0.234044
O O1 0.841526 0.675261 0.154442
O O2 0.904782 0.826703 0.207411
O O3 0.000000 0.700518 0.500000
O O4 0.918210 0.678385 0.140099
O O5 0.722851 0.086161 0.204480
O O6 0.877335 0.147296 0.595742
O O7 0.865334 0.000000 0.471033
O O8 0.812952 0.134156 0.245940
O O9 0.792789 0.731948 0.730247
O O10 0.895078 0.597585 0.912286
O O11 0.706256 0.000000 0.959513
O O12 0.755641 0.890711 0.921128
O O13 0.174292 0.654540 0.418511
O O14 0.336902 0.639072 0.708386
O O15 0.301205 0.608101 0.826536
O O16 0.598800 0.000000 0.242433
O O17 0.500000 0.142476 0.000000
O O18 0.622423 0.500000 0.875090
O O19 0.104949 0.000000 0.251669
O O20 0.000000 0.139102 0.000000
#
# Coordination Sequence:
#
# PCOD8098258 Si02
#       8
#     8   8   8   8   8   8   8   8
#     4  10  22  39  59  87 120 153 199 255 301 348
#     4   9  17  34  58  81 110 151 195 243 291 342
#     4  10  21  38  58  82 114 158 197 242 298 352
#     4   9  19  37  61  87 114 155 204 243 296 359
#     4  11  22  39  59  87 122 158 194 244 299 353
#     4  11  23  38  59  88 122 160 199 240 297 366
#     4  10  21  39  63  86 117 162 200 240 302 365
#     4  10  20  34  56  83 112 149 193 243 294 345
#
# _framework density 21.444185000000001
#
# number of rings (size 3 to 8) (size 9 to 14) (size 15 to 20)
#    0.000    2.000    1.250    2.250    0.000    2.500 
#    4.500    1.250    0.000    0.000    0.000    0.000 
#    0.000    0.000    0.000    0.000    0.000    0.000 
#
# Total GULP energy -396421.647471 kJ/mol
# GULP energy per Si atom -12388.176483 kJ/mol
# Density = 2.139538 g / cm^3
# Si number density = 21.444185 Si / 1000 Ang^3
#
#
#
# Elastic Constant Matrix: (Units=GPa)
#
#
# Indices 1 2 3 4 5 6 
#
# 1 71.2097 0.9362 34.5677 0.0000 -12.7018 0.0000
# 2 0.9362 60.0292 22.6853 0.0000 -10.9461 0.0000
# 3 34.5677 22.6853 158.2828 0.0000 -8.5490 0.0000
# 4 0.0000 0.0000 0.0000 11.6890 0.0000 -6.1084
# 5 -12.7018 -10.9461 -8.5490 0.0000 28.8963 0.0000
# 6 0.0000 0.0000 0.0000 -6.1084 0.0000 21.5794
#
#
#
# Elastic Compliance Matrix: (Units=1/GPa)
#
#
# Indices 1 2 3 4 5 6 
#
# 1 0.017118 0.002473 -0.003695 0.000000 0.007368 0.000000
# 2 0.002473 0.019065 -0.002870 0.000000 0.007460 0.000000
# 3 -0.003695 -0.002870 0.007510 0.000000 -0.000489 0.000000
# 4 0.000000 0.000000 0.000000 0.100402 0.000000 0.028420
# 5 0.007368 0.007460 -0.000489 0.000000 0.040526 0.000000
# 6 0.000000 0.000000 0.000000 0.028420 0.000000 0.054385
#
#
# Mechanical properties :
#
#
# Convention : Reuss Voigt Hill
#
# Bulk Modulus (GPa) = 28.16141 45.10003 36.63072
# Shear Modulus (GPa) = 19.30310 27.85512 23.57911
#
# Velocity S-wave (km/s) = 3.00351 3.60802 3.31955
# Velocity P-wave (km/s) = 5.01887 6.19952 5.64017
#
# Compressibility (1/GPa) = 0.03550959
#
# Stress axis : x y z
#
# Youngs Moduli (GPa) = 58.41637 52.45302 133.16296
#
# Poissons Ratio (x) = -0.12971 0.49204
# Poissons Ratio (y) = -0.14446 0.38212
# Poissons Ratio (z) = 0.21585 0.15052
#
# Static dielectric constant tensor:
#      x y z
#    x 3.996650 0.000000 -0.371450 
#    y 0.000000 3.895110 0.000000 
#    z -0.371450 0.000000 3.889240 
# 
# 
# High freq. dielectric constant tensor:
#      x y z
#    x 1.840740 0.000000 -0.029520 
#    y 0.000000 1.843410 0.000000 
#    z -0.029520 0.000000 1.827860 
# 
# From -- ./inp_files/190056.got.cif
#   From: 2010.06.25/outbox.cif.g09.slc.cpg/sg12_96_cif.got.tgz:190056.got - 2010.06.28 00:19:55.
