data_PCOD8098082
_publ_section_title
;
Structure prediction by ZEFSAII (Michael W. Deem and Ramdas Pophale) SiO2 
 PCOD8098082
Probable space group: C 2/M
;
_chemical_formula_sum "Si O2"
_cell_formula_units_Z 64
_cell_length_a 19.937899
_cell_length_b 9.244142
_cell_length_c 28.827949
_cell_angle_alpha 90.000000
_cell_angle_beta 39.220617
_cell_angle_gamma 90.000000
_cell_volume 3359.607169
_symmetry_space_group_name_H-M "C 2/M"
_symmetry_group_IT_number 12
_symmetry_cell_setting 'monoclinic'
loop_
_space_group_symop_operation_xyz
x,y,z
-x,y,-z
-x,-y,-z
x,-y,z
1/2+x,1/2+y,z
1/2-x,1/2+y,-z
1/2-x,1/2-y,-z
1/2+x,1/2-y,z
loop_
_atom_site_type_symbol
_atom_site_label
_atom_site_fract_x
_atom_site_fract_y
_atom_site_fract_z
Si Si1 0.269226 0.170341 0.192653
Si Si2 0.109839 0.665561 0.422766
Si Si3 0.922689 0.665612 0.666745
Si Si4 0.118847 0.165096 0.945396
Si Si5 0.853461 0.832183 0.961185
Si Si6 0.348375 0.832534 0.425353
Si Si7 0.685908 0.833209 0.661168
Si Si8 0.062767 0.670423 0.818455
O O1 0.152898 0.234547 0.262404
O O2 0.305833 0.230398 0.123748
O O3 0.350221 0.217086 0.189952
O O4 0.259205 0.000000 0.195170
O O5 0.118439 0.500000 0.434325
O O6 0.115765 0.682631 0.364866
O O7 0.204711 0.748676 0.395835
O O8 0.000000 0.732784 0.500000
O O9 0.913050 0.500000 0.689040
O O10 0.043788 0.718895 0.607334
O O11 0.134628 0.000000 0.920146
O O12 0.145106 0.184029 0.984698
O O13 0.000000 0.217212 0.000000
O O14 0.956321 0.759695 0.883468
O O15 0.849847 0.000000 0.948154
O O16 0.750000 0.750000 0.000000
O O17 0.250000 0.750000 0.500000
O O18 0.364691 0.802176 0.361873
O O19 0.326520 0.000000 0.446525
O O20 0.605267 0.784202 0.744836
O O21 0.714010 0.000000 0.653661
O O22 0.037520 0.500000 0.835129
#
# Coordination Sequence:
#
# PCOD8098082 Si02
#       8
#     8   8   8   8   8   8   8   8
#     4  11  22  36  60  91 122 153 194 251 298 341
#     4  10  20  34  55  83 114 148 190 240 286 340
#     4  10  21  37  57  83 117 154 194 238 291 353
#     4  10  21  39  62  87 117 157 202 241 289 354
#     4  11  24  41  63  90 123 159 196 242 293 350
#     4  10  22  40  61  84 115 156 196 241 294 350
#     4  10  21  38  59  84 115 153 194 236 292 352
#     4  10  21  38  59  86 122 157 194 243 297 351
#
# _framework density 19.049845000000001
#
# number of rings (size 3 to 8) (size 9 to 14) (size 15 to 20)
#    0.000    1.750    2.500    1.500    0.000    5.500 
#    0.000    2.500    0.000    0.000    0.000    0.000 
#    0.000    0.000    0.000    0.000    0.000    0.000 
#
# Total GULP energy -396919.586483 kJ/mol
# GULP energy per Si atom -12403.737078 kJ/mol
# Density = 1.900649 g / cm^3
# Si number density = 19.049845 Si / 1000 Ang^3
#
#
#
# Elastic Constant Matrix: (Units=GPa)
#
#
# Indices 1 2 3 4 5 6 
#
# 1 64.3651 31.8709 23.4176 0.0000 -13.1166 -0.0008
# 2 31.8709 72.4566 58.3111 -0.0001 -10.6021 -0.0013
# 3 23.4176 58.3111 127.6953 -0.0001 -9.7609 0.0001
# 4 0.0000 -0.0001 -0.0001 36.3198 0.0000 -3.7765
# 5 -13.1166 -10.6021 -9.7609 0.0000 36.3592 0.0001
# 6 -0.0008 -0.0013 0.0001 -3.7765 0.0001 30.0425
#
#
#
# Elastic Compliance Matrix: (Units=1/GPa)
#
#
# Indices 1 2 3 4 5 6 
#
# 1 0.020741 -0.008906 0.000650 0.000000 0.005060 0.000000
# 2 -0.008906 0.026161 -0.010184 0.000000 0.001682 0.000001
# 3 0.000650 -0.010184 0.012408 0.000000 0.000596 0.000000
# 4 0.000000 0.000000 0.000000 0.027898 0.000000 0.003507
# 5 0.005060 0.001682 0.000596 0.000000 0.029979 0.000000
# 6 0.000000 0.000001 0.000000 0.003507 0.000000 0.033727
#
#
# Mechanical properties :
#
#
# Convention : Reuss Voigt Hill
#
# Bulk Modulus (GPa) = 44.58457 54.63512 49.60984
# Shear Modulus (GPa) = 25.60553 30.60548 28.10550
#
# Velocity S-wave (km/s) = 3.67022 4.01259 3.84522
# Velocity P-wave (km/s) = 6.43550 7.08591 6.76852
#
# Compressibility (1/GPa) = 0.02242929
#
# Stress axis : x y z
#
# Youngs Moduli (GPa) = 48.21424 38.22504 80.59232
#
# Poissons Ratio (x) = 0.34042 -0.05238
# Poissons Ratio (y) = 0.42938 0.82079
# Poissons Ratio (z) = -0.03134 0.38930
#
# Static dielectric constant tensor:
#      x y z
#    x 3.577650 0.000000 0.032750 
#    y 0.000000 3.485480 0.000000 
#    z 0.032750 0.000000 3.531120 
# 
# 
# High freq. dielectric constant tensor:
#      x y z
#    x 1.744150 0.000000 0.002470 
#    y 0.000000 1.736570 0.000000 
#    z 0.002470 0.000000 1.751560 
# 
# From -- ./inp_files/378009.got.cif
#   From: 2010.06.25/outbox.cif.g09.slc.cpg/sg12_190_cif.got.tgz:378009.got - 2010.06.28 00:19:55.
