data_PCOD8098583
_publ_section_title
;
Structure prediction by ZEFSAII (Michael W. Deem and Ramdas Pophale) SiO2 
 PCOD8098583
Probable space group: C 2/M
;
_chemical_formula_sum "Si O2"
_cell_formula_units_Z 56
_cell_length_a 29.756720
_cell_length_b 8.754388
_cell_length_c 18.807025
_cell_angle_alpha 90.000000
_cell_angle_beta 146.519069
_cell_angle_gamma 90.000000
_cell_volume 2702.725832
_symmetry_space_group_name_H-M "C 2/M"
_symmetry_group_IT_number 12
_symmetry_cell_setting 'monoclinic'
loop_
_space_group_symop_operation_xyz
x,y,z
-x,y,-z
-x,-y,-z
x,-y,z
1/2+x,1/2+y,z
1/2-x,1/2+y,-z
1/2-x,1/2-y,-z
1/2+x,1/2-y,z
loop_
_atom_site_type_symbol
_atom_site_label
_atom_site_fract_x
_atom_site_fract_y
_atom_site_fract_z
Si Si1 0.823526 0.680556 0.227639
Si Si2 0.371594 0.827624 0.691050
Si Si3 0.293122 0.325676 0.456657
Si Si4 0.611238 0.179835 0.535839
Si Si5 0.480644 0.677620 0.050865
Si Si6 0.639701 0.317947 0.991117
Si Si7 0.566121 0.818868 0.753991
O O1 0.817623 0.500000 0.215572
O O2 0.877716 0.727210 0.367305
O O3 0.868354 0.744139 0.216711
O O4 0.731693 0.747717 0.109794
O O5 0.334920 0.789977 0.566287
O O6 0.304136 0.810348 0.663833
O O7 0.442851 0.708326 0.798007
O O8 0.406000 0.000000 0.734206
O O9 0.320382 0.500000 0.507167
O O10 0.318131 0.271481 0.411613
O O11 0.523192 0.231533 0.390782
O O12 0.624848 0.000000 0.543634
O O13 0.469317 0.500000 0.022753
O O14 0.400427 0.737861 0.986892
O O15 0.500000 0.758520 0.000000
O O16 0.637817 0.500000 0.983462
O O17 0.585457 0.253924 0.855269
O O18 0.570862 0.000000 0.766744
#
# Coordination Sequence:
#
# PCOD8098583 Si02
#       7
#     8   8   8   8   8   8   8
#     4   9  19  36  58  83 113 147 188 234 277 332
#     4  10  21  37  56  79 108 146 190 231 277 329
#     4  10  21  36  55  81 112 145 183 230 280 334
#     4  10  20  34  58  85 111 145 186 231 283 335
#     4  10  22  37  56  82 113 148 187 230 279 334
#     4  10  21  37  57  82 111 150 191 227 277 336
#     4  10  20  36  58  85 113 145 187 234 282 331
#
# _framework density 20.719822000000001
#
# number of rings (size 3 to 8) (size 9 to 14) (size 15 to 20)
#    0.000    2.143    0.000    2.571    2.000    7.143 
#    0.000    1.429    0.000    1.714    0.000    0.000 
#    0.000    0.000    0.000    0.000    0.000    0.000 
#
# Total GULP energy -347158.524694 kJ/mol
# GULP energy per Si atom -12398.518739 kJ/mol
# Density = 2.067266 g / cm^3
# Si number density = 20.719822 Si / 1000 Ang^3
#
#
#
# Elastic Constant Matrix: (Units=GPa)
#
#
# Indices 1 2 3 4 5 6 
#
# 1 149.3567 29.1262 32.1024 0.0000 7.4072 0.0000
# 2 29.1262 21.5630 13.6853 0.0000 3.9983 0.0000
# 3 32.1024 13.6853 91.0213 0.0000 1.6153 0.0000
# 4 0.0000 0.0000 0.0000 24.9008 0.0000 -3.0821
# 5 7.4072 3.9983 1.6153 0.0000 29.0594 0.0000
# 6 0.0000 0.0000 0.0000 -3.0821 0.0000 25.1617
#
#
#
# Elastic Compliance Matrix: (Units=1/GPa)
#
#
# Indices 1 2 3 4 5 6 
#
# 1 0.009294 -0.011442 -0.001545 0.000000 -0.000709 0.000000
# 2 -0.011442 0.066663 -0.005882 0.000000 -0.005929 0.000000
# 3 -0.001545 -0.005882 0.012407 0.000000 0.000514 0.000000
# 4 0.000000 0.000000 0.000000 0.040778 0.000000 0.004995
# 5 -0.000709 -0.005929 0.000514 0.000000 0.035380 0.000000
# 6 0.000000 0.000000 0.000000 0.004995 0.000000 0.040355
#
#
# Mechanical properties :
#
#
# Convention : Reuss Voigt Hill
#
# Bulk Modulus (GPa) = 19.75281 45.75209 32.75245
# Shear Modulus (GPa) = 19.26855 28.29284 23.78070
#
# Velocity S-wave (km/s) = 3.05283 3.69927 3.39149
# Velocity P-wave (km/s) = 4.68832 6.35416 5.58371
#
# Compressibility (1/GPa) = 0.05062571
#
# Stress axis : x y z
#
# Youngs Moduli (GPa) = 107.59769 15.00072 80.60177
#
# Poissons Ratio (x) = 0.17163 0.12453
# Poissons Ratio (y) = 1.23110 0.47413
# Poissons Ratio (z) = 0.16624 0.08824
#
# Static dielectric constant tensor:
#      x y z
#    x 4.158170 0.000000 0.202360 
#    y 0.000000 3.376930 0.000000 
#    z 0.202360 0.000000 3.694990 
# 
# 
# High freq. dielectric constant tensor:
#      x y z
#    x 1.829670 0.000000 0.007430 
#    y 0.000000 1.778470 0.000000 
#    z 0.007430 0.000000 1.807770 
# 
# From -- ./inp_files/329726.got.cif
#   From: 2010.06.25/outbox.cif.g09.slc.cpg/sg12_165_cif.got.tgz:329726.got - 2010.06.28 00:19:55.
