data_PCOD8098395
_publ_section_title
;
Structure prediction by ZEFSAII (Michael W. Deem and Ramdas Pophale) SiO2 
 PCOD8098395
Probable space group: C 2/M
;
_chemical_formula_sum "Si O2"
_cell_formula_units_Z 56
_cell_length_a 9.302559
_cell_length_b 14.567644
_cell_length_c 24.021019
_cell_angle_alpha 90.000000
_cell_angle_beta 55.279582
_cell_angle_gamma 90.000000
_cell_volume 2675.616634
_symmetry_space_group_name_H-M "C 2/M"
_symmetry_group_IT_number 12
_symmetry_cell_setting 'monoclinic'
loop_
_space_group_symop_operation_xyz
x,y,z
-x,y,-z
-x,-y,-z
x,-y,z
1/2+x,1/2+y,z
1/2-x,1/2+y,-z
1/2-x,1/2-y,-z
1/2+x,1/2-y,z
loop_
_atom_site_type_symbol
_atom_site_label
_atom_site_fract_x
_atom_site_fract_y
_atom_site_fract_z
Si Si1 0.705478 0.309980 0.455933
Si Si2 0.811399 0.603930 0.065262
Si Si3 0.126472 0.817140 0.670718
Si Si4 0.184454 0.102823 0.974106
Si Si5 0.746507 0.000000 0.400108
Si Si6 0.249377 0.230572 0.758744
Si Si7 0.865870 0.500000 0.448760
Si Si8 0.639888 0.221156 0.150415
O O1 0.500000 0.324986 0.500000
O O2 0.750000 0.250000 0.500000
O O3 0.768645 0.260205 0.386107
O O4 0.797097 0.408726 0.434249
O O5 0.821901 0.500000 0.088997
O O6 0.723328 0.675531 0.127658
O O7 0.687612 0.603988 0.039386
O O8 0.000000 0.634824 0.000000
O O9 0.228148 0.830797 0.707702
O O10 0.920545 0.795455 0.719963
O O11 0.134323 0.912334 0.636951
O O12 0.328714 0.164600 0.912593
O O13 0.203852 0.000000 0.946182
O O14 0.000000 0.147543 0.000000
O O15 0.575305 0.000000 0.399172
O O16 0.695626 0.000000 0.474903
O O17 0.271804 0.176395 0.813008
O O18 0.068288 0.286335 0.798490
#
# Coordination Sequence:
#
# PCOD8098395 Si02
#       8
#     8   8   8   8   4   8   4   8
#     4  12  23  40  69  96 132 163 201 268 321 372
#     4  10  20  34  58  91 119 150 196 253 317 374
#     4  11  23  44  63  90 123 168 203 258 300 371
#     4  10  20  34  56  87 116 147 190 248 316 369
#     4  11  22  40  68  94 130 158 207 251 319 391
#     4  10  24  41  59  83 118 163 220 239 296 354
#     4  11  23  38  64 110 122 158 204 251 335 391
#     4  11  20  39  60  83 118 162 201 260 292 367
#
# _framework density 20.929753000000002
#
# number of rings (size 3 to 8) (size 9 to 14) (size 15 to 20)
#    0.000    1.286    1.429    5.357    0.000    0.000 
#    7.714    0.000    3.143    0.000    0.000    0.000 
#    0.000    0.000    0.000    0.000    0.000    0.000 
#
# Total GULP energy -347017.444114 kJ/mol
# GULP energy per Si atom -12393.480147 kJ/mol
# Density = 2.088212 g / cm^3
# Si number density = 20.929753 Si / 1000 Ang^3
#
#
#
# Elastic Constant Matrix: (Units=GPa)
#
#
# Indices 1 2 3 4 5 6 
#
# 1 105.2497 6.4690 20.6908 0.0000 -7.5500 0.0001
# 2 6.4690 105.4647 28.3924 0.0000 -5.9239 0.0001
# 3 20.6908 28.3924 85.4692 -0.0002 -4.6562 0.0001
# 4 0.0000 0.0000 -0.0002 37.5925 0.0001 6.8529
# 5 -7.5500 -5.9239 -4.6562 0.0001 41.0030 -0.0001
# 6 0.0001 0.0001 0.0001 6.8529 -0.0001 21.6040
#
#
#
# Elastic Compliance Matrix: (Units=1/GPa)
#
#
# Indices 1 2 3 4 5 6 
#
# 1 0.010079 0.000115 -0.002391 0.000000 0.001601 0.000000
# 2 0.000115 0.010466 -0.003442 0.000000 0.001142 0.000000
# 3 -0.002391 -0.003442 0.013455 0.000000 0.000590 0.000000
# 4 0.000000 0.000000 0.000000 0.028234 0.000000 -0.008956
# 5 0.001601 0.001142 0.000590 0.000000 0.024915 0.000000
# 6 0.000000 0.000000 0.000000 -0.008956 0.000000 0.049128
#
#
# Mechanical properties :
#
#
# Convention : Reuss Voigt Hill
#
# Bulk Modulus (GPa) = 44.31977 45.25421 44.78699
# Shear Modulus (GPa) = 32.20946 36.08202 34.14574
#
# Velocity S-wave (km/s) = 3.92718 4.15656 4.04350
# Velocity P-wave (km/s) = 6.46414 6.68617 6.57609
#
# Compressibility (1/GPa) = 0.02256329
#
# Stress axis : x y z
#
# Youngs Moduli (GPa) = 99.21592 95.55067 74.32374
#
# Poissons Ratio (x) = -0.01103 0.17772
# Poissons Ratio (y) = -0.01145 0.25585
# Poissons Ratio (z) = 0.23724 0.32892
#
# Static dielectric constant tensor:
#      x y z
#    x 4.203750 0.000000 0.175950 
#    y 0.000000 3.728940 0.000000 
#    z 0.175950 0.000000 4.081690 
# 
# 
# High freq. dielectric constant tensor:
#      x y z
#    x 1.838760 0.000000 -0.002810 
#    y 0.000000 1.798320 0.000000 
#    z -0.002810 0.000000 1.825650 
# 
# From -- ./inp_files/332878.got.cif
#   From: 2010.06.25/outbox.cif.g09.slc.cpg/sg12_167_cif.got.tgz:332878.got - 2010.06.28 00:19:55.
