data_PCOD8098035
_publ_section_title
;
Structure prediction by ZEFSAII (Michael W. Deem and Ramdas Pophale) SiO2 
 PCOD8098035
Probable space group: C 2/M
;
_chemical_formula_sum "Si O2"
_cell_formula_units_Z 56
_cell_length_a 28.955460
_cell_length_b 8.979168
_cell_length_c 20.244825
_cell_angle_alpha 90.000000
_cell_angle_beta 147.314732
_cell_angle_gamma 90.000000
_cell_volume 2842.455010
_symmetry_space_group_name_H-M "C 2/M"
_symmetry_group_IT_number 12
_symmetry_cell_setting 'monoclinic'
loop_
_space_group_symop_operation_xyz
x,y,z
-x,y,-z
-x,-y,-z
x,-y,z
1/2+x,1/2+y,z
1/2-x,1/2+y,-z
1/2-x,1/2-y,-z
1/2+x,1/2-y,z
loop_
_atom_site_type_symbol
_atom_site_label
_atom_site_fract_x
_atom_site_fract_y
_atom_site_fract_z
Si Si1 0.129099 0.174628 0.939082
Si Si2 0.300537 0.824296 0.214251
Si Si3 0.542234 0.823738 0.228664
Si Si4 0.578094 0.329006 0.139508
Si Si5 0.765924 0.671348 0.319478
Si Si6 0.424454 0.671148 0.270100
Si Si7 0.394430 0.675070 0.566679
O O1 0.127823 0.207584 0.859512
O O2 0.054052 0.262612 0.885257
O O3 0.114748 0.000000 0.936072
O O4 0.218302 0.235110 0.075047
O O5 0.295521 0.769464 0.283575
O O6 0.387113 0.764587 0.285745
O O7 0.301944 0.000000 0.212712
O O8 0.584970 0.774864 0.211664
O O9 0.599880 0.757342 0.356588
O O10 0.541556 0.000000 0.233974
O O11 0.564621 0.500000 0.145534
O O12 0.664204 0.310116 0.201012
O O13 0.500000 0.274932 0.000000
O O14 0.793059 0.500000 0.362813
O O15 0.809791 0.771685 0.427864
O O16 0.415306 0.500000 0.278469
O O17 0.523240 0.715713 0.378883
O O18 0.390589 0.500000 0.576124
#
# Coordination Sequence:
#
# PCOD8098035 Si02
#       7
#     8   8   8   8   8   8   8
#     4   9  18  35  56  81 115 152 188 224 274 339
#     4  10  20  34  55  82 113 149 187 230 280 331
#     4  11  22  36  59  88 115 144 183 234 282 325
#     4  10  21  40  64  86 114 151 184 219 272 336
#     4  10  22  38  57  83 111 144 189 234 274 324
#     4   9  19  34  54  80 109 145 190 234 276 329
#     4  10  22  41  60  79 109 150 191 229 276 333
#
# _framework density 19.701277999999999
#
# number of rings (size 3 to 8) (size 9 to 14) (size 15 to 20)
#    0.000    2.143    0.000    3.857    0.000    8.286 
#    0.000    4.286    0.000    0.000    0.000    0.000 
#    0.000    0.000    0.000    0.000    0.000    0.000 
#
# Total GULP energy -347327.924814 kJ/mol
# GULP energy per Si atom -12404.568743 kJ/mol
# Density = 1.965644 g / cm^3
# Si number density = 19.701278 Si / 1000 Ang^3
#
#
#
# Elastic Constant Matrix: (Units=GPa)
#
#
# Indices 1 2 3 4 5 6 
#
# 1 111.3204 40.8296 30.6968 0.0000 -12.0686 0.0000
# 2 40.8296 72.7762 31.1052 0.0000 -6.4647 0.0000
# 3 30.6968 31.1052 102.8755 0.0000 -6.8176 0.0000
# 4 0.0000 0.0000 0.0000 27.6441 0.0000 1.5752
# 5 -12.0686 -6.4647 -6.8176 0.0000 19.4866 0.0000
# 6 0.0000 0.0000 0.0000 1.5752 0.0000 34.4410
#
#
#
# Elastic Compliance Matrix: (Units=1/GPa)
#
#
# Indices 1 2 3 4 5 6 
#
# 1 0.012023 -0.005636 -0.001550 0.000000 0.005034 0.000000
# 2 -0.005636 0.018679 -0.003877 0.000000 0.001350 0.000000
# 3 -0.001550 -0.003877 0.011472 0.000000 0.001768 0.000000
# 4 0.000000 0.000000 0.000000 0.036269 0.000000 -0.001659
# 5 0.005034 0.001350 0.001768 0.000000 0.055502 0.000000
# 6 0.000000 0.000000 0.000000 -0.001659 0.000000 0.029111
#
#
# Mechanical properties :
#
#
# Convention : Reuss Voigt Hill
#
# Bulk Modulus (GPa) = 49.87498 54.69281 52.28390
# Shear Modulus (GPa) = 26.06002 28.60372 27.33187
#
# Velocity S-wave (km/s) = 3.64092 3.81448 3.72871
# Velocity P-wave (km/s) = 6.56092 6.87180 6.71816
#
# Compressibility (1/GPa) = 0.02005013
#
# Stress axis : x y z
#
# Youngs Moduli (GPa) = 83.17151 53.53466 87.16651
#
# Poissons Ratio (x) = 0.30171 0.13511
# Poissons Ratio (y) = 0.46874 0.33792
# Poissons Ratio (z) = 0.12891 0.20754
#
# Static dielectric constant tensor:
#      x y z
#    x 3.563450 0.000000 -0.018410 
#    y 0.000000 3.427130 0.000000 
#    z -0.018410 0.000000 3.586540 
# 
# 
# High freq. dielectric constant tensor:
#      x y z
#    x 1.771750 0.000000 -0.001410 
#    y 0.000000 1.756460 0.000000 
#    z -0.001410 0.000000 1.767580 
# 
# From -- ./inp_files/329678.got.cif
#   From: 2010.06.25/outbox.cif.g09.slc.cpg/sg12_165_cif.got.tgz:329678.got - 2010.06.28 00:19:55.
