data_PCOD8098829
_publ_section_title
;
Structure prediction by ZEFSAII (Michael W. Deem and Ramdas Pophale) SiO2 
 PCOD8098829
Probable space group: C 2/M
;
_chemical_formula_sum "Si O2"
_cell_formula_units_Z 56
_cell_length_a 23.371332
_cell_length_b 9.099558
_cell_length_c 31.432975
_cell_angle_alpha 90.000000
_cell_angle_beta 154.017013
_cell_angle_gamma 90.000000
_cell_volume 2928.644868
_symmetry_space_group_name_H-M "C 2/M"
_symmetry_group_IT_number 12
_symmetry_cell_setting 'monoclinic'
loop_
_space_group_symop_operation_xyz
x,y,z
-x,y,-z
-x,-y,-z
x,-y,z
1/2+x,1/2+y,z
1/2-x,1/2+y,-z
1/2-x,1/2-y,-z
1/2+x,1/2-y,z
loop_
_atom_site_type_symbol
_atom_site_label
_atom_site_fract_x
_atom_site_fract_y
_atom_site_fract_z
Si Si1 0.407500 0.674030 0.544662
Si Si2 0.479283 0.169129 0.917599
Si Si3 0.917885 0.329373 0.403654
Si Si4 0.124031 0.172215 0.229339
Si Si5 0.518433 0.829469 0.695498
Si Si6 0.365480 0.830039 0.677107
Si Si7 0.788179 0.669734 0.865057
O O1 0.412315 0.500000 0.552273
O O2 0.532028 0.730357 0.601489
O O3 0.416329 0.743931 0.597315
O O4 0.274336 0.727393 0.433353
O O5 0.474166 0.266453 0.871800
O O6 0.365172 0.215773 0.873941
O O7 0.461843 0.000000 0.893195
O O8 0.619477 0.195562 0.032642
O O9 0.932531 0.500000 0.401144
O O10 0.769894 0.283931 0.313448
O O11 0.000000 0.289667 0.500000
O O12 0.089787 0.240274 0.251958
O O13 0.104693 0.000000 0.220211
O O14 0.475299 0.802967 0.715064
O O15 0.664341 0.772921 0.786811
O O16 0.512704 0.000000 0.679481
O O17 0.354236 0.000000 0.682140
O O18 0.744196 0.500000 0.833162
#
# Coordination Sequence:
#
# PCOD8098829 Si02
#       7
#     8   8   8   8   8   8   8
#     4  11  22  36  57  82 108 147 193 230 270 328
#     4   9  19  37  61  86 115 144 175 223 278 331
#     4  10  20  35  53  79 115 146 176 223 278 323
#     4  11  22  35  56  84 113 148 186 225 275 329
#     4  11  23  38  57  81 111 146 184 232 282 324
#     4  10  23  40  55  76 110 151 191 229 272 323
#     4   9  19  38  62  87 111 142 182 224 274 329
#
# _framework density 19.121472000000001
#
# number of rings (size 3 to 8) (size 9 to 14) (size 15 to 20)
#    0.000    1.857    1.429    3.429    0.000    6.571 
#    0.000    2.143    0.000    0.000    0.000    0.000 
#    0.000    0.000    0.000    0.000    0.000    0.000 
#
# Total GULP energy -347341.044787 kJ/mol
# GULP energy per Si atom -12405.037314 kJ/mol
# Density = 1.907795 g / cm^3
# Si number density = 19.121472 Si / 1000 Ang^3
#
#
#
# Elastic Constant Matrix: (Units=GPa)
#
#
# Indices 1 2 3 4 5 6 
#
# 1 93.2072 50.2489 36.6696 0.0000 -18.2078 0.0002
# 2 50.2489 78.2581 31.3686 -0.0008 -12.9128 0.0006
# 3 36.6696 31.3686 66.4171 -0.0006 -18.6948 0.0000
# 4 0.0000 -0.0008 -0.0006 30.0792 0.0000 -3.5821
# 5 -18.2078 -12.9128 -18.6948 0.0000 32.0018 0.0000
# 6 0.0002 0.0006 0.0000 -3.5821 0.0000 33.9909
#
#
#
# Elastic Compliance Matrix: (Units=1/GPa)
#
#
# Indices 1 2 3 4 5 6 
#
# 1 0.018311 -0.009247 -0.004619 0.000000 0.003988 0.000000
# 2 -0.009247 0.020589 -0.004501 0.000000 0.000417 0.000000
# 3 -0.004619 -0.004501 0.022119 0.000000 0.008477 0.000000
# 4 0.000000 0.000000 0.000000 0.033668 0.000000 0.003548
# 5 0.003988 0.000417 0.008477 0.000000 0.038637 0.000000
# 6 0.000000 0.000000 0.000000 0.003548 0.000000 0.029794
#
#
# Mechanical properties :
#
#
# Convention : Reuss Voigt Hill
#
# Bulk Modulus (GPa) = 41.18245 52.71740 46.94992
# Shear Modulus (GPa) = 24.04457 27.18741 25.61599
#
# Velocity S-wave (km/s) = 3.54992 3.77480 3.66409
# Velocity P-wave (km/s) = 6.19569 6.82850 6.51978
#
# Compressibility (1/GPa) = 0.02428219
#
# Stress axis : x y z
#
# Youngs Moduli (GPa) = 54.61329 48.56985 45.21071
#
# Poissons Ratio (x) = 0.44914 0.20885
# Poissons Ratio (y) = 0.50503 0.20350
# Poissons Ratio (z) = 0.25228 0.21862
#
# Static dielectric constant tensor:
#      x y z
#    x 3.453350 0.000000 -0.097040 
#    y 0.000000 3.408990 0.000000 
#    z -0.097040 0.000000 3.459220 
# 
# 
# High freq. dielectric constant tensor:
#      x y z
#    x 1.743190 0.000000 -0.010590 
#    y 0.000000 1.743860 0.000000 
#    z -0.010590 0.000000 1.741550 
# 
# From -- ./inp_files/237401.got.cif
#   From: 2010.06.25/outbox.cif.g09.slc.cpg/sg12_119_cif.got.tgz:237401.got - 2010.06.28 00:19:55.
