data_PCOD8098530
_publ_section_title
;
Structure prediction by ZEFSAII (Michael W. Deem and Ramdas Pophale) SiO2 
 PCOD8098530
Probable space group: C 2/M
;
_chemical_formula_sum "Si O2"
_cell_formula_units_Z 56
_cell_length_a 19.210371
_cell_length_b 12.866310
_cell_length_c 11.053477
_cell_angle_alpha 90.000000
_cell_angle_beta 82.209130
_cell_angle_gamma 90.000000
_cell_volume 2706.831886
_symmetry_space_group_name_H-M "C 2/M"
_symmetry_group_IT_number 12
_symmetry_cell_setting 'monoclinic'
loop_
_space_group_symop_operation_xyz
x,y,z
-x,y,-z
-x,-y,-z
x,-y,z
1/2+x,1/2+y,z
1/2-x,1/2+y,-z
1/2-x,1/2-y,-z
1/2+x,1/2-y,z
loop_
_atom_site_type_symbol
_atom_site_label
_atom_site_fract_x
_atom_site_fract_y
_atom_site_fract_z
Si Si1 0.546795 0.384616 0.378900
Si Si2 0.829404 0.748325 0.385132
Si Si3 0.932932 0.116116 0.214910
Si Si4 0.695794 0.877336 0.397512
Si Si5 0.422765 0.224444 0.011539
Si Si6 0.346385 0.264870 0.789153
Si Si7 0.791626 0.377847 0.168821
O O1 0.500000 0.334967 0.500000
O O2 0.567872 0.500000 0.418252
O O3 0.509177 0.390875 0.256839
O O4 0.618958 0.324169 0.334028
O O5 0.894491 0.808227 0.316095
O O6 0.772345 0.838609 0.423485
O O7 0.855409 0.684012 0.496906
O O8 0.798394 0.660986 0.303520
O O9 0.931067 0.166869 0.082353
O O10 0.899795 0.000000 0.211790
O O11 0.680515 0.844323 0.262001
O O12 0.687577 0.000000 0.410831
O O13 0.360935 0.152652 0.077595
O O14 0.500000 0.168899 0.000000
O O15 0.404800 0.245904 0.876754
O O16 0.280307 0.325713 0.865109
O O17 0.782292 0.500000 0.165336
#
# Coordination Sequence:
#
# PCOD8098530 Si02
#       7
#     8   8   8   8   8   8   8
#     4  10  20  34  57  88 120 156 199 252 317 375
#     4   9  19  36  59  88 121 155 194 254 307 367
#     4  10  20  35  58  86 116 155 202 251 311 369
#     4  10  20  35  59  88 121 160 202 246 306 374
#     4  11  23  41  60  87 123 167 212 263 312 369
#     4  11  22  39  60  89 125 163 205 264 312 361
#     4  10  22  39  62  88 119 162 208 255 315 374
#
# _framework density 20.688393000000001
#
# number of rings (size 3 to 8) (size 9 to 14) (size 15 to 20)
#    0.000    1.857    1.429    2.571    0.000    2.286 
#    0.000    4.286    0.000    1.286    0.000    0.000 
#    0.000    0.000    0.000    0.000    0.000    0.000 
#
# Total GULP energy -346976.117823 kJ/mol
# GULP energy per Si atom -12392.004208 kJ/mol
# Density = 2.064131 g / cm^3
# Si number density = 20.688393 Si / 1000 Ang^3
#
#
#
# Elastic Constant Matrix: (Units=GPa)
#
#
# Indices 1 2 3 4 5 6 
#
# 1 102.4027 35.2878 32.8514 0.0000 -9.7182 0.0000
# 2 35.2878 121.3576 41.7983 0.0000 0.2761 0.0000
# 3 32.8514 41.7983 91.2427 0.0000 -2.1798 0.0000
# 4 0.0000 0.0000 0.0000 19.9667 0.0000 -1.0272
# 5 -9.7182 0.2761 -2.1798 0.0000 42.8249 0.0000
# 6 0.0000 0.0000 0.0000 -1.0272 0.0000 22.1425
#
#
#
# Elastic Compliance Matrix: (Units=1/GPa)
#
#
# Indices 1 2 3 4 5 6 
#
# 1 0.011821 -0.002372 -0.003109 0.000000 0.002540 0.000000
# 2 -0.002372 0.010264 -0.003867 0.000000 -0.000801 0.000000
# 3 -0.003109 -0.003867 0.013851 0.000000 0.000024 0.000000
# 4 0.000000 0.000000 0.000000 0.050203 0.000000 0.002329
# 5 0.002540 -0.000801 0.000024 0.000000 0.023934 0.000000
# 6 0.000000 0.000000 0.000000 0.002329 0.000000 0.045270
#
#
# Mechanical properties :
#
#
# Convention : Reuss Voigt Hill
#
# Bulk Modulus (GPa) = 58.00417 59.43088 58.71753
# Shear Modulus (GPa) = 27.81100 30.65784 29.23442
#
# Velocity S-wave (km/s) = 3.67042 3.85370 3.76318
# Velocity P-wave (km/s) = 6.78679 6.97068 6.87935
#
# Compressibility (1/GPa) = 0.01724014
#
# Stress axis : x y z
#
# Youngs Moduli (GPa) = 84.59389 97.43216 72.19708
#
# Poissons Ratio (x) = 0.23115 0.22444
# Poissons Ratio (y) = 0.20069 0.27917
# Poissons Ratio (z) = 0.26298 0.37674
#
# Static dielectric constant tensor:
#      x y z
#    x 3.744240 0.000000 -0.127500 
#    y 0.000000 3.570640 0.000000 
#    z -0.127500 0.000000 4.028700 
# 
# 
# High freq. dielectric constant tensor:
#      x y z
#    x 1.805040 0.000000 -0.003240 
#    y 0.000000 1.791790 0.000000 
#    z -0.003240 0.000000 1.818270 
# 
# From -- ./inp_files/164882.got.cif
#   From: 2010.06.25/outbox.cif.g09.slc.cpg/sg12_83_cif.got.tgz:164882.got - 2010.06.28 00:19:55.
