data_PCOD8098839
_publ_section_title
;
Structure prediction by ZEFSAII (Michael W. Deem and Ramdas Pophale) SiO2 
 PCOD8098839
Probable space group: C 2/M
;
_chemical_formula_sum "Si O2"
_cell_formula_units_Z 52
_cell_length_a 16.426348
_cell_length_b 27.072530
_cell_length_c 9.436475
_cell_angle_alpha 90.000000
_cell_angle_beta 38.131264
_cell_angle_gamma 90.000000
_cell_volume 2591.147466
_symmetry_space_group_name_H-M "C 2/M"
_symmetry_group_IT_number 12
_symmetry_cell_setting 'monoclinic'
loop_
_space_group_symop_operation_xyz
x,y,z
-x,y,-z
-x,-y,-z
x,-y,z
1/2+x,1/2+y,z
1/2-x,1/2+y,-z
1/2-x,1/2-y,-z
1/2+x,1/2-y,z
loop_
_atom_site_type_symbol
_atom_site_label
_atom_site_fract_x
_atom_site_fract_y
_atom_site_fract_z
Si Si1 0.366893 0.056174 0.603221
Si Si2 0.998015 0.784383 0.842529
Si Si3 0.000000 0.873101 0.500000
Si Si4 0.088631 0.399453 0.747119
Si Si5 0.213961 0.168378 0.402075
Si Si6 0.598526 0.815419 0.093338
Si Si7 0.687921 0.369520 0.009854
O O1 0.500000 0.072344 0.500000
O O2 0.389541 0.059283 0.402616
O O3 0.247970 0.090822 0.819303
O O4 0.329597 0.000000 0.691770
O O5 0.953628 0.739467 0.798226
O O6 0.153041 0.796346 0.604503
O O7 0.905030 0.832316 0.949498
O O8 0.000000 0.766155 0.000000
O O9 0.908951 0.838172 0.532954
O O10 0.899439 0.900008 0.749840
O O11 0.232503 0.383375 0.607073
O O12 0.023321 0.352429 0.759301
O O13 0.000000 0.419892 0.000000
O O14 0.332386 0.192694 0.153437
O O15 0.695972 0.837325 0.077826
#
# Coordination Sequence:
#
# PCOD8098839 Si02
#       7
#     8   8   4   8   8   8   8
#     4  11  23  40  63  92 121 152 198 255 307 360
#     4  11  21  32  53  82 117 159 200 243 293 353
#     4   8  18  36  61  78 110 160 198 236 295 352
#     4  10  20  37  61  85 122 158 194 247 305 358
#     4   9  19  34  52  79 114 154 200 244 287 347
#     4  10  20  35  53  82 115 159 201 244 292 355
#     4  10  20  39  58  83 119 157 200 248 300 353
#
# _framework density 20.068328000000001
#
# number of rings (size 3 to 8) (size 9 to 14) (size 15 to 20)
#    0.000    2.000    1.538    2.769    0.000    4.000 
#    0.000    3.462    0.000   11.538    0.000    0.000 
#    0.000    0.000    0.000    0.000    0.000    0.000 
#
# Total GULP energy -322118.813286 kJ/mol
# GULP energy per Si atom -12389.185126 kJ/mol
# Density = 2.002265 g / cm^3
# Si number density = 20.068328 Si / 1000 Ang^3
#
#
#
# Elastic Constant Matrix: (Units=GPa)
#
#
# Indices 1 2 3 4 5 6 
#
# 1 78.9953 14.1740 18.0466 0.0000 -0.6589 0.0000
# 2 14.1740 72.5091 37.3479 0.0000 0.0417 0.0000
# 3 18.0466 37.3479 98.5709 0.0000 10.6756 0.0000
# 4 0.0000 0.0000 0.0000 17.3917 0.0000 0.7527
# 5 -0.6589 0.0417 10.6756 0.0000 32.8970 0.0000
# 6 0.0000 0.0000 0.0000 0.7527 0.0000 19.1269
#
#
#
# Elastic Compliance Matrix: (Units=1/GPa)
#
#
# Indices 1 2 3 4 5 6 
#
# 1 0.013400 -0.001623 -0.001936 0.000000 0.000899 0.000000
# 2 -0.001623 0.017482 -0.006551 0.000000 0.002071 0.000000
# 3 -0.001936 -0.006551 0.013458 0.000000 -0.004398 0.000000
# 4 0.000000 0.000000 0.000000 0.057597 0.000000 -0.002267
# 5 0.000899 0.002071 -0.004398 0.000000 0.031840 0.000000
# 6 0.000000 0.000000 0.000000 -0.002267 0.000000 0.052372
#
#
# Mechanical properties :
#
#
# Convention : Reuss Voigt Hill
#
# Bulk Modulus (GPa) = 41.45876 43.24581 42.35228
# Shear Modulus (GPa) = 23.32010 25.91689 24.61849
#
# Velocity S-wave (km/s) = 3.41256 3.59755 3.50628
# Velocity P-wave (km/s) = 6.01923 6.23318 6.12714
#
# Compressibility (1/GPa) = 0.02412035
#
# Stress axis : x y z
#
# Youngs Moduli (GPa) = 74.62750 57.20293 74.30667
#
# Poissons Ratio (x) = 0.09283 0.14384
# Poissons Ratio (y) = 0.12111 0.48677
# Poissons Ratio (z) = 0.14446 0.37473
#
# Static dielectric constant tensor:
#      x y z
#    x 3.730650 0.000000 -0.035010 
#    y 0.000000 3.165470 0.000000 
#    z -0.035010 0.000000 4.161690 
# 
# 
# High freq. dielectric constant tensor:
#      x y z
#    x 1.792180 0.000000 -0.002320 
#    y 0.000000 1.734530 0.000000 
#    z -0.002320 0.000000 1.798220 
# 
# From -- ./inp_files/68516.got.cif
#   From: 2010.06.25/outbox.cif.g09.slc.cpg/sg12_35_cif.got.tgz:68516.got - 2010.06.28 00:19:55.
