data_PCOD8098801
_publ_section_title
;
Structure prediction by ZEFSAII (Michael W. Deem and Ramdas Pophale) SiO2 
 PCOD8098801
Probable space group: C 2/M
;
_chemical_formula_sum "Si O2"
_cell_formula_units_Z 56
_cell_length_a 30.853217
_cell_length_b 9.160561
_cell_length_c 11.758490
_cell_angle_alpha 90.000000
_cell_angle_beta 116.672113
_cell_angle_gamma 90.000000
_cell_volume 2969.698549
_symmetry_space_group_name_H-M "C 2/M"
_symmetry_group_IT_number 12
_symmetry_cell_setting 'monoclinic'
loop_
_space_group_symop_operation_xyz
x,y,z
-x,y,-z
-x,-y,-z
x,-y,z
1/2+x,1/2+y,z
1/2-x,1/2+y,-z
1/2-x,1/2-y,-z
1/2+x,1/2-y,z
loop_
_atom_site_type_symbol
_atom_site_label
_atom_site_fract_x
_atom_site_fract_y
_atom_site_fract_z
Si Si1 0.080007 0.167776 0.290173
Si Si2 0.096124 0.831116 0.054295
Si Si3 0.185594 0.830075 0.007296
Si Si4 0.866699 0.829355 0.421389
Si Si5 0.206129 0.670109 0.805134
Si Si6 0.019421 0.332814 0.825258
Si Si7 0.551030 0.166957 0.612260
O O1 0.104626 0.198961 0.197572
O O2 0.119784 0.206761 0.432480
O O3 0.033205 0.265496 0.255000
O O4 0.063487 0.000000 0.281593
O O5 0.143827 0.777446 0.044046
O O6 0.086167 0.000000 0.017738
O O7 0.048213 0.745246 0.960285
O O8 0.236615 0.799066 0.129293
O O9 0.180836 0.000000 0.969536
O O10 0.181142 0.736784 0.887831
O O11 0.816708 0.746525 0.332819
O O12 0.908384 0.774309 0.386198
O O13 0.859250 0.000000 0.392373
O O14 0.193760 0.500000 0.788407
O O15 0.012332 0.500000 0.851162
O O16 0.050269 0.315676 0.746836
O O17 0.500000 0.216715 0.500000
O O18 0.562502 0.000000 0.590016
#
# Coordination Sequence:
#
# PCOD8098801 Si02
#       7
#     8   8   8   8   8   8   8
#     4  10  22  38  54  74 105 146 184 220 259 309
#     4  10  21  38  57  76 104 141 182 222 263 312
#     4   9  19  37  60  84 107 137 177 219 264 320
#     4  11  22  35  54  80 109 143 183 219 261 317
#     4  10  20  35  58  85 112 138 169 217 275 322
#     4  11  22  35  54  80 108 139 178 222 268 317
#     4  10  20  35  53  76 108 141 172 216 270 315
#
# _framework density 18.857132
#
# number of rings (size 3 to 8) (size 9 to 14) (size 15 to 20)
#    0.000    1.857    1.429    2.571    0.000    7.714 
#    0.000    0.714    0.000    0.000    0.000    0.000 
#    0.000    0.000    0.000    0.000    0.000    0.000 
#
# Total GULP energy -347329.920013 kJ/mol
# GULP energy per Si atom -12404.640000 kJ/mol
# Density = 1.881421 g / cm^3
# Si number density = 18.857132 Si / 1000 Ang^3
#
#
#
# Elastic Constant Matrix: (Units=GPa)
#
#
# Indices 1 2 3 4 5 6 
#
# 1 55.9585 33.8111 37.6298 0.0000 1.5337 0.0000
# 2 33.8111 89.2166 62.5819 0.0000 4.2838 0.0000
# 3 37.6298 62.5819 136.9120 0.0000 7.8063 0.0000
# 4 0.0000 0.0000 0.0000 30.4134 0.0000 6.8639
# 5 1.5337 4.2838 7.8063 0.0000 26.0014 0.0000
# 6 0.0000 0.0000 0.0000 6.8639 0.0000 23.2275
#
#
#
# Elastic Compliance Matrix: (Units=1/GPa)
#
#
# Indices 1 2 3 4 5 6 
#
# 1 0.024367 -0.006687 -0.003685 0.000000 0.000771 0.000000
# 2 -0.006687 0.018339 -0.006506 0.000000 -0.000674 0.000000
# 3 -0.003685 -0.006506 0.011413 0.000000 -0.002137 0.000000
# 4 0.000000 0.000000 0.000000 0.035230 0.000000 -0.010411
# 5 0.000771 -0.000674 -0.002137 0.000000 0.039167 0.000000
# 6 0.000000 0.000000 0.000000 -0.010411 0.000000 0.046129
#
#
# Mechanical properties :
#
#
# Convention : Reuss Voigt Hill
#
# Bulk Modulus (GPa) = 49.10872 61.12586 55.11729
# Shear Modulus (GPa) = 23.23542 25.79942 24.51742
#
# Velocity S-wave (km/s) = 3.51405 3.70287 3.60969
# Velocity P-wave (km/s) = 6.52410 7.12511 6.83122
#
# Compressibility (1/GPa) = 0.02036298
#
# Stress axis : x y z
#
# Youngs Moduli (GPa) = 41.03829 54.52766 87.62247
#
# Poissons Ratio (x) = 0.36463 0.32286
# Poissons Ratio (y) = 0.27443 0.57011
# Poissons Ratio (z) = 0.15121 0.35478
#
# Static dielectric constant tensor:
#      x y z
#    x 3.353780 0.000000 0.036410 
#    y 0.000000 3.487530 0.000000 
#    z 0.036410 0.000000 3.654520 
# 
# 
# High freq. dielectric constant tensor:
#      x y z
#    x 1.717410 0.000000 0.004340 
#    y 0.000000 1.736100 0.000000 
#    z 0.004340 0.000000 1.742390 
# 
# From -- ./inp_files/186454.got.cif
#   From: 2010.06.25/outbox.cif.g09.slc.cpg/sg12_94_cif.got.tgz:186454.got - 2010.06.28 00:19:55.
