data_PCOD8098880
_publ_section_title
;
Structure prediction by ZEFSAII (Michael W. Deem and Ramdas Pophale) SiO2 
 PCOD8098880
Probable space group: C 2/M
;
_chemical_formula_sum "Si O2"
_cell_formula_units_Z 56
_cell_length_a 15.165130
_cell_length_b 27.358004
_cell_length_c 16.083719
_cell_angle_alpha 90.000000
_cell_angle_beta 151.068963
_cell_angle_gamma 90.000000
_cell_volume 3228.076968
_symmetry_space_group_name_H-M "C 2/M"
_symmetry_group_IT_number 12
_symmetry_cell_setting 'monoclinic'
loop_
_space_group_symop_operation_xyz
x,y,z
-x,y,-z
-x,-y,-z
x,-y,z
1/2+x,1/2+y,z
1/2-x,1/2+y,-z
1/2-x,1/2-y,-z
1/2+x,1/2-y,z
loop_
_atom_site_type_symbol
_atom_site_label
_atom_site_fract_x
_atom_site_fract_y
_atom_site_fract_z
Si Si1 0.687298 0.769295 0.824128
Si Si2 0.544353 0.555805 0.177496
Si Si3 0.867997 0.850489 0.644433
Si Si4 0.220655 0.445770 0.789904
Si Si5 0.026651 0.749889 0.194180
Si Si6 0.479782 0.146027 0.387664
Si Si7 0.084160 0.196742 0.485297
O O1 0.584025 0.778060 0.825908
O O2 0.693952 0.822743 0.787100
O O3 0.565109 0.736099 0.664079
O O4 0.893786 0.748476 0.003493
O O5 0.576057 0.500000 0.236975
O O6 0.570093 0.595931 0.271742
O O7 0.678296 0.568264 0.212187
O O8 0.343122 0.559579 0.973109
O O9 0.967450 0.807019 0.775515
O O10 0.657000 0.839228 0.483152
O O11 0.903356 0.845657 0.574340
O O12 0.142100 0.500000 0.718860
O O13 0.048338 0.410921 0.654911
O O14 0.221015 0.724006 0.338806
O O15 0.500000 0.157763 0.500000
O O16 0.000000 0.173151 0.500000
#
# Coordination Sequence:
#
# PCOD8098880 Si02
#       7
#     8   8   8   8   8   8   8
#     4  10  20  35  54  76 102 140 175 219 265 310
#     4   9  18  34  52  73 104 138 172 210 259 320
#     4  11  20  35  52  76 106 135 178 218 255 313
#     4   9  19  32  48  76 108 137 170 207 255 323
#     4  10  20  36  55  74 104 138 177 220 262 309
#     4  12  20  30  49  75 108 140 171 212 258 311
#     4  11  22  38  53  74 107 141 183 224 262 302
#
# _framework density 17.34779
#
# number of rings (size 3 to 8) (size 9 to 14) (size 15 to 20)
#    0.000    1.714    4.286    3.000    0.000    1.429 
#    0.000    0.000    0.000    0.429    0.000    0.000 
#    0.000    2.286    0.000    0.000    0.000    0.000 
#
# Total GULP energy -346967.045433 kJ/mol
# GULP energy per Si atom -12391.680194 kJ/mol
# Density = 1.730831 g / cm^3
# Si number density = 17.347790 Si / 1000 Ang^3
#
#
#
# Elastic Constant Matrix: (Units=GPa)
#
#
# Indices 1 2 3 4 5 6 
#
# 1 86.0208 38.2299 37.7116 0.0000 -10.9617 0.0000
# 2 38.2299 100.5240 45.2252 0.0000 -13.3913 0.0000
# 3 37.7116 45.2252 110.8588 0.0000 -1.9802 0.0000
# 4 0.0000 0.0000 0.0000 18.2221 0.0000 -9.9547
# 5 -10.9617 -13.3913 -1.9802 0.0000 16.5281 0.0000
# 6 0.0000 0.0000 0.0000 -9.9547 0.0000 21.3358
#
#
#
# Elastic Compliance Matrix: (Units=1/GPa)
#
#
# Indices 1 2 3 4 5 6 
#
# 1 0.015706 -0.003250 -0.003886 0.000000 0.007318 0.000000
# 2 -0.003250 0.014471 -0.004637 0.000000 0.009014 0.000000
# 3 -0.003886 -0.004637 0.012147 0.000000 -0.004879 0.000000
# 4 0.000000 0.000000 0.000000 0.073651 0.000000 0.034364
# 5 0.007318 0.009014 -0.004879 0.000000 0.072075 0.000000
# 6 0.000000 0.000000 0.000000 0.034364 0.000000 0.062903
#
#
# Mechanical properties :
#
#
# Convention : Reuss Voigt Hill
#
# Bulk Modulus (GPa) = 53.25511 59.97078 56.61295
# Shear Modulus (GPa) = 17.80902 22.96632 20.38767
#
# Velocity S-wave (km/s) = 3.20752 3.64246 3.43188
# Velocity P-wave (km/s) = 6.66953 7.23428 6.95764
#
# Compressibility (1/GPa) = 0.01877754
#
# Stress axis : x y z
#
# Youngs Moduli (GPa) = 63.67172 69.10572 82.32519
#
# Poissons Ratio (x) = 0.22457 0.31993
# Poissons Ratio (y) = 0.20691 0.38173
# Poissons Ratio (z) = 0.24744 0.32043
#
# Static dielectric constant tensor:
#      x y z
#    x 3.095190 0.000000 -0.021970 
#    y 0.000000 3.150150 0.000000 
#    z -0.021970 0.000000 3.431730 
# 
# 
# High freq. dielectric constant tensor:
#      x y z
#    x 1.640620 0.000000 0.002020 
#    y 0.000000 1.653850 0.000000 
#    z 0.002020 0.000000 1.686260 
# 
# From -- ./inp_files/219157.got.cif
#   From: 2010.06.25/outbox.cif.g09.slc.cpg/sg12_110_cif.got.tgz:219157.got - 2010.06.28 00:19:55.
