data_PCOD8098812
_publ_section_title
;
Structure prediction by ZEFSAII (Michael W. Deem and Ramdas Pophale) SiO2 
 PCOD8098812
Probable space group: C 2/M
;
_chemical_formula_sum "Si O2"
_cell_formula_units_Z 64
_cell_length_a 16.803655
_cell_length_b 11.743280
_cell_length_c 17.226261
_cell_angle_alpha 90.000000
_cell_angle_beta 78.692465
_cell_angle_gamma 90.000000
_cell_volume 3333.275114
_symmetry_space_group_name_H-M "C 2/M"
_symmetry_group_IT_number 12
_symmetry_cell_setting 'monoclinic'
loop_
_space_group_symop_operation_xyz
x,y,z
-x,y,-z
-x,-y,-z
x,-y,z
1/2+x,1/2+y,z
1/2-x,1/2+y,-z
1/2-x,1/2-y,-z
1/2+x,1/2-y,z
loop_
_atom_site_type_symbol
_atom_site_label
_atom_site_fract_x
_atom_site_fract_y
_atom_site_fract_z
Si Si1 0.663154 0.876428 0.158829
Si Si2 0.940764 0.869645 0.577668
Si Si3 0.640532 0.869413 0.716597
Si Si4 0.495966 0.627813 0.121026
Si Si5 0.670079 0.742868 0.865565
Si Si6 0.527954 0.748764 0.268002
Si Si7 0.579400 0.170969 0.020796
Si Si8 0.740002 0.635060 0.448229
O O1 0.744300 0.807848 0.126922
O O2 0.608867 0.818960 0.234789
O O3 0.613625 0.894071 0.088355
O O4 0.687230 0.000000 0.186172
O O5 0.961738 0.800718 0.649614
O O6 0.848184 0.853754 0.571557
O O7 0.000000 0.821241 0.500000
O O8 0.961999 0.000000 0.590617
O O9 0.680394 0.806276 0.781959
O O10 0.549110 0.831093 0.718700
O O11 0.693347 0.846666 0.630414
O O12 0.638982 0.000000 0.739871
O O13 0.517868 0.500000 0.095134
O O14 0.400294 0.648750 0.127673
O O15 0.517982 0.649490 0.206652
O O16 0.551163 0.703526 0.054005
O O17 0.647062 0.826840 0.940614
O O18 0.500000 0.107960 0.000000
O O19 0.748588 0.500000 0.480310
O O20 0.750000 0.750000 0.500000
#
# Coordination Sequence:
#
# PCOD8098812 Si02
#       8
#     8   8   8   8   8   8   8   8
#     4  11  22  35  52  75 106 140 174 220 271 315
#     4  10  20  35  58  85 112 141 175 223 277 324
#     4  10  21  38  59  79 107 146 181 219 268 324
#     4   9  18  33  54  76 102 139 177 219 269 318
#     4  10  20  35  53  78 106 133 177 223 266 320
#     4  10  20  35  54  79 109 139 180 219 260 322
#     4   9  20  35  52  75 102 136 179 223 264 321
#     4  10  21  39  61  85 114 149 188 230 277 330
#
# _framework density 19.200334999999999
#
# number of rings (size 3 to 8) (size 9 to 14) (size 15 to 20)
#    0.000    2.125    0.000    3.750    0.000    3.500 
#    0.000    8.125    0.000    3.375    0.000    0.000 
#    0.000    0.000    0.000    0.000    0.000    0.000 
#
# Total GULP energy -396560.072516 kJ/mol
# GULP energy per Si atom -12392.502266 kJ/mol
# Density = 1.915663 g / cm^3
# Si number density = 19.200335 Si / 1000 Ang^3
#
#
#
# Elastic Constant Matrix: (Units=GPa)
#
#
# Indices 1 2 3 4 5 6 
#
# 1 95.3665 16.6244 24.4774 0.0000 -8.8703 0.0000
# 2 16.6244 90.3454 29.0445 0.0000 -0.2392 0.0000
# 3 24.4774 29.0445 106.5916 0.0000 -2.4659 0.0000
# 4 0.0000 0.0000 0.0000 -2.9211 0.0000 2.1823
# 5 -8.8703 -0.2392 -2.4659 0.0000 33.3357 0.0000
# 6 0.0000 0.0000 0.0000 2.1823 0.0000 49.0680
#
#
#
# Elastic Compliance Matrix: (Units=1/GPa)
#
#
# Indices 1 2 3 4 5 6 
#
# 1 0.011568 -0.001412 -0.002204 0.000000 0.002905 0.000000
# 2 -0.001412 0.012305 -0.003040 0.000000 -0.000512 0.000000
# 3 -0.002204 -0.003040 0.010721 0.000000 0.000185 0.000000
# 4 0.000000 0.000000 0.000000 -0.331327 0.000000 0.014736
# 5 0.002905 -0.000512 0.000185 0.000000 0.030781 0.000000
# 6 0.000000 0.000000 0.000000 0.014736 0.000000 0.019725
#
#
# Mechanical properties :
#
#
# Convention : Reuss Voigt Hill
#
# Bulk Modulus (GPa) = 46.99450 48.06624 47.53037
# Shear Modulus (GPa) = -22.14142 30.70699 4.28279
#
# Velocity S-wave (km/s) = -3.39953 4.00346 1.49513
# Velocity P-wave (km/s) = 3.01992 6.81606 5.27155
#
# Compressibility (1/GPa) = 0.02127909
#
# Stress axis : x y z
#
# Youngs Moduli (GPa) = 86.44499 81.27065 93.27890
#
# Poissons Ratio (x) = 0.11477 0.20563
# Poissons Ratio (y) = 0.12208 0.28360
# Poissons Ratio (z) = 0.19056 0.24709
#
# Static dielectric constant tensor:
#      x y z
#    x 3.571660 0.000000 -0.059770 
#    y 0.000000 3.567180 0.000000 
#    z -0.059770 0.000000 3.574030 
# 
# 
# High freq. dielectric constant tensor:
#      x y z
#    x 1.755720 0.000000 -0.007650 
#    y 0.000000 1.742070 0.000000 
#    z -0.007650 0.000000 1.751200 
# 
# From -- ./inp_files/269315.got.cif
#   From: 2010.06.25/outbox.cif.g09.slc.cpg/sg12_135_cif.got.tgz:269315.got - 2010.06.28 00:19:55.
