data_PCOD8098078
_publ_section_title
;
Structure prediction by ZEFSAII (Michael W. Deem and Ramdas Pophale) SiO2 
 PCOD8098078
Probable space group: C 2/M
;
_chemical_formula_sum "Si O2"
_cell_formula_units_Z 48
_cell_length_a 21.381704
_cell_length_b 10.804846
_cell_length_c 14.810022
_cell_angle_alpha 90.000000
_cell_angle_beta 42.831758
_cell_angle_gamma 90.000000
_cell_volume 2326.099853
_symmetry_space_group_name_H-M "C 2/M"
_symmetry_group_IT_number 12
_symmetry_cell_setting 'monoclinic'
loop_
_space_group_symop_operation_xyz
x,y,z
-x,y,-z
-x,-y,-z
x,-y,z
1/2+x,1/2+y,z
1/2-x,1/2+y,-z
1/2-x,1/2-y,-z
1/2+x,1/2-y,z
loop_
_atom_site_type_symbol
_atom_site_label
_atom_site_fract_x
_atom_site_fract_y
_atom_site_fract_z
Si Si1 0.053412 0.864100 0.627901
Si Si2 0.893253 0.267823 0.882144
Si Si3 0.653413 0.861197 0.415981
Si Si4 0.962983 0.358889 0.131060
Si Si5 0.225969 0.639535 0.148092
Si Si6 0.683803 0.690958 0.640391
O O1 0.947761 0.837144 0.767522
O O2 0.092478 0.747605 0.527638
O O3 0.108952 0.885897 0.662886
O O4 0.056744 0.000000 0.574580
O O5 0.841772 0.354918 0.865553
O O6 0.966633 0.347147 0.860447
O O7 0.819203 0.214651 0.031052
O O8 0.671765 0.813576 0.294631
O O9 0.752352 0.884841 0.358481
O O10 0.605555 0.000000 0.468383
O O11 0.940140 0.500000 0.137328
O O12 0.865409 0.298605 0.252566
O O13 0.000000 0.296557 0.000000
O O14 0.256921 0.500000 0.132054
O O15 0.750000 0.750000 0.500000
#
# Coordination Sequence:
#
# PCOD8098078 Si02
#       6
#     8   8   8   8   8   8
#     4  10  21  37  58  84 114 146 183 230 281 331
#     4  10  21  37  56  80 109 146 187 229 277 329
#     4  10  21  37  58  84 113 147 187 229 275 329
#     4  10  20  34  55  83 114 146 183 230 281 332
#     4  10  21  38  58  79 108 147 190 232 274 328
#     4   9  19  33  53  80 111 145 181 222 272 328
#
# _framework density 20.635400000000001
#
# number of rings (size 3 to 8) (size 9 to 14) (size 15 to 20)
#    0.000    2.167    0.000    2.500    0.000   10.000 
#    0.000    7.500    0.000    8.000    0.000    0.000 
#    0.000    0.000    0.000    0.000    0.000    0.000 
#
# Total GULP energy -297341.483996 kJ/mol
# GULP energy per Si atom -12389.228500 kJ/mol
# Density = 2.058843 g / cm^3
# Si number density = 20.635400 Si / 1000 Ang^3
#
#
#
# Elastic Constant Matrix: (Units=GPa)
#
#
# Indices 1 2 3 4 5 6 
#
# 1 37.5414 3.3306 20.3938 0.0000 8.0779 0.0000
# 2 3.3306 117.0231 60.3594 -0.0001 4.4686 0.0001
# 3 20.3938 60.3594 135.9443 0.0000 10.0259 0.0000
# 4 0.0000 -0.0001 0.0000 26.8734 0.0000 2.8901
# 5 8.0779 4.4686 10.0259 0.0000 33.4697 0.0000
# 6 0.0000 0.0001 0.0000 2.8901 0.0000 13.9446
#
#
#
# Elastic Compliance Matrix: (Units=1/GPa)
#
#
# Indices 1 2 3 4 5 6 
#
# 1 0.030490 0.001936 -0.004982 0.000000 -0.006125 0.000000
# 2 0.001936 0.011206 -0.005237 0.000000 -0.000395 0.000000
# 3 -0.004982 -0.005237 0.010521 0.000000 -0.001250 0.000000
# 4 0.000000 0.000000 0.000000 0.038060 0.000000 -0.007888
# 5 -0.006125 -0.000395 -0.001250 0.000000 0.031783 0.000000
# 6 0.000000 0.000000 0.000000 -0.007888 0.000000 0.073347
#
#
# Mechanical properties :
#
#
# Convention : Reuss Voigt Hill
#
# Bulk Modulus (GPa) = 28.04988 50.96406 39.50697
# Shear Modulus (GPa) = 22.33575 28.61921 25.47748
#
# Velocity S-wave (km/s) = 3.29355 3.72815 3.51757
# Velocity P-wave (km/s) = 5.29962 6.57899 5.97365
#
# Compressibility (1/GPa) = 0.03565077
#
# Stress axis : x y z
#
# Youngs Moduli (GPa) = 32.79805 89.23413 95.05089
#
# Poissons Ratio (x) = -0.17272 0.47351
# Poissons Ratio (y) = -0.06348 0.49778
# Poissons Ratio (z) = 0.16339 0.46731
#
# Static dielectric constant tensor:
#      x y z
#    x 5.369010 0.000000 0.052280 
#    y 0.000000 3.477940 0.000000 
#    z 0.052280 0.000000 3.892690 
# 
# 
# High freq. dielectric constant tensor:
#      x y z
#    x 1.804320 0.000000 0.001820 
#    y 0.000000 1.797560 0.000000 
#    z 0.001820 0.000000 1.814580 
# 
# From -- ./inp_files/213240.got.cif
#   From: 2010.06.25/outbox.cif.g09.slc.cpg/sg12_107_cif.got.tgz:213240.got - 2010.06.28 00:19:55.
