data_PCOD8098942
_publ_section_title
;
Structure prediction by ZEFSAII (Michael W. Deem and Ramdas Pophale) SiO2 
 PCOD8098942
Probable space group: C 2/M
;
_chemical_formula_sum "Si O2"
_cell_formula_units_Z 56
_cell_length_a 14.062673
_cell_length_b 9.167221
_cell_length_c 26.309226
_cell_angle_alpha 90.000000
_cell_angle_beta 124.740067
_cell_angle_gamma 90.000000
_cell_volume 2787.090774
_symmetry_space_group_name_H-M "C 2/M"
_symmetry_group_IT_number 12
_symmetry_cell_setting 'monoclinic'
loop_
_space_group_symop_operation_xyz
x,y,z
-x,y,-z
-x,-y,-z
x,-y,z
1/2+x,1/2+y,z
1/2-x,1/2+y,-z
1/2-x,1/2-y,-z
1/2+x,1/2-y,z
loop_
_atom_site_type_symbol
_atom_site_label
_atom_site_fract_x
_atom_site_fract_y
_atom_site_fract_z
Si Si1 0.727367 0.328711 0.303614
Si Si2 0.502496 0.826830 0.222444
Si Si3 0.571704 0.335571 0.445207
Si Si4 0.596716 0.167801 0.989470
Si Si5 0.176994 0.165700 0.578477
Si Si6 0.641908 0.331117 0.903382
Si Si7 0.969550 0.330674 0.327753
O O1 0.702644 0.500000 0.296875
O O2 0.624228 0.245047 0.243160
O O3 0.735724 0.270160 0.364257
O O4 0.842409 0.287151 0.308061
O O5 0.400862 0.760350 0.157683
O O6 0.478217 0.777757 0.272721
O O7 0.506646 0.000000 0.216583
O O8 0.600912 0.500000 0.438226
O O9 0.447515 0.326818 0.433658
O O10 0.665613 0.281072 0.516043
O O11 0.570314 0.240094 0.393454
O O12 0.582266 0.269241 0.935992
O O13 0.579857 0.000000 0.967532
O O14 0.500000 0.216832 0.000000
O O15 0.720714 0.191264 0.053145
O O16 0.224828 0.000000 0.595487
O O17 0.607523 0.500000 0.887251
O O18 0.991352 0.500000 0.339265
#
# Coordination Sequence:
#
# PCOD8098942 Si02
#       7
#     8   8   8   8   8   8   8
#     4  10  20  35  54  78 105 136 180 231 277 324
#     4  11  23  39  56  76 109 150 184 219 267 322
#     4   8  14  26  48  74 100 132 174 222 272 329
#     4   9  19  38  63  90 119 149 181 216 258 310
#     4   8  14  27  47  73 102 134 172 218 276 334
#     4  10  21  37  58  86 117 147 182 223 262 305
#     4   9  20  36  53  75 105 139 178 226 278 327
#
# _framework density 20.092635000000001
#
# number of rings (size 3 to 8) (size 9 to 14) (size 15 to 20)
#    0.000    2.714    0.000    2.143    0.000    4.286 
#    0.000    6.429    0.000    0.000    0.000    0.000 
#    0.000    0.000    0.000    0.000    0.000    0.000 
#
# Total GULP energy -347193.088470 kJ/mol
# GULP energy per Si atom -12399.753160 kJ/mol
# Density = 2.004690 g / cm^3
# Si number density = 20.092635 Si / 1000 Ang^3
#
#
#
# Elastic Constant Matrix: (Units=GPa)
#
#
# Indices 1 2 3 4 5 6 
#
# 1 70.9406 28.4761 35.8972 0.0000 -9.8474 0.0000
# 2 28.4761 83.1418 52.0122 0.0000 -6.6277 0.0000
# 3 35.8972 52.0122 119.0714 0.0000 -11.0427 0.0000
# 4 0.0000 0.0000 0.0000 43.3411 0.0000 -3.8691
# 5 -9.8474 -6.6277 -11.0427 0.0000 21.5492 0.0000
# 6 0.0000 0.0000 0.0000 -3.8691 0.0000 21.5592
#
#
#
# Elastic Compliance Matrix: (Units=1/GPa)
#
#
# Indices 1 2 3 4 5 6 
#
# 1 0.017996 -0.003650 -0.003331 0.000000 0.005394 0.000000
# 2 -0.003650 0.017334 -0.006438 0.000000 0.000364 0.000000
# 3 -0.003331 -0.006438 0.012483 0.000000 0.002895 0.000000
# 4 0.000000 0.000000 0.000000 0.023448 0.000000 0.004208
# 5 0.005394 0.000364 0.002895 0.000000 0.050466 0.000000
# 6 0.000000 0.000000 0.000000 0.004208 0.000000 0.047139
#
#
# Mechanical properties :
#
#
# Convention : Reuss Voigt Hill
#
# Bulk Modulus (GPa) = 47.67305 56.21389 51.94347
# Shear Modulus (GPa) = 24.66768 27.74112 26.20440
#
# Velocity S-wave (km/s) = 3.50765 3.71976 3.61526
# Velocity P-wave (km/s) = 6.33900 6.81813 6.58293
#
# Compressibility (1/GPa) = 0.02097621
#
# Stress axis : x y z
#
# Youngs Moduli (GPa) = 55.56941 57.68987 80.10921
#
# Poissons Ratio (x) = 0.21056 0.26682
# Poissons Ratio (y) = 0.20282 0.51571
# Poissons Ratio (z) = 0.18508 0.37139
#
# Static dielectric constant tensor:
#      x y z
#    x 3.560920 0.000000 -0.060060 
#    y 0.000000 3.621060 0.000000 
#    z -0.060060 0.000000 3.803370 
# 
# 
# High freq. dielectric constant tensor:
#      x y z
#    x 1.778700 0.000000 0.002200 
#    y 0.000000 1.781130 0.000000 
#    z 0.002200 0.000000 1.786600 
# 
# From -- ./inp_files/375148.got.cif
#   From: 2010.06.25/outbox.cif.g09.slc.cpg/sg12_188_cif.got.tgz:375148.got - 2010.06.28 00:19:55.
