data_PCOD8098693
_publ_section_title
;
Structure prediction by ZEFSAII (Michael W. Deem and Ramdas Pophale) SiO2 
 PCOD8098693
Probable space group: C 2/M
;
_chemical_formula_sum "Si O2"
_cell_formula_units_Z 44
_cell_length_a 20.460050
_cell_length_b 20.420166
_cell_length_c 6.444179
_cell_angle_alpha 90.000000
_cell_angle_beta 132.487962
_cell_angle_gamma 90.000000
_cell_volume 1985.400070
_symmetry_space_group_name_H-M "C 2/M"
_symmetry_group_IT_number 12
_symmetry_cell_setting 'monoclinic'
loop_
_space_group_symop_operation_xyz
x,y,z
-x,y,-z
-x,-y,-z
x,-y,z
1/2+x,1/2+y,z
1/2-x,1/2+y,-z
1/2-x,1/2-y,-z
1/2+x,1/2-y,z
loop_
_atom_site_type_symbol
_atom_site_label
_atom_site_fract_x
_atom_site_fract_y
_atom_site_fract_z
Si Si1 0.000000 0.843574 0.500000
Si Si2 0.105325 0.657349 0.241695
Si Si3 0.778117 0.321409 0.147458
Si Si4 0.417242 0.399132 0.701175
Si Si5 0.724339 0.072604 0.223144
Si Si6 0.373731 0.708248 0.905592
O O1 0.938817 0.892148 0.504298
O O2 0.944609 0.794612 0.240671
O O3 0.127061 0.671906 0.532084
O O4 0.155147 0.594070 0.253844
O O5 0.143083 0.716158 0.179606
O O6 0.000000 0.648793 0.000000
O O7 0.711809 0.332137 0.199452
O O8 0.750000 0.250000 0.000000
O O9 0.772600 0.376732 0.961321
O O10 0.324063 0.435780 0.529163
O O11 0.408809 0.325711 0.773329
O O12 0.500000 0.434372 0.000000
O O13 0.694864 0.000000 0.084596
#
# Coordination Sequence:
#
# PCOD8098693 Si02
#       6
#     4   8   8   8   8   8
#     4  10  20  34  67 106 141 168 214 286 346 420
#     4  12  27  44  69 104 137 183 235 293 350 408
#     4  12  24  44  73 101 137 179 230 294 351 410
#     4  10  21  40  66 105 139 179 222 279 347 421
#     4  12  27  47  69  98 141 192 237 285 349 417
#     4  11  21  38  70 103 139 170 220 285 356 405
#
# _framework density 22.161778999999999
#
# number of rings (size 3 to 8) (size 9 to 14) (size 15 to 20)
#    0.000    0.727    5.455    3.273    2.545    2.182 
#    0.000    1.364    0.000    0.000    0.000    0.000 
#    0.000    0.000    0.000    0.000    0.000    0.000 
#
# Total GULP energy -272632.446264 kJ/mol
# GULP energy per Si atom -12392.383921 kJ/mol
# Density = 2.211134 g / cm^3
# Si number density = 22.161779 Si / 1000 Ang^3
#
#
#
# Elastic Constant Matrix: (Units=GPa)
#
#
# Indices 1 2 3 4 5 6 
#
# 1 116.4587 37.5974 51.5429 0.0000 1.4255 0.0000
# 2 37.5974 138.9708 49.2330 0.0000 -7.6786 0.0000
# 3 51.5429 49.2330 137.2419 0.0000 11.5586 0.0000
# 4 0.0000 0.0000 0.0000 10.9924 0.0000 -10.1555
# 5 1.4255 -7.6786 11.5586 0.0000 39.9984 0.0000
# 6 0.0000 0.0000 0.0000 -10.1555 0.0000 8.8843
#
#
#
# Elastic Compliance Matrix: (Units=1/GPa)
#
#
# Indices 1 2 3 4 5 6 
#
# 1 0.010631 -0.001646 -0.003427 0.000000 0.000296 0.000000
# 2 -0.001646 0.008749 -0.002733 0.000000 0.002528 0.000000
# 3 -0.003427 -0.002733 0.009827 0.000000 -0.003242 0.000000
# 4 0.000000 0.000000 0.000000 -1.623213 0.000000 -1.855459
# 5 0.000296 0.002528 -0.003242 0.000000 0.026413 0.000000
# 6 0.000000 0.000000 0.000000 -1.855459 0.000000 -2.008376
#
#
# Mechanical properties :
#
#
# Convention : Reuss Voigt Hill
#
# Bulk Modulus (GPa) = 73.55758 74.37976 73.96867
# Shear Modulus (GPa) = -1.40614 28.92823 13.76104
#
# Velocity S-wave (km/s) = -0.79741 3.61684 2.49456
# Velocity P-wave (km/s) = 5.69345 7.14682 6.46113
#
# Compressibility (1/GPa) = 0.01359479
#
# Stress axis : x y z
#
# Youngs Moduli (GPa) = 94.06224 114.29830 101.75864
#
# Poissons Ratio (x) = 0.18810 0.34875
# Poissons Ratio (y) = 0.15480 0.27815
# Poissons Ratio (z) = 0.32237 0.31242
#
# Static dielectric constant tensor:
#      x y z
#    x 4.284180 0.000000 0.126900 
#    y 0.000000 3.586280 0.000000 
#    z 0.126900 0.000000 4.274420 
# 
# 
# High freq. dielectric constant tensor:
#      x y z
#    x 1.883630 0.000000 0.002200 
#    y 0.000000 1.837790 0.000000 
#    z 0.002200 0.000000 1.885010 
# 
# From -- ./inp_files/21758.got.cif
#   From: 2010.06.25/outbox.cif.g09.slc.cpg/sg12_11_cif.got.tgz:21758.got - 2010.06.28 00:19:55.
