data_PCOD8098167
_publ_section_title
;
Structure prediction by ZEFSAII (Michael W. Deem and Ramdas Pophale) SiO2 
 PCOD8098167
Probable space group: C 2/M
;
_chemical_formula_sum "Si O2"
_cell_formula_units_Z 64
_cell_length_a 31.470427
_cell_length_b 17.491197
_cell_length_c 12.076513
_cell_angle_alpha 90.000000
_cell_angle_beta 150.144835
_cell_angle_gamma 90.000000
_cell_volume 3309.227769
_symmetry_space_group_name_H-M "C 2/M"
_symmetry_group_IT_number 12
_symmetry_cell_setting 'monoclinic'
loop_
_space_group_symop_operation_xyz
x,y,z
-x,y,-z
-x,-y,-z
x,-y,z
1/2+x,1/2+y,z
1/2-x,1/2+y,-z
1/2-x,1/2-y,-z
1/2+x,1/2-y,z
loop_
_atom_site_type_symbol
_atom_site_label
_atom_site_fract_x
_atom_site_fract_y
_atom_site_fract_z
Si Si1 0.176575 0.586149 0.726235
Si Si2 0.435928 0.084712 0.956768
Si Si3 0.445771 0.711509 0.276213
Si Si4 0.303930 0.362613 0.830793
Si Si5 0.790603 0.690429 0.008070
Si Si6 0.238772 0.914210 0.496689
Si Si7 0.954237 0.699276 0.671188
Si Si8 0.302158 0.713795 0.419605
O O1 0.146219 0.500000 0.665140
O O2 0.252276 0.594628 0.809617
O O3 0.200811 0.611635 0.905498
O O4 0.098292 0.633535 0.505453
O O5 0.339036 0.101482 0.700708
O O6 0.440301 0.000000 0.024251
O O7 0.500000 0.083411 0.000000
O O8 0.463361 0.156717 0.092462
O O9 0.500000 0.675383 0.500000
O O10 0.381458 0.778113 0.171342
O O11 0.517066 0.743976 0.357622
O O12 0.396891 0.646758 0.095769
O O13 0.309092 0.411052 0.729865
O O14 0.265376 0.280636 0.707706
O O15 0.750000 0.750000 0.000000
O O16 0.725161 0.676351 0.759300
O O17 0.199366 0.851770 0.490804
O O18 0.224803 0.000000 0.513111
O O19 0.896718 0.748087 0.628075
#
# Coordination Sequence:
#
# PCOD8098167 Si02
#       8
#     8   8   8   8   8   8   8   8
#     4  11  21  35  59  89 124 161 198 245 300 364
#     4  10  20  34  55  85 124 157 189 242 302 360
#     4  11  20  35  61  89 116 150 198 252 304 346
#     4  10  21  37  62  88 118 158 211 249 289 363
#     4  11  18  38  58  87 120 158 202 242 293 359
#     4  11  23  41  61  86 124 164 202 249 307 365
#     4  11  21  35  57  91 120 153 196 245 303 359
#     4  10  21  36  62  85 119 163 209 245 290 360
#
# _framework density 19.339859000000001
#
# number of rings (size 3 to 8) (size 9 to 14) (size 15 to 20)
#    0.000    1.375    5.000    4.125    0.000    2.500 
#    0.000    1.875    0.000    3.750    0.000    0.000 
#    0.000    0.000    0.000    0.000    0.000    0.000 
#
# Total GULP energy -396660.991642 kJ/mol
# GULP energy per Si atom -12395.655989 kJ/mol
# Density = 1.929584 g / cm^3
# Si number density = 19.339859 Si / 1000 Ang^3
#
#
#
# Elastic Constant Matrix: (Units=GPa)
#
#
# Indices 1 2 3 4 5 6 
#
# 1 75.2273 36.5422 35.1122 0.0000 -3.6491 0.0000
# 2 36.5422 96.9987 38.5314 0.0000 5.0152 0.0000
# 3 35.1122 38.5314 111.3577 0.0000 -8.3355 0.0000
# 4 0.0000 0.0000 0.0000 18.2219 0.0000 -2.1138
# 5 -3.6491 5.0152 -8.3355 0.0000 31.1830 0.0000
# 6 0.0000 0.0000 0.0000 -2.1138 0.0000 32.7039
#
#
#
# Elastic Compliance Matrix: (Units=1/GPa)
#
#
# Indices 1 2 3 4 5 6 
#
# 1 0.017645 -0.005330 -0.003572 0.000000 0.001967 0.000000
# 2 -0.005330 0.013861 -0.003397 0.000000 -0.003761 0.000000
# 3 -0.003572 -0.003397 0.011522 0.000000 0.003208 0.000000
# 4 0.000000 0.000000 0.000000 0.055294 0.000000 0.003574
# 5 0.001967 -0.003761 0.003208 0.000000 0.033762 0.000000
# 6 0.000000 0.000000 0.000000 0.003574 0.000000 0.030808
#
#
# Mechanical properties :
#
#
# Convention : Reuss Voigt Hill
#
# Bulk Modulus (GPa) = 54.26045 55.99502 55.12774
# Shear Modulus (GPa) = 25.82200 27.98162 26.90181
#
# Velocity S-wave (km/s) = 3.65796 3.80786 3.73366
# Velocity P-wave (km/s) = 6.77924 6.95335 6.86685
#
# Compressibility (1/GPa) = 0.01842963
#
# Stress axis : x y z
#
# Youngs Moduli (GPa) = 56.67382 72.14311 86.79061
#
# Poissons Ratio (x) = 0.38453 0.31002
# Poissons Ratio (y) = 0.30208 0.29484
# Poissons Ratio (z) = 0.20244 0.24508
#
# Static dielectric constant tensor:
#      x y z
#    x 3.734550 0.000000 -0.199530 
#    y 0.000000 3.049620 0.000000 
#    z -0.199530 0.000000 3.732440 
# 
# 
# High freq. dielectric constant tensor:
#      x y z
#    x 1.750340 0.000000 -0.006940 
#    y 0.000000 1.733950 0.000000 
#    z -0.006940 0.000000 1.751500 
# 
# From -- ./inp_files/190112.got.cif
#   From: 2010.06.25/outbox.cif.g09.slc.cpg/sg12_96_cif.got.tgz:190112.got - 2010.06.28 00:19:55.
