data_PCOD8098616
_publ_section_title
;
Structure prediction by ZEFSAII (Michael W. Deem and Ramdas Pophale) SiO2 
 PCOD8098616
Probable space group: C 2/M
;
_chemical_formula_sum "Si O2"
_cell_formula_units_Z 56
_cell_length_a 20.235644
_cell_length_b 8.722772
_cell_length_c 17.322190
_cell_angle_alpha 90.000000
_cell_angle_beta 71.861076
_cell_angle_gamma 90.000000
_cell_volume 2905.608610
_symmetry_space_group_name_H-M "C 2/M"
_symmetry_group_IT_number 12
_symmetry_cell_setting 'monoclinic'
loop_
_space_group_symop_operation_xyz
x,y,z
-x,y,-z
-x,-y,-z
x,-y,z
1/2+x,1/2+y,z
1/2-x,1/2+y,-z
1/2-x,1/2-y,-z
1/2+x,1/2-y,z
loop_
_atom_site_type_symbol
_atom_site_label
_atom_site_fract_x
_atom_site_fract_y
_atom_site_fract_z
Si Si1 0.661853 0.822050 0.595019
Si Si2 0.304774 0.177312 0.587820
Si Si3 0.676737 0.177717 0.831891
Si Si4 0.676936 0.178624 0.006583
Si Si5 0.334045 0.321926 0.732897
Si Si6 0.925650 0.179213 0.250195
Si Si7 0.427426 0.180693 0.825440
O O1 0.653629 0.791889 0.506763
O O2 0.725039 0.725964 0.607382
O O3 0.592247 0.766064 0.663095
O O4 0.676468 0.000000 0.606660
O O5 0.341550 0.276481 0.640562
O O6 0.306609 0.000000 0.610747
O O7 0.757500 0.218540 0.791553
O O8 0.631830 0.284053 0.793042
O O9 0.662868 0.000000 0.816481
O O10 0.654738 0.216894 0.927278
O O11 0.617928 0.241050 0.085690
O O12 0.686578 0.000000 0.015197
O O13 0.750000 0.250000 0.000000
O O14 0.351407 0.500000 0.737015
O O15 0.389693 0.223742 0.759759
O O16 0.999575 0.235028 0.193303
O O17 0.927374 0.000000 0.265952
O O18 0.439997 0.000000 0.824165
#
# Coordination Sequence:
#
# PCOD8098616 Si02
#       7
#     8   8   8   8   8   8   8
#     4  10  20  36  58  86 120 156 194 244 296 345
#     4  10  20  34  58  90 120 152 197 244 290 347
#     4  10  21  38  61  88 120 156 195 242 295 350
#     4  10  21  38  62  89 117 153 196 245 294 347
#     4  11  21  36  61  90 122 157 196 243 293 350
#     4  12  25  40  60  87 121 159 200 245 296 356
#     4  11  24  41  62  86 120 160 198 244 300 356
#
# _framework density 19.273071999999999
#
# number of rings (size 3 to 8) (size 9 to 14) (size 15 to 20)
#    0.000    1.429    2.857    3.000    0.000    4.000 
#    0.000    3.571    0.000    4.286    0.000    0.000 
#    0.000    0.000    0.000    0.000    0.000    0.000 
#
# Total GULP energy -347343.132121 kJ/mol
# GULP energy per Si atom -12405.111861 kJ/mol
# Density = 1.922921 g / cm^3
# Si number density = 19.273072 Si / 1000 Ang^3
#
#
#
# Elastic Constant Matrix: (Units=GPa)
#
#
# Indices 1 2 3 4 5 6 
#
# 1 57.0267 25.6611 24.5649 0.0000 -8.9430 0.0000
# 2 25.6611 55.1048 33.8694 0.0000 -3.8525 0.0000
# 3 24.5649 33.8694 117.1592 0.0000 -5.8054 0.0000
# 4 0.0000 0.0000 0.0000 28.6077 0.0000 0.7583
# 5 -8.9430 -3.8525 -5.8054 0.0000 30.5495 0.0000
# 6 0.0000 0.0000 0.0000 0.7583 0.0000 34.6130
#
#
#
# Elastic Compliance Matrix: (Units=1/GPa)
#
#
# Indices 1 2 3 4 5 6 
#
# 1 0.023405 -0.009332 -0.001947 0.000000 0.005305 0.000000
# 2 -0.009332 0.025865 -0.005547 0.000000 -0.000524 0.000000
# 3 -0.001947 -0.005547 0.010584 0.000000 0.000742 0.000000
# 4 0.000000 0.000000 0.000000 0.034976 0.000000 -0.000766
# 5 0.005305 -0.000524 0.000742 0.000000 0.034362 0.000000
# 6 0.000000 0.000000 0.000000 -0.000766 0.000000 0.028908
#
#
# Mechanical properties :
#
#
# Convention : Reuss Voigt Hill
#
# Bulk Modulus (GPa) = 38.16247 44.16462 41.16355
# Shear Modulus (GPa) = 24.93947 28.43373 26.68660
#
# Velocity S-wave (km/s) = 3.60113 3.84514 3.72514
# Velocity P-wave (km/s) = 6.09383 6.53287 6.31717
#
# Compressibility (1/GPa) = 0.02620375
#
# Stress axis : x y z
#
# Youngs Moduli (GPa) = 42.72521 38.66155 94.48355
#
# Poissons Ratio (x) = 0.36079 0.18394
# Poissons Ratio (y) = 0.39871 0.52408
# Poissons Ratio (z) = 0.08318 0.21445
#
# Static dielectric constant tensor:
#      x y z
#    x 3.290470 0.000000 -0.031670 
#    y 0.000000 3.536480 0.000000 
#    z -0.031670 0.000000 3.904330 
# 
# 
# High freq. dielectric constant tensor:
#      x y z
#    x 1.728780 0.000000 0.004520 
#    y 0.000000 1.756370 0.000000 
#    z 0.004520 0.000000 1.766950 
# 
# From -- ./inp_files/275011.got.cif
#   From: 2010.06.25/outbox.cif.g09.slc.cpg/sg12_138_cif.got.tgz:275011.got - 2010.06.28 00:19:55.
