data_PCOD8098130
_publ_section_title
;
Structure prediction by ZEFSAII (Michael W. Deem and Ramdas Pophale) SiO2 
 PCOD8098130
Probable space group: C 2/M
;
_chemical_formula_sum "Si O2"
_cell_formula_units_Z 64
_cell_length_a 22.721728
_cell_length_b 17.333486
_cell_length_c 8.779126
_cell_angle_alpha 90.000000
_cell_angle_beta 81.952292
_cell_angle_gamma 90.000000
_cell_volume 3423.578988
_symmetry_space_group_name_H-M "C 2/M"
_symmetry_group_IT_number 12
_symmetry_cell_setting 'monoclinic'
loop_
_space_group_symop_operation_xyz
x,y,z
-x,y,-z
-x,-y,-z
x,-y,z
1/2+x,1/2+y,z
1/2-x,1/2+y,-z
1/2-x,1/2-y,-z
1/2+x,1/2-y,z
loop_
_atom_site_type_symbol
_atom_site_label
_atom_site_fract_x
_atom_site_fract_y
_atom_site_fract_z
Si Si1 0.810497 0.911635 0.196021
Si Si2 0.037857 0.587610 0.842625
Si Si3 0.725959 0.674493 0.086356
Si Si4 0.996325 0.275650 0.679583
Si Si5 0.385118 0.708553 0.325814
Si Si6 0.167607 0.635704 0.752216
Si Si7 0.368845 0.754875 0.672387
Si Si8 0.686879 0.087773 0.405348
O O1 0.865336 0.872310 0.263559
O O2 0.752645 0.897582 0.319546
O O3 0.827663 0.000000 0.175998
O O4 0.803489 0.880347 0.027767
O O5 0.021764 0.500000 0.811980
O O6 0.015625 0.636731 0.707423
O O7 0.108597 0.596417 0.843799
O O8 0.000000 0.617697 0.000000
O O9 0.778621 0.626176 0.148255
O O10 0.678907 0.702628 0.227103
O O11 0.750000 0.750000 0.000000
O O12 0.045196 0.220432 0.742269
O O13 0.000000 0.266138 0.500000
O O14 0.929185 0.254369 0.752666
O O15 0.343395 0.773552 0.265970
O O16 0.377417 0.712207 0.509503
O O17 0.185835 0.595221 0.587896
O O18 0.353497 0.845849 0.656496
O O19 0.665715 0.000000 0.370057
#
# Coordination Sequence:
#
# PCOD8098130 Si02
#       8
#     8   8   8   8   8   8   8   8
#     4  11  23  37  56  84 113 143 182 230 283 331
#     4  10  22  35  50  77 115 153 183 217 269 327
#     4  12  22  35  56  83 112 145 181 227 277 330
#     4   9  20  35  58  83 104 139 190 232 268 317
#     4   9  18  38  57  79 106 142 190 229 265 323
#     4  10  20  35  56  77 108 151 190 222 264 322
#     4  10  20  35  59  85 111 146 186 227 274 329
#     4  10  20  34  55  84 116 149 183 223 273 326
#
# _framework density 18.693887
#
# number of rings (size 3 to 8) (size 9 to 14) (size 15 to 20)
#    0.000    1.875    2.500    1.875    1.750    3.750 
#    0.000    3.125    0.000    4.875    0.000    0.000 
#    0.000    0.000    0.000    0.000    0.000    0.000 
#
# Total GULP energy -396728.025094 kJ/mol
# GULP energy per Si atom -12397.750784 kJ/mol
# Density = 1.865134 g / cm^3
# Si number density = 18.693887 Si / 1000 Ang^3
#
#
#
# Elastic Constant Matrix: (Units=GPa)
#
#
# Indices 1 2 3 4 5 6 
#
# 1 124.8266 47.5478 50.0242 0.0000 15.7773 0.0000
# 2 47.5478 101.1690 40.7643 0.0000 13.4783 0.0000
# 3 50.0242 40.7643 66.9387 0.0000 3.1262 0.0000
# 4 0.0000 0.0000 0.0000 27.2045 0.0000 1.7795
# 5 15.7773 13.4783 3.1262 0.0000 25.4596 0.0000
# 6 0.0000 0.0000 0.0000 1.7795 0.0000 22.0228
#
#
#
# Elastic Compliance Matrix: (Units=1/GPa)
#
#
# Indices 1 2 3 4 5 6 
#
# 1 0.012719 -0.001958 -0.008039 0.000000 -0.005858 0.000000
# 2 -0.001958 0.014376 -0.007033 0.000000 -0.005533 0.000000
# 3 -0.008039 -0.007033 0.024966 0.000000 0.005639 0.000000
# 4 0.000000 0.000000 0.000000 0.036954 0.000000 -0.002986
# 5 -0.005858 -0.005533 0.005639 0.000000 0.045145 0.000000
# 6 0.000000 0.000000 0.000000 -0.002986 0.000000 0.045649
#
#
# Mechanical properties :
#
#
# Convention : Reuss Voigt Hill
#
# Bulk Modulus (GPa) = 55.55228 63.28964 59.42096
# Shear Modulus (GPa) = 22.74079 25.24391 23.99235
#
# Velocity S-wave (km/s) = 3.49160 3.67874 3.58639
# Velocity P-wave (km/s) = 6.78501 7.20926 7.00035
#
# Compressibility (1/GPa) = 0.01800106
#
# Stress axis : x y z
#
# Youngs Moduli (GPa) = 78.62196 69.56215 40.05413
#
# Poissons Ratio (x) = 0.13621 0.32200
# Poissons Ratio (y) = 0.15395 0.28169
# Poissons Ratio (z) = 0.63205 0.48921
#
# Static dielectric constant tensor:
#      x y z
#    x 3.521070 0.000000 0.039080 
#    y 0.000000 3.184490 0.000000 
#    z 0.039080 0.000000 3.486680 
# 
# 
# High freq. dielectric constant tensor:
#      x y z
#    x 1.728970 0.000000 -0.004450 
#    y 0.000000 1.708780 0.000000 
#    z -0.004450 0.000000 1.725170 
# 
# From -- ./inp_files/87968.got.cif
#   From: 2010.06.25/outbox.cif.g09.slc.cpg/sg12_44_cif.got.tgz:87968.got - 2010.06.28 00:19:55.
