data_PCOD8098102
_publ_section_title
;
Structure prediction by ZEFSAII (Michael W. Deem and Ramdas Pophale) SiO2 
 PCOD8098102
Probable space group: C 2/M
;
_chemical_formula_sum "Si O2"
_cell_formula_units_Z 56
_cell_length_a 11.730635
_cell_length_b 30.209305
_cell_length_c 15.030224
_cell_angle_alpha 90.000000
_cell_angle_beta 29.711525
_cell_angle_gamma 90.000000
_cell_volume 2639.904760
_symmetry_space_group_name_H-M "C 2/M"
_symmetry_group_IT_number 12
_symmetry_cell_setting 'monoclinic'
loop_
_space_group_symop_operation_xyz
x,y,z
-x,y,-z
-x,-y,-z
x,-y,z
1/2+x,1/2+y,z
1/2-x,1/2+y,-z
1/2-x,1/2-y,-z
1/2+x,1/2-y,z
loop_
_atom_site_type_symbol
_atom_site_label
_atom_site_fract_x
_atom_site_fract_y
_atom_site_fract_z
Si Si1 0.175974 0.447868 0.308182
Si Si2 0.971915 0.448363 0.263354
Si Si3 0.457188 0.247858 0.624399
Si Si4 0.666573 0.831271 0.808199
Si Si5 0.370190 0.185317 0.362771
Si Si6 0.073986 0.892009 0.581819
Si Si7 0.097110 0.948424 0.137877
O O1 0.149235 0.500000 0.319447
O O2 0.435763 0.435992 0.162553
O O3 0.000000 0.428407 0.500000
O O4 0.104299 0.428718 0.260599
O O5 0.923646 0.500000 0.306211
O O6 0.723128 0.425371 0.418373
O O7 0.137589 0.438978 0.067013
O O8 0.500000 0.224663 0.500000
O O9 0.241206 0.280812 0.778080
O O10 0.425992 0.208373 0.718267
O O11 0.682275 0.277063 0.482422
O O12 0.545991 0.831330 0.792208
O O13 0.878328 0.865996 0.658829
O O14 0.500000 0.847038 0.000000
O O15 0.257758 0.144334 0.492642
O O16 0.963189 0.918492 0.737718
O O17 0.059463 0.000000 0.188629
#
# Coordination Sequence:
#
# PCOD8098102 Si02
#       7
#     8   8   8   8   8   8   8
#     4   9  15  29  51  75 108 153 200 246 304 366
#     4  10  20  34  56  81 115 165 212 258 309 360
#     4   8  16  37  64  88 116 150 191 237 293 366
#     4  10  22  38  63  91 117 160 206 244 302 369
#     4   9  19  37  60  86 116 158 193 235 302 361
#     4  11  21  35  57  85 120 158 200 253 302 358
#     4  10  20  34  55  83 116 159 211 259 305 361
#
# _framework density 21.212886000000001
#
# number of rings (size 3 to 8) (size 9 to 14) (size 15 to 20)
#    0.000    2.429    1.429    2.143    2.000    2.286 
#    2.571    0.000    0.000    8.571    0.000    0.000 
#    0.000    0.000    0.000    0.000    0.000    0.000 
#
# Total GULP energy -346882.748418 kJ/mol
# GULP energy per Si atom -12388.669586 kJ/mol
# Density = 2.116460 g / cm^3
# Si number density = 21.212886 Si / 1000 Ang^3
#
#
#
# Elastic Constant Matrix: (Units=GPa)
#
#
# Indices 1 2 3 4 5 6 
#
# 1 71.6932 51.7869 39.4708 0.0002 15.7231 0.0001
# 2 51.7869 85.7347 50.7844 0.0001 11.4033 0.0000
# 3 39.4708 50.7844 124.4505 0.0005 11.2993 0.0004
# 4 0.0002 0.0001 0.0005 -22.3789 -0.0003 -34.6722
# 5 15.7231 11.4033 11.2993 -0.0003 27.7029 -0.0002
# 6 0.0001 0.0000 0.0004 -34.6722 -0.0002 -5.7413
#
#
#
# Elastic Compliance Matrix: (Units=1/GPa)
#
#
# Indices 1 2 3 4 5 6 
#
# 1 0.027124 -0.013969 -0.002105 0.000000 -0.008786 0.000000
# 2 -0.013969 0.022996 -0.004999 0.000000 0.000501 0.000000
# 3 -0.002105 -0.004999 0.010849 0.000000 -0.001173 0.000000
# 4 0.000000 0.000000 0.000000 0.005347 0.000000 -0.032293
# 5 -0.008786 0.000501 -0.001173 0.000000 0.041356 0.000000
# 6 0.000000 0.000000 0.000000 -0.032293 0.000000 0.020843
#
#
# Mechanical properties :
#
#
# Convention : Reuss Voigt Hill
#
# Bulk Modulus (GPa) = 53.12272 62.88474 58.00373
# Shear Modulus (GPa) = 28.25882 9.23896 18.74889
#
# Velocity S-wave (km/s) = 3.65383 2.08921 2.97618
# Velocity P-wave (km/s) = 6.54963 5.96060 6.26204
#
# Compressibility (1/GPa) = 0.01882434
#
# Stress axis : x y z
#
# Youngs Moduli (GPa) = 36.86759 43.48594 92.17107
#
# Poissons Ratio (x) = 0.60743 0.19400
# Poissons Ratio (y) = 0.51499 0.46078
# Poissons Ratio (z) = 0.07760 0.21739
#
# Static dielectric constant tensor:
#      x y z
#    x 4.180250 0.000000 0.048650 
#    y 0.000000 4.004620 0.000000 
#    z 0.048650 0.000000 3.721940 
# 
# 
# High freq. dielectric constant tensor:
#      x y z
#    x 1.815190 0.000000 0.011680 
#    y 0.000000 1.819030 0.000000 
#    z 0.011680 0.000000 1.819740 
# 
# From -- ./inp_files/209970.got.cif
#   From: 2010.06.25/outbox.cif.g09.slc.cpg/sg12_105_cif.got.tgz:209970.got - 2010.06.28 00:19:55.
