data_PCOD8098216
_publ_section_title
;
Structure prediction by ZEFSAII (Michael W. Deem and Ramdas Pophale) SiO2 
 PCOD8098216
Probable space group: C 2/M
;
_chemical_formula_sum "Si O2"
_cell_formula_units_Z 56
_cell_length_a 21.211743
_cell_length_b 8.912038
_cell_length_c 29.704478
_cell_angle_alpha 90.000000
_cell_angle_beta 149.394293
_cell_angle_gamma 90.000000
_cell_volume 2858.917129
_symmetry_space_group_name_H-M "C 2/M"
_symmetry_group_IT_number 12
_symmetry_cell_setting 'monoclinic'
loop_
_space_group_symop_operation_xyz
x,y,z
-x,y,-z
-x,-y,-z
x,-y,z
1/2+x,1/2+y,z
1/2-x,1/2+y,-z
1/2-x,1/2-y,-z
1/2+x,1/2-y,z
loop_
_atom_site_type_symbol
_atom_site_label
_atom_site_fract_x
_atom_site_fract_y
_atom_site_fract_z
Si Si1 0.424695 0.677647 0.410860
Si Si2 0.154062 0.674605 0.224108
Si Si3 0.987581 0.668057 0.775343
Si Si4 0.482974 0.821460 0.040998
Si Si5 0.733941 0.670889 0.037747
Si Si6 0.417768 0.172312 0.565892
Si Si7 0.365994 0.328609 0.622124
O O1 0.500000 0.745922 0.500000
O O2 0.420373 0.500000 0.413099
O O3 0.285217 0.746375 0.320744
O O4 0.493558 0.721980 0.407878
O O5 0.179180 0.500000 0.234224
O O6 0.046834 0.709303 0.194418
O O7 0.101459 0.733837 0.143658
O O8 0.937835 0.500000 0.733777
O O9 0.921628 0.791102 0.704472
O O10 0.133261 0.675877 0.856544
O O11 0.469292 0.000000 0.034895
O O12 0.500000 0.766155 0.000000
O O13 0.358914 0.752986 0.985603
O O14 0.690226 0.500000 0.003012
O O15 0.750000 0.750000 0.000000
O O16 0.430263 0.220470 0.625391
O O17 0.279417 0.202025 0.463975
O O18 0.457776 0.000000 0.585302
O O19 0.393438 0.500000 0.625882
#
# Coordination Sequence:
#
# PCOD8098216 Si02
#       7
#     8   8   8   8   8   8   8
#     4  10  20  34  56  81 109 151 196 234 278 341
#     4   9  18  35  56  81 113 149 191 236 285 345
#     4  10  20  36  59  84 114 148 187 238 292 342
#     4  10  21  39  61  85 119 160 198 243 301 357
#     4  11  22  38  62  88 118 153 194 243 295 353
#     4  10  21  37  55  78 114 151 185 234 291 339
#     4  10  21  36  56  82 110 145 191 236 282 344
#
# _framework density 19.587835999999999
#
# number of rings (size 3 to 8) (size 9 to 14) (size 15 to 20)
#    0.000    2.000    1.429    2.143    0.000    5.714 
#    0.000    2.857    0.000    0.000    0.000    0.000 
#    0.000    0.000    0.000    0.000    0.000    0.000 
#
# Total GULP energy -347175.509136 kJ/mol
# GULP energy per Si atom -12399.125326 kJ/mol
# Density = 1.954325 g / cm^3
# Si number density = 19.587836 Si / 1000 Ang^3
#
#
#
# Elastic Constant Matrix: (Units=GPa)
#
#
# Indices 1 2 3 4 5 6 
#
# 1 123.2853 25.4406 62.7576 0.0000 1.2565 0.0001
# 2 25.4406 36.1962 26.9936 -0.0001 1.8525 0.0004
# 3 62.7576 26.9936 124.2601 0.0001 -8.1284 0.0001
# 4 0.0000 -0.0001 0.0001 23.5714 0.0000 0.1198
# 5 1.2565 1.8525 -8.1284 0.0000 30.3566 0.0001
# 6 0.0001 0.0004 0.0001 0.1198 0.0001 34.0442
#
#
#
# Elastic Compliance Matrix: (Units=1/GPa)
#
#
# Indices 1 2 3 4 5 6 
#
# 1 0.011566 -0.004317 -0.005005 0.000000 -0.001556 0.000000
# 2 -0.004317 0.035063 -0.005664 0.000000 -0.003478 0.000000
# 3 -0.005005 -0.005664 0.012053 0.000000 0.003780 0.000000
# 4 0.000000 0.000000 0.000000 0.042425 0.000000 -0.000149
# 5 -0.001556 -0.003478 0.003780 0.000000 0.034231 0.000000
# 6 0.000000 0.000000 0.000000 -0.000149 0.000000 0.029374
#
#
# Mechanical properties :
#
#
# Convention : Reuss Voigt Hill
#
# Bulk Modulus (GPa) = 34.83127 57.12502 45.97815
# Shear Modulus (GPa) = 24.47921 28.83110 26.65515
#
# Velocity S-wave (km/s) = 3.53897 3.84068 3.69291
# Velocity P-wave (km/s) = 5.87535 6.99247 6.45811
#
# Compressibility (1/GPa) = 0.02870984
#
# Stress axis : x y z
#
# Youngs Moduli (GPa) = 86.46157 28.51980 82.96452
#
# Poissons Ratio (x) = 0.12311 0.41527
# Poissons Ratio (y) = 0.37323 0.46994
# Poissons Ratio (z) = 0.43277 0.16154
#
# Static dielectric constant tensor:
#      x y z
#    x 3.529860 0.000000 -0.011590 
#    y 0.000000 3.380290 0.000000 
#    z -0.011590 0.000000 3.806900 
# 
# 
# High freq. dielectric constant tensor:
#      x y z
#    x 1.763480 0.000000 -0.001360 
#    y 0.000000 1.743960 0.000000 
#    z -0.001360 0.000000 1.769240 
# 
# From -- ./inp_files/380789.got.cif
#   From: 2010.06.25/outbox.cif.g09.slc.cpg/sg12_191_cif.got.tgz:380789.got - 2010.06.28 00:19:55.
