data_PCOD8098875
_publ_section_title
;
Structure prediction by ZEFSAII (Michael W. Deem and Ramdas Pophale) SiO2 
 PCOD8098875
Probable space group: C 2/M
;
_chemical_formula_sum "Si O2"
_cell_formula_units_Z 56
_cell_length_a 30.856617
_cell_length_b 9.017328
_cell_length_c 17.648401
_cell_angle_alpha 90.000000
_cell_angle_beta 38.616208
_cell_angle_gamma 90.000000
_cell_volume 3064.687349
_symmetry_space_group_name_H-M "C 2/M"
_symmetry_group_IT_number 12
_symmetry_cell_setting 'monoclinic'
loop_
_space_group_symop_operation_xyz
x,y,z
-x,y,-z
-x,-y,-z
x,-y,z
1/2+x,1/2+y,z
1/2-x,1/2+y,-z
1/2-x,1/2-y,-z
1/2+x,1/2-y,z
loop_
_atom_site_type_symbol
_atom_site_label
_atom_site_fract_x
_atom_site_fract_y
_atom_site_fract_z
Si Si1 0.320979 0.328653 0.484382
Si Si2 0.551195 0.668516 0.363895
Si Si3 0.470398 0.334497 0.321420
Si Si4 0.917628 0.328104 0.914622
Si Si5 0.069785 0.824179 0.944571
Si Si6 0.312393 0.326064 0.325177
Si Si7 0.827030 0.322925 0.892812
O O1 0.301151 0.500000 0.513110
O O2 0.389854 0.292533 0.437189
O O3 0.329702 0.272225 0.386273
O O4 0.259461 0.239314 0.608006
O O5 0.500000 0.735047 0.500000
O O6 0.574152 0.500000 0.353506
O O7 0.500073 0.669024 0.363801
O O8 0.622077 0.759667 0.244518
O O9 0.478744 0.500000 0.273876
O O10 0.506521 0.213567 0.219488
O O11 0.914123 0.500000 0.937850
O O12 0.860695 0.283797 0.928581
O O13 0.908236 0.239409 0.004482
O O14 0.128273 0.763966 0.809103
O O15 0.066081 0.000000 0.958028
O O16 0.000000 0.763652 0.000000
O O17 0.308202 0.500000 0.325553
O O18 0.820698 0.500000 0.889651
O O19 0.750000 0.250000 0.000000
#
# Coordination Sequence:
#
# PCOD8098875 Si02
#       7
#     8   8   8   8   8   8   8
#     4   9  17  31  50  70  95 131 171 207 250 301
#     4   9  18  34  56  82 111 140 176 223 274 330
#     4   9  17  32  54  75  98 135 174 207 254 317
#     4  10  21  35  53  80 108 135 174 224 267 312
#     4  10  20  35  54  75 104 142 179 215 258 314
#     4   9  18  31  47  69  98 130 168 211 252 297
#     4  10  21  38  59  82 110 147 187 229 281 335
#
# _framework density 18.272663000000001
#
# number of rings (size 3 to 8) (size 9 to 14) (size 15 to 20)
#    0.000    2.571    0.000    1.714    0.000    5.714 
#    2.571    2.857    0.000    0.000    0.000    0.000 
#    0.000    0.000    0.000    0.000    0.000    0.000 
#
# Total GULP energy -346964.046345 kJ/mol
# GULP energy per Si atom -12391.573084 kJ/mol
# Density = 1.823107 g / cm^3
# Si number density = 18.272663 Si / 1000 Ang^3
#
#
#
# Elastic Constant Matrix: (Units=GPa)
#
#
# Indices 1 2 3 4 5 6 
#
# 1 70.6324 32.6034 56.6094 -0.0039 -17.5374 0.0028
# 2 32.6034 41.1745 46.9403 0.0060 -1.8679 0.0004
# 3 56.6094 46.9403 158.4946 -0.0056 -13.4468 0.0049
# 4 -0.0039 0.0060 -0.0056 32.7374 -0.0021 -2.0946
# 5 -17.5374 -1.8679 -13.4468 -0.0021 27.9048 0.0016
# 6 0.0028 0.0004 0.0049 -2.0946 0.0016 27.0793
#
#
#
# Elastic Compliance Matrix: (Units=1/GPa)
#
#
# Indices 1 2 3 4 5 6 
#
# 1 0.029510 -0.018338 -0.003795 0.000007 0.015490 -0.000002
# 2 -0.018338 0.048289 -0.008816 -0.000013 -0.012541 0.000002
# 3 -0.003795 -0.008816 0.010450 0.000003 0.002061 -0.000001
# 4 0.000007 -0.000013 0.000003 0.030698 0.000007 0.002375
# 5 0.015490 -0.012541 0.002061 0.000007 0.045725 -0.000004
# 6 -0.000002 0.000002 -0.000001 0.002375 -0.000004 0.037112
#
#
# Mechanical properties :
#
#
# Convention : Reuss Voigt Hill
#
# Bulk Modulus (GPa) = 37.94739 60.28974 49.11857
# Shear Modulus (GPa) = 18.35097 26.48752 22.41924
#
# Velocity S-wave (km/s) = 3.17248 3.81145 3.50655
# Velocity P-wave (km/s) = 5.85081 7.24125 6.58284
#
# Compressibility (1/GPa) = 0.02635227
#
# Stress axis : x y z
#
# Youngs Moduli (GPa) = 33.88683 20.70879 95.68987
#
# Poissons Ratio (x) = 0.37976 0.36312
# Poissons Ratio (y) = 0.62142 0.84355
# Poissons Ratio (z) = 0.12859 0.18256
#
# Static dielectric constant tensor:
#      x y z
#    x 3.483350 0.000000 -0.015680 
#    y 0.000000 3.408060 0.000040 
#    z -0.015680 0.000040 3.662970 
# 
# 
# High freq. dielectric constant tensor:
#      x y z
#    x 1.703700 0.000000 -0.007470 
#    y 0.000000 1.699270 0.000000 
#    z -0.007470 0.000000 1.712190 
# 
# From -- ./inp_files/281659.got.cif
#   From: 2010.06.25/outbox.cif.g09.slc.cpg/sg12_141_cif.got.tgz:281659.got - 2010.06.28 00:19:55.
