data_PCOD8098219
_publ_section_title
;
Structure prediction by ZEFSAII (Michael W. Deem and Ramdas Pophale) SiO2 
 PCOD8098219
Probable space group: C 2/M
;
_chemical_formula_sum "Si O2"
_cell_formula_units_Z 48
_cell_length_a 20.024321
_cell_length_b 9.103352
_cell_length_c 14.468777
_cell_angle_alpha 90.000000
_cell_angle_beta 92.719072
_cell_angle_gamma 90.000000
_cell_volume 2634.521379
_symmetry_space_group_name_H-M "C 2/M"
_symmetry_group_IT_number 12
_symmetry_cell_setting 'monoclinic'
loop_
_space_group_symop_operation_xyz
x,y,z
-x,y,-z
-x,-y,-z
x,-y,z
1/2+x,1/2+y,z
1/2-x,1/2+y,-z
1/2-x,1/2-y,-z
1/2+x,1/2-y,z
loop_
_atom_site_type_symbol
_atom_site_label
_atom_site_fract_x
_atom_site_fract_y
_atom_site_fract_z
Si Si1 0.592199 0.825601 0.752534
Si Si2 0.482237 0.826239 0.602088
Si Si3 0.935285 0.672865 0.046194
Si Si4 0.156183 0.672063 0.123675
Si Si5 0.876634 0.167878 0.706528
Si Si6 0.740093 0.832915 0.769254
O O1 0.540647 0.764816 0.673080
O O2 0.574193 0.759857 0.852239
O O3 0.667801 0.774166 0.731617
O O4 0.588001 0.000000 0.752067
O O5 0.500000 0.777989 0.500000
O O6 0.412424 0.749783 0.624327
O O7 0.473016 0.000000 0.609490
O O8 0.946100 0.500000 0.056970
O O9 0.869709 0.707972 0.980737
O O10 0.000000 0.742282 0.000000
O O11 0.155556 0.500000 0.144315
O O12 0.106189 0.749172 0.195449
O O13 0.231175 0.737237 0.142390
O O14 0.795041 0.175826 0.689372
O O15 0.901255 0.000000 0.713150
O O16 0.732718 0.000000 0.804845
#
# Coordination Sequence:
#
# PCOD8098219 Si02
#       6
#     8   8   8   8   8   8
#     4   9  17  32  51  72 104 136 167 207 249 303
#     4  10  20  34  56  81  99 124 167 216 256 291
#     4   9  16  25  44  75 102 132 170 204 244 292
#     4   9  16  28  49  74 100 129 169 209 239 279
#     4   9  18  33  52  73 101 137 167 195 247 309
#     4   8  17  32  50  71 100 140 171 194 246 307
#
# _framework density 18.219629999999999
#
# number of rings (size 3 to 8) (size 9 to 14) (size 15 to 20)
#    1.000    2.000    0.000    1.500    0.000    3.667 
#    0.000    1.667    0.000    9.000    0.000    0.000 
#    0.000    0.000    0.000    0.000    0.000    0.000 
#
# Total GULP energy -297313.822668 kJ/mol
# GULP energy per Si atom -12388.075944 kJ/mol
# Density = 1.817816 g / cm^3
# Si number density = 18.219630 Si / 1000 Ang^3
#
#
#
# Elastic Constant Matrix: (Units=GPa)
#
#
# Indices 1 2 3 4 5 6 
#
# 1 120.7244 22.4758 55.4611 0.0000 -8.9383 0.0000
# 2 22.4758 45.8183 27.4943 0.0000 -4.0471 0.0000
# 3 55.4611 27.4943 118.6822 0.0000 -12.6467 0.0000
# 4 0.0000 0.0000 0.0000 12.5522 0.0000 -2.6839
# 5 -8.9383 -4.0471 -12.6467 0.0000 18.2398 0.0000
# 6 0.0000 0.0000 0.0000 -2.6839 0.0000 19.5126
#
#
#
# Elastic Compliance Matrix: (Units=1/GPa)
#
#
# Indices 1 2 3 4 5 6 
#
# 1 0.010869 -0.002602 -0.004287 0.000000 0.001776 0.000000
# 2 -0.002602 0.026020 -0.004678 0.000000 0.001254 0.000000
# 3 -0.004287 -0.004678 0.012070 0.000000 0.005230 0.000000
# 4 0.000000 0.000000 0.000000 0.082082 0.000000 0.011290
# 5 0.001776 0.001254 0.005230 0.000000 0.059601 0.000000
# 6 0.000000 0.000000 0.000000 0.011290 0.000000 0.052802
#
#
# Mechanical properties :
#
#
# Convention : Reuss Voigt Hill
#
# Bulk Modulus (GPa) = 38.72317 55.12083 46.92200
# Shear Modulus (GPa) = 18.16956 22.04715 20.10836
#
# Velocity S-wave (km/s) = 3.16136 3.48239 3.32575
# Velocity P-wave (km/s) = 5.88432 6.81825 6.36843
#
# Compressibility (1/GPa) = 0.02582433
#
# Stress axis : x y z
#
# Youngs Moduli (GPa) = 92.00697 38.43219 82.84829
#
# Poissons Ratio (x) = 0.10001 0.35516
# Poissons Ratio (y) = 0.23942 0.38757
# Poissons Ratio (z) = 0.39443 0.17979
#
# Static dielectric constant tensor:
#      x y z
#    x 3.475160 0.000000 -0.010280 
#    y 0.000000 3.020910 0.000000 
#    z -0.010280 0.000000 3.219970 
# 
# 
# High freq. dielectric constant tensor:
#      x y z
#    x 1.708930 0.000000 -0.005980 
#    y 0.000000 1.672280 0.000000 
#    z -0.005980 0.000000 1.680020 
# 
# From -- ./inp_files/279854.got.cif
#   From: 2010.06.25/outbox.cif.g09.slc.cpg/sg12_140_cif.got.tgz:279854.got - 2010.06.28 00:19:55.
