data_PCOD8098506
_publ_section_title
;
Structure prediction by ZEFSAII (Michael W. Deem and Ramdas Pophale) SiO2 
 PCOD8098506
Probable space group: C 2/M
;
_chemical_formula_sum "Si O2"
_cell_formula_units_Z 56
_cell_length_a 9.205963
_cell_length_b 15.428540
_cell_length_c 22.225456
_cell_angle_alpha 90.000000
_cell_angle_beta 58.801842
_cell_angle_gamma 90.000000
_cell_volume 2700.251970
_symmetry_space_group_name_H-M "C 2/M"
_symmetry_group_IT_number 12
_symmetry_cell_setting 'monoclinic'
loop_
_space_group_symop_operation_xyz
x,y,z
-x,y,-z
-x,-y,-z
x,-y,z
1/2+x,1/2+y,z
1/2-x,1/2+y,-z
1/2-x,1/2-y,-z
1/2+x,1/2-y,z
loop_
_atom_site_type_symbol
_atom_site_label
_atom_site_fract_x
_atom_site_fract_y
_atom_site_fract_z
Si Si1 0.656961 0.654335 0.435470
Si Si2 0.984437 0.095977 0.842651
Si Si3 0.992318 0.663307 0.437392
Si Si4 0.555644 0.256633 0.053033
Si Si5 0.359759 0.841815 0.279774
Si Si6 0.805793 0.340303 0.717063
Si Si7 0.142051 0.402867 0.850341
O O1 0.500000 0.599605 0.500000
O O2 0.799709 0.670269 0.455375
O O3 0.570521 0.742613 0.432101
O O4 0.742885 0.612916 0.357150
O O5 0.162571 0.093204 0.769139
O O6 0.998000 0.167356 0.891038
O O7 0.832846 0.120177 0.829770
O O8 0.955449 0.000000 0.876477
O O9 0.000000 0.611952 0.500000
O O10 0.109828 0.618862 0.361374
O O11 0.484726 0.164862 0.091513
O O12 0.500000 0.285043 0.000000
O O13 0.750000 0.250000 0.000000
O O14 0.283714 0.750754 0.275907
O O15 0.549920 0.827062 0.263403
O O16 0.367326 0.902429 0.219967
O O17 0.090710 0.500000 0.882216
#
# Coordination Sequence:
#
# PCOD8098506 Si02
#       7
#     8   8   8   8   8   8   8
#     4   9  16  26  44  76 115 155 205 256 304 360
#     4  11  25  44  66  96 129 164 209 256 308 370
#     4   9  16  26  44  76 115 156 204 255 306 359
#     4  12  26  46  71  97 127 160 202 251 308 371
#     4  10  20  34  57  87 122 166 210 257 312 366
#     4  10  20  34  57  87 123 165 210 258 310 368
#     4  11  25  44  67  95 128 167 209 253 309 372
#
# _framework density 20.738804999999999
#
# number of rings (size 3 to 8) (size 9 to 14) (size 15 to 20)
#    0.000    1.714    2.857    2.571    2.000    5.143 
#    0.000    0.000    0.000    0.857    0.000    0.000 
#    0.000    0.000    0.000    0.000    0.000    0.000 
#
# Total GULP energy -346918.339701 kJ/mol
# GULP energy per Si atom -12389.940704 kJ/mol
# Density = 2.069160 g / cm^3
# Si number density = 20.738805 Si / 1000 Ang^3
#
#
#
# Elastic Constant Matrix: (Units=GPa)
#
#
# Indices 1 2 3 4 5 6 
#
# 1 171.6270 40.1029 80.1497 0.0001 -2.5669 -0.0001
# 2 40.1029 86.4539 47.1841 0.0001 -0.2370 -0.0001
# 3 80.1497 47.1841 147.7159 0.0001 -3.0882 -0.0001
# 4 0.0001 0.0001 0.0001 0.3174 -0.0001 1.1661
# 5 -2.5669 -0.2370 -3.0882 -0.0001 47.2710 0.0001
# 6 -0.0001 -0.0001 -0.0001 1.1661 0.0001 12.0541
#
#
#
# Elastic Compliance Matrix: (Units=1/GPa)
#
#
# Indices 1 2 3 4 5 6 
#
# 1 0.007989 -0.001625 -0.003812 -0.000002 0.000177 0.000000
# 2 -0.001625 0.014342 -0.003705 -0.000003 -0.000258 0.000000
# 3 -0.003812 -0.003705 0.010031 -0.000002 0.000430 0.000000
# 4 -0.000002 -0.000003 -0.000002 4.888229 0.000013 -0.472884
# 5 0.000177 -0.000258 0.000430 0.000013 0.021191 -0.000001
# 6 0.000000 0.000000 0.000000 -0.472884 -0.000001 0.128706
#
#
# Mechanical properties :
#
#
# Convention : Reuss Voigt Hill
#
# Bulk Modulus (GPa) = 71.03361 82.29668 76.66515
# Shear Modulus (GPa) = 0.98165 27.81919 14.40042
#
# Velocity S-wave (km/s) = 0.68874 3.66650 2.63795
# Velocity P-wave (km/s) = 5.91256 7.59558 6.80629
#
# Compressibility (1/GPa) = 0.01407784
#
# Stress axis : x y z
#
# Youngs Moduli (GPa) = 125.16933 69.72576 99.69453
#
# Poissons Ratio (x) = 0.11329 0.38005
# Poissons Ratio (y) = 0.20338 0.36936
# Poissons Ratio (z) = 0.47717 0.25833
#
# Static dielectric constant tensor:
#      x y z
#    x 3.954680 0.000000 -0.012520 
#    y 0.000000 3.546630 0.000000 
#    z -0.012520 0.000000 4.500480 
# 
# 
# High freq. dielectric constant tensor:
#      x y z
#    x 1.830750 0.000000 -0.002120 
#    y 0.000000 1.769160 0.000000 
#    z -0.002120 0.000000 1.831060 
# 
# From -- ./inp_files/332824.got.cif
#   From: 2010.06.25/outbox.cif.g09.slc.cpg/sg12_167_cif.got.tgz:332824.got - 2010.06.28 00:19:55.
