data_PCOD8098791
_publ_section_title
;
Structure prediction by ZEFSAII (Michael W. Deem and Ramdas Pophale) SiO2 
 PCOD8098791
Probable space group: C 2/M
;
_chemical_formula_sum "Si O2"
_cell_formula_units_Z 64
_cell_length_a 31.061561
_cell_length_b 8.631048
_cell_length_c 15.644956
_cell_angle_alpha 90.000000
_cell_angle_beta 55.270944
_cell_angle_gamma 90.000000
_cell_volume 3447.120651
_symmetry_space_group_name_H-M "C 2/M"
_symmetry_group_IT_number 12
_symmetry_cell_setting 'monoclinic'
loop_
_space_group_symop_operation_xyz
x,y,z
-x,y,-z
-x,-y,-z
x,-y,z
1/2+x,1/2+y,z
1/2-x,1/2+y,-z
1/2-x,1/2-y,-z
1/2+x,1/2-y,z
loop_
_atom_site_type_symbol
_atom_site_label
_atom_site_fract_x
_atom_site_fract_y
_atom_site_fract_z
Si Si1 0.466990 0.679325 0.723058
Si Si2 0.927568 0.678776 0.424076
Si Si3 0.311510 0.179677 0.825953
Si Si4 0.830944 0.821342 0.444888
Si Si5 0.777526 0.679719 0.348637
Si Si6 0.903338 0.820764 0.628846
Si Si7 0.288996 0.819584 0.140520
Si Si8 0.137932 0.180848 0.068258
O O1 0.481783 0.500000 0.715804
O O2 0.518050 0.781627 0.685254
O O3 0.447305 0.716209 0.649496
O O4 0.421822 0.726042 0.841538
O O5 0.925786 0.500000 0.451360
O O6 0.879947 0.716769 0.415138
O O7 0.925776 0.782075 0.511026
O O8 0.351428 0.220072 0.704244
O O9 0.253439 0.218518 0.861373
O O10 0.324762 0.280010 0.894147
O O11 0.315422 0.000000 0.845422
O O12 0.814664 0.781624 0.366768
O O13 0.783253 0.783789 0.563241
O O14 0.847396 0.000000 0.431927
O O15 0.789550 0.500000 0.352612
O O16 0.790350 0.728949 0.237812
O O17 0.886810 0.000000 0.651691
O O18 0.275680 0.000000 0.146053
O O19 0.344876 0.778227 0.034598
O O20 0.142922 0.000000 0.042976
#
# Coordination Sequence:
#
# PCOD8098791 Si02
#       8
#     8   8   8   8   8   8   8   8
#     4   9  20  37  54  72 101 141 179 219 265 309
#     4  12  23  33  52  80 108 138 176 218 258 310
#     4  11  21  33  51  77 109 142 179 219 260 310
#     4  10  20  36  58  80 107 140 171 208 257 313
#     4   9  20  37  56  80 108 136 168 210 259 311
#     4  10  20  35  53  75 107 143 178 216 261 312
#     4  11  21  34  54  78 107 142 177 215 262 315
#     4  10  21  37  54  74 104 141 181 223 264 308
#
# _framework density 18.566219
#
# number of rings (size 3 to 8) (size 9 to 14) (size 15 to 20)
#    0.000    1.750    0.000    6.000    0.000    7.000 
#    0.000    0.000    0.000    0.750    0.000    5.250 
#    0.000    0.000    0.000    0.000    0.000    0.000 
#
# Total GULP energy -396970.617793 kJ/mol
# GULP energy per Si atom -12405.331806 kJ/mol
# Density = 1.852396 g / cm^3
# Si number density = 18.566219 Si / 1000 Ang^3
#
#
#
# Elastic Constant Matrix: (Units=GPa)
#
#
# Indices 1 2 3 4 5 6 
#
# 1 82.9344 30.0671 48.7041 0.0000 -10.4573 0.0001
# 2 30.0671 62.1261 23.2496 -0.0001 -3.6903 0.0003
# 3 48.7041 23.2496 118.2075 0.0000 -0.6007 0.0000
# 4 0.0000 -0.0001 0.0000 31.1044 0.0000 -2.0143
# 5 -10.4573 -3.6903 -0.6007 0.0000 20.0347 0.0000
# 6 0.0001 0.0003 0.0000 -2.0143 0.0000 28.6256
#
#
#
# Elastic Compliance Matrix: (Units=1/GPa)
#
#
# Indices 1 2 3 4 5 6 
#
# 1 0.019402 -0.006363 -0.006698 0.000000 0.008754 0.000000
# 2 -0.006363 0.019657 -0.001243 0.000000 0.000262 0.000000
# 3 -0.006698 -0.001243 0.011447 0.000000 -0.003382 0.000000
# 4 0.000000 0.000000 0.000000 0.032297 0.000000 0.002273
# 5 0.008754 0.000262 -0.003382 0.000000 0.054430 0.000000
# 6 0.000000 0.000000 0.000000 0.002273 0.000000 0.035094
#
#
# Mechanical properties :
#
#
# Convention : Reuss Voigt Hill
#
# Bulk Modulus (GPa) = 45.66894 51.92329 48.79611
# Shear Modulus (GPa) = 24.01154 26.70276 25.35715
#
# Velocity S-wave (km/s) = 3.60014 3.79653 3.69964
# Velocity P-wave (km/s) = 6.47554 6.87353 6.67750
#
# Compressibility (1/GPa) = 0.02189672
#
# Stress axis : x y z
#
# Youngs Moduli (GPa) = 51.54114 50.87324 87.36127
#
# Poissons Ratio (x) = 0.32372 0.58515
# Poissons Ratio (y) = 0.32797 0.10859
# Poissons Ratio (z) = 0.34522 0.06324
#
# Static dielectric constant tensor:
#      x y z
#    x 3.213320 0.000000 -0.147050 
#    y 0.000000 3.371050 0.000000 
#    z -0.147050 0.000000 3.522030 
# 
# 
# High freq. dielectric constant tensor:
#      x y z
#    x 1.698810 0.000000 -0.011880 
#    y 0.000000 1.727520 0.000000 
#    z -0.011880 0.000000 1.717740 
# 
# From -- ./inp_files/248996.got.cif
#   From: 2010.06.25/outbox.cif.g09.slc.cpg/sg12_125_cif.got.tgz:248996.got - 2010.06.28 00:19:55.
