data_PCOD8098629
_publ_section_title
;
Structure prediction by ZEFSAII (Michael W. Deem and Ramdas Pophale) SiO2 
 PCOD8098629
Probable space group: C 2/M
;
_chemical_formula_sum "Si O2"
_cell_formula_units_Z 48
_cell_length_a 19.692144
_cell_length_b 13.148202
_cell_length_c 19.201767
_cell_angle_alpha 90.000000
_cell_angle_beta 27.398052
_cell_angle_gamma 90.000000
_cell_volume 2287.802290
_symmetry_space_group_name_H-M "C 2/M"
_symmetry_group_IT_number 12
_symmetry_cell_setting 'monoclinic'
loop_
_space_group_symop_operation_xyz
x,y,z
-x,y,-z
-x,-y,-z
x,-y,z
1/2+x,1/2+y,z
1/2-x,1/2+y,-z
1/2-x,1/2-y,-z
1/2+x,1/2-y,z
loop_
_atom_site_type_symbol
_atom_site_label
_atom_site_fract_x
_atom_site_fract_y
_atom_site_fract_z
Si Si1 0.635234 0.887039 0.833909
Si Si2 0.371912 0.887789 0.319695
Si Si3 0.883919 0.118311 0.044035
Si Si4 0.378988 0.756494 0.663376
Si Si5 0.587857 0.286660 0.130387
Si Si6 0.466098 0.384753 0.366318
O O1 0.588521 0.893029 0.797192
O O2 0.781399 0.821518 0.708039
O O3 0.666868 0.000000 0.835122
O O4 0.500000 0.836591 0.000000
O O5 0.480929 0.804974 0.252536
O O6 0.204510 0.853894 0.485241
O O7 0.400430 0.000000 0.326892
O O8 0.720523 0.152302 0.216411
O O9 0.876916 0.000000 0.030928
O O10 0.933433 0.181527 0.930688
O O11 0.000000 0.138835 0.000000
O O12 0.500000 0.802478 0.500000
O O13 0.453937 0.695372 0.657263
O O14 0.543537 0.380908 0.220054
O O15 0.750000 0.250000 0.000000
O O16 0.479494 0.500000 0.383403
#
# Coordination Sequence:
#
# PCOD8098629 Si02
#       6
#     8   8   8   8   8   8
#     4  10  20  34  58  93 130 168 210 256 316 384
#     4  10  22  40  62  92 131 170 214 263 321 396
#     4  11  26  48  70  95 130 177 231 281 328 393
#     4  12  22  38  67  97 132 173 212 271 327 397
#     4  12  24  44  69  96 131 176 220 281 335 392
#     4  11  24  41  63  98 136 174 216 265 331 400
#
# _framework density 20.980834999999999
#
# number of rings (size 3 to 8) (size 9 to 14) (size 15 to 20)
#    0.000    1.000    3.333    4.000    0.000    2.333 
#    0.000    0.000    0.000    0.000    0.000    0.000 
#    0.000    0.000    0.000    0.000    0.000    0.000 
#
# Total GULP energy -297640.146231 kJ/mol
# GULP energy per Si atom -12401.672760 kJ/mol
# Density = 2.093308 g / cm^3
# Si number density = 20.980835 Si / 1000 Ang^3
#
#
#
# Elastic Constant Matrix: (Units=GPa)
#
#
# Indices 1 2 3 4 5 6 
#
# 1 82.8510 29.1896 33.2837 -0.0003 -2.1035 0.0000
# 2 29.1896 98.8831 35.5653 -0.0003 -19.0424 -0.0005
# 3 33.2837 35.5653 143.2752 -0.0015 -1.8743 0.0002
# 4 -0.0003 -0.0003 -0.0015 35.9130 0.0003 1.6786
# 5 -2.1035 -19.0424 -1.8743 0.0003 40.7331 0.0001
# 6 0.0000 -0.0005 0.0002 1.6786 0.0001 19.1057
#
#
#
# Elastic Compliance Matrix: (Units=1/GPa)
#
#
# Indices 1 2 3 4 5 6 
#
# 1 0.014272 -0.003528 -0.002453 0.000000 -0.001025 0.000000
# 2 -0.003528 0.013131 -0.002363 0.000000 0.005847 0.000000
# 3 -0.002453 -0.002363 0.008125 0.000000 -0.000858 0.000000
# 4 0.000000 0.000000 0.000000 0.027960 0.000000 -0.002457
# 5 -0.001025 0.005847 -0.000858 0.000000 0.027191 0.000000
# 6 0.000000 0.000000 0.000000 -0.002457 0.000000 0.052556
#
#
# Mechanical properties :
#
#
# Convention : Reuss Voigt Hill
#
# Bulk Modulus (GPa) = 53.08288 57.89852 55.49070
# Shear Modulus (GPa) = 30.08349 34.28172 32.18260
#
# Velocity S-wave (km/s) = 3.79074 4.04661 3.92076
# Velocity P-wave (km/s) = 6.67197 7.03485 6.85581
#
# Compressibility (1/GPa) = 0.01883847
#
# Stress axis : x y z
#
# Youngs Moduli (GPa) = 70.06540 76.15835 123.07873
#
# Poissons Ratio (x) = 0.26870 0.30193
# Poissons Ratio (y) = 0.24721 0.29087
# Poissons Ratio (z) = 0.17188 0.17998
#
# Static dielectric constant tensor:
#      x y z
#    x 3.622330 0.000000 0.039700 
#    y 0.000000 3.893760 0.000000 
#    z 0.039700 0.000000 3.979320 
# 
# 
# High freq. dielectric constant tensor:
#      x y z
#    x 1.810450 0.000000 0.001870 
#    y 0.000000 1.822560 0.000000 
#    z 0.001870 0.000000 1.837500 
# 
# From -- ./inp_files/278036.got.cif
#   From: 2010.06.25/outbox.cif.g09.slc.cpg/sg12_140_cif.got.tgz:278036.got - 2010.06.28 00:19:55.
