data_PCOD8098754
_publ_section_title
;
Structure prediction by ZEFSAII (Michael W. Deem and Ramdas Pophale) SiO2 
 PCOD8098754
Probable space group: C 2/M
;
_chemical_formula_sum "Si O2"
_cell_formula_units_Z 56
_cell_length_a 27.823068
_cell_length_b 17.546819
_cell_length_c 11.572411
_cell_angle_alpha 90.000000
_cell_angle_beta 30.763800
_cell_angle_gamma 90.000000
_cell_volume 2889.834391
_symmetry_space_group_name_H-M "C 2/M"
_symmetry_group_IT_number 12
_symmetry_cell_setting 'monoclinic'
loop_
_space_group_symop_operation_xyz
x,y,z
-x,y,-z
-x,-y,-z
x,-y,z
1/2+x,1/2+y,z
1/2-x,1/2+y,-z
1/2-x,1/2-y,-z
1/2+x,1/2-y,z
loop_
_atom_site_type_symbol
_atom_site_label
_atom_site_fract_x
_atom_site_fract_y
_atom_site_fract_z
Si Si1 0.665506 0.172091 0.490783
Si Si2 0.477316 0.914074 0.867400
Si Si3 0.814791 0.154303 0.603720
Si Si4 0.216821 0.413160 0.600951
Si Si5 0.589586 0.411208 0.383051
Si Si6 0.724715 0.914115 0.146214
Si Si7 0.852437 0.586545 0.926227
O O1 0.559466 0.143373 0.730294
O O2 0.665367 0.262288 0.485573
O O3 0.728850 0.142313 0.466122
O O4 0.710337 0.142871 0.279931
O O5 0.452971 0.904272 0.781051
O O6 0.513090 0.000000 0.818247
O O7 0.384376 0.896102 0.132535
O O8 0.800904 0.102147 0.518297
O O9 0.899737 0.127991 0.512568
O O10 0.719325 0.148927 0.875081
O O11 0.223728 0.500000 0.544521
O O12 0.500000 0.376928 0.500000
O O13 0.575027 0.500000 0.437093
O O14 0.678799 0.395191 0.118174
O O15 0.640182 0.902939 0.227279
O O16 0.724349 0.000000 0.196017
O O17 0.813019 0.500000 0.033786
#
# Coordination Sequence:
#
# PCOD8098754 Si02
#       7
#     8   8   8   8   8   8   8
#     4  12  22  31  48  86 118 138 162 218 285 326
#     4   9  18  34  55  78 103 142 189 220 251 313
#     4  10  20  35  52  81 108 136 177 220 277 313
#     4  10  20  38  61  75  99 147 193 222 249 313
#     4   9  18  37  61  78  98 140 194 226 247 307
#     4   9  18  33  53  78 107 141 178 218 264 314
#     4   8  16  34  57  75 100 144 186 217 251 313
#
# _framework density 19.378271999999999
#
# number of rings (size 3 to 8) (size 9 to 14) (size 15 to 20)
#    0.000    2.429    0.000    5.143    0.000    4.000 
#    7.714    2.143    0.000    0.000    0.000    4.000 
#    0.000    0.000    0.000    0.000    0.000    0.000 
#
# Total GULP energy -347053.220280 kJ/mol
# GULP energy per Si atom -12394.757867 kJ/mol
# Density = 1.933417 g / cm^3
# Si number density = 19.378272 Si / 1000 Ang^3
#
#
#
# Elastic Constant Matrix: (Units=GPa)
#
#
# Indices 1 2 3 4 5 6 
#
# 1 158.7325 45.3251 25.4069 0.0000 9.1606 0.0000
# 2 45.3251 94.9540 26.7161 0.0000 3.3811 0.0000
# 3 25.4069 26.7161 23.8527 0.0000 9.0064 0.0000
# 4 0.0000 0.0000 0.0000 19.7234 0.0000 10.1592
# 5 9.1606 3.3811 9.0064 0.0000 23.5485 0.0000
# 6 0.0000 0.0000 0.0000 10.1592 0.0000 22.9134
#
#
#
# Elastic Compliance Matrix: (Units=1/GPa)
#
#
# Indices 1 2 3 4 5 6 
#
# 1 0.007861 -0.002094 -0.005829 0.000000 -0.000528 0.000000
# 2 -0.002094 0.016481 -0.018284 0.000000 0.005441 0.000000
# 3 -0.005829 -0.018284 0.078033 0.000000 -0.024952 0.000000
# 4 0.000000 0.000000 0.000000 0.065707 0.000000 -0.029133
# 5 -0.000528 0.005441 -0.024952 0.000000 0.051433 0.000000
# 6 0.000000 0.000000 0.000000 -0.029133 0.000000 0.056559
#
#
# Mechanical properties :
#
#
# Convention : Reuss Voigt Hill
#
# Bulk Modulus (GPa) = 20.01525 52.49281 36.25403
# Shear Modulus (GPa) = 14.48673 25.24316 19.86495
#
# Velocity S-wave (km/s) = 2.73715 3.61314 3.20521
# Velocity P-wave (km/s) = 4.51004 6.67486 5.69623
#
# Compressibility (1/GPa) = 0.04996192
#
# Stress axis : x y z
#
# Youngs Moduli (GPa) = 127.20693 60.67416 12.81501
#
# Poissons Ratio (x) = 0.12703 0.07470
# Poissons Ratio (y) = 0.26632 0.23432
# Poissons Ratio (z) = 0.74151 1.10939
#
# Static dielectric constant tensor:
#      x y z
#    x 4.072860 0.000000 0.032540 
#    y 0.000000 3.316880 0.000000 
#    z 0.032540 0.000000 3.109450 
# 
# 
# High freq. dielectric constant tensor:
#      x y z
#    x 1.781430 0.000000 0.008810 
#    y 0.000000 1.735410 0.000000 
#    z 0.008810 0.000000 1.710910 
# 
# From -- ./inp_files/189597.got.cif
#   From: 2010.06.25/outbox.cif.g09.slc.cpg/sg12_95_cif.got.tgz:189597.got - 2010.06.28 00:19:55.
