data_PCOD8098437
_publ_section_title
;
Structure prediction by ZEFSAII (Michael W. Deem and Ramdas Pophale) SiO2 
 PCOD8098437
Probable space group: C 2/M
;
_chemical_formula_sum "Si O2"
_cell_formula_units_Z 64
_cell_length_a 24.559283
_cell_length_b 18.828639
_cell_length_c 14.839485
_cell_angle_alpha 90.000000
_cell_angle_beta 28.634843
_cell_angle_gamma 90.000000
_cell_volume 3288.467359
_symmetry_space_group_name_H-M "C 2/M"
_symmetry_group_IT_number 12
_symmetry_cell_setting 'monoclinic'
loop_
_space_group_symop_operation_xyz
x,y,z
-x,y,-z
-x,-y,-z
x,-y,z
1/2+x,1/2+y,z
1/2-x,1/2+y,-z
1/2-x,1/2-y,-z
1/2+x,1/2-y,z
loop_
_atom_site_type_symbol
_atom_site_label
_atom_site_fract_x
_atom_site_fract_y
_atom_site_fract_z
Si Si1 0.376661 0.078453 0.961516
Si Si2 0.710437 0.577726 0.359673
Si Si3 0.089206 0.719523 0.541572
Si Si4 0.758082 0.083778 0.013123
Si Si5 0.182280 0.285464 0.736465
Si Si6 0.498799 0.203573 0.146322
Si Si7 0.506943 0.357448 0.388216
Si Si8 0.612287 0.079351 0.394351
O O1 0.475140 0.120567 0.871733
O O2 0.427285 0.000000 0.879824
O O3 0.258863 0.080705 0.187934
O O4 0.342081 0.106444 0.911757
O O5 0.726673 0.500000 0.379385
O O6 0.777927 0.633018 0.322861
O O7 0.577141 0.595783 0.550782
O O8 0.214260 0.732514 0.399936
O O9 0.004605 0.734828 0.748319
O O10 0.094610 0.639074 0.496660
O O11 0.042174 0.776080 0.537579
O O12 0.867821 0.132839 0.835022
O O13 0.786399 0.000000 0.958789
O O14 0.715426 0.099731 0.176643
O O15 0.119110 0.278776 0.732748
O O16 0.100290 0.265581 0.939012
O O17 0.500000 0.385512 0.500000
O O18 0.500000 0.074821 0.500000
O O19 0.634223 0.000000 0.404646
#
# Coordination Sequence:
#
# PCOD8098437 Si02
#       8
#     8   8   8   8   8   8   8   8
#     4   9  17  30  52  81 109 143 182 220 269 329
#     4   9  17  31  50  77 115 145 173 220 271 332
#     4  11  23  37  57  81 110 148 186 230 282 332
#     4  10  20  34  57  83 115 156 189 226 270 323
#     4   9  21  37  55  81 109 135 188 233 284 335
#     4  10  20  37  56  77 105 146 178 234 287 329
#     4  11  21  33  51  86 119 148 184 222 275 334
#     4  10  22  41  58  80 114 151 192 231 270 327
#
# _framework density 19.461953999999999
#
# number of rings (size 3 to 8) (size 9 to 14) (size 15 to 20)
#    0.000    2.125    1.250    1.875    1.750    2.500 
#    0.000    4.375    0.000    0.000    0.000    1.750 
#    0.000    0.000    0.000    0.000    0.000    0.000 
#
# Total GULP energy -396481.148745 kJ/mol
# GULP energy per Si atom -12390.035898 kJ/mol
# Density = 1.941766 g / cm^3
# Si number density = 19.461954 Si / 1000 Ang^3
#
#
#
# Elastic Constant Matrix: (Units=GPa)
#
#
# Indices 1 2 3 4 5 6 
#
# 1 57.5685 16.6641 21.7979 0.0000 -1.2837 0.0000
# 2 16.6641 79.4093 15.9192 0.0000 -4.1880 0.0000
# 3 21.7979 15.9192 74.8167 0.0000 1.4407 0.0000
# 4 0.0000 0.0000 0.0000 22.9527 0.0000 0.2425
# 5 -1.2837 -4.1880 1.4407 0.0000 32.3187 0.0000
# 6 0.0000 0.0000 0.0000 0.2425 0.0000 16.7357
#
#
#
# Elastic Compliance Matrix: (Units=1/GPa)
#
#
# Indices 1 2 3 4 5 6 
#
# 1 0.020290 -0.003173 -0.005249 0.000000 0.000629 0.000000
# 2 -0.003173 0.013759 -0.002037 0.000000 0.001748 0.000000
# 3 -0.005249 -0.002037 0.015351 0.000000 -0.001157 0.000000
# 4 0.000000 0.000000 0.000000 0.043575 0.000000 -0.000631
# 5 0.000629 0.001748 -0.001157 0.000000 0.031245 0.000000
# 6 0.000000 0.000000 0.000000 -0.000631 0.000000 0.059761
#
#
# Mechanical properties :
#
#
# Convention : Reuss Voigt Hill
#
# Bulk Modulus (GPa) = 35.10732 35.61744 35.36238
# Shear Modulus (GPa) = 23.32170 24.89563 24.10866
#
# Velocity S-wave (km/s) = 3.46543 3.58046 3.52342
# Velocity P-wave (km/s) = 5.83870 5.95263 5.89594
#
# Compressibility (1/GPa) = 0.02848409
#
# Stress axis : x y z
#
# Youngs Moduli (GPa) = 49.28453 72.67820 65.14278
#
# Poissons Ratio (x) = 0.23058 0.34191
# Poissons Ratio (y) = 0.15636 0.13269
# Poissons Ratio (z) = 0.25868 0.14804
#
# Static dielectric constant tensor:
#      x y z
#    x 3.344330 0.000000 0.065420 
#    y 0.000000 3.510580 0.000000 
#    z 0.065420 0.000000 3.683740 
# 
# 
# High freq. dielectric constant tensor:
#      x y z
#    x 1.736630 0.000000 0.000050 
#    y 0.000000 1.744210 0.000000 
#    z 0.000050 0.000000 1.765000 
# 
# From -- ./inp_files/241457.got.cif
#   From: 2010.06.25/outbox.cif.g09.slc.cpg/sg12_121_cif.got.tgz:241457.got - 2010.06.28 00:19:55.
