data_PCOD8098274
_publ_section_title
;
Structure prediction by ZEFSAII (Michael W. Deem and Ramdas Pophale) SiO2 
 PCOD8098274
Probable space group: C 2/M
;
_chemical_formula_sum "Si O2"
_cell_formula_units_Z 64
_cell_length_a 30.413915
_cell_length_b 8.842585
_cell_length_c 22.796952
_cell_angle_alpha 90.000000
_cell_angle_beta 31.870015
_cell_angle_gamma 90.000000
_cell_volume 3237.108929
_symmetry_space_group_name_H-M "C 2/M"
_symmetry_group_IT_number 12
_symmetry_cell_setting 'monoclinic'
loop_
_space_group_symop_operation_xyz
x,y,z
-x,y,-z
-x,-y,-z
x,-y,z
1/2+x,1/2+y,z
1/2-x,1/2+y,-z
1/2-x,1/2-y,-z
1/2+x,1/2-y,z
loop_
_atom_site_type_symbol
_atom_site_label
_atom_site_fract_x
_atom_site_fract_y
_atom_site_fract_z
Si Si1 0.332208 0.673544 0.430093
Si Si2 0.118688 0.820643 0.079698
Si Si3 0.385641 0.673562 0.498749
Si Si4 0.749175 0.319455 0.260356
Si Si5 0.565332 0.677957 0.267705
Si Si6 0.465617 0.178812 0.200512
Si Si7 0.581083 0.179403 0.875372
Si Si8 0.772074 0.822409 0.848540
O O1 0.334348 0.500000 0.407649
O O2 0.250000 0.750000 0.500000
O O3 0.332845 0.688693 0.499170
O O4 0.412740 0.756762 0.313997
O O5 0.093497 0.758032 0.172549
O O6 0.057878 0.748176 0.099926
O O7 0.113735 0.000000 0.081856
O O8 0.211665 0.766863 0.960534
O O9 0.400671 0.500000 0.498268
O O10 0.329378 0.747526 0.613907
O O11 0.476995 0.750935 0.388449
O O12 0.749160 0.500000 0.264676
O O13 0.835113 0.254310 0.190131
O O14 0.740554 0.264601 0.203385
O O15 0.552847 0.500000 0.273888
O O16 0.633862 0.716376 0.239025
O O17 0.422835 0.228404 0.188095
O O18 0.472246 0.000000 0.197702
O O19 0.581344 0.000000 0.881117
O O20 0.500000 0.246231 0.000000
O O21 0.753510 0.000000 0.875430
#
# Coordination Sequence:
#
# PCOD8098274 Si02
#       8
#     8   8   8   8   8   8   8   8
#     4  11  21  35  55  79 111 147 183 222 269 326
#     4  11  21  36  55  78 113 150 179 219 279 335
#     4   9  17  32  53  77 110 145 177 223 278 326
#     4   9  17  30  51  80 109 140 180 226 277 322
#     4   9  18  33  53  80 111 140 177 227 281 327
#     4  11  21  34  56  83 108 140 184 228 272 323
#     4   9  17  30  49  76 110 143 178 223 272 321
#     4  10  20  34  56  84 107 135 183 234 273 324
#
# _framework density 19.770728999999999
#
# number of rings (size 3 to 8) (size 9 to 14) (size 15 to 20)
#    0.000    2.125    1.250    3.000    0.000    4.500 
#    0.000    3.125    0.000   11.250    0.000    0.875 
#    0.000    0.000    0.000    0.000    0.000    0.000 
#
# Total GULP energy -396802.891382 kJ/mol
# GULP energy per Si atom -12400.090356 kJ/mol
# Density = 1.972573 g / cm^3
# Si number density = 19.770729 Si / 1000 Ang^3
#
#
#
# Elastic Constant Matrix: (Units=GPa)
#
#
# Indices 1 2 3 4 5 6 
#
# 1 126.0447 23.8180 61.0993 0.0193 -8.9969 -0.0118
# 2 23.8180 40.3906 19.6153 0.0446 -2.4159 -0.0160
# 3 61.0993 19.6153 158.5275 0.0496 -2.5843 -0.0205
# 4 0.0193 0.0446 0.0496 23.6657 -0.0188 -2.6951
# 5 -8.9969 -2.4159 -2.5843 -0.0188 37.4166 0.0121
# 6 -0.0118 -0.0160 -0.0205 -2.6951 0.0121 18.4158
#
#
#
# Elastic Compliance Matrix: (Units=1/GPa)
#
#
# Indices 1 2 3 4 5 6 
#
# 1 0.010618 -0.004435 -0.003511 0.000009 0.002024 -0.000001
# 2 -0.004435 0.028276 -0.001779 -0.000044 0.000636 0.000013
# 3 -0.003511 -0.001779 0.007874 -0.000010 -0.000415 0.000004
# 4 0.000009 -0.000044 -0.000010 0.042972 0.000018 0.006289
# 5 0.002024 0.000636 -0.000415 0.000018 0.027225 -0.000014
# 6 -0.000001 0.000013 0.000004 0.006289 -0.000014 0.055222
#
#
# Mechanical properties :
#
#
# Convention : Reuss Voigt Hill
#
# Bulk Modulus (GPa) = 36.60508 59.33643 47.97075
# Shear Modulus (GPa) = 24.90754 30.59496 27.75125
#
# Velocity S-wave (km/s) = 3.55324 3.93808 3.75060
# Velocity P-wave (km/s) = 5.94887 7.12428 6.56294
#
# Compressibility (1/GPa) = 0.02731861
#
# Stress axis : x y z
#
# Youngs Moduli (GPa) = 94.17926 35.36602 126.99343
#
# Poissons Ratio (x) = 0.15686 0.44582
# Poissons Ratio (y) = 0.41773 0.22589
# Poissons Ratio (z) = 0.33062 0.06291
#
# Static dielectric constant tensor:
#      x y z
#    x 3.672510 -0.000010 -0.034930 
#    y -0.000010 3.095900 0.000010 
#    z -0.034930 0.000010 3.982220 
# 
# 
# High freq. dielectric constant tensor:
#      x y z
#    x 1.779380 0.000000 -0.005170 
#    y 0.000000 1.714320 0.000000 
#    z -0.005170 0.000000 1.787190 
# 
# From -- ./inp_files/353291.got.cif
#   From: 2010.06.25/outbox.cif.g09.slc.cpg/sg12_177_cif.got.tgz:353291.got - 2010.06.28 00:19:55.
