data_PCOD8098570
_publ_section_title
;
Structure prediction by ZEFSAII (Michael W. Deem and Ramdas Pophale) SiO2 
 PCOD8098570
Probable space group: C 2/M
;
_chemical_formula_sum "Si O2"
_cell_formula_units_Z 40
_cell_length_a 12.349314
_cell_length_b 13.523766
_cell_length_c 17.348055
_cell_angle_alpha 90.000000
_cell_angle_beta 137.557698
_cell_angle_gamma 90.000000
_cell_volume 1955.225525
_symmetry_space_group_name_H-M "C 2/M"
_symmetry_group_IT_number 12
_symmetry_cell_setting 'monoclinic'
loop_
_space_group_symop_operation_xyz
x,y,z
-x,y,-z
-x,-y,-z
x,-y,z
1/2+x,1/2+y,z
1/2-x,1/2+y,-z
1/2-x,1/2-y,-z
1/2+x,1/2-y,z
loop_
_atom_site_type_symbol
_atom_site_label
_atom_site_fract_x
_atom_site_fract_y
_atom_site_fract_z
Si Si1 0.128439 0.886851 0.727443
Si Si2 0.741686 0.614060 0.447788
Si Si3 0.735068 0.294819 0.282564
Si Si4 0.526493 0.112910 0.705402
Si Si5 0.388899 0.725779 0.131962
O O1 0.218259 0.818771 0.712222
O O2 0.174946 0.853384 0.838843
O O3 0.938545 0.871801 0.616565
O O4 0.181597 0.000000 0.742445
O O5 0.773845 0.500000 0.441991
O O6 0.779709 0.681859 0.394149
O O7 0.861166 0.648166 0.578282
O O8 0.825981 0.370620 0.274922
O O9 0.545116 0.314744 0.168926
O O10 0.551138 0.174704 0.795330
O O11 0.518191 0.000000 0.726166
O O12 0.250000 0.750000 0.000000
#
# Coordination Sequence:
#
# PCOD8098570 Si02
#       5
#     8   8   8   8   8
#     4   9  20  37  57  82 112 145 179 217 266 325
#     4   9  18  35  57  83 114 141 169 216 275 326
#     4  10  20  34  58  82 107 142 181 221 268 321
#     4  10  21  36  57  85 111 138 178 223 268 321
#     4  10  23  40  55  76 109 146 184 227 271 312
#
# _framework density 20.457996000000001
#
# number of rings (size 3 to 8) (size 9 to 14) (size 15 to 20)
#    0.000    2.400    0.000    1.200    0.000   16.000 
#    0.000    2.000    0.000   13.200    0.000    0.000 
#    0.000    0.000    0.000    0.000    0.000    0.000 
#
# Total GULP energy -248028.304459 kJ/mol
# GULP energy per Si atom -12401.415223 kJ/mol
# Density = 2.041143 g / cm^3
# Si number density = 20.457996 Si / 1000 Ang^3
#
#
#
# Elastic Constant Matrix: (Units=GPa)
#
#
# Indices 1 2 3 4 5 6 
#
# 1 62.5730 8.5953 33.8101 0.0000 -0.4307 0.0000
# 2 8.5953 86.8730 40.2623 0.0000 -9.5921 0.0000
# 3 33.8101 40.2623 164.6150 0.0001 10.0110 0.0000
# 4 0.0000 0.0000 0.0001 24.7527 0.0000 -2.1179
# 5 -0.4307 -9.5921 10.0110 0.0000 18.5888 0.0000
# 6 0.0000 0.0000 0.0000 -2.1179 0.0000 29.8281
#
#
#
# Elastic Compliance Matrix: (Units=1/GPa)
#
#
# Indices 1 2 3 4 5 6 
#
# 1 0.018097 0.000351 -0.003969 0.000000 0.002738 0.000000
# 2 0.000351 0.014508 -0.004214 0.000000 0.009764 0.000000
# 3 -0.003969 -0.004214 0.008332 0.000000 -0.006754 0.000000
# 4 0.000000 0.000000 0.000000 0.040647 0.000000 0.002886
# 5 0.002738 0.009764 -0.006754 0.000000 0.062535 0.000000
# 6 0.000000 0.000000 0.000000 0.002886 0.000000 0.033730
#
#
# Mechanical properties :
#
#
# Convention : Reuss Voigt Hill
#
# Bulk Modulus (GPa) = 39.57045 53.26626 46.41836
# Shear Modulus (GPa) = 24.76037 30.06012 27.41025
#
# Velocity S-wave (km/s) = 3.48271 3.83738 3.66434
# Velocity P-wave (km/s) = 5.96294 6.76220 6.37511
#
# Compressibility (1/GPa) = 0.02527138
#
# Stress axis : x y z
#
# Youngs Moduli (GPa) = 55.25883 68.92976 120.02633
#
# Poissons Ratio (x) = -0.02423 0.47643
# Poissons Ratio (y) = -0.01942 0.50583
# Poissons Ratio (z) = 0.21934 0.29049
#
# Static dielectric constant tensor:
#      x y z
#    x 3.789430 0.000000 0.141780 
#    y 0.000000 3.850180 0.000000 
#    z 0.141780 0.000000 3.486240 
# 
# 
# High freq. dielectric constant tensor:
#      x y z
#    x 1.802890 0.000000 0.005050 
#    y 0.000000 1.808950 0.000000 
#    z 0.005050 0.000000 1.778160 
# 
# From -- ./inp_files/129214.got.cif
#   From: 2010.06.25/outbox.cif.g09.slc.cpg/sg12_65_cif.got.tgz:129214.got - 2010.06.28 00:19:55.
