data_PCOD8098038
_publ_section_title
;
Structure prediction by ZEFSAII (Michael W. Deem and Ramdas Pophale) SiO2 
 PCOD8098038
Probable space group: C 2/M
;
_chemical_formula_sum "Si O2"
_cell_formula_units_Z 56
_cell_length_a 18.102118
_cell_length_b 14.471318
_cell_length_c 10.648203
_cell_angle_alpha 90.000000
_cell_angle_beta 74.187576
_cell_angle_gamma 90.000000
_cell_volume 2683.864683
_symmetry_space_group_name_H-M "C 2/M"
_symmetry_group_IT_number 12
_symmetry_cell_setting 'monoclinic'
loop_
_space_group_symop_operation_xyz
x,y,z
-x,y,-z
-x,-y,-z
x,-y,z
1/2+x,1/2+y,z
1/2-x,1/2+y,-z
1/2-x,1/2-y,-z
1/2+x,1/2-y,z
loop_
_atom_site_type_symbol
_atom_site_label
_atom_site_fract_x
_atom_site_fract_y
_atom_site_fract_z
Si Si1 0.876982 0.183353 0.273480
Si Si2 0.910230 0.259759 0.516158
Si Si3 0.195812 0.893627 0.345367
Si Si4 0.136046 0.228581 0.996424
Si Si5 0.520062 0.597634 0.135226
Si Si6 0.763508 0.392367 0.038869
Si Si7 0.277814 0.107509 0.561280
O O1 0.894644 0.254680 0.375300
O O2 0.891636 0.233861 0.134243
O O3 0.793250 0.138232 0.319176
O O4 0.943229 0.105225 0.253817
O O5 0.881505 0.167508 0.602823
O O6 0.854685 0.344598 0.580207
O O7 0.000000 0.279309 0.500000
O O8 0.236204 0.874637 0.194204
O O9 0.256643 0.865653 0.426337
O O10 0.170811 0.000000 0.371437
O O11 0.159063 0.333102 0.022202
O O12 0.073264 0.188954 0.124601
O O13 0.203431 0.151887 0.970397
O O14 0.561362 0.500000 0.157364
O O15 0.500000 0.587670 0.000000
O O16 0.778255 0.500000 0.002824
O O17 0.292557 0.000000 0.568473
#
# Coordination Sequence:
#
# PCOD8098038 Si02
#       7
#     8   8   8   8   8   8   8
#     4  10  20  38  59  81 111 149 192 235 281 333
#     4  11  23  36  56  86 119 147 181 233 286 336
#     4   9  19  37  59  84 112 147 188 230 281 335
#     4  10  20  34  55  82 114 149 186 230 282 335
#     4   9  18  32  53  81 110 138 178 231 284 327
#     4  10  20  34  56  83 114 148 186 232 281 336
#     4  10  20  37  61  83 110 152 194 228 270 335
#
# _framework density 20.865434
#
# number of rings (size 3 to 8) (size 9 to 14) (size 15 to 20)
#    0.000    2.143    0.000    4.286    2.000    2.857 
#    0.000    0.000    0.000    4.714    0.000    0.000 
#    0.000    0.000    0.000    0.000    0.000    0.000 
#
# Total GULP energy -346939.670569 kJ/mol
# GULP energy per Si atom -12390.702520 kJ/mol
# Density = 2.081794 g / cm^3
# Si number density = 20.865434 Si / 1000 Ang^3
#
#
#
# Elastic Constant Matrix: (Units=GPa)
#
#
# Indices 1 2 3 4 5 6 
#
# 1 123.1212 68.3001 27.0708 0.0000 -29.6400 0.0000
# 2 68.3001 125.9034 19.3203 0.0000 -20.5089 0.0000
# 3 27.0708 19.3203 43.4786 0.0000 -15.0140 0.0000
# 4 0.0000 0.0000 0.0000 31.1164 0.0000 -8.3199
# 5 -29.6400 -20.5089 -15.0140 0.0000 31.5702 0.0000
# 6 0.0000 0.0000 0.0000 -8.3199 0.0000 26.6090
#
#
#
# Elastic Compliance Matrix: (Units=1/GPa)
#
#
# Indices 1 2 3 4 5 6 
#
# 1 0.013939 -0.005779 -0.003455 0.000000 0.007689 0.000000
# 2 -0.005779 0.011482 -0.000959 0.000000 0.001577 0.000000
# 3 -0.003455 -0.000959 0.029006 0.000000 0.009927 0.000000
# 4 0.000000 0.000000 0.000000 0.035069 0.000000 0.010965
# 5 0.007689 0.001577 0.009927 0.000000 0.044640 0.000000
# 6 0.000000 0.000000 0.000000 0.010965 0.000000 0.041010
#
#
# Mechanical properties :
#
#
# Convention : Reuss Voigt Hill
#
# Bulk Modulus (GPa) = 29.37852 57.98730 43.68291
# Shear Modulus (GPa) = 24.16889 29.71326 26.94107
#
# Velocity S-wave (km/s) = 3.40710 3.77774 3.59720
# Velocity P-wave (km/s) = 5.43952 6.84689 6.18337
#
# Compressibility (1/GPa) = 0.03403848
#
# Stress axis : x y z
#
# Youngs Moduli (GPa) = 71.74372 87.09644 34.47612
#
# Poissons Ratio (x) = 0.50330 0.11913
# Poissons Ratio (y) = 0.41458 0.03308
# Poissons Ratio (z) = 0.24791 0.08356
#
# Static dielectric constant tensor:
#      x y z
#    x 3.850250 0.000000 -0.116920 
#    y 0.000000 3.832050 0.000000 
#    z -0.116920 0.000000 3.793910 
# 
# 
# High freq. dielectric constant tensor:
#      x y z
#    x 1.804010 0.000000 0.003260 
#    y 0.000000 1.808270 0.000000 
#    z 0.003260 0.000000 1.812210 
# 
# From -- ./inp_files/155993.got.cif
#   From: 2010.06.25/outbox.cif.g09.slc.cpg/sg12_78_cif.got.tgz:155993.got - 2010.06.28 00:19:55.
