data_PCOD8098448
_publ_section_title
;
Structure prediction by ZEFSAII (Michael W. Deem and Ramdas Pophale) SiO2 
 PCOD8098448
Probable space group: C 2/M
;
_chemical_formula_sum "Si O2"
_cell_formula_units_Z 64
_cell_length_a 31.304682
_cell_length_b 8.780548
_cell_length_c 23.220380
_cell_angle_alpha 90.000000
_cell_angle_beta 147.872855
_cell_angle_gamma 90.000000
_cell_volume 3394.286209
_symmetry_space_group_name_H-M "C 2/M"
_symmetry_group_IT_number 12
_symmetry_cell_setting 'monoclinic'
loop_
_space_group_symop_operation_xyz
x,y,z
-x,y,-z
-x,-y,-z
x,-y,z
1/2+x,1/2+y,z
1/2-x,1/2+y,-z
1/2-x,1/2-y,-z
1/2+x,1/2-y,z
loop_
_atom_site_type_symbol
_atom_site_label
_atom_site_fract_x
_atom_site_fract_y
_atom_site_fract_z
Si Si1 0.165062 0.171498 0.409156
Si Si2 0.752663 0.822797 0.911265
Si Si3 0.044061 0.679474 0.356270
Si Si4 0.762115 0.319647 0.797652
Si Si5 0.168732 0.833576 0.284273
Si Si6 0.871274 0.821690 0.146128
Si Si7 0.329478 0.174176 0.408770
Si Si8 0.913105 0.675202 0.903222
O O1 0.250000 0.250000 0.500000
O O2 0.104087 0.276245 0.373980
O O3 0.134567 0.161995 0.309158
O O4 0.171190 0.000000 0.442511
O O5 0.749433 0.734807 0.847686
O O6 0.675328 0.773311 0.859073
O O7 0.746355 0.000000 0.890385
O O8 0.833584 0.784741 0.040009
O O9 0.026113 0.500000 0.332357
O O10 0.085221 0.722466 0.464985
O O11 0.963564 0.774336 0.254500
O O12 0.761743 0.500000 0.795808
O O13 0.691655 0.266909 0.673354
O O14 0.848926 0.254356 0.875341
O O15 0.264271 0.800806 0.385766
O O16 0.122782 0.696909 0.200947
O O17 0.151448 0.000000 0.235955
O O18 0.862208 0.000000 0.149240
O O19 0.333746 0.000000 0.394102
O O20 0.925113 0.500000 0.932181
O O21 0.000000 0.757809 0.000000
#
# Coordination Sequence:
#
# PCOD8098448 Si02
#       8
#     8   8   8   8   8   8   8   8
#     4  11  21  34  52  78 111 148 191 234 278 331
#     4  10  21  40  64  86 113 148 186 229 286 347
#     4  11  22  37  57  84 117 153 192 234 287 344
#     4  10  20  34  57  85 110 145 190 234 281 334
#     4   9  18  33  50  71 102 141 186 227 269 323
#     4  10  22  40  62  89 116 145 183 233 287 340
#     4   9  18  35  54  76 110 149 187 227 275 335
#     4   9  19  34  50  74 108 143 182 227 275 325
#
# _framework density 18.855217
#
# number of rings (size 3 to 8) (size 9 to 14) (size 15 to 20)
#    0.000    2.125    1.250    1.875    0.000    5.250 
#    0.000    3.125    0.000    3.750    0.000    0.000 
#    0.000    0.000    0.000    0.000    0.000    0.000 
#
# Total GULP energy -396572.066983 kJ/mol
# GULP energy per Si atom -12392.877093 kJ/mol
# Density = 1.881230 g / cm^3
# Si number density = 18.855217 Si / 1000 Ang^3
#
#
#
# Elastic Constant Matrix: (Units=GPa)
#
#
# Indices 1 2 3 4 5 6 
#
# 1 79.0839 16.9179 46.2304 0.0000 -14.8593 0.0000
# 2 16.9179 43.7092 21.7639 0.0000 -6.3705 0.0000
# 3 46.2304 21.7639 110.0658 0.0000 2.9368 0.0000
# 4 0.0000 0.0000 0.0000 31.0906 0.0000 -1.5442
# 5 -14.8593 -6.3705 2.9368 0.0000 26.9737 0.0000
# 6 0.0000 0.0000 0.0000 -1.5442 0.0000 30.7159
#
#
#
# Elastic Compliance Matrix: (Units=1/GPa)
#
#
# Indices 1 2 3 4 5 6 
#
# 1 0.020125 -0.001936 -0.008378 0.000000 0.011542 0.000000
# 2 -0.001936 0.026775 -0.004635 0.000000 0.005762 0.000000
# 3 -0.008378 -0.004635 0.013713 0.000000 -0.007203 0.000000
# 4 0.000000 0.000000 0.000000 0.032245 0.000000 0.001621
# 5 0.011542 0.005762 -0.007203 0.000000 0.045576 0.000000
# 6 0.000000 0.000000 0.000000 0.001621 0.000000 0.032638
#
#
# Mechanical properties :
#
#
# Convention : Reuss Voigt Hill
#
# Bulk Modulus (GPa) = 32.55666 44.74261 38.64963
# Shear Modulus (GPa) = 23.67315 27.61915 25.64615
#
# Velocity S-wave (km/s) = 3.54718 3.83142 3.69204
# Velocity P-wave (km/s) = 5.83788 6.58439 6.22234
#
# Compressibility (1/GPa) = 0.03071568
#
# Stress axis : x y z
#
# Youngs Moduli (GPa) = 49.68883 37.34767 72.92183
#
# Poissons Ratio (x) = 0.07229 0.61096
# Poissons Ratio (y) = 0.09618 0.33800
# Poissons Ratio (z) = 0.41631 0.17311
#
# Static dielectric constant tensor:
#      x y z
#    x 3.518170 0.000000 0.028210 
#    y 0.000000 3.530040 0.000000 
#    z 0.028210 0.000000 3.557410 
# 
# 
# High freq. dielectric constant tensor:
#      x y z
#    x 1.719940 0.000000 -0.005360 
#    y 0.000000 1.737870 0.000000 
#    z -0.005360 0.000000 1.730590 
# 
# From -- ./inp_files/353532.got.cif
#   From: 2010.06.25/outbox.cif.g09.slc.cpg/sg12_177_cif.got.tgz:353532.got - 2010.06.28 00:19:55.
