data_PCOD8098938
_publ_section_title
;
Structure prediction by ZEFSAII (Michael W. Deem and Ramdas Pophale) SiO2 
 PCOD8098938
Probable space group: C 2/M
;
_chemical_formula_sum "Si O2"
_cell_formula_units_Z 56
_cell_length_a 22.845319
_cell_length_b 16.587176
_cell_length_c 10.112954
_cell_angle_alpha 90.000000
_cell_angle_beta 132.147279
_cell_angle_gamma 90.000000
_cell_volume 2841.275827
_symmetry_space_group_name_H-M "C 2/M"
_symmetry_group_IT_number 12
_symmetry_cell_setting 'monoclinic'
loop_
_space_group_symop_operation_xyz
x,y,z
-x,y,-z
-x,-y,-z
x,-y,z
1/2+x,1/2+y,z
1/2-x,1/2+y,-z
1/2-x,1/2-y,-z
1/2+x,1/2-y,z
loop_
_atom_site_type_symbol
_atom_site_label
_atom_site_fract_x
_atom_site_fract_y
_atom_site_fract_z
Si Si1 0.731580 0.407632 0.473843
Si Si2 0.958895 0.860597 0.563445
Si Si3 0.674089 0.146324 0.626504
Si Si4 0.276235 0.325431 0.275910
Si Si5 0.439410 0.589910 0.811398
Si Si6 0.655779 0.094339 0.897499
Si Si7 0.501495 0.180041 0.354077
O O1 0.722777 0.500000 0.507402
O O2 0.782308 0.405924 0.417995
O O3 0.764185 0.357225 0.648722
O O4 0.645793 0.367593 0.313667
O O5 0.866007 0.854475 0.394383
O O6 0.973954 0.913544 0.715757
O O7 0.000000 0.903146 0.500000
O O8 0.005019 0.776524 0.659321
O O9 0.722266 0.228858 0.720982
O O10 0.669222 0.102074 0.760206
O O11 0.587502 0.156873 0.427918
O O12 0.226917 0.359909 0.078445
O O13 0.428539 0.500000 0.851068
O O14 0.500000 0.637138 0.000000
O O15 0.574218 0.136286 0.826933
O O16 0.654045 0.000000 0.932747
O O17 0.500000 0.147468 0.500000
#
# Coordination Sequence:
#
# PCOD8098938 Si02
#       7
#     8   8   8   8   8   8   8
#     4  10  20  35  54  77 109 146 182 226 280 331
#     4   9  18  35  56  76 102 140 182 221 266 325
#     4  10  20  36  58  81 105 144 193 229 263 325
#     4  10  21  37  55  79 114 147 179 226 282 331
#     4   9  19  33  48  72 106 138 171 220 276 321
#     4  11  22  36  57  85 115 145 180 228 281 328
#     4   8  18  35  54  78 107 139 178 224 273 318
#
# _framework density 19.709455999999999
#
# number of rings (size 3 to 8) (size 9 to 14) (size 15 to 20)
#    0.000    2.429    0.000    2.571    0.000    6.286 
#    0.000    2.143    0.000    1.714    0.000    0.000 
#    0.000    0.000    0.000    0.000    0.000    0.000 
#
# Total GULP energy -346950.901400 kJ/mol
# GULP energy per Si atom -12391.103621 kJ/mol
# Density = 1.966460 g / cm^3
# Si number density = 19.709456 Si / 1000 Ang^3
#
#
#
# Elastic Constant Matrix: (Units=GPa)
#
#
# Indices 1 2 3 4 5 6 
#
# 1 106.3751 16.2124 39.8971 0.0000 -5.9918 0.0000
# 2 16.2124 72.8235 18.9929 0.0000 15.0195 0.0000
# 3 39.8971 18.9929 88.6993 0.0000 6.1582 0.0000
# 4 0.0000 0.0000 0.0000 23.6502 0.0000 -5.1802
# 5 -5.9918 15.0195 6.1582 0.0000 23.3048 0.0000
# 6 0.0000 0.0000 0.0000 -5.1802 0.0000 21.7363
#
#
#
# Elastic Compliance Matrix: (Units=1/GPa)
#
#
# Indices 1 2 3 4 5 6 
#
# 1 0.012148 -0.002591 -0.005340 0.000000 0.006205 0.000000
# 2 -0.002591 0.017068 -0.001710 0.000000 -0.011214 0.000000
# 3 -0.005340 -0.001710 0.014324 0.000000 -0.004056 0.000000
# 4 0.000000 0.000000 0.000000 0.044612 0.000000 0.010632
# 5 0.006205 -0.011214 -0.004056 0.000000 0.052804 0.000000
# 6 0.000000 0.000000 0.000000 0.010632 0.000000 0.048540
#
#
# Mechanical properties :
#
#
# Convention : Reuss Voigt Hill
#
# Bulk Modulus (GPa) = 41.22742 46.45584 43.84163
# Shear Modulus (GPa) = 23.05595 26.59131 24.82363
#
# Velocity S-wave (km/s) = 3.42393 3.67708 3.55276
# Velocity P-wave (km/s) = 6.04930 6.45364 6.25474
#
# Compressibility (1/GPa) = 0.02425570
#
# Stress axis : x y z
#
# Youngs Moduli (GPa) = 82.31824 58.59019 69.81368
#
# Poissons Ratio (x) = 0.15183 0.37281
# Poissons Ratio (y) = 0.21332 0.11941
# Poissons Ratio (z) = 0.43958 0.10022
#
# Static dielectric constant tensor:
#      x y z
#    x 3.681330 0.000000 0.151080 
#    y 0.000000 3.396200 0.000000 
#    z 0.151080 0.000000 3.662190 
# 
# 
# High freq. dielectric constant tensor:
#      x y z
#    x 1.767240 0.000000 0.005650 
#    y 0.000000 1.755050 0.000000 
#    z 0.005650 0.000000 1.757920 
# 
# From -- ./inp_files/98198.got.cif
#   From: 2010.06.25/outbox.cif.g09.slc.cpg/sg12_50_cif.got.tgz:98198.got - 2010.06.28 00:19:55.
