data_PCOD8098924
_publ_section_title
;
Structure prediction by ZEFSAII (Michael W. Deem and Ramdas Pophale) SiO2 
 PCOD8098924
Probable space group: C 2/M
;
_chemical_formula_sum "Si O2"
_cell_formula_units_Z 56
_cell_length_a 17.171556
_cell_length_b 13.924301
_cell_length_c 12.399139
_cell_angle_alpha 90.000000
_cell_angle_beta 109.226331
_cell_angle_gamma 90.000000
_cell_volume 2799.304481
_symmetry_space_group_name_H-M "C 2/M"
_symmetry_group_IT_number 12
_symmetry_cell_setting 'monoclinic'
loop_
_space_group_symop_operation_xyz
x,y,z
-x,y,-z
-x,-y,-z
x,-y,z
1/2+x,1/2+y,z
1/2-x,1/2+y,-z
1/2-x,1/2-y,-z
1/2+x,1/2-y,z
loop_
_atom_site_type_symbol
_atom_site_label
_atom_site_fract_x
_atom_site_fract_y
_atom_site_fract_z
Si Si1 0.498780 0.388493 0.372907
Si Si2 0.055901 0.607939 0.191593
Si Si3 0.254276 0.296052 0.768566
Si Si4 0.411319 0.270677 0.962906
Si Si5 0.764606 0.393352 0.672835
Si Si6 0.184975 0.110990 0.414165
Si Si7 0.590287 0.773925 0.795879
O O1 0.500000 0.364519 0.500000
O O2 0.473791 0.500000 0.343937
O O3 0.587948 0.366591 0.361943
O O4 0.432868 0.320357 0.284216
O O5 0.032262 0.500000 0.145019
O O6 0.071105 0.670181 0.090763
O O7 0.137256 0.607014 0.303347
O O8 0.985237 0.652072 0.235233
O O9 0.336075 0.328240 0.872469
O O10 0.245733 0.179751 0.761813
O O11 0.264185 0.332261 0.651995
O O12 0.168783 0.331251 0.781954
O O13 0.500000 0.327827 0.000000
O O14 0.383264 0.255432 0.072042
O O15 0.733522 0.500000 0.691765
O O16 0.718494 0.356923 0.545310
O O17 0.203264 0.000000 0.403533
#
# Coordination Sequence:
#
# PCOD8098924 Si02
#       7
#     8   8   8   8   8   8   8
#     4  10  21  38  59  81 106 140 184 227 265 313
#     4   9  19  36  58  81 107 143 184 223 263 312
#     4  11  21  34  54  79 110 141 171 215 272 323
#     4   9  19  36  56  77 103 137 180 222 260 307
#     4   9  18  34  56  78 101 136 183 225 259 304
#     4  10  20  35  54  77 107 142 178 216 263 318
#     4  11  22  34  54  82 111 139 174 221 271 321
#
# _framework density 20.004968000000002
#
# number of rings (size 3 to 8) (size 9 to 14) (size 15 to 20)
#    0.000    2.143    0.000    4.286    0.000    6.000 
#    0.000    0.714    0.000   14.143    0.000    0.000 
#    0.000    0.000    0.000    0.000    0.000    0.000 
#
# Total GULP energy -347076.989187 kJ/mol
# GULP energy per Si atom -12395.606757 kJ/mol
# Density = 1.995944 g / cm^3
# Si number density = 20.004968 Si / 1000 Ang^3
#
#
#
# Elastic Constant Matrix: (Units=GPa)
#
#
# Indices 1 2 3 4 5 6 
#
# 1 113.5673 20.1599 30.0926 0.0000 -1.2612 0.0000
# 2 20.1599 48.8673 21.2597 0.0000 0.0140 0.0000
# 3 30.0926 21.2597 67.0826 0.0000 11.3653 0.0000
# 4 0.0000 0.0000 0.0000 17.5860 0.0000 3.9099
# 5 -1.2612 0.0140 11.3653 0.0000 37.4268 0.0000
# 6 0.0000 0.0000 0.0000 3.9099 0.0000 19.2184
#
#
#
# Elastic Compliance Matrix: (Units=1/GPa)
#
#
# Indices 1 2 3 4 5 6 
#
# 1 0.010358 -0.002475 -0.004134 0.000000 0.001605 0.000000
# 2 -0.002475 0.024534 -0.007010 0.000000 0.002036 0.000000
# 3 -0.004134 -0.007010 0.020037 0.000000 -0.006221 0.000000
# 4 0.000000 0.000000 0.000000 0.059557 0.000000 -0.012117
# 5 0.001605 0.002036 -0.006221 0.000000 0.028661 0.000000
# 6 0.000000 0.000000 0.000000 -0.012117 0.000000 0.054499
#
#
# Mechanical properties :
#
#
# Convention : Reuss Voigt Hill
#
# Bulk Modulus (GPa) = 36.11308 41.39350 38.75329
# Shear Modulus (GPa) = 21.35711 25.37992 23.36851
#
# Velocity S-wave (km/s) = 3.27094 3.56572 3.42151
# Velocity P-wave (km/s) = 5.68829 6.13914 5.91801
#
# Compressibility (1/GPa) = 0.02769080
#
# Stress axis : x y z
#
# Youngs Moduli (GPa) = 96.54399 40.76028 49.90749
#
# Poissons Ratio (x) = 0.10088 0.20632
# Poissons Ratio (y) = 0.23895 0.34984
# Poissons Ratio (z) = 0.39912 0.28572
#
# Static dielectric constant tensor:
#      x y z
#    x 3.828980 0.000000 0.266540 
#    y 0.000000 3.506570 0.000000 
#    z 0.266540 0.000000 3.587370 
# 
# 
# High freq. dielectric constant tensor:
#      x y z
#    x 1.789960 0.000000 0.015950 
#    y 0.000000 1.756140 0.000000 
#    z 0.015950 0.000000 1.779110 
# 
# From -- ./inp_files/155983.got.cif
#   From: 2010.06.25/outbox.cif.g09.slc.cpg/sg12_78_cif.got.tgz:155983.got - 2010.06.28 00:19:55.
