data_PCOD8098526
_publ_section_title
;
Structure prediction by ZEFSAII (Michael W. Deem and Ramdas Pophale) SiO2 
 PCOD8098526
Probable space group: C 2/M
;
_chemical_formula_sum "Si O2"
_cell_formula_units_Z 48
_cell_length_a 20.652955
_cell_length_b 8.644618
_cell_length_c 17.450605
_cell_angle_alpha 90.000000
_cell_angle_beta 53.575234
_cell_angle_gamma 90.000000
_cell_volume 2506.909237
_symmetry_space_group_name_H-M "C 2/M"
_symmetry_group_IT_number 12
_symmetry_cell_setting 'monoclinic'
loop_
_space_group_symop_operation_xyz
x,y,z
-x,y,-z
-x,-y,-z
x,-y,z
1/2+x,1/2+y,z
1/2-x,1/2+y,-z
1/2-x,1/2-y,-z
1/2+x,1/2-y,z
loop_
_atom_site_type_symbol
_atom_site_label
_atom_site_fract_x
_atom_site_fract_y
_atom_site_fract_z
Si Si1 0.051921 0.816169 0.393910
Si Si2 0.776382 0.818555 0.095458
Si Si3 0.022448 0.817761 0.712216
Si Si4 0.197632 0.682155 0.605302
Si Si5 0.233172 0.816454 0.280960
Si Si6 0.623147 0.819110 0.104743
O O1 0.142206 0.754654 0.339049
O O2 0.000000 0.747055 0.500000
O O3 0.013466 0.755791 0.342429
O O4 0.051295 0.000000 0.396692
O O5 0.783511 0.764948 0.178185
O O6 0.689241 0.771934 0.122284
O O7 0.791643 0.000000 0.076787
O O8 0.845641 0.729348 0.000675
O O9 0.106100 0.733864 0.666273
O O10 0.959379 0.772720 0.822502
O O11 0.037211 0.000000 0.701292
O O12 0.203710 0.500000 0.594832
O O13 0.250000 0.750000 0.500000
O O14 0.232768 0.739433 0.661670
O O15 0.238984 0.000000 0.266521
O O16 0.604733 0.000000 0.119228
#
# Coordination Sequence:
#
# PCOD8098526 Si02
#       6
#     8   8   8   8   8   8
#     4   9  17  31  54  82 109 142 189 237 282 337
#     4  10  20  34  57  88 120 151 189 239 293 343
#     4  11  21  36  60  86 117 153 193 241 291 344
#     4  11  24  41  61  84 117 159 199 239 289 348
#     4  10  20  37  59  83 114 154 196 237 288 347
#     4  10  20  35  57  86 121 154 190 234 289 351
#
# _framework density 19.147082999999999
#
# number of rings (size 3 to 8) (size 9 to 14) (size 15 to 20)
#    0.000    1.833    1.667    3.000    0.000    5.333 
#    0.000    0.833    0.000    7.500    0.000    0.000 
#    0.000    0.000    0.000    0.000    0.000    0.000 
#
# Total GULP energy -297694.374980 kJ/mol
# GULP energy per Si atom -12403.932291 kJ/mol
# Density = 1.910350 g / cm^3
# Si number density = 19.147083 Si / 1000 Ang^3
#
#
#
# Elastic Constant Matrix: (Units=GPa)
#
#
# Indices 1 2 3 4 5 6 
#
# 1 131.7827 23.0709 65.9280 0.0000 7.9383 0.0001
# 2 23.0709 35.0735 21.1300 0.0003 9.4580 0.0001
# 3 65.9280 21.1300 147.2501 0.0001 10.5336 -0.0002
# 4 0.0000 0.0003 0.0001 34.3676 -0.0001 -1.1299
# 5 7.9383 9.4580 10.5336 -0.0001 33.3246 0.0000
# 6 0.0001 0.0001 -0.0002 -1.1299 0.0000 27.2565
#
#
#
# Elastic Compliance Matrix: (Units=1/GPa)
#
#
# Indices 1 2 3 4 5 6 
#
# 1 0.010365 -0.004415 -0.004011 0.000000 0.000052 0.000000
# 2 -0.004415 0.035101 -0.002479 0.000000 -0.008127 0.000000
# 3 -0.004011 -0.002479 0.009028 0.000000 -0.001195 0.000000
# 4 0.000000 0.000000 0.000000 0.029137 0.000000 0.001208
# 5 0.000052 -0.008127 -0.001195 0.000000 0.032680 0.000000
# 6 0.000000 0.000000 0.000000 0.001208 0.000000 0.036739
#
#
# Mechanical properties :
#
#
# Convention : Reuss Voigt Hill
#
# Bulk Modulus (GPa) = 30.59611 59.37379 44.98495
# Shear Modulus (GPa) = 26.91756 32.58821 29.75289
#
# Velocity S-wave (km/s) = 3.75351 4.13000 3.94625
# Velocity P-wave (km/s) = 5.89909 7.33615 6.65652
#
# Compressibility (1/GPa) = 0.03268389
#
# Stress axis : x y z
#
# Youngs Moduli (GPa) = 96.48268 28.48946 110.76685
#
# Poissons Ratio (x) = 0.12579 0.44424
# Poissons Ratio (y) = 0.42602 0.27454
# Poissons Ratio (z) = 0.38695 0.07061
#
# Static dielectric constant tensor:
#      x y z
#    x 3.565360 0.000000 -0.041950 
#    y 0.000000 3.310030 0.000000 
#    z -0.041950 0.000000 3.757420 
# 
# 
# High freq. dielectric constant tensor:
#      x y z
#    x 1.731040 0.000000 0.001030 
#    y 0.000000 1.735180 0.000000 
#    z 0.001030 0.000000 1.761880 
# 
# From -- ./inp_files/274602.got.cif
#   From: 2010.06.25/outbox.cif.g09.slc.cpg/sg12_138_cif.got.tgz:274602.got - 2010.06.28 00:19:55.
