data_PCOD8098121
_publ_section_title
;
Structure prediction by ZEFSAII (Michael W. Deem and Ramdas Pophale) SiO2 
 PCOD8098121
Probable space group: C 2/M
;
_chemical_formula_sum "Si O2"
_cell_formula_units_Z 48
_cell_length_a 24.022636
_cell_length_b 16.479015
_cell_length_c 17.683448
_cell_angle_alpha 90.000000
_cell_angle_beta 21.133823
_cell_angle_gamma 90.000000
_cell_volume 2523.953415
_symmetry_space_group_name_H-M "C 2/M"
_symmetry_group_IT_number 12
_symmetry_cell_setting 'monoclinic'
loop_
_space_group_symop_operation_xyz
x,y,z
-x,y,-z
-x,-y,-z
x,-y,z
1/2+x,1/2+y,z
1/2-x,1/2+y,-z
1/2-x,1/2-y,-z
1/2+x,1/2-y,z
loop_
_atom_site_type_symbol
_atom_site_label
_atom_site_fract_x
_atom_site_fract_y
_atom_site_fract_z
Si Si1 0.789174 0.821424 0.893514
Si Si2 0.914951 0.905474 0.868088
Si Si3 0.562052 0.094917 0.075272
Si Si4 0.237793 0.831348 0.467936
Si Si5 0.334403 0.192747 0.722351
Si Si6 0.334855 0.213020 0.183615
O O1 0.897403 0.885278 0.800731
O O2 0.872465 0.777993 0.717247
O O3 0.750000 0.750000 0.000000
O O4 0.635851 0.867021 0.057702
O O5 0.077845 0.873804 0.692968
O O6 0.905634 0.000000 0.893284
O O7 0.775547 0.865444 0.090806
O O8 0.378818 0.109738 0.310604
O O9 0.597740 0.000000 0.026144
O O10 0.636828 0.135647 0.906377
O O11 0.250000 0.750000 0.500000
O O12 0.234823 0.813568 0.382325
O O13 0.500000 0.149209 0.500000
O O14 0.252931 0.213597 0.746407
O O15 0.500000 0.248469 0.000000
#
# Coordination Sequence:
#
# PCOD8098121 Si02
#       6
#     8   8   8   8   8   8
#     4   9  18  35  55  79 107 141 182 218 259 318
#     4  11  22  35  54  82 113 141 175 226 276 313
#     4  10  20  34  55  84 115 143 175 221 276 326
#     4  11  21  36  58  81 108 144 184 222 265 324
#     4  10  20  36  56  76 103 143 189 223 260 319
#     4   9  19  35  56  79 105 141 181 222 267 321
#
# _framework density 19.017783999999999
#
# number of rings (size 3 to 8) (size 9 to 14) (size 15 to 20)
#    0.000    2.000    0.000    6.000    0.000    5.333 
#    0.000    0.000    0.000   11.000    0.000    0.000 
#    0.000    0.000    0.000    0.000    0.000    0.000 
#
# Total GULP energy -297552.920513 kJ/mol
# GULP energy per Si atom -12398.038355 kJ/mol
# Density = 1.897450 g / cm^3
# Si number density = 19.017784 Si / 1000 Ang^3
#
#
#
# Elastic Constant Matrix: (Units=GPa)
#
#
# Indices 1 2 3 4 5 6 
#
# 1 112.1400 56.9557 43.0815 -0.0010 -15.6105 0.0005
# 2 56.9557 117.1679 54.2220 -0.0029 -7.9671 0.0019
# 3 43.0815 54.2220 128.6614 -0.0034 -8.2656 0.0023
# 4 -0.0010 -0.0029 -0.0034 21.2045 0.0011 -8.8013
# 5 -15.6105 -7.9671 -8.2656 0.0011 24.0158 -0.0006
# 6 0.0005 0.0019 0.0023 -8.8013 -0.0006 21.8105
#
#
#
# Elastic Compliance Matrix: (Units=1/GPa)
#
#
# Indices 1 2 3 4 5 6 
#
# 1 0.013062 -0.005080 -0.001836 -0.000001 0.006173 0.000000
# 2 -0.005080 0.012675 -0.003664 0.000001 -0.000358 0.000000
# 3 -0.001836 -0.003664 0.009998 0.000001 0.001032 0.000000
# 4 -0.000001 0.000001 0.000001 0.056648 -0.000002 0.022859
# 5 0.006173 -0.000358 0.001032 -0.000002 0.045888 0.000000
# 6 0.000000 0.000000 0.000000 0.022859 0.000000 0.055074
#
#
# Mechanical properties :
#
#
# Convention : Reuss Voigt Hill
#
# Bulk Modulus (GPa) = 68.61119 74.05419 71.33269
# Shear Modulus (GPa) = 22.79314 26.98684 24.88999
#
# Velocity S-wave (km/s) = 3.46572 3.77109 3.62162
# Velocity P-wave (km/s) = 7.22292 7.61482 7.42146
#
# Compressibility (1/GPa) = 0.01457488
#
# Stress axis : x y z
#
# Youngs Moduli (GPa) = 76.55531 78.89330 100.02451
#
# Poissons Ratio (x) = 0.40079 0.18368
# Poissons Ratio (y) = 0.38891 0.36647
# Poissons Ratio (z) = 0.14058 0.28905
#
# Static dielectric constant tensor:
#      x y z
#    x 3.746170 0.000000 -0.062410 
#    y 0.000000 3.302740 0.000000 
#    z -0.062410 0.000000 3.448080 
# 
# 
# High freq. dielectric constant tensor:
#      x y z
#    x 1.754680 0.000000 -0.012040 
#    y 0.000000 1.717020 0.000000 
#    z -0.012040 0.000000 1.738290 
# 
# From -- ./inp_files/61735.got.cif
#   From: 2010.06.25/outbox.cif.g09.slc.cpg/sg12_31_cif.got.tgz:61735.got - 2010.06.28 00:19:55.
