data_PCOD8098052
_publ_section_title
;
Structure prediction by ZEFSAII (Michael W. Deem and Ramdas Pophale) SiO2 
 PCOD8098052
Probable space group: C 2/M
;
_chemical_formula_sum "Si O2"
_cell_formula_units_Z 56
_cell_length_a 15.124850
_cell_length_b 21.723817
_cell_length_c 14.642723
_cell_angle_alpha 90.000000
_cell_angle_beta 37.900466
_cell_angle_gamma 90.000000
_cell_volume 2955.450215
_symmetry_space_group_name_H-M "C 2/M"
_symmetry_group_IT_number 12
_symmetry_cell_setting 'monoclinic'
loop_
_space_group_symop_operation_xyz
x,y,z
-x,y,-z
-x,-y,-z
x,-y,z
1/2+x,1/2+y,z
1/2-x,1/2+y,-z
1/2-x,1/2-y,-z
1/2+x,1/2-y,z
loop_
_atom_site_type_symbol
_atom_site_label
_atom_site_fract_x
_atom_site_fract_y
_atom_site_fract_z
Si Si1 0.722981 0.655737 0.074604
Si Si2 0.484995 0.186224 0.649977
Si Si3 0.085030 0.572546 0.187863
Si Si4 0.782592 0.737695 0.672826
Si Si5 0.530248 0.752860 0.146530
Si Si6 0.641910 0.629214 0.340403
Si Si7 0.421379 0.069534 0.149191
O O1 0.620589 0.690956 0.087541
O O2 0.634582 0.639498 0.237690
O O3 0.767462 0.593914 0.982741
O O4 0.864852 0.696520 0.986473
O O5 0.453036 0.113238 0.691613
O O6 0.336926 0.213927 0.727590
O O7 0.626696 0.196606 0.473093
O O8 0.518942 0.220826 0.716030
O O9 0.090352 0.500000 0.208801
O O10 0.962098 0.593367 0.215956
O O11 0.609802 0.734330 0.800011
O O12 0.824106 0.808971 0.630698
O O13 0.500000 0.601243 0.500000
O O14 0.753583 0.576018 0.272047
O O15 0.475159 0.000000 0.103043
O O16 0.500000 0.104647 0.000000
#
# Coordination Sequence:
#
# PCOD8098052 Si02
#       7
#     8   8   8   8   8   8   8
#     4  10  20  35  52  85 115 150 199 234 291 359
#     4  10  20  38  56  90 117 149 201 231 298 364
#     4  10  21  39  61  80 112 155 205 253 283 337
#     4  11  21  35  57  85 124 156 186 243 299 355
#     4  10  20  34  55  82 120 153 191 241 293 349
#     4  12  21  34  54  86 126 153 184 239 300 357
#     4  10  21  37  58  84 112 154 202 238 289 356
#
# _framework density 18.948043999999999
#
# number of rings (size 3 to 8) (size 9 to 14) (size 15 to 20)
#    0.000    1.571    4.286    2.143    0.000    1.429 
#    0.000    1.429    0.000    2.571    0.000    0.000 
#    0.000    0.000    0.000    0.000    0.000    0.000 
#
# Total GULP energy -346937.770441 kJ/mol
# GULP energy per Si atom -12390.634659 kJ/mol
# Density = 1.890492 g / cm^3
# Si number density = 18.948044 Si / 1000 Ang^3
#
#
#
# Elastic Constant Matrix: (Units=GPa)
#
#
# Indices 1 2 3 4 5 6 
#
# 1 77.8704 9.5202 10.4873 0.0032 -22.6331 -0.0004
# 2 9.5202 55.4116 0.6965 0.0091 -4.1607 -0.0062
# 3 10.4873 0.6965 86.4802 0.0043 -9.5724 -0.0001
# 4 0.0032 0.0091 0.0043 26.2375 0.0018 -0.8774
# 5 -22.6331 -4.1607 -9.5724 0.0018 35.1168 -0.0063
# 6 -0.0004 -0.0062 -0.0001 -0.8774 -0.0063 19.2585
#
#
#
# Elastic Compliance Matrix: (Units=1/GPa)
#
#
# Indices 1 2 3 4 5 6 
#
# 1 0.016076 -0.002009 -0.000838 -0.000002 0.009895 0.000003
# 2 -0.002009 0.018460 0.000200 -0.000006 0.000947 0.000006
# 3 -0.000838 0.000200 0.011967 -0.000002 0.002746 0.000001
# 4 -0.000002 -0.000006 -0.000002 0.038172 -0.000004 0.001739
# 5 0.009895 0.000947 0.002746 -0.000004 0.035714 0.000012
# 6 0.000003 0.000006 0.000001 0.001739 0.000012 0.052004
#
#
# Mechanical properties :
#
#
# Convention : Reuss Voigt Hill
#
# Bulk Modulus (GPa) = 24.26584 29.01890 26.64237
# Shear Modulus (GPa) = 26.11993 29.39311 27.75652
#
# Velocity S-wave (km/s) = 3.71685 3.94286 3.83152
# Velocity P-wave (km/s) = 5.59055 6.00637 5.80218
#
# Compressibility (1/GPa) = 0.04121020
#
# Stress axis : x y z
#
# Youngs Moduli (GPa) = 62.20375 54.16987 83.56116
#
# Poissons Ratio (x) = 0.10880 0.07003
# Poissons Ratio (y) = 0.12494 -0.01669
# Poissons Ratio (z) = 0.05213 -0.01082
#
# Static dielectric constant tensor:
#      x y z
#    x 3.561540 0.000000 0.013040 
#    y 0.000000 3.352800 0.000010 
#    z 0.013040 0.000010 3.512850 
# 
# 
# High freq. dielectric constant tensor:
#      x y z
#    x 1.726110 0.000000 0.004440 
#    y 0.000000 1.721500 0.000000 
#    z 0.004440 0.000000 1.734800 
# 
# From -- ./inp_files/218253.got.cif
#   From: 2010.06.25/outbox.cif.g09.slc.cpg/sg12_110_cif.got.tgz:218253.got - 2010.06.28 00:19:55.
