data_PCOD8098173
_publ_section_title
;
Structure prediction by ZEFSAII (Michael W. Deem and Ramdas Pophale) SiO2 
 PCOD8098173
Probable space group: C 2/M
;
_chemical_formula_sum "Si O2"
_cell_formula_units_Z 48
_cell_length_a 21.743935
_cell_length_b 9.253480
_cell_length_c 12.304447
_cell_angle_alpha 90.000000
_cell_angle_beta 107.781418
_cell_angle_gamma 90.000000
_cell_volume 2357.471768
_symmetry_space_group_name_H-M "C 2/M"
_symmetry_group_IT_number 12
_symmetry_cell_setting 'monoclinic'
loop_
_space_group_symop_operation_xyz
x,y,z
-x,y,-z
-x,-y,-z
x,-y,z
1/2+x,1/2+y,z
1/2-x,1/2+y,-z
1/2-x,1/2-y,-z
1/2+x,1/2-y,z
loop_
_atom_site_type_symbol
_atom_site_label
_atom_site_fract_x
_atom_site_fract_y
_atom_site_fract_z
Si Si1 0.624708 0.165950 0.835460
Si Si2 0.496601 0.831724 0.373069
Si Si3 0.738179 0.667762 0.805770
Si Si4 0.765382 0.163635 0.614941
Si Si5 0.613857 0.836052 0.069361
Si Si6 0.915682 0.837059 0.744691
O O1 0.574410 0.200621 0.712445
O O2 0.686071 0.271275 0.862394
O O3 0.648777 0.000000 0.843067
O O4 0.589948 0.193936 0.933345
O O5 0.500000 0.780006 0.500000
O O6 0.548595 0.744844 0.332260
O O7 0.514029 0.000000 0.372783
O O8 0.724810 0.500000 0.776072
O O9 0.726914 0.757252 0.689777
O O10 0.809547 0.694508 0.889944
O O11 0.750000 0.250000 0.500000
O O12 0.840912 0.167260 0.676571
O O13 0.739519 0.000000 0.591416
O O14 0.574389 0.736712 0.132060
O O15 0.599633 0.000000 0.097479
O O16 0.942092 0.000000 0.766075
#
# Coordination Sequence:
#
# PCOD8098173 Si02
#       6
#     8   8   8   8   8   8
#     4  10  21  37  58  85 115 153 196 236 282 334
#     4  10  23  41  59  81 111 153 197 234 281 339
#     4  10  20  34  55  86 118 150 186 230 287 342
#     4  10  21  36  56  83 113 149 189 232 283 338
#     4   9  19  37  60  85 116 151 188 233 286 344
#     4  10  22  39  59  84 114 147 187 238 287 333
#
# _framework density 20.360795
#
# number of rings (size 3 to 8) (size 9 to 14) (size 15 to 20)
#    0.000    2.167    0.000    2.000    2.333    5.000 
#    0.000    3.333    0.000    0.000    0.000    0.000 
#    0.000    0.000    0.000    0.000    0.000    0.000 
#
# Total GULP energy -297653.417938 kJ/mol
# GULP energy per Si atom -12402.225747 kJ/mol
# Density = 2.031445 g / cm^3
# Si number density = 20.360795 Si / 1000 Ang^3
#
#
#
# Elastic Constant Matrix: (Units=GPa)
#
#
# Indices 1 2 3 4 5 6 
#
# 1 67.1595 47.1886 30.3374 0.0000 -27.4524 0.0000
# 2 47.1886 124.2666 57.1863 0.0000 -21.1706 0.0000
# 3 30.3374 57.1863 135.2429 0.0000 -22.1957 0.0000
# 4 0.0000 0.0000 0.0000 28.1155 0.0000 -10.9817
# 5 -27.4524 -21.1706 -22.1957 0.0000 28.0198 0.0000
# 6 0.0000 0.0000 0.0000 -10.9817 0.0000 35.3505
#
#
#
# Elastic Compliance Matrix: (Units=1/GPa)
#
#
# Indices 1 2 3 4 5 6 
#
# 1 0.029597 -0.007367 0.000370 0.000000 0.023724 0.000000
# 2 -0.007367 0.012429 -0.003731 0.000000 -0.000783 0.000000
# 3 0.000370 -0.003731 0.009754 0.000000 0.005269 0.000000
# 4 0.000000 0.000000 0.000000 0.040479 0.000000 0.012575
# 5 0.023724 -0.000783 0.005269 0.000000 0.062515 0.000000
# 6 0.000000 0.000000 0.000000 0.012575 0.000000 0.032195
#
#
# Mechanical properties :
#
#
# Convention : Reuss Voigt Hill
#
# Bulk Modulus (GPa) = 32.98020 66.23263 49.60641
# Shear Modulus (GPa) = 22.87983 31.09429 26.98706
#
# Velocity S-wave (km/s) = 3.35583 3.91214 3.64461
# Velocity P-wave (km/s) = 5.59004 7.28056 6.49057
#
# Compressibility (1/GPa) = 0.03032123
#
# Stress axis : x y z
#
# Youngs Moduli (GPa) = 33.78705 80.46017 102.52533
#
# Poissons Ratio (x) = 0.59279 -0.03790
# Poissons Ratio (y) = 0.24893 0.38254
# Poissons Ratio (z) = -0.01249 0.30021
#
# Static dielectric constant tensor:
#      x y z
#    x 3.854920 0.000000 0.109070 
#    y 0.000000 3.854110 0.000000 
#    z 0.109070 0.000000 3.987460 
# 
# 
# High freq. dielectric constant tensor:
#      x y z
#    x 1.784230 0.000000 -0.010080 
#    y 0.000000 1.797250 0.000000 
#    z -0.010080 0.000000 1.804470 
# 
# From -- ./inp_files/172299.got.cif
#   From: 2010.06.25/outbox.cif.g09.slc.cpg/sg12_87_cif.got.tgz:172299.got - 2010.06.28 00:19:55.
