data_PCOD8098452
_publ_section_title
;
Structure prediction by ZEFSAII (Michael W. Deem and Ramdas Pophale) SiO2 
 PCOD8098452
Probable space group: C 2/M
;
_chemical_formula_sum "Si O2"
_cell_formula_units_Z 48
_cell_length_a 12.180895
_cell_length_b 16.316924
_cell_length_c 11.713210
_cell_angle_alpha 90.000000
_cell_angle_beta 104.276774
_cell_angle_gamma 90.000000
_cell_volume 2256.155786
_symmetry_space_group_name_H-M "C 2/M"
_symmetry_group_IT_number 12
_symmetry_cell_setting 'monoclinic'
loop_
_space_group_symop_operation_xyz
x,y,z
-x,y,-z
-x,-y,-z
x,-y,z
1/2+x,1/2+y,z
1/2-x,1/2+y,-z
1/2-x,1/2-y,-z
1/2+x,1/2-y,z
loop_
_atom_site_type_symbol
_atom_site_label
_atom_site_fract_x
_atom_site_fract_y
_atom_site_fract_z
Si Si1 0.609401 0.092759 0.579767
Si Si2 0.370329 0.902303 0.970396
Si Si3 0.811896 0.905006 0.256158
Si Si4 0.058638 0.904941 0.270164
Si Si5 0.198134 0.160908 0.501194
Si Si6 0.262253 0.902644 0.173394
O O1 0.500000 0.140091 0.500000
O O2 0.708204 0.094480 0.511753
O O3 0.651899 0.133648 0.708673
O O4 0.574313 0.000000 0.598188
O O5 0.298567 0.873361 0.841489
O O6 0.371733 0.000000 0.976235
O O7 0.500000 0.868963 0.000000
O O8 0.302799 0.866043 0.062869
O O9 0.830732 0.852646 0.374481
O O10 0.925535 0.892548 0.208570
O O11 0.796989 0.000000 0.284497
O O12 0.089783 0.852287 0.391238
O O13 0.134110 0.877515 0.178965
O O14 0.084910 0.000000 0.304598
O O15 0.250000 0.250000 0.500000
O O16 0.271087 0.000000 0.171119
#
# Coordination Sequence:
#
# PCOD8098452 Si02
#       6
#     8   8   8   8   8   8
#     4   9  18  31  51  75 100 138 180 221 270 323
#     4   9  18  30  50  83 118 147 178 226 279 331
#     4  10  20  34  57  85 113 148 186 229 281 330
#     4   9  18  35  58  81 109 145 186 233 278 328
#     4  11  22  34  51  79 112 144 179 227 280 332
#     4   8  15  29  48  76 110 138 174 224 273 323
#
# _framework density 21.275124999999999
#
# number of rings (size 3 to 8) (size 9 to 14) (size 15 to 20)
#    0.000    2.667    0.000    3.000    2.333    3.333 
#    0.000    3.333    0.000    4.000    0.000    0.000 
#    0.000    0.000    0.000    0.000    0.000    0.000 
#
# Total GULP energy -297383.930341 kJ/mol
# GULP energy per Si atom -12390.997098 kJ/mol
# Density = 2.122670 g / cm^3
# Si number density = 21.275125 Si / 1000 Ang^3
#
#
#
# Elastic Constant Matrix: (Units=GPa)
#
#
# Indices 1 2 3 4 5 6 
#
# 1 138.0990 12.2383 75.1642 0.0000 5.7405 0.0000
# 2 12.2383 32.8197 15.3520 0.0000 1.5731 0.0000
# 3 75.1642 15.3520 100.0166 0.0000 -10.0946 0.0000
# 4 0.0000 0.0000 0.0000 6.7515 0.0000 -0.8656
# 5 5.7405 1.5731 -10.0946 0.0000 43.1931 0.0000
# 6 0.0000 0.0000 0.0000 -0.8656 0.0000 13.3024
#
#
#
# Elastic Compliance Matrix: (Units=1/GPa)
#
#
# Indices 1 2 3 4 5 6 
#
# 1 0.012920 0.000122 -0.010141 0.000000 -0.004092 0.000000
# 2 0.000122 0.033079 -0.005420 0.000000 -0.002488 0.000000
# 3 -0.010141 -0.005420 0.019057 0.000000 0.005999 0.000000
# 4 0.000000 0.000000 0.000000 0.149361 0.000000 0.009719
# 5 -0.004092 -0.002488 0.005999 0.000000 0.025188 0.000000
# 6 0.000000 0.000000 0.000000 0.009719 0.000000 0.075807
#
#
# Mechanical properties :
#
#
# Convention : Reuss Voigt Hill
#
# Bulk Modulus (GPa) = 29.25953 52.93824 41.09888
# Shear Modulus (GPa) = 13.97885 23.86147 18.92016
#
# Velocity S-wave (km/s) = 2.56608 3.35261 2.98536
# Velocity P-wave (km/s) = 4.75000 6.31850 5.58954
#
# Compressibility (1/GPa) = 0.03417690
#
# Stress axis : x y z
#
# Youngs Moduli (GPa) = 77.39800 30.23103 52.47332
#
# Poissons Ratio (x) = -0.00369 0.53216
# Poissons Ratio (y) = -0.00945 0.28442
# Poissons Ratio (z) = 0.78493 0.16386
#
# Static dielectric constant tensor:
#      x y z
#    x 4.135530 0.000000 0.009280 
#    y 0.000000 3.259890 0.000000 
#    z 0.009280 0.000000 3.944050 
# 
# 
# High freq. dielectric constant tensor:
#      x y z
#    x 1.846110 0.000000 0.003680 
#    y 0.000000 1.775860 0.000000 
#    z 0.003680 0.000000 1.826380 
# 
# From -- ./inp_files/131735.got.cif
#   From: 2010.06.25/outbox.cif.g09.slc.cpg/sg12_66_cif.got.tgz:131735.got - 2010.06.28 00:19:55.
