data_PCOD8098382
_publ_section_title
;
Structure prediction by ZEFSAII (Michael W. Deem and Ramdas Pophale) SiO2 
 PCOD8098382
Probable space group: C 2/M
;
_chemical_formula_sum "Si O2"
_cell_formula_units_Z 64
_cell_length_a 32.367101
_cell_length_b 9.123189
_cell_length_c 18.411809
_cell_angle_alpha 90.000000
_cell_angle_beta 34.689893
_cell_angle_gamma 90.000000
_cell_volume 3094.295883
_symmetry_space_group_name_H-M "C 2/M"
_symmetry_group_IT_number 12
_symmetry_cell_setting 'monoclinic'
loop_
_space_group_symop_operation_xyz
x,y,z
-x,y,-z
-x,-y,-z
x,-y,z
1/2+x,1/2+y,z
1/2-x,1/2+y,-z
1/2-x,1/2-y,-z
1/2+x,1/2-y,z
loop_
_atom_site_type_symbol
_atom_site_label
_atom_site_fract_x
_atom_site_fract_y
_atom_site_fract_z
Si Si1 0.551450 0.327337 0.857334
Si Si2 0.797076 0.829174 0.791576
Si Si3 0.544182 0.160852 0.600545
Si Si4 0.793780 0.673570 0.371690
Si Si5 0.573598 0.664984 0.299144
Si Si6 0.340504 0.667186 0.973961
Si Si7 0.461051 0.836084 0.869724
Si Si8 0.813066 0.168202 0.603207
O O1 0.566286 0.500000 0.826877
O O2 0.627506 0.243612 0.753983
O O3 0.511592 0.266894 0.844473
O O4 0.500000 0.293500 0.000000
O O5 0.877509 0.784798 0.703067
O O6 0.788735 0.789834 0.719230
O O7 0.782669 0.000000 0.828771
O O8 0.739458 0.733435 0.918969
O O9 0.499599 0.239894 0.600508
O O10 0.494345 0.151603 0.742525
O O11 0.616385 0.242261 0.520970
O O12 0.564905 0.000000 0.542152
O O13 0.801078 0.500000 0.377229
O O14 0.750000 0.750000 0.500000
O O15 0.751654 0.705235 0.357995
O O16 0.546189 0.500000 0.349705
O O17 0.622329 0.679367 0.157392
O O18 0.336662 0.500000 0.006216
O O19 0.382721 0.759792 0.974833
O O20 0.452248 0.000000 0.916203
O O21 0.835899 0.000000 0.565140
#
# Coordination Sequence:
#
# PCOD8098382 Si02
#       8
#     8   8   8   8   8   8   8   8
#     4  11  25  42  62  93 129 162 199 253 315 374
#     4  10  21  37  56  82 115 155 197 238 288 351
#     4  10  21  37  59  86 114 148 195 244 292 344
#     4  11  24  43  67  93 122 164 211 258 310 373
#     4   9  19  36  58  82 114 154 195 238 289 349
#     4  10  20  34  56  86 117 153 193 240 294 346
#     4  10  21  38  61  86 114 153 196 241 291 354
#     4  10  23  40  59  84 115 152 194 239 293 352
#
# _framework density 20.683218
#
# number of rings (size 3 to 8) (size 9 to 14) (size 15 to 20)
#    0.000    1.875    0.000    3.000    1.750    7.500 
#    0.000    2.500    0.000    0.000    0.000    0.000 
#    0.000    0.000    0.000    0.000    0.000    0.000 
#
# Total GULP energy -396855.009710 kJ/mol
# GULP energy per Si atom -12401.719053 kJ/mol
# Density = 2.063614 g / cm^3
# Si number density = 20.683218 Si / 1000 Ang^3
#
#
#
# Elastic Constant Matrix: (Units=GPa)
#
#
# Indices 1 2 3 4 5 6 
#
# 1 138.9835 59.9090 33.1992 -0.0072 -14.8368 -0.0011
# 2 59.9090 116.9291 47.9149 -0.0106 -11.3800 0.0026
# 3 33.1992 47.9149 69.5308 -0.0195 -18.4208 0.0050
# 4 -0.0072 -0.0106 -0.0195 31.1497 0.0162 -9.8894
# 5 -14.8368 -11.3800 -18.4208 0.0162 16.6857 -0.0044
# 6 -0.0011 0.0026 0.0050 -9.8894 -0.0044 20.7238
#
#
#
# Elastic Compliance Matrix: (Units=1/GPa)
#
#
# Indices 1 2 3 4 5 6 
#
# 1 0.009702 -0.004367 -0.000179 -0.000002 0.005451 0.000001
# 2 -0.004367 0.013904 -0.008498 0.000000 -0.003783 -0.000001
# 3 -0.000179 -0.008498 0.026496 0.000002 0.023296 0.000000
# 4 -0.000002 0.000000 0.000002 0.037835 -0.000031 0.018055
# 5 0.005451 -0.003783 0.023296 -0.000031 0.087917 -0.000001
# 6 0.000001 -0.000001 0.000000 0.018055 -0.000001 0.056869
#
#
# Mechanical properties :
#
#
# Convention : Reuss Voigt Hill
#
# Bulk Modulus (GPa) = 41.64411 67.49885 54.57148
# Shear Modulus (GPa) = 18.73943 26.00653 22.37298
#
# Velocity S-wave (km/s) = 3.01328 3.54979 3.29248
# Velocity P-wave (km/s) = 5.68194 7.03611 6.39497
#
# Compressibility (1/GPa) = 0.02401300
#
# Stress axis : x y z
#
# Youngs Moduli (GPa) = 103.06934 71.92154 37.74189
#
# Poissons Ratio (x) = 0.31409 0.00675
# Poissons Ratio (y) = 0.45012 0.32075
# Poissons Ratio (z) = 0.01844 0.61122
#
# Static dielectric constant tensor:
#      x y z
#    x 3.908190 -0.000020 -0.073800 
#    y -0.000020 4.018180 0.000020 
#    z -0.073800 0.000020 3.582110 
# 
# 
# High freq. dielectric constant tensor:
#      x y z
#    x 1.820280 0.000000 -0.009590 
#    y 0.000000 1.816370 0.000000 
#    z -0.009590 0.000000 1.802450 
# 
# From -- ./inp_files/295625.got.cif
#   From: 2010.06.25/outbox.cif.g09.slc.cpg/sg12_148_cif.got.tgz:295625.got - 2010.06.28 00:19:55.
