data_PCOD8099938
_publ_section_title
;
Structure prediction by ZEFSAII (Michael W. Deem and Ramdas Pophale) SiO2 
 PCOD8099938
Probable space group: C 2/M
;
_chemical_formula_sum "Si O2"
_cell_formula_units_Z 56
_cell_length_a 18.054209
_cell_length_b 8.972665
_cell_length_c 26.348481
_cell_angle_alpha 90.000000
_cell_angle_beta 137.863760
_cell_angle_gamma 90.000000
_cell_volume 2863.588230
_symmetry_space_group_name_H-M "C 2/M"
_symmetry_group_IT_number 12
_symmetry_cell_setting 'monoclinic'
loop_
_space_group_symop_operation_xyz
x,y,z
-x,y,-z
-x,-y,-z
x,-y,z
1/2+x,1/2+y,z
1/2-x,1/2+y,-z
1/2-x,1/2-y,-z
1/2+x,1/2-y,z
loop_
_atom_site_type_symbol
_atom_site_label
_atom_site_fract_x
_atom_site_fract_y
_atom_site_fract_z
Si Si1 0.777511 0.326971 0.439829
Si Si2 0.726708 0.174096 0.868281
Si Si3 0.166269 0.823578 0.734838
Si Si4 0.837237 0.328123 0.008784
Si Si5 0.012221 0.669507 0.826186
Si Si6 0.211742 0.826630 0.294258
Si Si7 0.580084 0.324513 0.410092
O O1 0.793795 0.500000 0.459150
O O2 0.773280 0.292514 0.378239
O O3 0.664041 0.271612 0.408707
O O4 0.882318 0.242765 0.516854
O O5 0.722705 0.246027 0.811175
O O6 0.614451 0.209326 0.841630
O O7 0.748778 0.000000 0.874319
O O8 0.831527 0.246751 0.951254
O O9 0.233517 0.777882 0.719470
O O10 0.040923 0.764836 0.665773
O O11 0.171670 0.000000 0.744614
O O12 0.804775 0.500000 0.985258
O O13 0.954762 0.313128 0.097339
O O14 0.750000 0.250000 0.000000
O O15 0.973088 0.500000 0.796141
O O16 0.916441 0.785354 0.764689
O O17 0.221635 0.000000 0.284573
O O18 0.577262 0.500000 0.414873
#
# Coordination Sequence:
#
# PCOD8099938 Si02
#       7
#     8   8   8   8   8   8   8
#     4   9  19  36  57  81 107 136 174 221 270 318
#     4  10  20  35  57  84 111 141 181 225 272 325
#     4  11  23  38  55  77 110 147 183 224 270 322
#     4   9  17  31  53  82 112 141 178 224 272 320
#     4   9  19  35  56  82 110 141 178 221 269 320
#     4  11  23  37  54  78 110 146 184 224 268 321
#     4   9  19  36  58  82 105 136 178 220 267 322
#
# _framework density 19.555885
#
# number of rings (size 3 to 8) (size 9 to 14) (size 15 to 20)
#    0.000    2.286    0.000    3.429    0.000    7.429 
#    0.000    6.429    0.000    4.286    0.000    0.000 
#    0.000    0.000    0.000    0.000    0.000    0.000 
#
# Total GULP energy -347206.158591 kJ/mol
# GULP energy per Si atom -12400.219950 kJ/mol
# Density = 1.951138 g / cm^3
# Si number density = 19.555885 Si / 1000 Ang^3
#
#
#
# Elastic Constant Matrix: (Units=GPa)
#
#
# Indices 1 2 3 4 5 6 
#
# 1 52.5416 18.9676 13.9809 0.0000 -21.0536 0.0000
# 2 18.9676 75.2421 31.7145 0.0000 -13.2506 0.0000
# 3 13.9809 31.7145 69.5973 0.0000 -29.1504 0.0000
# 4 0.0000 0.0000 0.0000 36.8451 0.0000 -4.1567
# 5 -21.0536 -13.2506 -29.1504 0.0000 26.9482 0.0000
# 6 0.0000 0.0000 0.0000 -4.1567 0.0000 28.7390
#
#
#
# Elastic Compliance Matrix: (Units=1/GPa)
#
#
# Indices 1 2 3 4 5 6 
#
# 1 0.031809 -0.006609 0.010366 0.000000 0.032814 0.000000
# 2 -0.006609 0.017823 -0.009665 0.000000 -0.006855 0.000000
# 3 0.010366 -0.009665 0.033079 0.000000 0.039128 0.000000
# 4 0.000000 0.000000 0.000000 0.027591 0.000000 0.003991
# 5 0.032814 -0.006855 0.039128 0.000000 0.101700 0.000000
# 6 0.000000 0.000000 0.000000 0.003991 0.000000 0.035373
#
#
# Mechanical properties :
#
#
# Convention : Reuss Voigt Hill
#
# Bulk Modulus (GPa) = 14.10549 36.30078 25.20313
# Shear Modulus (GPa) = 17.67889 27.35432 22.51661
#
# Velocity S-wave (km/s) = 3.00995 3.74408 3.39691
# Velocity P-wave (km/s) = 4.39412 6.10686 5.31987
#
# Compressibility (1/GPa) = 0.07089438
#
# Stress axis : x y z
#
# Youngs Moduli (GPa) = 31.43769 56.10663 30.23080
#
# Poissons Ratio (x) = 0.37081 -0.31337
# Poissons Ratio (y) = 0.20777 0.29218
# Poissons Ratio (z) = -0.32588 0.54228
#
# Static dielectric constant tensor:
#      x y z
#    x 3.323470 0.000000 -0.135650 
#    y 0.000000 3.575880 0.000000 
#    z -0.135650 0.000000 3.877020 
# 
# 
# High freq. dielectric constant tensor:
#      x y z
#    x 1.736120 0.000000 -0.014830 
#    y 0.000000 1.766370 0.000000 
#    z -0.014830 0.000000 1.773590 
# 
# From -- ./inp_files/363216.got.cif
#   From: 2010.06.25/outbox.cif.g09.slc.cpg/sg12_182_cif.got.tgz:363216.got - 2010.06.28 00:19:55.
