data_PCOD8099092
_publ_section_title
;
Structure prediction by ZEFSAII (Michael W. Deem and Ramdas Pophale) SiO2 
 PCOD8099092
Probable space group: C 2/M
;
_chemical_formula_sum "Si O2"
_cell_formula_units_Z 48
_cell_length_a 31.165751
_cell_length_b 8.965674
_cell_length_c 15.718952
_cell_angle_alpha 90.000000
_cell_angle_beta 37.253607
_cell_angle_gamma 90.000000
_cell_volume 2658.804717
_symmetry_space_group_name_H-M "C 2/M"
_symmetry_group_IT_number 12
_symmetry_cell_setting 'monoclinic'
loop_
_space_group_symop_operation_xyz
x,y,z
-x,y,-z
-x,-y,-z
x,-y,z
1/2+x,1/2+y,z
1/2-x,1/2+y,-z
1/2-x,1/2-y,-z
1/2+x,1/2-y,z
loop_
_atom_site_type_symbol
_atom_site_label
_atom_site_fract_x
_atom_site_fract_y
_atom_site_fract_z
Si Si1 0.485199 0.823472 0.764562
Si Si2 0.529388 0.323668 0.862817
Si Si3 0.317352 0.328492 0.431901
Si Si4 0.151775 0.827871 0.089762
Si Si5 0.789055 0.828050 0.819091
Si Si6 0.123415 0.173532 0.482480
O O1 0.484300 0.756843 0.860995
O O2 0.415192 0.771575 0.827050
O O3 0.552175 0.767991 0.604601
O O4 0.486806 0.000000 0.767736
O O5 0.521961 0.500000 0.859976
O O6 0.611190 0.272716 0.727577
O O7 0.500000 0.272351 0.000000
O O8 0.306026 0.500000 0.430788
O O9 0.250000 0.250000 0.500000
O O10 0.323718 0.295644 0.522301
O O11 0.165652 0.804037 0.167517
O O12 0.137258 0.000000 0.090463
O O13 0.219147 0.772996 0.929338
O O14 0.837459 0.774899 0.664557
O O15 0.765941 0.000000 0.845181
O O16 0.101606 0.000000 0.514083
#
# Coordination Sequence:
#
# PCOD8099092 Si02
#       6
#     8   8   8   8   8   8
#     4  11  22  35  53  78 108 140 177 218 258 309
#     4   9  19  37  57  76 101 135 175 217 262 309
#     4   9  18  32  51  74 101 131 163 205 253 304
#     4  10  20  35  55  78 107 140 173 215 267 318
#     4   9  19  36  57  79 103 135 177 222 265 313
#     4   9  19  37  56  75 103 138 176 218 265 311
#
# _framework density 18.053225000000001
#
# number of rings (size 3 to 8) (size 9 to 14) (size 15 to 20)
#    0.000    2.500    0.000    3.000    0.000    6.333 
#    0.000    6.667    0.000    0.000    0.000    0.000 
#    0.000    0.000    0.000    0.000    0.000    0.000 
#
# Total GULP energy -297653.269443 kJ/mol
# GULP energy per Si atom -12402.219560 kJ/mol
# Density = 1.801214 g / cm^3
# Si number density = 18.053225 Si / 1000 Ang^3
#
#
#
# Elastic Constant Matrix: (Units=GPa)
#
#
# Indices 1 2 3 4 5 6 
#
# 1 89.3460 39.7448 57.8944 -0.0002 -7.0767 0.0000
# 2 39.7448 70.0787 40.0907 -0.0007 -0.4118 0.0000
# 3 57.8944 40.0907 123.1322 -0.0005 22.0039 0.0000
# 4 -0.0002 -0.0007 -0.0005 28.5382 0.0002 -7.5774
# 5 -7.0767 -0.4118 22.0039 0.0002 29.1424 0.0000
# 6 0.0000 0.0000 0.0000 -7.5774 0.0000 33.4738
#
#
#
# Elastic Compliance Matrix: (Units=1/GPa)
#
#
# Indices 1 2 3 4 5 6 
#
# 1 0.021927 -0.006272 -0.010639 0.000000 0.013269 0.000000
# 2 -0.006272 0.020059 -0.003885 0.000000 0.001694 0.000000
# 3 -0.010639 -0.003885 0.017178 0.000000 -0.015608 0.000000
# 4 0.000000 0.000000 0.000000 0.037282 0.000000 0.008439
# 5 0.013269 0.001694 -0.015608 0.000000 0.049345 0.000000
# 6 0.000000 0.000000 0.000000 0.008439 0.000000 0.031785
#
#
# Mechanical properties :
#
#
# Convention : Reuss Voigt Hill
#
# Bulk Modulus (GPa) = 56.90554 62.00184 59.45369
# Shear Modulus (GPa) = 22.21990 27.88601 25.05296
#
# Velocity S-wave (km/s) = 3.51208 3.93447 3.72926
# Velocity P-wave (km/s) = 6.93078 7.42015 7.17963
#
# Compressibility (1/GPa) = 0.01757298
#
# Stress axis : x y z
#
# Youngs Moduli (GPa) = 45.60585 49.85296 58.21505
#
# Poissons Ratio (x) = 0.31265 0.61934
# Poissons Ratio (y) = 0.28602 0.22616
# Poissons Ratio (z) = 0.48519 0.19368
#
# Static dielectric constant tensor:
#      x y z
#    x 3.329480 0.000000 0.099210 
#    y 0.000000 3.295670 0.000000 
#    z 0.099210 0.000000 3.513700 
# 
# 
# High freq. dielectric constant tensor:
#      x y z
#    x 1.700190 0.000000 0.001270 
#    y 0.000000 1.696340 0.000000 
#    z 0.001270 0.000000 1.703310 
# 
# From -- ./inp_files/229876.got.cif
#   From: 2010.06.25/outbox.cif.g09.slc.cpg/sg12_115_cif.got.tgz:229876.got - 2010.06.28 00:19:55.
