data_PCOD8099115
_publ_section_title
;
Structure prediction by ZEFSAII (Michael W. Deem and Ramdas Pophale) SiO2 
 PCOD8099115
Probable space group: C 2/M
;
_chemical_formula_sum "Si O2"
_cell_formula_units_Z 56
_cell_length_a 18.702548
_cell_length_b 9.415306
_cell_length_c 26.283116
_cell_angle_alpha 90.000000
_cell_angle_beta 138.293076
_cell_angle_gamma 90.000000
_cell_volume 3079.236355
_symmetry_space_group_name_H-M "C 2/M"
_symmetry_group_IT_number 12
_symmetry_cell_setting 'monoclinic'
loop_
_space_group_symop_operation_xyz
x,y,z
-x,y,-z
-x,-y,-z
x,-y,z
1/2+x,1/2+y,z
1/2-x,1/2+y,-z
1/2-x,1/2-y,-z
1/2+x,1/2-y,z
loop_
_atom_site_type_symbol
_atom_site_label
_atom_site_fract_x
_atom_site_fract_y
_atom_site_fract_z
Si Si1 0.178372 0.161257 0.924284
Si Si2 0.479140 0.335594 0.429343
Si Si3 0.749322 0.838832 0.259200
Si Si4 0.929897 0.832783 0.784050
Si Si5 0.465832 0.155257 0.710146
Si Si6 0.336056 0.340724 0.196622
Si Si7 0.146715 0.342926 0.453589
O O1 0.218817 0.187445 0.887601
O O2 0.053099 0.203828 0.863835
O O3 0.194686 0.000000 0.949247
O O4 0.250000 0.250000 0.000000
O O5 0.500000 0.308586 0.500000
O O6 0.500751 0.500000 0.426754
O O7 0.358179 0.294519 0.347155
O O8 0.561445 0.237272 0.443250
O O9 0.652653 0.731921 0.219532
O O10 0.756416 0.827575 0.201746
O O11 0.719395 0.000000 0.259041
O O12 0.904855 0.757584 0.717202
O O13 0.910644 0.000000 0.769177
O O14 0.573376 0.225552 0.746199
O O15 0.391724 0.132181 0.623328
O O16 0.490389 0.000000 0.747856
O O17 0.387009 0.500000 0.222106
O O18 0.170772 0.500000 0.490047
O O19 0.250000 0.250000 0.500000
#
# Coordination Sequence:
#
# PCOD8099115 Si02
#       7
#     8   8   8   8   8   8   8
#     4   9  19  36  58  84 112 144 182 223 272 328
#     4  10  22  39  58  81 112 149 188 234 285 331
#     4  10  20  36  58  82 113 150 187 230 278 328
#     4  10  22  37  56  83 115 147 183 226 275 330
#     4  10  20  35  55  79 105 139 187 233 273 326
#     4   9  18  35  58  82 109 144 182 221 272 330
#     4  11  24  38  55  79 108 143 188 235 282 334
#
# _framework density 18.186326000000001
#
# number of rings (size 3 to 8) (size 9 to 14) (size 15 to 20)
#    0.000    2.143    1.429    2.143    2.000    6.000 
#    0.000    0.714    0.000    4.286    0.000    0.000 
#    0.000    0.000    0.000    0.000    0.000    0.000 
#
# Total GULP energy -347040.557982 kJ/mol
# GULP energy per Si atom -12394.305642 kJ/mol
# Density = 1.814493 g / cm^3
# Si number density = 18.186326 Si / 1000 Ang^3
#
#
#
# Elastic Constant Matrix: (Units=GPa)
#
#
# Indices 1 2 3 4 5 6 
#
# 1 120.0219 73.3831 55.5925 0.0000 -0.0881 0.0000
# 2 73.3831 134.4360 54.8086 0.0000 6.0396 0.0000
# 3 55.5925 54.8086 93.2519 0.0000 -10.7466 0.0000
# 4 0.0000 0.0000 0.0000 28.8725 0.0000 2.6999
# 5 -0.0881 6.0396 -10.7466 0.0000 22.6406 0.0000
# 6 0.0000 0.0000 0.0000 2.6999 0.0000 35.4359
#
#
#
# Elastic Compliance Matrix: (Units=1/GPa)
#
#
# Indices 1 2 3 4 5 6 
#
# 1 0.014170 -0.005523 -0.005316 0.000000 -0.000995 0.000000
# 2 -0.005523 0.012669 -0.004809 0.000000 -0.005684 0.000000
# 3 -0.005316 -0.004809 0.017841 0.000000 0.009730 0.000000
# 4 0.000000 0.000000 0.000000 0.034884 0.000000 -0.002658
# 5 -0.000995 -0.005684 0.009730 0.000000 0.050299 0.000000
# 6 0.000000 0.000000 0.000000 -0.002658 0.000000 0.028422
#
#
# Mechanical properties :
#
#
# Convention : Reuss Voigt Hill
#
# Bulk Modulus (GPa) = 74.71487 79.47535 77.09511
# Shear Modulus (GPa) = 25.76759 28.31818 27.04288
#
# Velocity S-wave (km/s) = 3.76821 3.95031 3.86033
# Velocity P-wave (km/s) = 7.75272 8.03754 7.89642
#
# Compressibility (1/GPa) = 0.01338422
#
# Stress axis : x y z
#
# Youngs Moduli (GPa) = 70.57040 78.93296 56.05192
#
# Poissons Ratio (x) = 0.43593 0.29799
# Poissons Ratio (y) = 0.38975 0.26954
# Poissons Ratio (z) = 0.37517 0.37956
#
# Static dielectric constant tensor:
#      x y z
#    x 3.416160 0.000000 -0.103710 
#    y 0.000000 3.728750 0.000000 
#    z -0.103710 0.000000 3.211540 
# 
# 
# High freq. dielectric constant tensor:
#      x y z
#    x 1.705360 0.000000 -0.010770 
#    y 0.000000 1.719680 0.000000 
#    z -0.010770 0.000000 1.686220 
# 
# From -- ./inp_files/362982.got.cif
#   From: 2010.06.25/outbox.cif.g09.slc.cpg/sg12_182_cif.got.tgz:362982.got - 2010.06.28 00:19:55.
