data_PCOD8099922
_publ_section_title
;
Structure prediction by ZEFSAII (Michael W. Deem and Ramdas Pophale) SiO2 
 PCOD8099922
Probable space group: C 2/M
;
_chemical_formula_sum "Si O2"
_cell_formula_units_Z 64
_cell_length_a 19.262896
_cell_length_b 9.222797
_cell_length_c 29.948337
_cell_angle_alpha 90.000000
_cell_angle_beta 141.640706
_cell_angle_gamma 90.000000
_cell_volume 3301.887757
_symmetry_space_group_name_H-M "C 2/M"
_symmetry_group_IT_number 12
_symmetry_cell_setting 'monoclinic'
loop_
_space_group_symop_operation_xyz
x,y,z
-x,y,-z
-x,-y,-z
x,-y,z
1/2+x,1/2+y,z
1/2-x,1/2+y,-z
1/2-x,1/2-y,-z
1/2+x,1/2-y,z
loop_
_atom_site_type_symbol
_atom_site_label
_atom_site_fract_x
_atom_site_fract_y
_atom_site_fract_z
Si Si1 0.902220 0.334235 0.828938
Si Si2 0.009741 0.830029 0.371230
Si Si3 0.324488 0.332230 0.622181
Si Si4 0.796025 0.333663 0.234651
Si Si5 0.225969 0.334472 0.877771
Si Si6 0.934266 0.329913 0.010674
Si Si7 0.432140 0.830004 0.510526
Si Si8 0.478973 0.166202 0.767571
O O1 0.868081 0.500000 0.822441
O O2 0.792596 0.234927 0.776055
O O3 0.950954 0.316450 0.804834
O O4 0.996478 0.281182 0.911070
O O5 0.910722 0.755250 0.293746
O O6 0.123359 0.801514 0.400496
O O7 0.014594 0.759535 0.422338
O O8 0.985168 0.000000 0.364084
O O9 0.333655 0.500000 0.638963
O O10 0.196295 0.280477 0.558765
O O11 0.388496 0.248421 0.692876
O O12 0.819340 0.500000 0.259898
O O13 0.743641 0.321434 0.159019
O O14 0.229304 0.500000 0.896013
O O15 0.313966 0.246372 0.951719
O O16 0.102492 0.268248 0.822852
O O17 0.912279 0.500000 0.998665
O O18 0.000000 0.277669 0.000000
O O19 0.500000 0.790683 0.500000
O O20 0.441355 0.000000 0.526214
O O21 0.477647 0.000000 0.750914
#
# Coordination Sequence:
#
# PCOD8099922 Si02
#       8
#     8   8   8   8   8   8   8   8
#     4  10  22  39  58  85 119 155 197 244 298 355
#     4  11  23  39  62  90 119 155 201 245 285 345
#     4  10  22  40  62  88 119 157 198 240 288 347
#     4  11  22  37  60  87 116 153 197 245 296 349
#     4  10  21  37  58  85 115 151 197 243 292 349
#     4  10  20  35  57  83 115 155 195 242 299 352
#     4  10  23  42  62  89 125 158 192 241 294 345
#     4  10  22  40  60  85 119 156 193 243 297 348
#
# _framework density 19.382852
#
# number of rings (size 3 to 8) (size 9 to 14) (size 15 to 20)
#    0.000    1.750    2.500    1.125    1.750    4.000 
#    0.000    0.000    0.000    0.000    0.000    0.000 
#    0.000    0.000    0.000    0.000    0.000    0.000 
#
# Total GULP energy -396941.546967 kJ/mol
# GULP energy per Si atom -12404.423343 kJ/mol
# Density = 1.933874 g / cm^3
# Si number density = 19.382852 Si / 1000 Ang^3
#
#
#
# Elastic Constant Matrix: (Units=GPa)
#
#
# Indices 1 2 3 4 5 6 
#
# 1 83.9885 36.1603 39.8070 0.0000 4.1460 0.0000
# 2 36.1603 70.5896 46.3385 0.0001 2.1631 -0.0002
# 3 39.8070 46.3385 97.7863 0.0000 7.9125 -0.0001
# 4 0.0000 0.0001 0.0000 39.1956 0.0000 1.0977
# 5 4.1460 2.1631 7.9125 0.0000 34.3227 0.0000
# 6 0.0000 -0.0002 -0.0001 1.0977 0.0000 24.7065
#
#
#
# Elastic Compliance Matrix: (Units=1/GPa)
#
#
# Indices 1 2 3 4 5 6 
#
# 1 0.016243 -0.005801 -0.003805 0.000000 -0.000719 0.000000
# 2 -0.005801 0.022666 -0.008479 0.000000 0.001227 0.000000
# 3 -0.003805 -0.008479 0.016012 0.000000 -0.002697 0.000000
# 4 0.000000 0.000000 0.000000 0.025545 0.000000 -0.001135
# 5 -0.000719 0.001227 -0.002697 0.000000 0.029767 0.000000
# 6 0.000000 0.000000 0.000000 -0.001135 0.000000 0.040526
#
#
# Mechanical properties :
#
#
# Convention : Reuss Voigt Hill
#
# Bulk Modulus (GPa) = 53.32990 55.21954 54.27472
# Shear Modulus (GPa) = 25.88296 28.31554 27.09925
#
# Velocity S-wave (km/s) = 3.65821 3.82626 3.74318
# Velocity P-wave (km/s) = 6.73922 6.93333 6.83696
#
# Compressibility (1/GPa) = 0.01875121
#
# Stress axis : x y z
#
# Youngs Moduli (GPa) = 61.56585 44.11861 62.45476
#
# Poissons Ratio (x) = 0.25591 0.23765
# Poissons Ratio (y) = 0.35712 0.52955
# Poissons Ratio (z) = 0.23427 0.37408
#
# Static dielectric constant tensor:
#      x y z
#    x 3.564910 0.000000 0.101280 
#    y 0.000000 3.501340 0.000000 
#    z 0.101280 0.000000 3.523070 
# 
# 
# High freq. dielectric constant tensor:
#      x y z
#    x 1.759210 0.000000 0.005080 
#    y 0.000000 1.749170 0.000000 
#    z 0.005080 0.000000 1.760210 
# 
# From -- ./inp_files/378408.got.cif
#   From: 2010.06.25/outbox.cif.g09.slc.cpg/sg12_190_cif.got.tgz:378408.got - 2010.06.28 00:19:55.
