data_PCOD8099457
_publ_section_title
;
Structure prediction by ZEFSAII (Michael W. Deem and Ramdas Pophale) SiO2 
 PCOD8099457
Probable space group: C 2/M
;
_chemical_formula_sum "Si O2"
_cell_formula_units_Z 56
_cell_length_a 28.478462
_cell_length_b 8.517043
_cell_length_c 19.076329
_cell_angle_alpha 90.000000
_cell_angle_beta 138.757077
_cell_angle_gamma 90.000000
_cell_volume 3050.368121
_symmetry_space_group_name_H-M "C 2/M"
_symmetry_group_IT_number 12
_symmetry_cell_setting 'monoclinic'
loop_
_space_group_symop_operation_xyz
x,y,z
-x,y,-z
-x,-y,-z
x,-y,z
1/2+x,1/2+y,z
1/2-x,1/2+y,-z
1/2-x,1/2-y,-z
1/2+x,1/2-y,z
loop_
_atom_site_type_symbol
_atom_site_label
_atom_site_fract_x
_atom_site_fract_y
_atom_site_fract_z
Si Si1 0.247799 0.818368 0.109975
Si Si2 0.762889 0.183281 0.624158
Si Si3 0.944819 0.318016 0.498392
Si Si4 0.855745 0.681704 0.111113
Si Si5 0.992460 0.818785 0.695495
Si Si6 0.794675 0.181552 0.302921
Si Si7 0.862452 0.683053 0.624064
O O1 0.314166 0.770809 0.135166
O O2 0.251413 0.714050 0.183554
O O3 0.250105 0.000000 0.133736
O O4 0.174029 0.781723 0.987421
O O5 0.756225 0.271732 0.690101
O O6 0.831581 0.252257 0.662111
O O7 0.692164 0.217653 0.500095
O O8 0.773997 0.000000 0.649539
O O9 0.951736 0.500000 0.527350
O O10 0.960108 0.213204 0.582957
O O11 0.865800 0.285880 0.382032
O O12 0.000000 0.271803 0.500000
O O13 0.843173 0.500000 0.080087
O O14 0.938339 0.714297 0.214756
O O15 0.935076 0.774577 0.690097
O O16 0.013046 0.000000 0.725312
O O17 0.815569 0.000000 0.331749
O O18 0.878623 0.500000 0.649359
#
# Coordination Sequence:
#
# PCOD8099457 Si02
#       7
#     8   8   8   8   8   8   8
#     4  10  21  38  59  82 110 146 189 234 278 326
#     4  10  20  35  56  80 111 146 184 228 276 329
#     4  11  23  37  52  75 110 149 185 225 277 331
#     4  10  21  38  59  82 110 146 189 234 278 326
#     4  12  23  35  55  82 113 147 185 227 276 332
#     4  12  23  35  55  82 113 147 185 227 276 332
#     4  10  20  35  56  80 111 146 184 228 276 329
#
# _framework density 18.358440000000002
#
# number of rings (size 3 to 8) (size 9 to 14) (size 15 to 20)
#    0.000    1.286    1.429    5.571    0.000    7.429 
#    0.000    0.000    0.000    0.857    0.000    6.000 
#    0.000    0.000    0.000    0.000    0.000    0.000 
#
# Total GULP energy -347417.034322 kJ/mol
# GULP energy per Si atom -12407.751226 kJ/mol
# Density = 1.831666 g / cm^3
# Si number density = 18.358440 Si / 1000 Ang^3
#
#
#
# Elastic Constant Matrix: (Units=GPa)
#
#
# Indices 1 2 3 4 5 6 
#
# 1 108.7061 40.8836 34.7253 0.0000 -15.2009 0.0000
# 2 40.8836 67.2974 16.7918 0.0000 -4.2922 0.0000
# 3 34.7253 16.7918 68.2540 0.0000 -10.7504 0.0000
# 4 0.0000 0.0000 0.0000 30.4211 0.0000 0.0985
# 5 -15.2009 -4.2922 -10.7504 0.0000 19.0505 0.0000
# 6 0.0000 0.0000 0.0000 0.0985 0.0000 30.6717
#
#
#
# Elastic Compliance Matrix: (Units=1/GPa)
#
#
# Indices 1 2 3 4 5 6 
#
# 1 0.014302 -0.007131 -0.004366 0.000000 0.007342 0.000000
# 2 -0.007131 0.019426 -0.001490 0.000000 -0.002154 0.000000
# 3 -0.004366 -0.001490 0.018260 0.000000 0.006485 0.000000
# 4 0.000000 0.000000 0.000000 0.032872 0.000000 -0.000106
# 5 0.007342 -0.002154 0.006485 0.000000 0.061524 0.000000
# 6 0.000000 0.000000 0.000000 -0.000106 0.000000 0.032604
#
#
# Mechanical properties :
#
#
# Convention : Reuss Voigt Hill
#
# Bulk Modulus (GPa) = 38.44055 47.67320 43.05688
# Shear Modulus (GPa) = 23.40437 26.15247 24.77842
#
# Velocity S-wave (km/s) = 3.57439 3.77841 3.67781
# Velocity P-wave (km/s) = 6.16598 6.71264 6.44511
#
# Compressibility (1/GPa) = 0.02601419
#
# Stress axis : x y z
#
# Youngs Moduli (GPa) = 69.91853 51.47699 54.76326
#
# Poissons Ratio (x) = 0.36709 0.23908
# Poissons Ratio (y) = 0.49860 0.08162
# Poissons Ratio (z) = 0.30525 0.07672
#
# Static dielectric constant tensor:
#      x y z
#    x 3.455470 0.000000 -0.013120 
#    y 0.000000 3.407780 0.000000 
#    z -0.013120 0.000000 3.131550 
# 
# 
# High freq. dielectric constant tensor:
#      x y z
#    x 1.714490 0.000000 -0.001520 
#    y 0.000000 1.727700 0.000000 
#    z -0.001520 0.000000 1.689700 
# 
# From -- ./inp_files/288383.got.cif
#   From: 2010.06.25/outbox.cif.g09.slc.cpg/sg12_145_cif.got.tgz:288383.got - 2010.06.28 00:19:55.
