data_PCOD8099571
_publ_section_title
;
Structure prediction by ZEFSAII (Michael W. Deem and Ramdas Pophale) SiO2 
 PCOD8099571
Probable space group: C 2/M
;
_chemical_formula_sum "Si O2"
_cell_formula_units_Z 48
_cell_length_a 23.159814
_cell_length_b 9.342631
_cell_length_c 11.740709
_cell_angle_alpha 90.000000
_cell_angle_beta 77.764973
_cell_angle_gamma 90.000000
_cell_volume 2482.678574
_symmetry_space_group_name_H-M "C 2/M"
_symmetry_group_IT_number 12
_symmetry_cell_setting 'monoclinic'
loop_
_space_group_symop_operation_xyz
x,y,z
-x,y,-z
-x,-y,-z
x,-y,z
1/2+x,1/2+y,z
1/2-x,1/2+y,-z
1/2-x,1/2-y,-z
1/2+x,1/2-y,z
loop_
_atom_site_type_symbol
_atom_site_label
_atom_site_fract_x
_atom_site_fract_y
_atom_site_fract_z
Si Si1 0.630560 0.832251 0.323489
Si Si2 0.653398 0.664801 0.778382
Si Si3 0.548124 0.161784 0.895973
Si Si4 0.503587 0.838818 0.661476
Si Si5 0.764719 0.334276 0.879351
Si Si6 0.887042 0.830776 0.453619
O O1 0.563969 0.789600 0.319285
O O2 0.671978 0.788904 0.199362
O O3 0.649027 0.741787 0.427775
O O4 0.638405 0.000000 0.347415
O O5 0.636313 0.500000 0.797735
O O6 0.608445 0.750522 0.877438
O O7 0.718367 0.698672 0.797526
O O8 0.647363 0.710594 0.648434
O O9 0.520086 0.169166 0.784815
O O10 0.562795 0.000000 0.927960
O O11 0.500000 0.231209 0.000000
O O12 0.546529 0.734763 0.572485
O O13 0.512243 0.000000 0.610359
O O14 0.763627 0.500000 0.913564
O O15 0.750000 0.250000 0.000000
O O16 0.891130 0.000000 0.469731
#
# Coordination Sequence:
#
# PCOD8099571 Si02
#       6
#     8   8   8   8   8   8
#     4  10  21  36  56  80 110 146 182 223 273 323
#     4   9  20  38  55  77 111 145 177 223 277 324
#     4   9  18  31  53  81 106 139 185 228 265 316
#     4   9  18  33  52  79 112 143 176 222 276 323
#     4  10  23  41  59  80 109 146 186 227 272 324
#     4  10  20  35  56  82 112 142 179 225 272 325
#
# _framework density 19.333957000000002
#
# number of rings (size 3 to 8) (size 9 to 14) (size 15 to 20)
#    0.000    2.500    0.000    1.000    2.333    5.667 
#    0.000    0.000    0.000    0.000    0.000    0.000 
#    0.000    0.000    0.000    0.000    0.000    0.000 
#
# Total GULP energy -297591.651290 kJ/mol
# GULP energy per Si atom -12399.652137 kJ/mol
# Density = 1.928995 g / cm^3
# Si number density = 19.333957 Si / 1000 Ang^3
#
#
#
# Elastic Constant Matrix: (Units=GPa)
#
#
# Indices 1 2 3 4 5 6 
#
# 1 94.0813 39.3596 49.5593 0.0000 -3.5139 0.0000
# 2 39.3596 68.1693 52.8705 0.0000 -7.6175 0.0000
# 3 49.5593 52.8705 121.8776 0.0000 -23.3204 0.0000
# 4 0.0000 0.0000 0.0000 32.3384 0.0000 -3.1696
# 5 -3.5139 -7.6175 -23.3204 0.0000 18.8634 0.0000
# 6 0.0000 0.0000 0.0000 -3.1696 0.0000 23.6851
#
#
#
# Elastic Compliance Matrix: (Units=1/GPa)
#
#
# Indices 1 2 3 4 5 6 
#
# 1 0.015352 -0.005766 -0.004768 0.000000 -0.005363 0.000000
# 2 -0.005766 0.024487 -0.008633 0.000000 -0.001859 0.000000
# 3 -0.004768 -0.008633 0.017096 0.000000 0.016761 0.000000
# 4 0.000000 0.000000 0.000000 0.031334 0.000000 0.004193
# 5 -0.005363 -0.001859 0.016761 0.000000 0.071984 0.000000
# 6 0.000000 0.000000 0.000000 0.004193 0.000000 0.042782
#
#
# Mechanical properties :
#
#
# Convention : Reuss Voigt Hill
#
# Bulk Modulus (GPa) = 53.76040 63.07855 58.41948
# Shear Modulus (GPa) = 20.19640 24.46662 22.33151
#
# Velocity S-wave (km/s) = 3.23555 3.56121 3.40228
# Velocity P-wave (km/s) = 6.46722 7.04317 6.76133
#
# Compressibility (1/GPa) = 0.01860105
#
# Stress axis : x y z
#
# Youngs Moduli (GPa) = 65.13619 40.83876 58.49348
#
# Poissons Ratio (x) = 0.23546 0.27888
# Poissons Ratio (y) = 0.37556 0.50500
# Poissons Ratio (z) = 0.31055 0.35258
#
# Static dielectric constant tensor:
#      x y z
#    x 3.575550 0.000000 -0.023170 
#    y 0.000000 3.534920 0.000000 
#    z -0.023170 0.000000 3.628160 
# 
# 
# High freq. dielectric constant tensor:
#      x y z
#    x 1.748880 0.000000 0.002720 
#    y 0.000000 1.740880 0.000000 
#    z 0.002720 0.000000 1.761390 
# 
# From -- ./inp_files/172125.got.cif
#   From: 2010.06.25/outbox.cif.g09.slc.cpg/sg12_87_cif.got.tgz:172125.got - 2010.06.28 00:19:55.
