data_PCOD8099519
_publ_section_title
;
Structure prediction by ZEFSAII (Michael W. Deem and Ramdas Pophale) SiO2 
 PCOD8099519
Probable space group: C 2/M
;
_chemical_formula_sum "Si O2"
_cell_formula_units_Z 64
_cell_length_a 18.615749
_cell_length_b 8.838006
_cell_length_c 30.969690
_cell_angle_alpha 90.000000
_cell_angle_beta 41.456120
_cell_angle_gamma 90.000000
_cell_volume 3373.339139
_symmetry_space_group_name_H-M "C 2/M"
_symmetry_group_IT_number 12
_symmetry_cell_setting 'monoclinic'
loop_
_space_group_symop_operation_xyz
x,y,z
-x,y,-z
-x,-y,-z
x,-y,z
1/2+x,1/2+y,z
1/2-x,1/2+y,-z
1/2-x,1/2-y,-z
1/2+x,1/2-y,z
loop_
_atom_site_type_symbol
_atom_site_label
_atom_site_fract_x
_atom_site_fract_y
_atom_site_fract_z
Si Si1 0.047629 0.323080 0.694800
Si Si2 0.715300 0.325887 0.559621
Si Si3 0.085319 0.178297 0.067556
Si Si4 0.121405 0.673696 0.437185
Si Si5 0.750872 0.678547 0.065681
Si Si6 0.787523 0.675872 0.303600
Si Si7 0.660311 0.321316 0.809487
Si Si8 0.314777 0.320610 0.810399
O O1 0.030563 0.500000 0.695652
O O2 0.109664 0.258213 0.625393
O O3 0.114190 0.287006 0.708240
O O4 0.933321 0.242592 0.748958
O O5 0.685166 0.500000 0.565449
O O6 0.750000 0.250000 0.500000
O O7 0.815264 0.307182 0.546842
O O8 0.152134 0.233076 0.079529
O O9 0.962532 0.234628 0.127801
O O10 0.091072 0.000000 0.060055
O O11 0.136319 0.250668 0.001527
O O12 0.122806 0.500000 0.420653
O O13 0.174020 0.777566 0.376544
O O14 0.000000 0.731873 0.500000
O O15 0.763068 0.500000 0.059116
O O16 0.727709 0.737917 0.124164
O O17 0.783664 0.500000 0.292854
O O18 0.803121 0.776944 0.254640
O O19 0.671977 0.500000 0.810021
O O20 0.734229 0.237626 0.810492
O O21 0.320437 0.500000 0.806468
#
# Coordination Sequence:
#
# PCOD8099519 Si02
#       8
#     8   8   8   8   8   8   8   8
#     4  10  21  38  59  82 109 144 187 231 278 332
#     4  10  20  35  56  81 111 146 184 229 278 327
#     4   9  19  36  58  82 107 141 184 225 269 325
#     4   9  19  36  57  80 107 143 184 224 270 323
#     4   9  19  36  58  82 108 141 181 226 274 325
#     4  10  21  37  58  83 110 143 185 230 274 325
#     4  11  23  38  56  80 113 149 185 227 276 329
#     4  11  23  38  56  81 113 146 184 229 279 331
#
# _framework density 18.972299
#
# number of rings (size 3 to 8) (size 9 to 14) (size 15 to 20)
#    0.000    2.125    0.000    2.625    0.000    6.750 
#    0.000    8.750    0.000    0.000    0.000    0.000 
#    0.000    0.000    0.000    0.000    0.000    0.000 
#
# Total GULP energy -396936.724182 kJ/mol
# GULP energy per Si atom -12404.272631 kJ/mol
# Density = 1.892912 g / cm^3
# Si number density = 18.972299 Si / 1000 Ang^3
#
#
#
# Elastic Constant Matrix: (Units=GPa)
#
#
# Indices 1 2 3 4 5 6 
#
# 1 86.3480 42.3063 81.7736 -0.0013 -0.4891 -0.0026
# 2 42.3063 68.8924 51.4051 -0.0031 2.6071 0.0026
# 3 81.7736 51.4051 163.8668 0.0007 0.7033 0.0006
# 4 -0.0013 -0.0031 0.0007 38.9447 -0.0003 1.3926
# 5 -0.4891 2.6071 0.7033 -0.0003 36.5476 -0.0006
# 6 -0.0026 0.0026 0.0006 1.3926 -0.0006 21.4795
#
#
#
# Elastic Compliance Matrix: (Units=1/GPa)
#
#
# Indices 1 2 3 4 5 6 
#
# 1 0.024866 -0.007897 -0.009936 0.000000 0.001087 0.000004
# 2 -0.007897 0.021516 -0.002802 0.000002 -0.001587 -0.000004
# 3 -0.009936 -0.002802 0.011941 -0.000001 -0.000163 -0.000001
# 4 0.000000 0.000002 -0.000001 0.025737 0.000000 -0.001669
# 5 0.001087 -0.001587 -0.000163 0.000000 0.027492 0.000001
# 6 0.000004 -0.000004 -0.000001 -0.001669 0.000001 0.046664
#
#
# Mechanical properties :
#
#
# Convention : Reuss Voigt Hill
#
# Bulk Modulus (GPa) = 58.64394 74.45300 66.54847
# Shear Modulus (GPa) = 24.36996 28.96917 26.66956
#
# Velocity S-wave (km/s) = 3.58788 3.91182 3.75335
# Velocity P-wave (km/s) = 6.93839 7.72860 7.34413
#
# Compressibility (1/GPa) = 0.01705206
#
# Stress axis : x y z
#
# Youngs Moduli (GPa) = 40.21506 46.47774 83.74857
#
# Poissons Ratio (x) = 0.36705 0.83214
# Poissons Ratio (y) = 0.31759 0.23464
# Poissons Ratio (z) = 0.39958 0.13022
#
# Static dielectric constant tensor:
#      x y z
#    x 3.499870 -0.000010 -0.025800 
#    y -0.000010 3.497950 0.000000 
#    z -0.025800 0.000000 3.635980 
# 
# 
# High freq. dielectric constant tensor:
#      x y z
#    x 1.732800 0.000000 -0.000200 
#    y 0.000000 1.742480 0.000000 
#    z -0.000200 0.000000 1.751610 
# 
# From -- ./inp_files/377999.got.cif
#   From: 2010.06.25/outbox.cif.g09.slc.cpg/sg12_189_cif.got.tgz:377999.got - 2010.06.28 00:19:55.
