data_PCOD8099909
_publ_section_title
;
Structure prediction by ZEFSAII (Michael W. Deem and Ramdas Pophale) SiO2 
 PCOD8099909
Probable space group: C 2/M
;
_chemical_formula_sum "Si O2"
_cell_formula_units_Z 48
_cell_length_a 27.138856
_cell_length_b 8.758111
_cell_length_c 15.454137
_cell_angle_alpha 90.000000
_cell_angle_beta 40.856926
_cell_angle_gamma 90.000000
_cell_volume 2402.918000
_symmetry_space_group_name_H-M "C 2/M"
_symmetry_group_IT_number 12
_symmetry_cell_setting 'monoclinic'
loop_
_space_group_symop_operation_xyz
x,y,z
-x,y,-z
-x,-y,-z
x,-y,z
1/2+x,1/2+y,z
1/2-x,1/2+y,-z
1/2-x,1/2-y,-z
1/2+x,1/2-y,z
loop_
_atom_site_type_symbol
_atom_site_label
_atom_site_fract_x
_atom_site_fract_y
_atom_site_fract_z
Si Si1 0.966639 0.818941 0.792150
Si Si2 0.712443 0.821468 0.300349
Si Si3 0.055313 0.824020 0.506137
Si Si4 0.786593 0.679485 0.366812
Si Si5 0.051293 0.821406 0.849731
Si Si6 0.202736 0.180417 0.985405
O O1 0.013693 0.763318 0.647118
O O2 0.008014 0.758215 0.823002
O O3 0.961327 0.000000 0.802432
O O4 0.882055 0.752881 0.899123
O O5 0.626440 0.782102 0.393574
O O6 0.737704 0.727117 0.349662
O O7 0.762191 0.770620 0.152633
O O8 0.721796 0.000000 0.307224
O O9 0.000000 0.804127 0.500000
O O10 0.080595 0.000000 0.483197
O O11 0.783945 0.500000 0.380470
O O12 0.750000 0.750000 0.500000
O O13 0.871603 0.732517 0.241083
O O14 0.069798 0.000000 0.816650
O O15 0.000000 0.786587 0.000000
O O16 0.203605 0.000000 0.995787
O O17 0.250000 0.250000 0.000000
#
# Coordination Sequence:
#
# PCOD8099909 Si02
#       6
#     8   8   8   8   8   8
#     4   9  18  34  56  80 108 146 190 231 276 336
#     4  11  23  39  60  87 119 155 196 244 299 356
#     4  10  20  35  57  83 113 152 195 238 286 345
#     4  12  25  41  62  88 120 157 200 250 303 361
#     4  10  20  37  61  86 116 155 196 239 291 353
#     4  10  21  38  60  86 116 152 194 238 286 341
#
# _framework density 19.975714
#
# number of rings (size 3 to 8) (size 9 to 14) (size 15 to 20)
#    0.000    1.667    0.000    5.000    0.000    7.333 
#    0.000    1.667    0.000    0.000    0.000    0.000 
#    0.000    0.000    0.000    0.000    0.000    0.000 
#
# Total GULP energy -297722.219281 kJ/mol
# GULP energy per Si atom -12405.092470 kJ/mol
# Density = 1.993025 g / cm^3
# Si number density = 19.975714 Si / 1000 Ang^3
#
#
#
# Elastic Constant Matrix: (Units=GPa)
#
#
# Indices 1 2 3 4 5 6 
#
# 1 103.6350 31.2488 33.1549 0.0033 4.3017 -0.0039
# 2 31.2488 70.7768 46.5124 0.0084 1.7673 -0.0082
# 3 33.1549 46.5124 115.3979 0.0032 1.4613 -0.0011
# 4 0.0033 0.0084 0.0032 25.2074 -0.0038 -7.2769
# 5 4.3017 1.7673 1.4613 -0.0038 45.5033 0.0040
# 6 -0.0039 -0.0082 -0.0011 -7.2769 0.0040 29.4474
#
#
#
# Elastic Compliance Matrix: (Units=1/GPa)
#
#
# Indices 1 2 3 4 5 6 
#
# 1 0.011403 -0.003900 -0.001693 0.000000 -0.000872 0.000001
# 2 -0.003900 0.020565 -0.007166 -0.000004 -0.000200 0.000004
# 3 -0.001693 -0.007166 0.012040 0.000001 0.000052 -0.000002
# 4 0.000000 -0.000004 0.000001 0.042718 0.000003 0.010556
# 5 -0.000872 -0.000200 0.000052 0.000003 0.022065 -0.000002
# 6 0.000001 0.000004 -0.000002 0.010556 -0.000002 0.036568
#
#
# Mechanical properties :
#
#
# Convention : Reuss Voigt Hill
#
# Bulk Modulus (GPa) = 54.08462 56.84910 55.46686
# Shear Modulus (GPa) = 28.24211 31.95783 30.09997
#
# Velocity S-wave (km/s) = 3.76416 4.00413 3.88600
# Velocity P-wave (km/s) = 6.78424 7.06387 6.92547
#
# Compressibility (1/GPa) = 0.01848954
#
# Stress axis : x y z
#
# Youngs Moduli (GPa) = 87.69517 48.62603 83.05791
#
# Poissons Ratio (x) = 0.18965 0.14063
# Poissons Ratio (y) = 0.34202 0.59519
# Poissons Ratio (z) = 0.14848 0.34845
#
# Static dielectric constant tensor:
#      x y z
#    x 3.786210 -0.000010 0.004360 
#    y -0.000010 3.415700 -0.000010 
#    z 0.004360 -0.000010 3.897770 
# 
# 
# High freq. dielectric constant tensor:
#      x y z
#    x 1.799030 0.000000 0.001070 
#    y 0.000000 1.754820 0.000000 
#    z 0.001070 0.000000 1.800010 
# 
# From -- ./inp_files/244596.got.cif
#   From: 2010.06.25/outbox.cif.g09.slc.cpg/sg12_123_cif.got.tgz:244596.got - 2010.06.28 00:19:55.
