data_PCOD8099165
_publ_section_title
;
Structure prediction by ZEFSAII (Michael W. Deem and Ramdas Pophale) SiO2 
 PCOD8099165
Probable space group: C 2/M
;
_chemical_formula_sum "Si O2"
_cell_formula_units_Z 64
_cell_length_a 15.753063
_cell_length_b 17.075075
_cell_length_c 22.737236
_cell_angle_alpha 90.000000
_cell_angle_beta 147.264888
_cell_angle_gamma 90.000000
_cell_volume 3307.246586
_symmetry_space_group_name_H-M "C 2/M"
_symmetry_group_IT_number 12
_symmetry_cell_setting 'monoclinic'
loop_
_space_group_symop_operation_xyz
x,y,z
-x,y,-z
-x,-y,-z
x,-y,z
1/2+x,1/2+y,z
1/2-x,1/2+y,-z
1/2-x,1/2-y,-z
1/2+x,1/2-y,z
loop_
_atom_site_type_symbol
_atom_site_label
_atom_site_fract_x
_atom_site_fract_y
_atom_site_fract_z
Si Si1 0.529830 0.590235 0.086149
Si Si2 0.922474 0.798277 0.216134
Si Si3 0.174507 0.301533 0.734529
Si Si4 0.428462 0.410500 0.608410
Si Si5 0.237597 0.157820 0.986838
Si Si6 0.040400 0.353915 0.227197
Si Si7 0.579206 0.912464 0.373778
Si Si8 0.124927 0.161474 0.624282
O O1 0.564750 0.500000 0.123012
O O2 0.676768 0.643577 0.188215
O O3 0.381612 0.620436 0.036216
O O4 0.500000 0.598995 0.000000
O O5 0.812955 0.750225 0.198236
O O6 0.815823 0.854790 0.112087
O O7 0.044437 0.854300 0.320355
O O8 0.023317 0.737542 0.235686
O O9 0.159534 0.247169 0.669371
O O10 0.017708 0.353454 0.642379
O O11 0.434704 0.500000 0.633305
O O12 0.261113 0.388323 0.482926
O O13 0.560681 0.396967 0.636451
O O14 0.250000 0.250000 0.000000
O O15 0.409467 0.122393 0.102048
O O16 0.016283 0.407467 0.270464
O O17 0.211026 0.373843 0.301687
O O18 0.551906 0.000000 0.381324
O O19 0.000000 0.168434 0.500000
#
# Coordination Sequence:
#
# PCOD8099165 Si02
#       8
#     8   8   8   8   8   8   8   8
#     4  11  22  37  59  88 120 151 189 235 287 337
#     4   9  20  36  59  82 110 152 189 230 279 345
#     4  10  21  35  57  83 113 149 187 235 283 342
#     4  10  22  38  56  80 113 153 190 233 289 340
#     4  10  20  37  58  84 115 150 192 232 279 337
#     4  10  20  35  58  84 110 143 188 238 282 329
#     4  10  20  35  55  79 110 148 188 232 284 338
#     4  11  22  36  58  86 113 146 192 243 286 333
#
# _framework density 19.351444999999998
#
# number of rings (size 3 to 8) (size 9 to 14) (size 15 to 20)
#    0.000    1.875    1.250    4.125    1.750    4.250 
#    0.000    1.875    0.000    1.500    0.000    0.000 
#    0.000    0.000    0.000    0.000    0.000    0.000 
#
# Total GULP energy -396756.999189 kJ/mol
# GULP energy per Si atom -12398.656225 kJ/mol
# Density = 1.930740 g / cm^3
# Si number density = 19.351445 Si / 1000 Ang^3
#
#
#
# Elastic Constant Matrix: (Units=GPa)
#
#
# Indices 1 2 3 4 5 6 
#
# 1 62.5301 17.3136 32.9490 -0.0004 4.2546 0.0000
# 2 17.3136 78.5551 32.1521 0.0006 1.2393 0.0003
# 3 32.9490 32.1521 124.8111 0.0004 0.8980 0.0009
# 4 -0.0004 0.0006 0.0004 18.0660 0.0004 5.9998
# 5 4.2546 1.2393 0.8980 0.0004 39.2061 0.0001
# 6 0.0000 0.0003 0.0009 5.9998 0.0001 17.7092
#
#
#
# Elastic Compliance Matrix: (Units=1/GPa)
#
#
# Indices 1 2 3 4 5 6 
#
# 1 0.019107 -0.002372 -0.004419 0.000001 -0.001897 0.000000
# 2 -0.002372 0.014530 -0.003116 -0.000001 -0.000130 0.000000
# 3 -0.004419 -0.003116 0.009979 0.000000 0.000350 0.000000
# 4 0.000001 -0.000001 0.000000 0.062370 -0.000001 -0.021131
# 5 -0.001897 -0.000130 0.000350 -0.000001 0.025708 0.000000
# 6 0.000000 0.000000 0.000000 -0.021131 0.000000 0.063627
#
#
# Mechanical properties :
#
#
# Convention : Reuss Voigt Hill
#
# Bulk Modulus (GPa) = 42.01521 47.85842 44.93681
# Shear Modulus (GPa) = 22.41452 27.22836 24.82144
#
# Velocity S-wave (km/s) = 3.40705 3.75513 3.58532
# Velocity P-wave (km/s) = 6.10214 6.60199 6.35698
#
# Compressibility (1/GPa) = 0.02380091
#
# Stress axis : x y z
#
# Youngs Moduli (GPa) = 52.33703 68.82234 100.21155
#
# Poissons Ratio (x) = 0.16328 0.44286
# Poissons Ratio (y) = 0.12417 0.31224
# Poissons Ratio (z) = 0.23129 0.21444
#
# Static dielectric constant tensor:
#      x y z
#    x 3.536770 0.000000 -0.177690 
#    y 0.000000 3.001680 -0.000010 
#    z -0.177690 -0.000010 4.058830 
# 
# 
# High freq. dielectric constant tensor:
#      x y z
#    x 1.743710 0.000000 0.000330 
#    y 0.000000 1.746710 0.000000 
#    z 0.000330 0.000000 1.761930 
# 
# From -- ./inp_files/340876.got.cif
#   From: 2010.06.25/outbox.cif.g09.slc.cpg/sg12_171_cif.got.tgz:340876.got - 2010.06.28 00:19:55.
