data_PCOD8099191
_publ_section_title
;
Structure prediction by ZEFSAII (Michael W. Deem and Ramdas Pophale) SiO2 
 PCOD8099191
Probable space group: C 2/M
;
_chemical_formula_sum "Si O2"
_cell_formula_units_Z 64
_cell_length_a 5.206035
_cell_length_b 29.783060
_cell_length_c 25.326541
_cell_angle_alpha 90.000000
_cell_angle_beta 49.828297
_cell_angle_gamma 90.000000
_cell_volume 3000.618902
_symmetry_space_group_name_H-M "C 2/M"
_symmetry_group_IT_number 12
_symmetry_cell_setting 'monoclinic'
loop_
_space_group_symop_operation_xyz
x,y,z
-x,y,-z
-x,-y,-z
x,-y,z
1/2+x,1/2+y,z
1/2-x,1/2+y,-z
1/2-x,1/2-y,-z
1/2+x,1/2-y,z
loop_
_atom_site_type_symbol
_atom_site_label
_atom_site_fract_x
_atom_site_fract_y
_atom_site_fract_z
Si Si1 0.694204 0.776818 0.811362
Si Si2 0.761945 0.850651 0.076833
Si Si3 0.266255 0.089949 0.076085
Si Si4 0.373700 0.854527 0.456867
Si Si5 0.183548 0.051459 0.283338
Si Si6 0.036540 0.451108 0.433113
Si Si7 0.386502 0.551118 0.217367
Si Si8 0.810574 0.778861 0.347462
O O1 0.446279 0.737077 0.824882
O O2 0.440650 0.814443 0.863736
O O3 0.927167 0.793644 0.732447
O O4 0.495257 0.881450 0.083850
O O5 0.982005 0.879174 0.088271
O O6 0.000000 0.828368 0.000000
O O7 0.101590 0.052388 0.135018
O O8 0.500000 0.067047 0.000000
O O9 0.500000 0.855472 0.500000
O O10 0.352163 0.906015 0.436669
O O11 0.636309 0.824470 0.389916
O O12 0.000000 0.833929 0.500000
O O13 0.527979 0.075668 0.255628
O O14 0.924109 0.055310 0.365786
O O15 0.056609 0.074922 0.245711
O O16 0.271790 0.000000 0.258211
O O17 0.905650 0.500000 0.426958
O O18 0.000000 0.453943 0.500000
O O19 0.322839 0.500000 0.242183
O O20 0.522270 0.744603 0.366067
#
# Coordination Sequence:
#
# PCOD8099191 Si02
#       8
#     8   8   8   8   8   8   8   8
#     4  10  21  38  60  86 113 143 183 226 277 338
#     4  10  21  37  56  82 115 147 183 227 277 339
#     4  10  21  36  54  79 113 152 190 230 283 339
#     4  11  24  39  59  88 114 148 198 235 280 349
#     4   9  19  35  55  80 109 144 187 235 290 344
#     4   9  20  40  62  86 121 157 191 240 293 343
#     4  10  20  35  55  80 109 144 193 243 280 328
#     4  10  22  40  60  84 117 151 187 239 290 337
#
# _framework density 21.328932999999999
#
# number of rings (size 3 to 8) (size 9 to 14) (size 15 to 20)
#    0.000    2.125    0.000    2.250    0.000    6.500 
#    0.000    3.750    0.000    4.500    0.000    0.000 
#    0.000    0.000    0.000    0.000    0.000    0.000 
#
# Total GULP energy -396530.536254 kJ/mol
# GULP energy per Si atom -12391.579258 kJ/mol
# Density = 2.128039 g / cm^3
# Si number density = 21.328933 Si / 1000 Ang^3
#
#
#
# Elastic Constant Matrix: (Units=GPa)
#
#
# Indices 1 2 3 4 5 6 
#
# 1 146.6612 20.4782 40.6710 0.0000 -13.1378 0.0000
# 2 20.4782 68.8401 37.2182 0.0000 -2.2084 0.0000
# 3 40.6710 37.2182 132.4492 0.0000 -8.5559 0.0000
# 4 0.0000 0.0000 0.0000 46.6881 0.0000 -0.2658
# 5 -13.1378 -2.2084 -8.5559 0.0000 31.9471 0.0000
# 6 0.0000 0.0000 0.0000 -0.2658 0.0000 8.0670
#
#
#
# Elastic Compliance Matrix: (Units=1/GPa)
#
#
# Indices 1 2 3 4 5 6 
#
# 1 0.007738 -0.001208 -0.001869 0.000000 0.002598 0.000000
# 2 -0.001208 0.017318 -0.004528 0.000000 -0.000513 0.000000
# 3 -0.001869 -0.004528 0.009491 0.000000 0.001460 0.000000
# 4 0.000000 0.000000 0.000000 0.021423 0.000000 0.000706
# 5 0.002598 -0.000513 0.001460 0.000000 0.032726 0.000000
# 6 0.000000 0.000000 0.000000 0.000706 0.000000 0.123986
#
#
# Mechanical properties :
#
#
# Convention : Reuss Voigt Hill
#
# Bulk Modulus (GPa) = 51.71764 60.52058 56.11911
# Shear Modulus (GPa) = 21.33683 33.97930 27.65807
#
# Velocity S-wave (km/s) = 3.16629 3.99571 3.60493
# Velocity P-wave (km/s) = 6.13739 7.05153 6.61028
#
# Compressibility (1/GPa) = 0.01933576
#
# Stress axis : x y z
#
# Youngs Moduli (GPa) = 129.23036 57.74463 105.36626
#
# Poissons Ratio (x) = 0.06977 0.19691
# Poissons Ratio (y) = 0.15614 0.47714
# Poissons Ratio (z) = 0.24151 0.26149
#
# Static dielectric constant tensor:
#      x y z
#    x 4.210070 0.000000 -0.010050 
#    y 0.000000 3.655700 0.000000 
#    z -0.010050 0.000000 4.258210 
# 
# 
# High freq. dielectric constant tensor:
#      x y z
#    x 1.847980 0.000000 -0.007320 
#    y 0.000000 1.802100 0.000000 
#    z -0.007320 0.000000 1.854230 
# 
# From -- ./inp_files/355267.got.cif
#   From: 2010.06.25/outbox.cif.g09.slc.cpg/sg12_178_cif.got.tgz:355267.got - 2010.06.28 00:19:55.
