data_PCOD8099330
_publ_section_title
;
Structure prediction by ZEFSAII (Michael W. Deem and Ramdas Pophale) SiO2 
 PCOD8099330
Probable space group: C 2/M
;
_chemical_formula_sum "Si O2"
_cell_formula_units_Z 48
_cell_length_a 8.981252
_cell_length_b 15.973260
_cell_length_c 16.865726
_cell_angle_alpha 90.000000
_cell_angle_beta 88.233423
_cell_angle_gamma 90.000000
_cell_volume 2418.404934
_symmetry_space_group_name_H-M "C 2/M"
_symmetry_group_IT_number 12
_symmetry_cell_setting 'monoclinic'
loop_
_space_group_symop_operation_xyz
x,y,z
-x,y,-z
-x,-y,-z
x,-y,z
1/2+x,1/2+y,z
1/2-x,1/2+y,-z
1/2-x,1/2-y,-z
1/2+x,1/2-y,z
loop_
_atom_site_type_symbol
_atom_site_label
_atom_site_fract_x
_atom_site_fract_y
_atom_site_fract_z
Si Si1 0.812335 0.000000 0.419311
Si Si2 0.864747 0.817245 0.866162
Si Si3 0.834003 0.000000 0.599340
Si Si4 0.663425 0.908223 0.995322
Si Si5 0.794486 0.148487 0.143488
Si Si6 0.153612 0.834760 0.312239
Si Si7 0.808411 0.842163 0.322268
O O1 0.746227 0.085441 0.381804
O O2 0.768628 0.000000 0.511983
O O3 0.988263 0.000000 0.402323
O O4 0.774138 0.859717 0.937049
O O5 0.824703 0.720954 0.867741
O O6 0.821602 0.854930 0.780992
O O7 0.038945 0.824289 0.880681
O O8 0.776729 0.914847 0.642948
O O9 0.642837 0.000000 0.958810
O O10 0.500000 0.864521 0.000000
O O11 0.738403 0.919520 0.081187
O O12 0.784888 0.119240 0.234688
O O13 0.228311 0.746976 0.336864
O O14 0.980894 0.824156 0.335890
#
# Coordination Sequence:
#
# PCOD8099330 Si02
#       7
#     4   8   4   8   8   8   8
#     4   9  18  34  57  84 113 146 182 223 273 329
#     4  10  20  35  56  77 104 140 182 225 268 320
#     4   9  18  34  57  84 113 146 182 223 273 329
#     4  11  24  37  50  75 109 141 178 223 272 319
#     4  10  20  35  56  77 104 140 182 225 268 320
#     4   9  19  35  57  83 111 145 185 227 272 326
#     4   9  19  35  57  83 111 145 185 227 272 326
#
# _framework density 19.847792999999999
#
# number of rings (size 3 to 8) (size 9 to 14) (size 15 to 20)
#    0.000    2.333    0.000    2.000    2.333    3.333 
#    0.000    0.833    0.000    1.000    0.000    0.000 
#    0.000    0.000    0.000    0.000    0.000    0.000 
#
# Total GULP energy -297461.289521 kJ/mol
# GULP energy per Si atom -12394.220397 kJ/mol
# Density = 1.980262 g / cm^3
# Si number density = 19.847793 Si / 1000 Ang^3
#
#
#
# Elastic Constant Matrix: (Units=GPa)
#
#
# Indices 1 2 3 4 5 6 
#
# 1 76.2612 24.3744 34.1462 0.0000 11.8348 0.0000
# 2 24.3744 100.2748 55.6862 0.0000 8.9270 0.0000
# 3 34.1462 55.6862 116.2625 0.0000 10.7172 0.0000
# 4 0.0000 0.0000 0.0000 34.5721 0.0000 1.2040
# 5 11.8348 8.9270 10.7172 0.0000 19.4687 0.0000
# 6 0.0000 0.0000 0.0000 1.2040 0.0000 23.8622
#
#
#
# Elastic Compliance Matrix: (Units=1/GPa)
#
#
# Indices 1 2 3 4 5 6 
#
# 1 0.016230 -0.001390 -0.003424 0.000000 -0.007344 0.000000
# 2 -0.001390 0.013851 -0.006024 0.000000 -0.002190 0.000000
# 3 -0.003424 -0.006024 0.012690 0.000000 -0.002142 0.000000
# 4 0.000000 0.000000 0.000000 0.028976 0.000000 -0.001462
# 5 -0.007344 -0.002190 -0.002142 0.000000 0.058012 0.000000
# 6 0.000000 0.000000 0.000000 -0.001462 0.000000 0.041981
#
#
# Mechanical properties :
#
#
# Convention : Reuss Voigt Hill
#
# Bulk Modulus (GPa) = 47.40589 57.91248 52.65918
# Shear Modulus (GPa) = 24.94432 27.48671 26.21552
#
# Velocity S-wave (km/s) = 3.54896 3.72543 3.63826
# Velocity P-wave (km/s) = 6.38201 6.90990 6.65119
#
# Compressibility (1/GPa) = 0.02109443
#
# Stress axis : x y z
#
# Youngs Moduli (GPa) = 61.61495 72.19821 78.80454
#
# Poissons Ratio (x) = 0.10034 0.26983
# Poissons Ratio (y) = 0.08563 0.47472
# Poissons Ratio (z) = 0.21097 0.43492
#
# Static dielectric constant tensor:
#      x y z
#    x 3.499860 0.000000 0.089710 
#    y 0.000000 3.580910 0.000000 
#    z 0.089710 0.000000 3.787560 
# 
# 
# High freq. dielectric constant tensor:
#      x y z
#    x 1.758540 0.000000 0.006660 
#    y 0.000000 1.773340 0.000000 
#    z 0.006660 0.000000 1.775270 
# 
# From -- ./inp_files/255832.got.cif
#   From: 2010.06.25/outbox.cif.g09.slc.cpg/sg12_128_cif.got.tgz:255832.got - 2010.06.28 00:19:55.
