data_PCOD8099786
_publ_section_title
;
Structure prediction by ZEFSAII (Michael W. Deem and Ramdas Pophale) SiO2 
 PCOD8099786
Probable space group: C 2/M
;
_chemical_formula_sum "Si O2"
_cell_formula_units_Z 40
_cell_length_a 22.170472
_cell_length_b 14.055705
_cell_length_c 8.475000
_cell_angle_alpha 90.000000
_cell_angle_beta 131.411840
_cell_angle_gamma 90.000000
_cell_volume 1980.677264
_symmetry_space_group_name_H-M "C 2/M"
_symmetry_group_IT_number 12
_symmetry_cell_setting 'monoclinic'
loop_
_space_group_symop_operation_xyz
x,y,z
-x,y,-z
-x,-y,-z
x,-y,z
1/2+x,1/2+y,z
1/2-x,1/2+y,-z
1/2-x,1/2-y,-z
1/2+x,1/2-y,z
loop_
_atom_site_type_symbol
_atom_site_label
_atom_site_fract_x
_atom_site_fract_y
_atom_site_fract_z
Si Si1 0.487637 0.500000 0.723854
Si Si2 0.040392 0.793426 0.366558
Si Si3 0.313057 0.327845 0.556976
Si Si4 0.628949 0.500000 0.182022
Si Si5 0.877333 0.745668 0.182347
Si Si6 0.260326 0.610465 0.120342
O O1 0.464578 0.405210 0.586722
O O2 0.436019 0.500000 0.792490
O O3 0.582639 0.500000 0.935027
O O4 0.097198 0.782048 0.310538
O O5 0.079039 0.732000 0.573828
O O6 0.948041 0.761227 0.173680
O O7 0.250000 0.250000 0.500000
O O8 0.315464 0.406147 0.700406
O O9 0.289614 0.374597 0.349640
O O10 0.816516 0.835223 0.090433
O O11 0.830064 0.650730 0.052655
O O12 0.260062 0.500000 0.076015
#
# Coordination Sequence:
#
# PCOD8099786 Si02
#       6
#     4   8   8   4   8   8
#     4   9  18  29  54  80 112 136 175 235 287 324
#     4   9  19  35  53  81 110 143 183 228 281 327
#     4  10  20  35  57  76 113 148 182 230 276 326
#     4   9  18  34  48  84 105 143 183 224 282 326
#     4   9  20  34  57  82 109 142 184 224 276 337
#     4  10  20  37  57  82 113 148 182 226 279 329
#
# _framework density 20.195112999999999
#
# number of rings (size 3 to 8) (size 9 to 14) (size 15 to 20)
#    0.000    2.600    1.000    0.000    8.400    0.800 
#    0.000    2.000    2.200    1.200    0.000    0.000 
#    0.000    0.000    0.000    0.000    0.000    0.000 
#
# Total GULP energy -247820.273932 kJ/mol
# GULP energy per Si atom -12391.013697 kJ/mol
# Density = 2.014915 g / cm^3
# Si number density = 20.195113 Si / 1000 Ang^3
#
#
#
# Elastic Constant Matrix: (Units=GPa)
#
#
# Indices 1 2 3 4 5 6 
#
# 1 110.0426 44.1482 17.6664 0.0000 39.0602 0.0000
# 2 44.1482 100.9886 31.4634 0.0000 23.4930 0.0000
# 3 17.6664 31.4634 73.9426 0.0000 17.5202 0.0000
# 4 0.0000 0.0000 0.0000 36.7828 0.0000 7.8844
# 5 39.0602 23.4930 17.5202 0.0000 36.4152 0.0000
# 6 0.0000 0.0000 0.0000 7.8844 0.0000 22.3934
#
#
#
# Elastic Compliance Matrix: (Units=1/GPa)
#
#
# Indices 1 2 3 4 5 6 
#
# 1 0.015760 -0.003819 0.001446 0.000000 -0.015137 0.000000
# 2 -0.003819 0.013484 -0.004215 0.000000 -0.002575 0.000000
# 3 0.001446 -0.004215 0.016586 0.000000 -0.006812 0.000000
# 4 0.000000 0.000000 0.000000 0.029406 0.000000 -0.010353
# 5 -0.015137 -0.002575 -0.006812 0.000000 0.048636 0.000000
# 6 0.000000 0.000000 0.000000 -0.010353 0.000000 0.048301
#
#
# Mechanical properties :
#
#
# Convention : Reuss Voigt Hill
#
# Bulk Modulus (GPa) = 30.62367 52.39221 41.50794
# Shear Modulus (GPa) = 25.47979 31.89798 28.68888
#
# Velocity S-wave (km/s) = 3.55587 3.97859 3.77315
# Velocity P-wave (km/s) = 5.66178 6.86330 6.29129
#
# Compressibility (1/GPa) = 0.03265448
#
# Stress axis : x y z
#
# Youngs Moduli (GPa) = 63.45032 74.16319 60.29160
#
# Poissons Ratio (x) = 0.28323 -0.08719
# Poissons Ratio (y) = 0.24232 0.25413
# Poissons Ratio (z) = -0.09176 0.31260
#
# Static dielectric constant tensor:
#      x y z
#    x 3.782740 0.000000 0.352670 
#    y 0.000000 3.464650 0.000000 
#    z 0.352670 0.000000 3.785850 
# 
# 
# High freq. dielectric constant tensor:
#      x y z
#    x 1.780960 0.000000 0.020100 
#    y 0.000000 1.754530 0.000000 
#    z 0.020100 0.000000 1.785150 
# 
# From -- ./inp_files/72483.got.cif
#   From: 2010.06.25/outbox.cif.g09.slc.cpg/sg12_37_cif.got.tgz:72483.got - 2010.06.28 00:19:55.
