data_PCOD8099323
_publ_section_title
;
Structure prediction by ZEFSAII (Michael W. Deem and Ramdas Pophale) SiO2 
 PCOD8099323
Probable space group: C 2/M
;
_chemical_formula_sum "Si O2"
_cell_formula_units_Z 56
_cell_length_a 9.091966
_cell_length_b 18.023156
_cell_length_c 17.237540
_cell_angle_alpha 90.000000
_cell_angle_beta 108.444979
_cell_angle_gamma 90.000000
_cell_volume 2679.537483
_symmetry_space_group_name_H-M "C 2/M"
_symmetry_group_IT_number 12
_symmetry_cell_setting 'monoclinic'
loop_
_space_group_symop_operation_xyz
x,y,z
-x,y,-z
-x,-y,-z
x,-y,z
1/2+x,1/2+y,z
1/2-x,1/2+y,-z
1/2-x,1/2-y,-z
1/2+x,1/2-y,z
loop_
_atom_site_type_symbol
_atom_site_label
_atom_site_fract_x
_atom_site_fract_y
_atom_site_fract_z
Si Si1 0.512193 0.696993 0.413381
Si Si2 0.117637 0.083749 0.948682
Si Si3 0.025891 0.584893 0.375419
Si Si4 0.427485 0.288069 0.848425
Si Si5 0.762397 0.584047 0.442555
Si Si6 0.317410 0.188005 0.064816
Si Si7 0.667073 0.209906 0.319322
O O1 0.500000 0.720382 0.500000
O O2 0.591195 0.617308 0.415457
O O3 0.629548 0.756642 0.397179
O O4 0.349073 0.694635 0.341298
O O5 0.050063 0.142549 0.873728
O O6 0.135248 0.000000 0.917119
O O7 0.283588 0.110721 0.013126
O O8 0.000000 0.084193 0.000000
O O9 0.999992 0.500000 0.344704
O O10 0.166039 0.590501 0.459994
O O11 0.070461 0.631928 0.305296
O O12 0.873261 0.618643 0.393353
O O13 0.502469 0.210492 0.893864
O O14 0.270979 0.309077 0.867237
O O15 0.387120 0.269643 0.753262
O O16 0.743050 0.500000 0.414658
O O17 0.250000 0.250000 0.000000
#
# Coordination Sequence:
#
# PCOD8099323 Si02
#       7
#     8   8   8   8   8   8   8
#     4  12  24  37  55  81 111 156 209 259 293 354
#     4   8  15  31  59  89 113 144 188 231 269 328
#     4   9  19  37  60  82 108 144 191 248 309 366
#     4  10  20  35  55  86 120 152 187 237 292 351
#     4   9  19  37  60  83 105 138 195 260 307 352
#     4   9  17  33  59  85 113 149 190 229 278 342
#     4  12  24  36  55  81 120 157 198 248 313 355
#
# _framework density 20.89913
#
# number of rings (size 3 to 8) (size 9 to 14) (size 15 to 20)
#    0.000    2.143    1.429    4.286    2.000    0.857 
#    0.000    1.429    0.000   19.714    0.000    0.000 
#    0.000    0.000    0.000    0.000    0.000    0.000 
#
# Total GULP energy -346916.580848 kJ/mol
# GULP energy per Si atom -12389.877887 kJ/mol
# Density = 2.085156 g / cm^3
# Si number density = 20.899130 Si / 1000 Ang^3
#
#
#
# Elastic Constant Matrix: (Units=GPa)
#
#
# Indices 1 2 3 4 5 6 
#
# 1 79.6781 29.6736 29.0472 0.0000 8.3405 0.0000
# 2 29.6736 102.0898 42.6222 0.0000 0.8874 0.0000
# 3 29.0472 42.6222 77.3591 0.0000 2.3832 0.0000
# 4 0.0000 0.0000 0.0000 32.9347 0.0000 1.1211
# 5 8.3405 0.8874 2.3832 0.0000 26.0847 0.0000
# 6 0.0000 0.0000 0.0000 1.1211 0.0000 28.8422
#
#
#
# Elastic Compliance Matrix: (Units=1/GPa)
#
#
# Indices 1 2 3 4 5 6 
#
# 1 0.015571 -0.002732 -0.004203 0.000000 -0.004502 0.000000
# 2 -0.002732 0.013202 -0.006279 0.000000 0.000998 0.000000
# 3 -0.004203 -0.006279 0.017967 0.000000 -0.000084 0.000000
# 4 0.000000 0.000000 0.000000 0.030403 0.000000 -0.001182
# 5 -0.004502 0.000998 -0.000084 0.000000 0.039750 0.000000
# 6 0.000000 0.000000 0.000000 -0.001182 0.000000 0.034717
#
#
# Mechanical properties :
#
#
# Convention : Reuss Voigt Hill
#
# Bulk Modulus (GPa) = 49.23005 51.31256 50.27130
# Shear Modulus (GPa) = 27.05489 28.09125 27.57307
#
# Velocity S-wave (km/s) = 3.60188 3.67022 3.63621
# Velocity P-wave (km/s) = 6.39572 6.52430 6.46033
#
# Compressibility (1/GPa) = 0.02031280
#
# Stress axis : x y z
#
# Youngs Moduli (GPa) = 64.22012 75.74527 55.65826
#
# Poissons Ratio (x) = 0.20695 0.23392
# Poissons Ratio (y) = 0.17547 0.34946
# Poissons Ratio (z) = 0.26990 0.47559
#
# Static dielectric constant tensor:
#      x y z
#    x 2.858920 0.000000 -0.489770 
#    y 0.000000 4.142980 0.000000 
#    z -0.489770 0.000000 3.290890 
# 
# 
# High freq. dielectric constant tensor:
#      x y z
#    x 1.813410 0.000000 0.001110 
#    y 0.000000 1.814660 0.000000 
#    z 0.001110 0.000000 1.786260 
# 
# From -- ./inp_files/257165.got.cif
#   From: 2010.06.25/outbox.cif.g09.slc.cpg/sg12_129_cif.got.tgz:257165.got - 2010.06.28 00:19:55.
