data_PCOD8099565
_publ_section_title
;
Structure prediction by ZEFSAII (Michael W. Deem and Ramdas Pophale) SiO2 
 PCOD8099565
Probable space group: C 2/M
;
_chemical_formula_sum "Si O2"
_cell_formula_units_Z 64
_cell_length_a 13.422463
_cell_length_b 13.078361
_cell_length_c 19.210301
_cell_angle_alpha 90.000000
_cell_angle_beta 94.467139
_cell_angle_gamma 90.000000
_cell_volume 3362.005230
_symmetry_space_group_name_H-M "C 2/M"
_symmetry_group_IT_number 12
_symmetry_cell_setting 'monoclinic'
loop_
_space_group_symop_operation_xyz
x,y,z
-x,y,-z
-x,-y,-z
x,-y,z
1/2+x,1/2+y,z
1/2-x,1/2+y,-z
1/2-x,1/2-y,-z
1/2+x,1/2-y,z
loop_
_atom_site_type_symbol
_atom_site_label
_atom_site_fract_x
_atom_site_fract_y
_atom_site_fract_z
Si Si1 0.331155 0.883396 0.825069
Si Si2 0.544648 0.306971 0.163931
Si Si3 0.830918 0.195303 0.086810
Si Si4 0.793013 0.879198 0.312488
Si Si5 0.516571 0.378859 0.313701
Si Si6 0.285222 0.884611 0.543052
Si Si7 0.596985 0.308283 0.460489
Si Si8 0.301189 0.617151 0.936223
O O1 0.427959 0.812900 0.841792
O O2 0.256312 0.875323 0.886110
O O3 0.275287 0.838965 0.753985
O O4 0.367355 0.000000 0.818440
O O5 0.429846 0.320445 0.137133
O O6 0.563271 0.347733 0.242580
O O7 0.615247 0.374261 0.118581
O O8 0.796122 0.313931 0.086235
O O9 0.851666 0.157036 0.010058
O O10 0.745962 0.844538 0.382509
O O11 0.904208 0.834120 0.311814
O O12 0.800185 0.000000 0.307726
O O13 0.519822 0.500000 0.324199
O O14 0.579431 0.325947 0.378090
O O15 0.373412 0.809811 0.522416
O O16 0.188644 0.880425 0.488162
O O17 0.326840 0.000000 0.546315
O O18 0.500000 0.338061 0.500000
O O19 0.265972 0.500000 0.940387
#
# Coordination Sequence:
#
# PCOD8099565 Si02
#       8
#     8   8   8   8   8   8   8   8
#     4  10  20  35  56  82 111 145 185 226 270 324
#     4  11  22  36  57  84 110 144 183 225 272 327
#     4  10  21  37  56  82 112 144 184 224 272 329
#     4   9  17  32  55  78 104 142 183 222 267 316
#     4  11  21  34  57  84 110 142 182 229 274 321
#     4  10  21  37  57  81 112 148 184 226 275 326
#     4  11  22  36  57  85 111 143 185 229 274 325
#     4  10  22  38  57  81 112 145 180 227 276 324
#
# _framework density 19.036258
#
# number of rings (size 3 to 8) (size 9 to 14) (size 15 to 20)
#    0.000    1.750    2.500    2.250    0.000    3.250 
#    0.000    0.000    0.000    4.500    0.000    0.000 
#    0.000    0.000    0.000    0.000    0.000    0.000 
#
# Total GULP energy -396886.707006 kJ/mol
# GULP energy per Si atom -12402.709594 kJ/mol
# Density = 1.899293 g / cm^3
# Si number density = 19.036258 Si / 1000 Ang^3
#
#
#
# Elastic Constant Matrix: (Units=GPa)
#
#
# Indices 1 2 3 4 5 6 
#
# 1 47.6029 15.7864 16.2182 0.0000 1.1307 0.0000
# 2 15.7864 93.8963 8.0861 0.0000 1.3405 0.0000
# 3 16.2182 8.0861 108.3386 0.0000 3.3264 0.0000
# 4 0.0000 0.0000 0.0000 25.3730 0.0000 0.3867
# 5 1.1307 1.3405 3.3264 0.0000 19.6584 0.0000
# 6 0.0000 0.0000 0.0000 0.3867 0.0000 11.9488
#
#
#
# Elastic Compliance Matrix: (Units=1/GPa)
#
#
# Indices 1 2 3 4 5 6 
#
# 1 0.023317 -0.003637 -0.003202 0.000000 -0.000551 0.000000
# 2 -0.003637 0.011293 -0.000283 0.000000 -0.000513 0.000000
# 3 -0.003202 -0.000283 0.009775 0.000000 -0.001451 0.000000
# 4 0.000000 0.000000 0.000000 0.039431 0.000000 -0.001276
# 5 -0.000551 -0.000513 -0.001451 0.000000 0.051181 0.000000
# 6 0.000000 0.000000 0.000000 -0.001276 0.000000 0.083732
#
#
# Mechanical properties :
#
#
# Convention : Reuss Voigt Hill
#
# Bulk Modulus (GPa) = 33.17567 36.66880 34.92224
# Shear Modulus (GPa) = 20.57439 25.37918 22.97679
#
# Velocity S-wave (km/s) = 3.29112 3.65527 3.47796
# Velocity P-wave (km/s) = 5.64866 6.09254 5.87480
#
# Compressibility (1/GPa) = 0.03014257
#
# Stress axis : x y z
#
# Youngs Moduli (GPa) = 42.88679 88.54949 102.29832
#
# Poissons Ratio (x) = 0.32202 0.32758
# Poissons Ratio (y) = 0.15596 0.02892
# Poissons Ratio (z) = 0.13733 0.02504
#
# Static dielectric constant tensor:
#      x y z
#    x 3.296470 0.000000 0.033320 
#    y 0.000000 3.305710 0.000000 
#    z 0.033320 0.000000 3.665320 
# 
# 
# High freq. dielectric constant tensor:
#      x y z
#    x 1.725570 0.000000 0.000720 
#    y 0.000000 1.730530 0.000000 
#    z 0.000720 0.000000 1.755870 
# 
# From -- ./inp_files/263357.got.cif
#   From: 2010.06.25/outbox.cif.g09.slc.cpg/sg12_132_cif.got.tgz:263357.got - 2010.06.28 00:19:55.
