data_PCOD8099715
_publ_section_title
;
Structure prediction by ZEFSAII (Michael W. Deem and Ramdas Pophale) SiO2 
 PCOD8099715
Probable space group: C 2/M
;
_chemical_formula_sum "Si O2"
_cell_formula_units_Z 56
_cell_length_a 27.654047
_cell_length_b 13.273305
_cell_length_c 9.440899
_cell_angle_alpha 90.000000
_cell_angle_beta 125.929418
_cell_angle_gamma 90.000000
_cell_volume 2806.060080
_symmetry_space_group_name_H-M "C 2/M"
_symmetry_group_IT_number 12
_symmetry_cell_setting 'monoclinic'
loop_
_space_group_symop_operation_xyz
x,y,z
-x,y,-z
-x,-y,-z
x,-y,z
1/2+x,1/2+y,z
1/2-x,1/2+y,-z
1/2-x,1/2-y,-z
1/2+x,1/2-y,z
loop_
_atom_site_type_symbol
_atom_site_label
_atom_site_fract_x
_atom_site_fract_y
_atom_site_fract_z
Si Si1 0.924075 0.385592 0.999218
Si Si2 0.685519 0.382305 0.352637
Si Si3 0.235608 0.753323 0.682730
Si Si4 0.190002 0.613258 0.019671
Si Si5 0.140735 0.612834 0.633517
Si Si6 0.982036 0.301029 0.624556
Si Si7 0.442592 0.296875 0.826263
O O1 0.939577 0.500000 0.980953
O O2 0.855172 0.377425 0.925805
O O3 0.934805 0.314925 0.881515
O O4 0.963052 0.354461 0.202752
O O5 0.698129 0.500000 0.357941
O O6 0.709983 0.323108 0.257929
O O7 0.724607 0.340071 0.549044
O O8 0.614837 0.365738 0.248597
O O9 0.254673 0.811163 0.858933
O O10 0.174553 0.690666 0.589575
O O11 0.215054 0.500000 0.050079
O O12 0.156298 0.644502 0.819588
O O13 0.162269 0.500000 0.635616
O O14 0.070058 0.617655 0.489545
O O15 0.956199 0.212541 0.681586
O O16 0.000000 0.257283 0.500000
O O17 0.500000 0.349075 0.000000
#
# Coordination Sequence:
#
# PCOD8099715 Si02
#       7
#     8   8   8   8   8   8   8
#     4  10  20  35  56  84 119 154 190 233 289 353
#     4  11  23  40  62  85 112 151 198 243 292 346
#     4  11  22  40  57  85 118 155 188 240 290 344
#     4  10  20  35  58  85 116 155 192 230 285 350
#     4  11  22  35  57  89 119 153 193 235 284 350
#     4  11  21  36  58  86 120 153 188 238 296 346
#     4  10  22  40  59  86 114 153 195 242 294 348
#
# _framework density 19.956807000000001
#
# number of rings (size 3 to 8) (size 9 to 14) (size 15 to 20)
#    0.000    1.429    4.286    1.714    0.000    4.000 
#    0.000    0.000    0.000    0.429    0.000    0.000 
#    0.000    0.000    0.000    0.000    0.000    0.000 
#
# Total GULP energy -347168.774397 kJ/mol
# GULP energy per Si atom -12398.884800 kJ/mol
# Density = 1.991138 g / cm^3
# Si number density = 19.956807 Si / 1000 Ang^3
#
#
#
# Elastic Constant Matrix: (Units=GPa)
#
#
# Indices 1 2 3 4 5 6 
#
# 1 72.0565 23.6117 17.7855 0.0000 -0.7980 0.0000
# 2 23.6117 89.5303 38.3719 0.0000 4.6600 0.0000
# 3 17.7855 38.3719 82.9718 0.0000 -1.8042 0.0000
# 4 0.0000 0.0000 0.0000 24.5783 0.0000 4.3775
# 5 -0.7980 4.6600 -1.8042 0.0000 38.0385 0.0000
# 6 0.0000 0.0000 0.0000 4.3775 0.0000 22.0790
#
#
#
# Elastic Compliance Matrix: (Units=1/GPa)
#
#
# Indices 1 2 3 4 5 6 
#
# 1 0.015413 -0.003354 -0.001739 0.000000 0.000652 0.000000
# 2 -0.003354 0.014816 -0.006181 0.000000 -0.002179 0.000000
# 3 -0.001739 -0.006181 0.015315 0.000000 0.001447 0.000000
# 4 0.000000 0.000000 0.000000 0.042176 0.000000 -0.008362
# 5 0.000652 -0.002179 0.001447 0.000000 0.026638 0.000000
# 6 0.000000 0.000000 0.000000 -0.008362 0.000000 0.046950
#
#
# Mechanical properties :
#
#
# Convention : Reuss Voigt Hill
#
# Bulk Modulus (GPa) = 43.48137 44.89964 44.19051
# Shear Modulus (GPa) = 26.10691 27.92512 27.01601
#
# Velocity S-wave (km/s) = 3.62079 3.74475 3.68329
# Velocity P-wave (km/s) = 6.27018 6.42221 6.34665
#
# Compressibility (1/GPa) = 0.02299835
#
# Stress axis : x y z
#
# Youngs Moduli (GPa) = 64.87894 67.49385 65.29633
#
# Poissons Ratio (x) = 0.22635 0.11354
# Poissons Ratio (y) = 0.21758 0.40357
# Poissons Ratio (z) = 0.11281 0.41715
#
# Static dielectric constant tensor:
#      x y z
#    x 3.678900 0.000000 0.052420 
#    y 0.000000 3.323840 0.000000 
#    z 0.052420 0.000000 3.645320 
# 
# 
# High freq. dielectric constant tensor:
#      x y z
#    x 1.780700 0.000000 0.007450 
#    y 0.000000 1.749350 0.000000 
#    z 0.007450 0.000000 1.786540 
# 
# From -- ./inp_files/111731.got.cif
#   From: 2010.06.25/outbox.cif.g09.slc.cpg/sg12_56_cif.got.tgz:111731.got - 2010.06.28 00:19:55.
