data_PCOD8099114
_publ_section_title
;
Structure prediction by ZEFSAII (Michael W. Deem and Ramdas Pophale) SiO2 
 PCOD8099114
Probable space group: C 2/M
;
_chemical_formula_sum "Si O2"
_cell_formula_units_Z 48
_cell_length_a 15.916055
_cell_length_b 9.311912
_cell_length_c 16.428277
_cell_angle_alpha 90.000000
_cell_angle_beta 111.799302
_cell_angle_gamma 90.000000
_cell_volume 2260.704018
_symmetry_space_group_name_H-M "C 2/M"
_symmetry_group_IT_number 12
_symmetry_cell_setting 'monoclinic'
loop_
_space_group_symop_operation_xyz
x,y,z
-x,y,-z
-x,-y,-z
x,-y,z
1/2+x,1/2+y,z
1/2-x,1/2+y,-z
1/2-x,1/2-y,-z
1/2+x,1/2-y,z
loop_
_atom_site_type_symbol
_atom_site_label
_atom_site_fract_x
_atom_site_fract_y
_atom_site_fract_z
Si Si1 0.919829 0.168956 0.297089
Si Si2 0.711945 0.667520 0.604790
Si Si3 0.372699 0.333276 0.597600
Si Si4 0.573606 0.338707 0.098226
Si Si5 0.457543 0.841224 0.162691
Si Si6 0.317952 0.842304 0.973754
O O1 0.850005 0.217089 0.341748
O O2 0.895690 0.261191 0.207883
O O3 0.022708 0.212180 0.356705
O O4 0.911441 0.000000 0.276135
O O5 0.733128 0.500000 0.617710
O O6 0.655162 0.706622 0.504097
O O7 0.808437 0.748862 0.638238
O O8 0.359219 0.500000 0.610825
O O9 0.605340 0.500000 0.131039
O O10 0.540347 0.264880 0.170078
O O11 0.500000 0.344914 0.000000
O O12 0.658730 0.243723 0.099895
O O13 0.405758 0.863960 0.060061
O O14 0.489164 0.000000 0.204486
O O15 0.278227 0.000000 0.936541
O O16 0.250000 0.750000 0.000000
#
# Coordination Sequence:
#
# PCOD8099114 Si02
#       6
#     8   8   8   8   8   8
#     4  10  20  35  55  79 110 149 185 223 275 333
#     4   9  18  34  56  81 109 142 185 230 272 325
#     4   9  18  34  56  81 108 142 184 229 275 325
#     4   9  17  32  55  77  99 131 170 212 259 315
#     4  10  21  36  53  77 108 139 175 221 268 320
#     4  10  20  35  55  79 105 137 178 223 268 318
#
# _framework density 21.232323999999998
#
# number of rings (size 3 to 8) (size 9 to 14) (size 15 to 20)
#    0.000    2.500    0.000    2.000    0.000    7.333 
#    3.000    0.000    0.000    5.000    0.000    0.000 
#    0.000    0.000    0.000    0.000    0.000    0.000 
#
# Total GULP energy -297521.442753 kJ/mol
# GULP energy per Si atom -12396.726781 kJ/mol
# Density = 2.118400 g / cm^3
# Si number density = 21.232324 Si / 1000 Ang^3
#
#
#
# Elastic Constant Matrix: (Units=GPa)
#
#
# Indices 1 2 3 4 5 6 
#
# 1 122.9869 63.3428 26.1432 0.0000 -49.0601 0.0000
# 2 63.3428 150.8245 28.6443 0.0000 -38.4080 0.0000
# 3 26.1432 28.6443 46.0059 0.0000 -32.7152 0.0000
# 4 0.0000 0.0000 0.0000 25.6663 0.0000 -8.6665
# 5 -49.0601 -38.4080 -32.7152 0.0000 45.3544 0.0000
# 6 0.0000 0.0000 0.0000 -8.6665 0.0000 39.5943
#
#
#
# Elastic Compliance Matrix: (Units=1/GPa)
#
#
# Indices 1 2 3 4 5 6 
#
# 1 0.016144 -0.003028 0.006788 0.000000 0.019795 0.000000
# 2 -0.003028 0.009024 -0.001628 0.000000 0.003192 0.000000
# 3 0.006788 -0.001628 0.047496 0.000000 0.040224 0.000000
# 4 0.000000 0.000000 0.000000 0.042071 0.000000 0.009209
# 5 0.019795 0.003192 0.040224 0.000000 0.075178 0.000000
# 6 0.000000 0.000000 0.000000 0.009209 0.000000 0.027272
#
#
# Mechanical properties :
#
#
# Convention : Reuss Voigt Hill
#
# Bulk Modulus (GPa) = 12.99933 61.78643 37.39288
# Shear Modulus (GPa) = 20.95869 35.56882 28.26375
#
# Velocity S-wave (km/s) = 3.14524 4.09739 3.65247
# Velocity P-wave (km/s) = 4.39611 7.17970 5.95289
#
# Compressibility (1/GPa) = 0.07692703
#
# Stress axis : x y z
#
# Youngs Moduli (GPa) = 61.94256 110.81447 21.05427
#
# Poissons Ratio (x) = 0.33560 -0.14291
# Poissons Ratio (y) = 0.18759 0.03427
# Poissons Ratio (z) = -0.42045 0.18040
#
# Static dielectric constant tensor:
#      x y z
#    x 3.914060 0.000000 -0.142080 
#    y 0.000000 4.012990 0.000000 
#    z -0.142080 0.000000 3.799110 
# 
# 
# High freq. dielectric constant tensor:
#      x y z
#    x 1.827220 0.000000 -0.020700 
#    y 0.000000 1.837640 0.000000 
#    z -0.020700 0.000000 1.813770 
# 
# From -- ./inp_files/273694.got.cif
#   From: 2010.06.25/outbox.cif.g09.slc.cpg/sg12_137_cif.got.tgz:273694.got - 2010.06.28 00:19:55.
