data_PCOD8099629
_publ_section_title
;
Structure prediction by ZEFSAII (Michael W. Deem and Ramdas Pophale) SiO2 
 PCOD8099629
Probable space group: C 2/M
;
_chemical_formula_sum "Si O2"
_cell_formula_units_Z 56
_cell_length_a 17.844754
_cell_length_b 8.752288
_cell_length_c 22.460252
_cell_angle_alpha 90.000000
_cell_angle_beta 126.569784
_cell_angle_gamma 90.000000
_cell_volume 2817.303331
_symmetry_space_group_name_H-M "C 2/M"
_symmetry_group_IT_number 12
_symmetry_cell_setting 'monoclinic'
loop_
_space_group_symop_operation_xyz
x,y,z
-x,y,-z
-x,-y,-z
x,-y,z
1/2+x,1/2+y,z
1/2-x,1/2+y,-z
1/2-x,1/2-y,-z
1/2+x,1/2-y,z
loop_
_atom_site_type_symbol
_atom_site_label
_atom_site_fract_x
_atom_site_fract_y
_atom_site_fract_z
Si Si1 0.600762 0.178541 0.572246
Si Si2 0.167929 0.179772 0.999228
Si Si3 0.239698 0.678968 0.430766
Si Si4 0.475046 0.680899 0.856512
Si Si5 0.881062 0.822860 0.292253
Si Si6 0.056835 0.177463 0.292471
Si Si7 0.799182 0.819749 0.848941
O O1 0.500000 0.225997 0.500000
O O2 0.676842 0.270398 0.571796
O O3 0.607985 0.220165 0.644524
O O4 0.620074 0.000000 0.573161
O O5 0.069487 0.248568 0.929884
O O6 0.170221 0.000000 0.990868
O O7 0.250000 0.250000 0.000000
O O8 0.179573 0.223898 0.073304
O O9 0.243923 0.500000 0.440596
O O10 0.250000 0.750000 0.500000
O O11 0.142279 0.724433 0.356009
O O12 0.478791 0.500000 0.862495
O O13 0.467924 0.735969 0.785173
O O14 0.385715 0.739743 0.850632
O O15 0.790443 0.774170 0.213227
O O16 0.969166 0.791004 0.292536
O O17 0.874023 0.000000 0.307036
O O18 0.085692 0.000000 0.305701
O O19 0.781496 0.000000 0.832106
#
# Coordination Sequence:
#
# PCOD8099629 Si02
#       7
#     8   8   8   8   8   8   8
#     4  11  24  42  64  89 118 154 196 241 290 345
#     4  10  20  35  56  83 113 148 192 240 292 350
#     4  12  25  41  63  90 121 155 194 241 291 346
#     4   9  18  35  58  82 111 150 194 238 286 345
#     4  11  23  38  59  88 121 156 194 239 290 346
#     4  10  21  38  60  85 117 157 197 239 291 350
#     4  10  20  35  58  84 112 151 198 244 290 347
#
# _framework density 19.877165000000002
#
# number of rings (size 3 to 8) (size 9 to 14) (size 15 to 20)
#    0.000    1.571    0.000    5.143    0.000    9.143 
#    0.000    1.429    0.000    1.714    0.000    0.000 
#    0.000    0.000    0.000    0.000    0.000    0.000 
#
# Total GULP energy -347345.268866 kJ/mol
# GULP energy per Si atom -12405.188174 kJ/mol
# Density = 1.983192 g / cm^3
# Si number density = 19.877165 Si / 1000 Ang^3
#
#
#
# Elastic Constant Matrix: (Units=GPa)
#
#
# Indices 1 2 3 4 5 6 
#
# 1 152.0430 53.4685 74.4532 0.0000 1.4936 0.0000
# 2 53.4685 66.7668 53.7237 0.0000 6.9487 0.0000
# 3 74.4532 53.7237 161.4791 0.0000 5.8257 0.0000
# 4 0.0000 0.0000 0.0000 29.6131 0.0000 2.1992
# 5 1.4936 6.9487 5.8257 0.0000 45.7602 0.0000
# 6 0.0000 0.0000 0.0000 2.1992 0.0000 36.8024
#
#
#
# Elastic Compliance Matrix: (Units=1/GPa)
#
#
# Indices 1 2 3 4 5 6 
#
# 1 0.009951 -0.005934 -0.002647 0.000000 0.000913 0.000000
# 2 -0.005934 0.024225 -0.005222 0.000000 -0.002820 0.000000
# 3 -0.002647 -0.005222 0.009161 0.000000 -0.000287 0.000000
# 4 0.000000 0.000000 0.000000 0.033919 0.000000 -0.002027
# 5 0.000913 -0.002820 -0.000287 0.000000 0.022288 0.000000
# 6 0.000000 0.000000 0.000000 -0.002027 0.000000 0.027293
#
#
# Mechanical properties :
#
#
# Convention : Reuss Voigt Hill
#
# Bulk Modulus (GPa) = 63.56827 82.61996 73.09412
# Shear Modulus (GPa) = 31.31127 35.67805 33.49466
#
# Velocity S-wave (km/s) = 3.97323 4.24125 4.10943
# Velocity P-wave (km/s) = 7.28689 8.10184 7.70515
#
# Compressibility (1/GPa) = 0.01573112
#
# Stress axis : x y z
#
# Youngs Moduli (GPa) = 100.49099 41.27956 109.16223
#
# Poissons Ratio (x) = 0.24497 0.28892
# Poissons Ratio (y) = 0.59636 0.57001
# Poissons Ratio (z) = 0.26597 0.21555
#
# Static dielectric constant tensor:
#      x y z
#    x 5.253050 0.000000 -1.607400 
#    y 0.000000 3.465850 0.000000 
#    z -1.607400 0.000000 5.693460 
# 
# 
# High freq. dielectric constant tensor:
#      x y z
#    x 1.796160 0.000000 -0.000230 
#    y 0.000000 1.758700 0.000000 
#    z -0.000230 0.000000 1.796620 
# 
# From -- ./inp_files/342495.got.cif
#   From: 2010.06.25/outbox.cif.g09.slc.cpg/sg12_172_cif.got.tgz:342495.got - 2010.06.28 00:19:55.
