data_PCOD8099318
_publ_section_title
;
Structure prediction by ZEFSAII (Michael W. Deem and Ramdas Pophale) SiO2 
 PCOD8099318
Probable space group: C 2/M
;
_chemical_formula_sum "Si O2"
_cell_formula_units_Z 56
_cell_length_a 23.458971
_cell_length_b 9.049523
_cell_length_c 15.544831
_cell_angle_alpha 90.000000
_cell_angle_beta 122.888108
_cell_angle_gamma 90.000000
_cell_volume 2771.160355
_symmetry_space_group_name_H-M "C 2/M"
_symmetry_group_IT_number 12
_symmetry_cell_setting 'monoclinic'
loop_
_space_group_symop_operation_xyz
x,y,z
-x,y,-z
-x,-y,-z
x,-y,z
1/2+x,1/2+y,z
1/2-x,1/2+y,-z
1/2-x,1/2-y,-z
1/2+x,1/2-y,z
loop_
_atom_site_type_symbol
_atom_site_label
_atom_site_fract_x
_atom_site_fract_y
_atom_site_fract_z
Si Si1 0.945908 0.827783 0.384266
Si Si2 0.456949 0.330343 0.198878
Si Si3 0.681823 0.170457 0.654371
Si Si4 0.314414 0.173798 0.826107
Si Si5 0.313531 0.325425 0.007297
Si Si6 0.319446 0.830869 0.542129
Si Si7 0.419578 0.828323 0.766680
O O1 0.975271 0.796294 0.313341
O O2 0.877346 0.733882 0.334607
O O3 0.000000 0.775226 0.500000
O O4 0.927859 0.000000 0.381725
O O5 0.467559 0.500000 0.185554
O O6 0.379378 0.284821 0.117443
O O7 0.506526 0.244980 0.174547
O O8 0.749676 0.264904 0.722066
O O9 0.656278 0.186851 0.535718
O O10 0.695972 0.000000 0.690274
O O11 0.381608 0.204703 0.824937
O O12 0.303953 0.000000 0.834615
O O13 0.324140 0.260677 0.921768
O O14 0.300913 0.500000 0.991422
O O15 0.250000 0.250000 0.000000
O O16 0.250000 0.750000 0.500000
O O17 0.376036 0.762107 0.651462
O O18 0.307103 0.000000 0.557865
O O19 0.431492 0.000000 0.762905
#
# Coordination Sequence:
#
# PCOD8099318 Si02
#       7
#     8   8   8   8   8   8   8
#     4  10  21  38  60  87 120 159 201 244 301 369
#     4  10  23  41  61  87 120 158 197 245 303 361
#     4  11  22  35  58  90 121 157 203 254 305 360
#     4  11  23  40  62  88 120 158 202 251 303 360
#     4  11  24  43  66  92 121 156 202 251 304 362
#     4  10  20  35  55  85 122 160 201 243 294 354
#     4  10  22  39  60  88 122 160 202 247 300 361
#
# _framework density 20.208141000000001
#
# number of rings (size 3 to 8) (size 9 to 14) (size 15 to 20)
#    0.000    1.571    1.429    3.000    0.000    6.000 
#    0.000    2.857    0.000    0.000    0.000    0.000 
#    0.000    0.000    0.000    0.000    0.000    0.000 
#
# Total GULP energy -347305.920893 kJ/mol
# GULP energy per Si atom -12403.782889 kJ/mol
# Density = 2.016215 g / cm^3
# Si number density = 20.208141 Si / 1000 Ang^3
#
#
#
# Elastic Constant Matrix: (Units=GPa)
#
#
# Indices 1 2 3 4 5 6 
#
# 1 147.8074 67.4507 48.9737 0.0000 8.6570 0.0000
# 2 67.4507 84.3702 45.6644 0.0000 5.5156 0.0000
# 3 48.9737 45.6644 114.3660 0.0000 -2.9532 0.0000
# 4 0.0000 0.0000 0.0000 31.1030 0.0000 1.2342
# 5 8.6570 5.5156 -2.9532 0.0000 27.1932 0.0000
# 6 0.0000 0.0000 0.0000 1.2342 0.0000 41.0848
#
#
#
# Elastic Compliance Matrix: (Units=1/GPa)
#
#
# Indices 1 2 3 4 5 6 
#
# 1 0.010968 -0.007730 -0.001665 0.000000 -0.002105 0.000000
# 2 -0.007730 0.020955 -0.005118 0.000000 -0.002345 0.000000
# 3 -0.001665 -0.005118 0.011573 0.000000 0.002825 0.000000
# 4 0.000000 0.000000 0.000000 0.032190 0.000000 -0.000967
# 5 -0.002105 -0.002345 0.002825 0.000000 0.038226 0.000000
# 6 0.000000 0.000000 0.000000 -0.000967 0.000000 0.024369
#
#
# Mechanical properties :
#
#
# Convention : Reuss Voigt Hill
#
# Bulk Modulus (GPa) = 69.09842 74.52459 71.81150
# Shear Modulus (GPa) = 29.04795 32.17319 30.61057
#
# Velocity S-wave (km/s) = 3.79547 3.99443 3.89622
# Velocity P-wave (km/s) = 7.31266 7.63102 7.47354
#
# Compressibility (1/GPa) = 0.01447211
#
# Stress axis : x y z
#
# Youngs Moduli (GPa) = 91.17611 47.72041 86.40804
#
# Poissons Ratio (x) = 0.36887 0.14383
# Poissons Ratio (y) = 0.70477 0.44221
# Poissons Ratio (z) = 0.15177 0.24422
#
# Static dielectric constant tensor:
#      x y z
#    x 3.614570 0.000000 -0.061040 
#    y 0.000000 3.769960 0.000000 
#    z -0.061040 0.000000 4.055780 
# 
# 
# High freq. dielectric constant tensor:
#      x y z
#    x 1.795670 0.000000 -0.003660 
#    y 0.000000 1.788430 0.000000 
#    z -0.003660 0.000000 1.794360 
# 
# From -- ./inp_files/238978.got.cif
#   From: 2010.06.25/outbox.cif.g09.slc.cpg/sg12_120_cif.got.tgz:238978.got - 2010.06.28 00:19:55.
