data_PCOD8099563
_publ_section_title
;
Structure prediction by ZEFSAII (Michael W. Deem and Ramdas Pophale) SiO2 
 PCOD8099563
Probable space group: C 2/M
;
_chemical_formula_sum "Si O2"
_cell_formula_units_Z 56
_cell_length_a 23.694155
_cell_length_b 9.196233
_cell_length_c 13.535519
_cell_angle_alpha 90.000000
_cell_angle_beta 76.070929
_cell_angle_gamma 90.000000
_cell_volume 2862.621417
_symmetry_space_group_name_H-M "C 2/M"
_symmetry_group_IT_number 12
_symmetry_cell_setting 'monoclinic'
loop_
_space_group_symop_operation_xyz
x,y,z
-x,y,-z
-x,-y,-z
x,-y,z
1/2+x,1/2+y,z
1/2-x,1/2+y,-z
1/2-x,1/2-y,-z
1/2+x,1/2-y,z
loop_
_atom_site_type_symbol
_atom_site_label
_atom_site_fract_x
_atom_site_fract_y
_atom_site_fract_z
Si Si1 0.063211 0.828074 0.511939
Si Si2 0.702036 0.828302 0.956213
Si Si3 0.486828 0.828013 0.115778
Si Si4 0.282581 0.333980 0.250473
Si Si5 0.847841 0.670862 0.665763
Si Si6 0.393452 0.829254 0.853582
Si Si7 0.902717 0.166469 0.285498
O O1 0.114278 0.752980 0.430311
O O2 0.071761 0.777168 0.621382
O O3 0.000000 0.776363 0.500000
O O4 0.070434 0.000000 0.497778
O O5 0.702097 0.771723 0.845373
O O6 0.713234 0.000000 0.951708
O O7 0.750000 0.750000 0.000000
O O8 0.640966 0.785575 0.032818
O O9 0.540242 0.777392 0.162858
O O10 0.429033 0.756666 0.183561
O O11 0.477608 0.000000 0.119140
O O12 0.500000 0.772126 0.000000
O O13 0.280492 0.500000 0.211586
O O14 0.220205 0.293993 0.324136
O O15 0.332599 0.314766 0.312308
O O16 0.860753 0.500000 0.651497
O O17 0.865043 0.735968 0.766225
O O18 0.390860 0.000000 0.843031
O O19 0.920595 0.000000 0.262188
#
# Coordination Sequence:
#
# PCOD8099563 Si02
#       7
#     8   8   8   8   8   8   8
#     4  10  22  40  59  82 112 143 183 237 289 337
#     4  11  20  34  56  83 117 154 189 229 278 333
#     4  10  20  35  56  82 111 144 185 231 273 325
#     4  10  21  38  56  80 115 151 188 231 282 339
#     4  10  20  36  57  80 107 143 187 233 278 332
#     4   9  18  33  53  78 111 146 182 227 279 328
#     4  10  22  39  58  80 113 152 185 230 289 339
#
# _framework density 19.562488999999999
#
# number of rings (size 3 to 8) (size 9 to 14) (size 15 to 20)
#    0.000    2.000    1.429    2.143    0.000    4.000 
#    0.000    1.429    0.000    0.000    0.000    0.000 
#    0.000    0.000    0.000    0.000    0.000    0.000 
#
# Total GULP energy -347193.664202 kJ/mol
# GULP energy per Si atom -12399.773722 kJ/mol
# Density = 1.951796 g / cm^3
# Si number density = 19.562489 Si / 1000 Ang^3
#
#
#
# Elastic Constant Matrix: (Units=GPa)
#
#
# Indices 1 2 3 4 5 6 
#
# 1 134.0438 30.9473 62.6023 0.0000 -3.1473 0.0000
# 2 30.9473 49.9417 44.6757 0.0000 -4.4635 0.0000
# 3 62.6023 44.6757 133.9782 0.0000 -7.8840 0.0000
# 4 0.0000 0.0000 0.0000 35.0601 0.0000 -4.4685
# 5 -3.1473 -4.4635 -7.8840 0.0000 36.0630 0.0000
# 6 0.0000 0.0000 0.0000 -4.4685 0.0000 22.0270
#
#
#
# Elastic Compliance Matrix: (Units=1/GPa)
#
#
# Indices 1 2 3 4 5 6 
#
# 1 0.009817 -0.002837 -0.003658 0.000000 -0.000294 0.000000
# 2 -0.002837 0.029432 -0.008397 0.000000 0.001560 0.000000
# 3 -0.003658 -0.008397 0.012048 0.000000 0.001275 0.000000
# 4 0.000000 0.000000 0.000000 0.029280 0.000000 0.005940
# 5 -0.000294 0.001560 0.001275 0.000000 0.028175 0.000000
# 6 0.000000 0.000000 0.000000 0.005940 0.000000 0.046604
#
#
# Mechanical properties :
#
#
# Convention : Reuss Voigt Hill
#
# Bulk Modulus (GPa) = 46.48351 66.04603 56.26477
# Shear Modulus (GPa) = 25.99947 30.61257 28.30602
#
# Velocity S-wave (km/s) = 3.64956 3.96012 3.80801
# Velocity P-wave (km/s) = 6.44765 7.39898 6.93964
#
# Compressibility (1/GPa) = 0.02151301
#
# Stress axis : x y z
#
# Youngs Moduli (GPa) = 101.86560 33.97633 82.99900
#
# Poissons Ratio (x) = 0.09639 0.30364
# Poissons Ratio (y) = 0.28898 0.69694
# Poissons Ratio (z) = 0.37266 0.28530
#
# Static dielectric constant tensor:
#      x y z
#    x 3.699430 0.000000 0.346720 
#    y 0.000000 3.428980 0.000000 
#    z 0.346720 0.000000 3.465500 
# 
# 
# High freq. dielectric constant tensor:
#      x y z
#    x 1.780850 0.000000 -0.002270 
#    y 0.000000 1.739670 0.000000 
#    z -0.002270 0.000000 1.757420 
# 
# From -- ./inp_files/238382.got.cif
#   From: 2010.06.25/outbox.cif.g09.slc.cpg/sg12_120_cif.got.tgz:238382.got - 2010.06.28 00:19:55.
