data_PCOD8099570
_publ_section_title
;
Structure prediction by ZEFSAII (Michael W. Deem and Ramdas Pophale) SiO2 
 PCOD8099570
Probable space group: C 2/M
;
_chemical_formula_sum "Si O2"
_cell_formula_units_Z 64
_cell_length_a 14.785262
_cell_length_b 9.432508
_cell_length_c 29.999106
_cell_angle_alpha 90.000000
_cell_angle_beta 126.105567
_cell_angle_gamma 90.000000
_cell_volume 3380.178765
_symmetry_space_group_name_H-M "C 2/M"
_symmetry_group_IT_number 12
_symmetry_cell_setting 'monoclinic'
loop_
_space_group_symop_operation_xyz
x,y,z
-x,y,-z
-x,-y,-z
x,-y,z
1/2+x,1/2+y,z
1/2-x,1/2+y,-z
1/2-x,1/2-y,-z
1/2+x,1/2-y,z
loop_
_atom_site_type_symbol
_atom_site_label
_atom_site_fract_x
_atom_site_fract_y
_atom_site_fract_z
Si Si1 0.547447 0.166108 0.633903
Si Si2 0.405860 0.339668 0.180666
Si Si3 0.927274 0.662767 0.055144
Si Si4 0.293321 0.162212 0.553816
Si Si5 0.244553 0.839290 0.939976
Si Si6 0.082406 0.834449 0.155651
Si Si7 0.403566 0.663777 0.438527
Si Si8 0.336475 0.166776 0.241855
O O1 0.418147 0.207759 0.603253
O O2 0.597833 0.246716 0.606597
O O3 0.614571 0.216835 0.696781
O O4 0.563190 0.000000 0.630050
O O5 0.424988 0.500000 0.202669
O O6 0.284459 0.324072 0.120891
O O7 0.504701 0.295189 0.175312
O O8 0.409147 0.238828 0.224204
O O9 0.954352 0.500000 0.074340
O O10 0.824904 0.717697 0.055495
O O11 0.037841 0.753984 0.098250
O O12 0.878012 0.678460 0.989884
O O13 0.250000 0.250000 0.500000
O O14 0.216948 0.188826 0.574579
O O15 0.288012 0.000000 0.536997
O O16 0.207043 0.000000 0.944037
O O17 0.207729 0.783845 0.202509
O O18 0.077767 0.000000 0.143725
O O19 0.500000 0.719018 0.500000
O O20 0.425774 0.500000 0.433177
O O21 0.349488 0.000000 0.239344
#
# Coordination Sequence:
#
# PCOD8099570 Si02
#       8
#     8   8   8   8   8   8   8   8
#     4  10  22  38  56  80 109 142 180 221 263 310
#     4   9  18  34  55  76 100 137 179 217 264 320
#     4   9  15  25  47  77 103 132 176 222 264 318
#     4  10  20  35  56  82 112 142 172 210 257 309
#     4   8  15  28  46  72 107 140 169 213 274 329
#     4   9  19  36  54  72 104 144 176 216 273 326
#     4  10  20  35  56  83 114 144 173 209 259 315
#     4  10  22  39  55  75 106 141 180 224 267 312
#
# _framework density 18.933909
#
# number of rings (size 3 to 8) (size 9 to 14) (size 15 to 20)
#    0.000    2.625    1.250    1.125    0.000    5.250 
#    0.000    0.625    0.000    3.750    0.000    0.000 
#    0.000    0.000    0.000    0.000    0.000    0.000 
#
# Total GULP energy -396654.498906 kJ/mol
# GULP energy per Si atom -12395.453091 kJ/mol
# Density = 1.889081 g / cm^3
# Si number density = 18.933909 Si / 1000 Ang^3
#
#
#
# Elastic Constant Matrix: (Units=GPa)
#
#
# Indices 1 2 3 4 5 6 
#
# 1 56.9840 19.1297 23.8575 0.0000 8.0881 0.0000
# 2 19.1297 46.2209 30.4388 0.0000 -0.5622 0.0000
# 3 23.8575 30.4388 101.3473 0.0000 9.4042 0.0000
# 4 0.0000 0.0000 0.0000 32.1878 0.0000 -6.3556
# 5 8.0881 -0.5622 9.4042 0.0000 31.7027 0.0000
# 6 0.0000 0.0000 0.0000 -6.3556 0.0000 23.2119
#
#
#
# Elastic Compliance Matrix: (Units=1/GPa)
#
#
# Indices 1 2 3 4 5 6 
#
# 1 0.021778 -0.007481 -0.002418 0.000000 -0.004971 0.000000
# 2 -0.007481 0.029813 -0.007629 0.000000 0.004700 0.000000
# 3 -0.002418 -0.007629 0.013042 0.000000 -0.003387 0.000000
# 4 0.000000 0.000000 0.000000 0.032843 0.000000 0.008993
# 5 -0.004971 0.004700 -0.003387 0.000000 0.033899 0.000000
# 6 0.000000 0.000000 0.000000 0.008993 0.000000 0.045544
#
#
# Mechanical properties :
#
#
# Convention : Reuss Voigt Hill
#
# Bulk Modulus (GPa) = 33.81169 39.04489 36.42829
# Shear Modulus (GPa) = 22.53917 26.16221 24.35069
#
# Velocity S-wave (km/s) = 3.45398 3.72124 3.59010
# Velocity P-wave (km/s) = 5.81405 6.25540 6.03875
#
# Compressibility (1/GPa) = 0.02957557
#
# Stress axis : x y z
#
# Youngs Moduli (GPa) = 45.91697 33.54259 76.67548
#
# Poissons Ratio (x) = 0.25094 0.18544
# Poissons Ratio (y) = 0.34352 0.58496
# Poissons Ratio (z) = 0.11105 0.25590
#
# Static dielectric constant tensor:
#      x y z
#    x 3.255640 0.000000 0.183620 
#    y 0.000000 3.421690 0.000000 
#    z 0.183620 0.000000 3.695360 
# 
# 
# High freq. dielectric constant tensor:
#      x y z
#    x 1.715650 0.000000 0.010300 
#    y 0.000000 1.731870 0.000000 
#    z 0.010300 0.000000 1.741040 
# 
# From -- ./inp_files/375686.got.cif
#   From: 2010.06.25/outbox.cif.g09.slc.cpg/sg12_188_cif.got.tgz:375686.got - 2010.06.28 00:19:55.
