data_PCOD8099556
_publ_section_title
;
Structure prediction by ZEFSAII (Michael W. Deem and Ramdas Pophale) SiO2 
 PCOD8099556
Probable space group: C 2/M
;
_chemical_formula_sum "Si O2"
_cell_formula_units_Z 40
_cell_length_a 18.987009
_cell_length_b 8.726119
_cell_length_c 22.586699
_cell_angle_alpha 90.000000
_cell_angle_beta 145.969515
_cell_angle_gamma 90.000000
_cell_volume 2094.278747
_symmetry_space_group_name_H-M "C 2/M"
_symmetry_group_IT_number 12
_symmetry_cell_setting 'monoclinic'
loop_
_space_group_symop_operation_xyz
x,y,z
-x,y,-z
-x,-y,-z
x,-y,z
1/2+x,1/2+y,z
1/2-x,1/2+y,-z
1/2-x,1/2-y,-z
1/2+x,1/2-y,z
loop_
_atom_site_type_symbol
_atom_site_label
_atom_site_fract_x
_atom_site_fract_y
_atom_site_fract_z
Si Si1 0.947346 0.674455 0.795547
Si Si2 0.701332 0.822435 0.025721
Si Si3 0.581578 0.177722 0.764769
Si Si4 0.505728 0.318801 0.593236
Si Si5 0.685984 0.820447 0.626250
O O1 0.897634 0.500000 0.761666
O O2 0.834181 0.789610 0.728815
O O3 0.009097 0.711224 0.775184
O O4 0.049794 0.698419 0.919767
O O5 0.773216 0.737114 0.129541
O O6 0.738164 0.000000 0.053292
O O7 0.750000 0.750000 0.000000
O O8 0.508742 0.270321 0.663551
O O9 0.583875 0.000000 0.749858
O O10 0.506886 0.500000 0.587835
O O11 0.377408 0.254719 0.475594
O O12 0.626854 0.250403 0.644332
O O13 0.659777 0.000000 0.607326
#
# Coordination Sequence:
#
# PCOD8099556 Si02
#       5
#     8   8   8   8   8
#     4   9  19  35  55  80 110 142 176 216 262 313
#     4   9  17  31  52  78 109 143 177 215 262 314
#     4  10  20  35  56  82 111 140 177 222 264 312
#     4  11  22  38  58  77 105 142 178 217 267 323
#     4  11  22  37  57  79 106 139 178 221 265 316
#
# _framework density 19.099653
#
# number of rings (size 3 to 8) (size 9 to 14) (size 15 to 20)
#    0.000    2.000    0.000    7.200    0.000    5.600 
#    0.000    1.000    0.000    6.000    0.000    0.000 
#    0.000    0.000    0.000    0.000    0.000    0.000 
#
# Total GULP energy -247980.316907 kJ/mol
# GULP energy per Si atom -12399.015845 kJ/mol
# Density = 1.905618 g / cm^3
# Si number density = 19.099653 Si / 1000 Ang^3
#
#
#
# Elastic Constant Matrix: (Units=GPa)
#
#
# Indices 1 2 3 4 5 6 
#
# 1 30.1117 17.6174 12.9002 0.0000 14.4038 0.0000
# 2 17.6174 134.9514 25.5156 0.0000 15.6098 0.0000
# 3 12.9002 25.5156 61.3854 0.0000 22.9748 0.0000
# 4 0.0000 0.0000 0.0000 38.8580 0.0000 -1.1424
# 5 14.4038 15.6098 22.9748 0.0000 24.3604 0.0000
# 6 0.0000 0.0000 0.0000 -1.1424 0.0000 27.4436
#
#
#
# Elastic Compliance Matrix: (Units=1/GPa)
#
#
# Indices 1 2 3 4 5 6 
#
# 1 0.047663 -0.003349 0.001731 0.000000 -0.027669 0.000000
# 2 -0.003349 0.008431 -0.002349 0.000000 -0.001207 0.000000
# 3 0.001731 -0.002349 0.025846 0.000000 -0.023895 0.000000
# 4 0.000000 0.000000 0.000000 0.025766 0.000000 0.001073
# 5 -0.027669 -0.001207 -0.023895 0.000000 0.080719 0.000000
# 6 0.000000 0.000000 0.000000 0.001073 0.000000 0.036483
#
#
# Mechanical properties :
#
#
# Convention : Reuss Voigt Hill
#
# Bulk Modulus (GPa) = 13.51235 37.61278 25.56257
# Shear Modulus (GPa) = 19.41671 29.49342 24.45507
#
# Velocity S-wave (km/s) = 3.19188 3.93388 3.58214
# Velocity P-wave (km/s) = 4.54688 6.35370 5.52465
#
# Compressibility (1/GPa) = 0.07400638
#
# Stress axis : x y z
#
# Youngs Moduli (GPa) = 20.98083 118.60984 38.69056
#
# Poissons Ratio (x) = 0.39724 -0.06699
# Poissons Ratio (y) = 0.07027 0.09088
# Poissons Ratio (z) = -0.03633 0.27861
#
# Static dielectric constant tensor:
#      x y z
#    x 3.145630 0.000000 0.001260 
#    y 0.000000 3.654630 0.000000 
#    z 0.001260 0.000000 3.911170 
# 
# 
# High freq. dielectric constant tensor:
#      x y z
#    x 1.706240 0.000000 0.000570 
#    y 0.000000 1.758840 0.000000 
#    z 0.000570 0.000000 1.757500 
# 
# From -- ./inp_files/162502.got.cif
#   From: 2010.06.25/outbox.cif.g09.slc.cpg/sg12_82_cif.got.tgz:162502.got - 2010.06.28 00:19:55.
