data_PCOD8099413
_publ_section_title
;
Structure prediction by ZEFSAII (Michael W. Deem and Ramdas Pophale) SiO2 
 PCOD8099413
Probable space group: C 2/M
;
_chemical_formula_sum "Si O2"
_cell_formula_units_Z 56
_cell_length_a 18.568629
_cell_length_b 9.176475
_cell_length_c 29.080813
_cell_angle_alpha 90.000000
_cell_angle_beta 37.122242
_cell_angle_gamma 90.000000
_cell_volume 2990.557661
_symmetry_space_group_name_H-M "C 2/M"
_symmetry_group_IT_number 12
_symmetry_cell_setting 'monoclinic'
loop_
_space_group_symop_operation_xyz
x,y,z
-x,y,-z
-x,-y,-z
x,-y,z
1/2+x,1/2+y,z
1/2-x,1/2+y,-z
1/2-x,1/2-y,-z
1/2+x,1/2-y,z
loop_
_atom_site_type_symbol
_atom_site_label
_atom_site_fract_x
_atom_site_fract_y
_atom_site_fract_z
Si Si1 0.862738 0.663676 0.561727
Si Si2 0.826006 0.670729 0.999963
Si Si3 0.232253 0.830323 0.147501
Si Si4 0.399907 0.169757 0.146921
Si Si5 0.345021 0.331716 0.265053
Si Si6 0.990634 0.670918 0.267502
Si Si7 0.726686 0.167848 0.558303
O O1 0.840592 0.500000 0.553987
O O2 0.787275 0.686124 0.646692
O O3 0.825732 0.782294 0.543698
O O4 0.000000 0.692696 0.500000
O O5 0.811964 0.500000 0.999136
O O6 0.963213 0.719004 0.926908
O O7 0.750000 0.750000 0.000000
O O8 0.779645 0.716904 0.073582
O O9 0.334732 0.794993 0.132227
O O10 0.117311 0.734427 0.218048
O O11 0.197088 0.000000 0.166655
O O12 0.337878 0.262080 0.218477
O O13 0.389196 0.000000 0.164687
O O14 0.383570 0.500000 0.242068
O O15 0.443721 0.250210 0.245592
O O16 0.000021 0.500000 0.251757
O O17 0.903757 0.701963 0.354742
O O18 0.750000 0.250000 0.500000
O O19 0.744658 0.000000 0.539039
#
# Coordination Sequence:
#
# PCOD8099413 Si02
#       7
#     8   8   8   8   8   8   8
#     4   9  19  36  56  78 107 142 178 220 271 321
#     4  10  21  37  57  80 107 142 181 219 263 316
#     4  10  21  37  57  81 109 142 180 221 266 317
#     4  10  21  37  56  79 110 144 177 219 269 317
#     4  10  20  35  56  80 107 141 181 222 265 320
#     4  10  21  37  56  79 108 142 180 222 268 318
#     4  10  21  36  55  79 108 142 180 222 267 318
#
# _framework density 18.725604000000001
#
# number of rings (size 3 to 8) (size 9 to 14) (size 15 to 20)
#    0.000    2.143    0.000    2.571    0.000    9.429 
#    0.000    4.286    0.000    2.571    0.000    0.000 
#    0.000    0.000    0.000    0.000    0.000    0.000 
#
# Total GULP energy -347293.506512 kJ/mol
# GULP energy per Si atom -12403.339518 kJ/mol
# Density = 1.868298 g / cm^3
# Si number density = 18.725604 Si / 1000 Ang^3
#
#
#
# Elastic Constant Matrix: (Units=GPa)
#
#
# Indices 1 2 3 4 5 6 
#
# 1 138.1829 68.4849 84.2697 -0.0001 1.2416 -0.0013
# 2 68.4849 91.5553 70.0872 -0.0003 7.1509 -0.0022
# 3 84.2697 70.0872 124.4159 0.0000 3.3555 -0.0001
# 4 -0.0001 -0.0003 0.0000 30.8751 0.0001 3.1094
# 5 1.2416 7.1509 3.3555 0.0001 39.9851 -0.0001
# 6 -0.0013 -0.0022 -0.0001 3.1094 -0.0001 35.7164
#
#
#
# Elastic Compliance Matrix: (Units=1/GPa)
#
#
# Indices 1 2 3 4 5 6 
#
# 1 0.013817 -0.005688 -0.006185 0.000000 0.001107 0.000000
# 2 -0.005688 0.021804 -0.008349 0.000000 -0.003022 0.000001
# 3 -0.006185 -0.008349 0.016923 0.000000 0.000265 -0.000001
# 4 0.000000 0.000000 0.000000 0.032675 0.000000 -0.002845
# 5 0.001107 -0.003022 0.000265 0.000000 0.025493 0.000000
# 6 0.000000 0.000001 -0.000001 -0.002845 0.000000 0.028246
#
#
# Mechanical properties :
#
#
# Convention : Reuss Voigt Hill
#
# Bulk Modulus (GPa) = 82.63421 88.87085 85.75253
# Shear Modulus (GPa) = 27.25762 30.06950 28.66356
#
# Velocity S-wave (km/s) = 3.81942 4.01159 3.91668
# Velocity P-wave (km/s) = 7.97969 8.30781 8.14540
#
# Compressibility (1/GPa) = 0.01210153
#
# Stress axis : x y z
#
# Youngs Moduli (GPa) = 72.37283 45.86272 59.09223
#
# Poissons Ratio (x) = 0.26085 0.36546
# Poissons Ratio (y) = 0.41163 0.49337
# Poissons Ratio (z) = 0.44760 0.38291
#
# Static dielectric constant tensor:
#      x y z
#    x 3.156000 0.000000 -0.167790 
#    y 0.000000 3.500000 0.000000 
#    z -0.167790 0.000000 3.456760 
# 
# 
# High freq. dielectric constant tensor:
#      x y z
#    x 1.725300 0.000000 -0.000340 
#    y 0.000000 1.730600 0.000000 
#    z -0.000340 0.000000 1.738650 
# 
# From -- ./inp_files/313815.got.cif
#   From: 2010.06.25/outbox.cif.g09.slc.cpg/sg12_157_cif.got.tgz:313815.got - 2010.06.28 00:19:55.
