data_PCOD8099315
_publ_section_title
;
Structure prediction by ZEFSAII (Michael W. Deem and Ramdas Pophale) SiO2 
 PCOD8099315
Probable space group: C 2/M
;
_chemical_formula_sum "Si O2"
_cell_formula_units_Z 52
_cell_length_a 27.487637
_cell_length_b 7.679915
_cell_length_c 23.889638
_cell_angle_alpha 90.000000
_cell_angle_beta 33.473085
_cell_angle_gamma 90.000000
_cell_volume 2781.534815
_symmetry_space_group_name_H-M "C 2/M"
_symmetry_group_IT_number 12
_symmetry_cell_setting 'monoclinic'
loop_
_space_group_symop_operation_xyz
x,y,z
-x,y,-z
-x,-y,-z
x,-y,z
1/2+x,1/2+y,z
1/2-x,1/2+y,-z
1/2-x,1/2-y,-z
1/2+x,1/2-y,z
loop_
_atom_site_type_symbol
_atom_site_label
_atom_site_fract_x
_atom_site_fract_y
_atom_site_fract_z
Si Si1 0.159821 0.000000 0.758027
Si Si2 0.621625 0.296409 0.601195
Si Si3 0.571800 0.799852 0.231198
Si Si4 0.106421 0.701410 0.072393
Si Si5 0.294406 0.802828 0.369357
Si Si6 0.537673 0.500000 0.065466
Si Si7 0.723342 0.307312 0.159939
Si Si8 0.213970 0.000000 0.829052
O O1 0.181772 0.825578 0.703323
O O2 0.217282 0.000000 0.759077
O O3 0.056911 0.000000 0.873412
O O4 0.621971 0.500000 0.612527
O O5 0.531236 0.234776 0.659679
O O6 0.633569 0.204227 0.649878
O O7 0.699898 0.242488 0.484343
O O8 0.600178 0.736949 0.142376
O O9 0.626605 0.697298 0.225396
O O10 0.595367 0.000000 0.216486
O O11 0.076702 0.500000 0.093248
O O12 0.042412 0.825356 0.098317
O O13 0.206446 0.733103 0.956488
O O14 0.291213 0.000000 0.349066
O O15 0.613091 0.500000 0.946291
O O16 0.738721 0.500000 0.170375
O O17 0.734206 0.170520 0.199544
#
# Coordination Sequence:
#
# PCOD8099315 Si02
#       8
#     4   8   8   8   8   4   8   4
#     4  12  23  38  63  82 107 151 195 231 280 326
#     4  10  20  35  55  85 121 149 175 219 284 343
#     4  11  20  30  53  86 116 148 187 227 272 341
#     4   9  20  33  50  82 118 149 179 222 277 340
#     4  10  22  38  57  84 117 146 181 228 278 340
#     4  10  21  36  58  82 114 146 183 233 279 331
#     4  10  20  37  55  75 113 153 189 233 278 321
#     4  10  23  42  55  80 111 149 198 236 272 321
#
# _framework density 18.694714000000001
#
# number of rings (size 3 to 8) (size 9 to 14) (size 15 to 20)
#    0.000    1.846    1.538    2.538    4.308    2.462 
#    0.000    0.000    0.000    6.462    0.000    3.231 
#    0.000    0.000    0.000    0.000    0.000    0.000 
#
# Total GULP energy -322492.452707 kJ/mol
# GULP energy per Si atom -12403.555873 kJ/mol
# Density = 1.865216 g / cm^3
# Si number density = 18.694714 Si / 1000 Ang^3
#
#
#
# Elastic Constant Matrix: (Units=GPa)
#
#
# Indices 1 2 3 4 5 6 
#
# 1 113.9673 41.2617 46.5414 0.0035 -5.4124 -0.0098
# 2 41.2617 97.1411 25.6518 -0.0217 8.7490 -0.0270
# 3 46.5414 25.6518 56.0705 0.0031 -4.8281 -0.0167
# 4 0.0035 -0.0217 0.0031 20.4231 0.0016 -6.8483
# 5 -5.4124 8.7490 -4.8281 0.0016 26.6632 0.0121
# 6 -0.0098 -0.0270 -0.0167 -6.8483 0.0121 14.7298
#
#
#
# Elastic Compliance Matrix: (Units=1/GPa)
#
#
# Indices 1 2 3 4 5 6 
#
# 1 0.014279 -0.003631 -0.009995 -0.000010 0.002280 -0.000015
# 2 -0.003631 0.013295 -0.003563 0.000028 -0.005745 0.000035
# 3 -0.009995 -0.003563 0.028125 -0.000002 0.004233 0.000014
# 4 -0.000010 0.000028 -0.000002 0.058008 -0.000027 0.026969
# 5 0.002280 -0.005745 0.004233 -0.000027 0.040619 -0.000050
# 6 -0.000015 0.000035 0.000014 0.026969 -0.000050 0.080428
#
#
# Mechanical properties :
#
#
# Convention : Reuss Voigt Hill
#
# Bulk Modulus (GPa) = 46.90076 54.89875 50.89976
# Shear Modulus (GPa) = 18.10022 22.61148 20.35585
#
# Velocity S-wave (km/s) = 3.11497 3.48158 3.30336
# Velocity P-wave (km/s) = 6.17086 6.75215 6.46804
#
# Compressibility (1/GPa) = 0.02132161
#
# Stress axis : x y z
#
# Youngs Moduli (GPa) = 70.03275 75.21642 35.55513
#
# Poissons Ratio (x) = 0.27313 0.35536
# Poissons Ratio (y) = 0.25431 0.12668
# Poissons Ratio (z) = 0.69996 0.26799
#
# Static dielectric constant tensor:
#      x y z
#    x 3.173380 -0.000070 -0.195050 
#    y -0.000070 3.564020 0.000010 
#    z -0.195050 0.000010 3.367490 
# 
# 
# High freq. dielectric constant tensor:
#      x y z
#    x 1.700590 -0.000010 -0.022130 
#    y -0.000010 1.744060 0.000010 
#    z -0.022130 0.000010 1.709210 
# 
# From -- ./inp_files/324070.got.cif
#   From: 2010.06.25/outbox.cif.g09.slc.cpg/sg12_163_cif.got.tgz:324070.got - 2010.06.28 00:19:55.
