data_PCOD8099105
_publ_section_title
;
Structure prediction by ZEFSAII (Michael W. Deem and Ramdas Pophale) SiO2 
 PCOD8099105
Probable space group: C 2/M
;
_chemical_formula_sum "Si O2"
_cell_formula_units_Z 56
_cell_length_a 17.918590
_cell_length_b 8.970739
_cell_length_c 19.216482
_cell_angle_alpha 90.000000
_cell_angle_beta 112.831257
_cell_angle_gamma 90.000000
_cell_volume 2846.903348
_symmetry_space_group_name_H-M "C 2/M"
_symmetry_group_IT_number 12
_symmetry_cell_setting 'monoclinic'
loop_
_space_group_symop_operation_xyz
x,y,z
-x,y,-z
-x,-y,-z
x,-y,z
1/2+x,1/2+y,z
1/2-x,1/2+y,-z
1/2-x,1/2-y,-z
1/2+x,1/2-y,z
loop_
_atom_site_type_symbol
_atom_site_label
_atom_site_fract_x
_atom_site_fract_y
_atom_site_fract_z
Si Si1 0.040103 0.822952 0.283386
Si Si2 0.310835 0.175881 0.736615
Si Si3 0.778071 0.828570 0.867120
Si Si4 0.214479 0.665416 0.589156
Si Si5 0.924465 0.827994 0.020467
Si Si6 0.596934 0.172937 0.844122
Si Si7 0.127620 0.835127 0.448382
O O1 0.105296 0.750975 0.255283
O O2 0.058118 0.777176 0.370301
O O3 0.951615 0.763239 0.232500
O O4 0.045964 0.000000 0.276537
O O5 0.293546 0.217891 0.809464
O O6 0.235523 0.232187 0.662737
O O7 0.318661 0.000000 0.731045
O O8 0.842057 0.792721 0.950304
O O9 0.691058 0.793779 0.867951
O O10 0.785645 0.000000 0.844604
O O11 0.192479 0.500000 0.607817
O O12 0.136973 0.729684 0.519046
O O13 0.289854 0.659771 0.564977
O O14 0.928854 0.000000 0.045411
O O15 0.930262 0.726000 0.090045
O O16 0.000000 0.785161 0.000000
O O17 0.575937 0.000000 0.828703
O O18 0.106403 0.000000 0.468222
#
# Coordination Sequence:
#
# PCOD8099105 Si02
#       7
#     8   8   8   8   8   8   8
#     4  10  20  35  55  78 109 146 183 227 277 326
#     4  11  21  33  54  82 110 142 184 230 272 321
#     4  10  22  39  56  79 113 148 181 220 271 325
#     4   9  16  27  46  73 107 143 176 219 274 325
#     4  10  21  38  61  84 108 143 182 221 269 323
#     4  11  23  37  56  82 112 145 182 225 268 319
#     4   8  15  27  45  72 103 137 178 223 270 321
#
# _framework density 19.670496
#
# number of rings (size 3 to 8) (size 9 to 14) (size 15 to 20)
#    0.000    2.143    0.000    4.714    0.000    7.143 
#    0.000    0.000    0.000    0.857    0.000    6.000 
#    0.000    0.000    0.000    0.000    0.000    0.000 
#
# Total GULP energy -347246.285527 kJ/mol
# GULP energy per Si atom -12401.653055 kJ/mol
# Density = 1.962572 g / cm^3
# Si number density = 19.670496 Si / 1000 Ang^3
#
#
#
# Elastic Constant Matrix: (Units=GPa)
#
#
# Indices 1 2 3 4 5 6 
#
# 1 65.1153 28.6536 30.9745 0.0000 25.3770 0.0000
# 2 28.6536 103.0858 36.5657 0.0000 16.4395 0.0000
# 3 30.9745 36.5657 85.4326 0.0000 39.9555 0.0000
# 4 0.0000 0.0000 0.0000 39.6652 0.0000 2.4545
# 5 25.3770 16.4395 39.9555 0.0000 25.3748 0.0000
# 6 0.0000 0.0000 0.0000 2.4545 0.0000 22.2843
#
#
#
# Elastic Compliance Matrix: (Units=1/GPa)
#
#
# Indices 1 2 3 4 5 6 
#
# 1 0.030262 -0.005706 0.014780 0.000000 -0.049841 0.000000
# 2 -0.005706 0.012521 -0.008215 0.000000 0.010530 0.000000
# 3 0.014780 -0.008215 0.054202 0.000000 -0.094807 0.000000
# 4 0.000000 0.000000 0.000000 0.025384 0.000000 -0.002796
# 5 -0.049841 0.010530 -0.094807 0.000000 0.231716 0.000000
# 6 0.000000 0.000000 0.000000 -0.002796 0.000000 0.045183
#
#
# Mechanical properties :
#
#
# Convention : Reuss Voigt Hill
#
# Bulk Modulus (GPa) = 10.13136 49.55792 29.84464
# Shear Modulus (GPa) = 11.61572 27.96085 19.78829
#
# Velocity S-wave (km/s) = 2.43269 3.77432 3.17517
# Velocity P-wave (km/s) = 3.61280 6.65152 5.35234
#
# Compressibility (1/GPa) = 0.09870343
#
# Stress axis : x y z
#
# Youngs Moduli (GPa) = 33.04524 79.86304 18.44941
#
# Poissons Ratio (x) = 0.45569 -0.27269
# Poissons Ratio (y) = 0.18855 0.15157
# Poissons Ratio (z) = -0.48842 0.65609
#
# Static dielectric constant tensor:
#      x y z
#    x 3.294600 0.000000 0.294660 
#    y 0.000000 3.667310 0.000000 
#    z 0.294660 0.000000 3.793980 
# 
# 
# High freq. dielectric constant tensor:
#      x y z
#    x 1.732830 0.000000 0.017870 
#    y 0.000000 1.770100 0.000000 
#    z 0.017870 0.000000 1.780440 
# 
# From -- ./inp_files/275350.got.cif
#   From: 2010.06.25/outbox.cif.g09.slc.cpg/sg12_138_cif.got.tgz:275350.got - 2010.06.28 00:19:55.
