data_PCOD8099855
_publ_section_title
;
Structure prediction by ZEFSAII (Michael W. Deem and Ramdas Pophale) SiO2 
 PCOD8099855
Probable space group: C 2/M
;
_chemical_formula_sum "Si O2"
_cell_formula_units_Z 48
_cell_length_a 15.095424
_cell_length_b 9.152360
_cell_length_c 18.694339
_cell_angle_alpha 90.000000
_cell_angle_beta 90.189890
_cell_angle_gamma 90.000000
_cell_volume 2582.772413
_symmetry_space_group_name_H-M "C 2/M"
_symmetry_group_IT_number 12
_symmetry_cell_setting 'monoclinic'
loop_
_space_group_symop_operation_xyz
x,y,z
-x,y,-z
-x,-y,-z
x,-y,z
1/2+x,1/2+y,z
1/2-x,1/2+y,-z
1/2-x,1/2-y,-z
1/2+x,1/2-y,z
loop_
_atom_site_type_symbol
_atom_site_label
_atom_site_fract_x
_atom_site_fract_y
_atom_site_fract_z
Si Si1 0.083646 0.671374 0.673990
Si Si2 0.393259 0.668828 0.181738
Si Si3 0.904617 0.829515 0.674393
Si Si4 0.255325 0.829558 0.425344
Si Si5 0.906011 0.832949 0.838452
Si Si6 0.737775 0.172138 0.074734
O O1 0.071615 0.500000 0.685080
O O2 0.121304 0.736250 0.747634
O O3 0.151814 0.708337 0.611193
O O4 0.990853 0.740977 0.650450
O O5 0.383258 0.500000 0.203926
O O6 0.490020 0.696596 0.148321
O O7 0.320734 0.717046 0.124040
O O8 0.823540 0.774721 0.626115
O O9 0.880793 0.796731 0.756605
O O10 0.925544 0.000000 0.664425
O O11 0.250000 0.750000 0.500000
O O12 0.245423 0.000000 0.439458
O O13 0.852900 0.725149 0.889530
O O14 0.881527 0.000000 0.857234
O O15 0.732749 0.000000 0.062668
O O16 0.750000 0.250000 0.000000
#
# Coordination Sequence:
#
# PCOD8099855 Si02
#       6
#     8   8   8   8   8   8
#     4  10  20  35  57  83 107 134 176 227 268 306
#     4   9  20  38  58  79 106 142 178 213 263 323
#     4   9  19  37  58  79 106 142 179 215 265 324
#     4  10  22  37  53  77 110 146 180 217 265 318
#     4   9  18  36  59  79 103 137 177 220 263 312
#     4  11  23  37  54  79 110 143 178 216 262 315
#
# _framework density 18.584681
#
# number of rings (size 3 to 8) (size 9 to 14) (size 15 to 20)
#    0.000    2.333    0.000    3.000    0.000    8.667 
#    0.000    6.667    0.000    0.000    0.000    0.000 
#    0.000    0.000    0.000    0.000    0.000    0.000 
#
# Total GULP energy -297685.648472 kJ/mol
# GULP energy per Si atom -12403.568686 kJ/mol
# Density = 1.854238 g / cm^3
# Si number density = 18.584681 Si / 1000 Ang^3
#
#
#
# Elastic Constant Matrix: (Units=GPa)
#
#
# Indices 1 2 3 4 5 6 
#
# 1 86.1299 45.5011 47.1803 0.0000 -17.6117 0.0000
# 2 45.5011 72.2582 49.0509 0.0000 -15.8206 0.0000
# 3 47.1803 49.0509 93.1474 0.0000 -21.0999 0.0000
# 4 0.0000 0.0000 0.0000 37.6673 0.0000 -3.4367
# 5 -17.6117 -15.8206 -21.0999 0.0000 21.3569 0.0000
# 6 0.0000 0.0000 0.0000 -3.4367 0.0000 34.1496
#
#
#
# Elastic Compliance Matrix: (Units=1/GPa)
#
#
# Indices 1 2 3 4 5 6 
#
# 1 0.019382 -0.008034 -0.004270 0.000000 0.005814 0.000000
# 2 -0.008034 0.025507 -0.008482 0.000000 0.003891 0.000000
# 3 -0.004270 -0.008482 0.019510 0.000000 0.009471 0.000000
# 4 0.000000 0.000000 0.000000 0.026794 0.000000 0.002696
# 5 0.005814 0.003891 0.009471 0.000000 0.063857 0.000000
# 6 0.000000 0.000000 0.000000 0.002696 0.000000 0.029554
#
#
# Mechanical properties :
#
#
# Convention : Reuss Voigt Hill
#
# Bulk Modulus (GPa) = 43.80267 59.44445 51.62356
# Shear Modulus (GPa) = 21.38711 25.95497 23.67104
#
# Velocity S-wave (km/s) = 3.39601 3.74114 3.57275
# Velocity P-wave (km/s) = 6.24481 7.12156 6.69755
#
# Compressibility (1/GPa) = 0.02282966
#
# Stress axis : x y z
#
# Youngs Moduli (GPa) = 51.59397 39.20430 51.25493
#
# Poissons Ratio (x) = 0.31495 0.21886
# Poissons Ratio (y) = 0.41448 0.43472
# Poissons Ratio (z) = 0.22030 0.33252
#
# Static dielectric constant tensor:
#      x y z
#    x 3.561380 0.000000 0.135850 
#    y 0.000000 3.393690 0.000000 
#    z 0.135850 0.000000 3.114780 
# 
# 
# High freq. dielectric constant tensor:
#      x y z
#    x 1.733620 0.000000 0.001440 
#    y 0.000000 1.721330 0.000000 
#    z 0.001440 0.000000 1.716740 
# 
# From -- ./inp_files/267656.got.cif
#   From: 2010.06.25/outbox.cif.g09.slc.cpg/sg12_134_cif.got.tgz:267656.got - 2010.06.28 00:19:55.
