data_PCOD8099476
_publ_section_title
;
Structure prediction by ZEFSAII (Michael W. Deem and Ramdas Pophale) SiO2 
 PCOD8099476
Probable space group: C 2/M
;
_chemical_formula_sum "Si O2"
_cell_formula_units_Z 56
_cell_length_a 18.441729
_cell_length_b 8.950744
_cell_length_c 29.389652
_cell_angle_alpha 90.000000
_cell_angle_beta 142.115849
_cell_angle_gamma 90.000000
_cell_volume 2979.002759
_symmetry_space_group_name_H-M "C 2/M"
_symmetry_group_IT_number 12
_symmetry_cell_setting 'monoclinic'
loop_
_space_group_symop_operation_xyz
x,y,z
-x,y,-z
-x,-y,-z
x,-y,z
1/2+x,1/2+y,z
1/2-x,1/2+y,-z
1/2-x,1/2-y,-z
1/2+x,1/2-y,z
loop_
_atom_site_type_symbol
_atom_site_label
_atom_site_fract_x
_atom_site_fract_y
_atom_site_fract_z
Si Si1 0.733411 0.174323 0.354859
Si Si2 0.132014 0.177534 0.070355
Si Si3 0.221734 0.175041 0.210972
Si Si4 0.591400 0.673972 0.638440
Si Si5 0.954728 0.175242 0.796146
Si Si6 0.674481 0.676848 0.501670
Si Si7 0.295691 0.822564 0.068554
O O1 0.842669 0.209924 0.375936
O O2 0.620307 0.271624 0.284527
O O3 0.771364 0.226936 0.423499
O O4 0.699425 0.000000 0.336208
O O5 0.188447 0.239671 0.145000
O O6 0.209804 0.231240 0.066431
O O7 0.126644 0.000000 0.070122
O O8 0.000000 0.243006 0.000000
O O9 0.344054 0.248163 0.287286
O O10 0.115723 0.215255 0.192786
O O11 0.243644 0.000000 0.220237
O O12 0.590646 0.500000 0.648585
O O13 0.459172 0.736849 0.568424
O O14 0.074458 0.267215 0.855566
O O15 0.981724 0.000000 0.805890
O O16 0.677740 0.500000 0.498518
O O17 0.750000 0.750000 0.500000
O O18 0.294717 0.000000 0.062851
O O19 0.250000 0.750000 0.000000
#
# Coordination Sequence:
#
# PCOD8099476 Si02
#       7
#     8   8   8   8   8   8   8
#     4   9  18  35  57  77 101 137 179 217 257 311
#     4   9  18  34  55  76 100 134 174 212 252 302
#     4   9  18  34  56  79 102 133 174 216 259 310
#     4   9  18  34  55  77 102 135 175 217 261 310
#     4  10  20  35  56  81 108 136 170 215 263 311
#     4  10  21  35  52  76 106 140 176 217 265 314
#     4  11  22  36  56  80 107 140 176 215 260 309
#
# _framework density 18.798237
#
# number of rings (size 3 to 8) (size 9 to 14) (size 15 to 20)
#    0.000    2.429    0.000    2.143    0.000    6.857 
#    0.000    5.714    0.000    7.286    0.000    0.000 
#    0.000    0.000    0.000    0.000    0.000    0.000 
#
# Total GULP energy -347266.074049 kJ/mol
# GULP energy per Si atom -12402.359787 kJ/mol
# Density = 1.875545 g / cm^3
# Si number density = 18.798237 Si / 1000 Ang^3
#
#
#
# Elastic Constant Matrix: (Units=GPa)
#
#
# Indices 1 2 3 4 5 6 
#
# 1 130.3421 41.3488 104.7025 0.0000 -6.4770 -0.0001
# 2 41.3488 41.4899 47.3227 0.0001 1.8688 -0.0001
# 3 104.7025 47.3227 184.9111 0.0000 -7.7328 0.0000
# 4 0.0000 0.0001 0.0000 35.2996 0.0000 -0.4770
# 5 -6.4770 1.8688 -7.7328 0.0000 38.7153 0.0000
# 6 -0.0001 -0.0001 0.0000 -0.4770 0.0000 27.0952
#
#
#
# Elastic Compliance Matrix: (Units=1/GPa)
#
#
# Indices 1 2 3 4 5 6 
#
# 1 0.015767 -0.008029 -0.006803 0.000000 0.001666 0.000000
# 2 -0.008029 0.038579 -0.005507 0.000000 -0.004305 0.000000
# 3 -0.006803 -0.005507 0.010723 0.000000 0.001269 0.000000
# 4 0.000000 0.000000 0.000000 0.028336 0.000000 0.000499
# 5 0.001666 -0.004305 0.001269 0.000000 0.026570 0.000000
# 6 0.000000 0.000000 0.000000 0.000499 0.000000 0.036916
#
#
# Mechanical properties :
#
#
# Convention : Reuss Voigt Hill
#
# Bulk Modulus (GPa) = 40.99982 82.61012 61.80497
# Shear Modulus (GPa) = 24.30748 31.11328 27.71038
#
# Velocity S-wave (km/s) = 3.59983 4.07273 3.84356
# Velocity P-wave (km/s) = 6.25589 8.13371 7.25580
#
# Compressibility (1/GPa) = 0.02439035
#
# Stress axis : x y z
#
# Youngs Moduli (GPa) = 63.42381 25.92094 93.25952
#
# Poissons Ratio (x) = 0.20811 0.63448
# Poissons Ratio (y) = 0.50920 0.51359
# Poissons Ratio (z) = 0.43150 0.14275
#
# Static dielectric constant tensor:
#      x y z
#    x 3.505230 0.000000 0.019900 
#    y 0.000000 3.258410 0.000000 
#    z 0.019900 0.000000 3.679210 
# 
# 
# High freq. dielectric constant tensor:
#      x y z
#    x 1.729900 0.000000 -0.000860 
#    y 0.000000 1.710990 0.000000 
#    z -0.000860 0.000000 1.747970 
# 
# From -- ./inp_files/377737.got.cif
#   From: 2010.06.25/outbox.cif.g09.slc.cpg/sg12_189_cif.got.tgz:377737.got - 2010.06.28 00:19:55.
