data_PCOD8099259
_publ_section_title
;
Structure prediction by ZEFSAII (Michael W. Deem and Ramdas Pophale) SiO2 
 PCOD8099259
Probable space group: C 2/M
;
_chemical_formula_sum "Si O2"
_cell_formula_units_Z 48
_cell_length_a 23.922309
_cell_length_b 12.187965
_cell_length_c 28.638010
_cell_angle_alpha 90.000000
_cell_angle_beta 161.278379
_cell_angle_gamma 90.000000
_cell_volume 2680.045212
_symmetry_space_group_name_H-M "C 2/M"
_symmetry_group_IT_number 12
_symmetry_cell_setting 'monoclinic'
loop_
_space_group_symop_operation_xyz
x,y,z
-x,y,-z
-x,-y,-z
x,-y,z
1/2+x,1/2+y,z
1/2-x,1/2+y,-z
1/2-x,1/2-y,-z
1/2+x,1/2-y,z
loop_
_atom_site_type_symbol
_atom_site_label
_atom_site_fract_x
_atom_site_fract_y
_atom_site_fract_z
Si Si1 0.849959 0.126566 0.970228
Si Si2 0.827494 0.871684 0.276593
Si Si3 0.500000 0.266831 0.500000
Si Si4 0.691538 0.628298 0.295921
Si Si5 0.780426 0.126984 0.576442
Si Si6 0.969879 0.228752 0.295207
Si Si7 0.000000 0.768149 0.000000
O O1 0.688558 0.205561 0.853746
O O2 0.792263 0.000000 0.928227
O O3 0.914839 0.150117 0.969510
O O4 0.000331 0.155477 0.125750
O O5 0.913764 0.841950 0.295423
O O6 0.645468 0.808325 0.139050
O O7 0.958069 0.841667 0.421980
O O8 0.788019 0.000000 0.246879
O O9 0.334498 0.191048 0.378902
O O10 0.733729 0.500000 0.324805
O O11 0.693127 0.670397 0.350224
O O12 0.614196 0.183764 0.422996
O O13 0.954601 0.148152 0.684422
O O14 0.737801 0.000000 0.543126
#
# Coordination Sequence:
#
# PCOD8099259 Si02
#       7
#     8   8   4   8   8   8   4
#     4  10  20  35  55  82 112 144 180 223 274 323
#     4  11  22  36  56  79 110 148 183 225 271 324
#     4  12  20  38  54  84 114 144 182 222 274 326
#     4  10  21  36  57  83 113 144 178 223 276 328
#     4  10  20  37  58  80 107 144 183 225 275 323
#     4  10  21  36  57  82 109 141 183 233 267 323
#     4  10  20  36  54  80 112 144 180 224 270 328
#
# _framework density 17.910146000000001
#
# number of rings (size 3 to 8) (size 9 to 14) (size 15 to 20)
#    0.000    1.667    3.333    2.000    0.000    0.667 
#    0.000    0.000    0.000    0.000    0.000    0.000 
#    0.000    0.000    0.000    0.000    0.000    0.000 
#
# Total GULP energy -297668.483722 kJ/mol
# GULP energy per Si atom -12402.853488 kJ/mol
# Density = 1.786938 g / cm^3
# Si number density = 17.910146 Si / 1000 Ang^3
#
#
#
# Elastic Constant Matrix: (Units=GPa)
#
#
# Indices 1 2 3 4 5 6 
#
# 1 66.5139 15.0836 23.2147 -0.0571 -5.8770 0.2020
# 2 15.0836 53.7732 28.5190 -0.0996 -6.8728 0.0722
# 3 23.2147 28.5190 87.0101 0.0630 0.2951 -0.0589
# 4 -0.0571 -0.0996 0.0630 21.6264 0.0684 -0.4478
# 5 -5.8770 -6.8728 0.2951 0.0684 20.8746 0.1230
# 6 0.2020 0.0722 -0.0589 -0.4478 0.1230 18.9510
#
#
#
# Elastic Compliance Matrix: (Units=1/GPa)
#
#
# Indices 1 2 3 4 5 6 
#
# 1 0.017270 -0.002250 -0.003885 0.000029 0.004178 -0.000214
# 2 -0.002250 0.024048 -0.007307 0.000100 0.007388 -0.000136
# 3 -0.003885 -0.007307 0.014937 -0.000073 -0.003711 0.000138
# 4 0.000029 0.000100 -0.000073 0.046263 -0.000116 0.001093
# 5 0.004178 0.007388 -0.003711 -0.000116 0.051569 -0.000422
# 6 -0.000214 -0.000136 0.000138 0.001093 -0.000422 0.052800
#
#
# Mechanical properties :
#
#
# Convention : Reuss Voigt Hill
#
# Bulk Modulus (GPa) = 34.04601 37.88131 35.96366
# Shear Modulus (GPa) = 20.52878 21.65574 21.09226
#
# Velocity S-wave (km/s) = 3.38924 3.48103 3.43544
# Velocity P-wave (km/s) = 5.86230 6.11175 5.98832
#
# Compressibility (1/GPa) = 0.02937202
#
# Stress axis : x y z
#
# Youngs Moduli (GPa) = 57.90288 41.58417 66.94738
#
# Poissons Ratio (x) = 0.09356 0.26007
# Poissons Ratio (y) = 0.13027 0.48918
# Poissons Ratio (z) = 0.22494 0.30385
#
# Static dielectric constant tensor:
#      x y z
#    x 3.383570 0.000010 -0.011630 
#    y 0.000010 3.223320 -0.000690 
#    z -0.011630 -0.000690 3.420240 
# 
# 
# High freq. dielectric constant tensor:
#      x y z
#    x 1.694270 0.000000 -0.001270 
#    y 0.000000 1.692760 -0.000050 
#    z -0.001270 -0.000050 1.703570 
# 
# From -- ./inp_files/367979.got.cif
#   From: 2010.06.25/outbox.cif.g09.slc.cpg/sg12_184_cif.got.tgz:367979.got - 2010.06.28 00:19:55.
