data_PCOD8099991
_publ_section_title
;
Structure prediction by ZEFSAII (Michael W. Deem and Ramdas Pophale) SiO2 
 PCOD8099991
Probable space group: C 2/M
;
_chemical_formula_sum "Si O2"
_cell_formula_units_Z 48
_cell_length_a 26.147018
_cell_length_b 10.289986
_cell_length_c 14.227936
_cell_angle_alpha 90.000000
_cell_angle_beta 40.688907
_cell_angle_gamma 90.000000
_cell_volume 2495.710549
_symmetry_space_group_name_H-M "C 2/M"
_symmetry_group_IT_number 12
_symmetry_cell_setting 'monoclinic'
loop_
_space_group_symop_operation_xyz
x,y,z
-x,y,-z
-x,-y,-z
x,-y,z
1/2+x,1/2+y,z
1/2-x,1/2+y,-z
1/2-x,1/2-y,-z
1/2+x,1/2-y,z
loop_
_atom_site_type_symbol
_atom_site_label
_atom_site_fract_x
_atom_site_fract_y
_atom_site_fract_z
Si Si1 0.851496 0.851398 0.119965
Si Si2 0.821446 0.356189 0.699358
Si Si3 0.920910 0.149474 0.668273
Si Si4 0.303907 0.141193 0.327405
Si Si5 0.978173 0.848363 0.790390
Si Si6 0.853989 0.728636 0.452654
O O1 0.771989 0.835818 0.171542
O O2 0.851681 0.755714 0.208980
O O3 0.860626 0.000000 0.143542
O O4 0.923305 0.810514 0.953887
O O5 0.841416 0.500000 0.712034
O O6 0.855142 0.243574 0.718114
O O7 0.856963 0.351906 0.544953
O O8 0.936236 0.196033 0.752934
O O9 0.000000 0.166109 0.500000
O O10 0.891146 0.000000 0.704622
O O11 0.210158 0.157068 0.445675
O O12 0.325617 0.138282 0.407009
O O13 0.326012 0.000000 0.254172
O O14 0.060700 0.780575 0.690437
O O15 0.994371 0.000000 0.761802
#
# Coordination Sequence:
#
# PCOD8099991 Si02
#       6
#     8   8   8   8   8   8
#     4   9  21  39  57  79 112 149 184 223 271 329
#     4  10  20  36  56  81 114 147 178 220 276 330
#     4  10  20  35  57  85 110 139 185 232 269 316
#     4  10  21  37  58  84 112 144 184 229 277 326
#     4  10  20  37  58  81 109 145 187 228 270 323
#     4  10  20  35  58  83 109 144 186 229 272 321
#
# _framework density 19.233000000000001
#
# number of rings (size 3 to 8) (size 9 to 14) (size 15 to 20)
#    0.000    2.167    1.667    1.000    0.000    9.000 
#    0.000    5.000    0.000    0.000    0.000    0.000 
#    0.000    0.000    0.000    0.000    0.000    0.000 
#
# Total GULP energy -297573.799492 kJ/mol
# GULP energy per Si atom -12398.908312 kJ/mol
# Density = 1.918922 g / cm^3
# Si number density = 19.233000 Si / 1000 Ang^3
#
#
#
# Elastic Constant Matrix: (Units=GPa)
#
#
# Indices 1 2 3 4 5 6 
#
# 1 66.9464 42.5732 26.1908 0.0000 -2.5449 0.0000
# 2 42.5732 104.7690 40.6948 0.0000 2.7662 0.0000
# 3 26.1908 40.6948 117.0394 0.0000 -9.7967 0.0000
# 4 0.0000 0.0000 0.0000 17.8116 0.0000 3.8226
# 5 -2.5449 2.7662 -9.7967 0.0000 24.6253 0.0000
# 6 0.0000 0.0000 0.0000 3.8226 0.0000 13.1243
#
#
#
# Elastic Compliance Matrix: (Units=1/GPa)
#
#
# Indices 1 2 3 4 5 6 
#
# 1 0.020649 -0.007784 -0.001720 0.000000 0.002324 0.000000
# 2 -0.007784 0.014168 -0.003501 0.000000 -0.003789 0.000000
# 3 -0.001720 -0.003501 0.010515 0.000000 0.004399 0.000000
# 4 0.000000 0.000000 0.000000 0.059887 0.000000 -0.017443
# 5 0.002324 -0.003789 0.004399 0.000000 0.043024 0.000000
# 6 0.000000 0.000000 0.000000 -0.017443 0.000000 0.081275
#
#
# Mechanical properties :
#
#
# Convention : Reuss Voigt Hill
#
# Bulk Modulus (GPa) = 51.75756 56.40804 54.08280
# Shear Modulus (GPa) = 19.08633 23.06531 21.07582
#
# Velocity S-wave (km/s) = 3.15361 3.46679 3.31390
# Velocity P-wave (km/s) = 6.34268 6.73923 6.54396
#
# Compressibility (1/GPa) = 0.01932085
#
# Stress axis : x y z
#
# Youngs Moduli (GPa) = 48.42960 70.58171 95.10583
#
# Poissons Ratio (x) = 0.54941 0.16354
# Poissons Ratio (y) = 0.37698 0.33301
# Poissons Ratio (z) = 0.08328 0.24714
#
# Static dielectric constant tensor:
#      x y z
#    x 3.562260 0.000000 0.070020 
#    y 0.000000 3.474170 0.000000 
#    z 0.070020 0.000000 3.487140 
# 
# 
# High freq. dielectric constant tensor:
#      x y z
#    x 1.744610 0.000000 0.001190 
#    y 0.000000 1.742070 0.000000 
#    z 0.001190 0.000000 1.743680 
# 
# From -- ./inp_files/244771.got.cif
#   From: 2010.06.25/outbox.cif.g09.slc.cpg/sg12_123_cif.got.tgz:244771.got - 2010.06.28 00:19:55.
