data_PCOD8099940
_publ_section_title
;
Structure prediction by ZEFSAII (Michael W. Deem and Ramdas Pophale) SiO2 
 PCOD8099940
Probable space group: C 2/M
;
_chemical_formula_sum "Si O2"
_cell_formula_units_Z 64
_cell_length_a 32.248966
_cell_length_b 13.421077
_cell_length_c 8.873853
_cell_angle_alpha 90.000000
_cell_angle_beta 121.709570
_cell_angle_gamma 90.000000
_cell_volume 3267.410761
_symmetry_space_group_name_H-M "C 2/M"
_symmetry_group_IT_number 12
_symmetry_cell_setting 'monoclinic'
loop_
_space_group_symop_operation_xyz
x,y,z
-x,y,-z
-x,-y,-z
x,-y,z
1/2+x,1/2+y,z
1/2-x,1/2+y,-z
1/2-x,1/2-y,-z
1/2+x,1/2-y,z
loop_
_atom_site_type_symbol
_atom_site_label
_atom_site_fract_x
_atom_site_fract_y
_atom_site_fract_z
Si Si1 0.588319 0.802460 0.847463
Si Si2 0.128903 0.108386 0.601228
Si Si3 0.000989 0.612743 0.833597
Si Si4 0.409958 0.192052 0.508061
Si Si5 0.180898 0.383846 0.177124
Si Si6 0.181976 0.387965 0.529977
Si Si7 0.771034 0.787143 0.196107
Si Si8 0.452632 0.608142 0.310552
O O1 0.554350 0.885209 0.860682
O O2 0.593514 0.816632 0.678763
O O3 0.561283 0.696237 0.832873
O O4 0.641368 0.812639 0.021672
O O5 0.105047 0.197599 0.457884
O O6 0.182763 0.143362 0.750997
O O7 0.095888 0.096238 0.684416
O O8 0.130972 0.000000 0.521381
O O9 0.982263 0.500000 0.803817
O O10 0.964997 0.675031 0.660341
O O11 0.000000 0.657936 0.000000
O O12 0.373108 0.113337 0.511094
O O13 0.169818 0.500000 0.122712
O O14 0.180378 0.359894 0.352139
O O15 0.233358 0.355722 0.213221
O O16 0.202600 0.500000 0.592315
O O17 0.216163 0.310175 0.681251
O O18 0.750000 0.750000 0.000000
O O19 0.500000 0.638895 0.500000
O O20 0.462958 0.500000 0.251702
#
# Coordination Sequence:
#
# PCOD8099940 Si02
#       8
#     8   8   8   8   8   8   8   8
#     4  11  21  35  57  85 111 143 189 234 275 327
#     4   9  18  33  54  81 110 141 177 222 276 326
#     4  11  23  37  54  78 111 150 184 222 282 345
#     4  10  20  35  57  84 111 141 184 235 276 326
#     4  11  23  39  57  79 113 154 188 227 285 344
#     4  10  22  39  58  81 113 151 186 226 284 347
#     4  11  22  37  59  86 112 142 189 241 283 327
#     4   9  17  32  55  82 113 144 177 224 279 329
#
# _framework density 19.587375000000002
#
# number of rings (size 3 to 8) (size 9 to 14) (size 15 to 20)
#    0.000    1.750    0.000    6.375    0.000    6.500 
#    0.000    0.625    0.000    8.250    0.000    0.000 
#    0.000    0.000    0.000    0.000    0.000    0.000 
#
# Total GULP energy -396624.961183 kJ/mol
# GULP energy per Si atom -12394.530037 kJ/mol
# Density = 1.954279 g / cm^3
# Si number density = 19.587375 Si / 1000 Ang^3
#
#
#
# Elastic Constant Matrix: (Units=GPa)
#
#
# Indices 1 2 3 4 5 6 
#
# 1 108.9692 26.5909 47.3781 0.0000 5.3882 0.0000
# 2 26.5909 111.9396 55.4331 0.0000 1.8693 0.0000
# 3 47.3781 55.4331 108.3118 0.0000 2.3982 0.0000
# 4 0.0000 0.0000 0.0000 24.0333 0.0000 4.0600
# 5 5.3882 1.8693 2.3982 0.0000 37.4385 0.0000
# 6 0.0000 0.0000 0.0000 4.0600 0.0000 27.0329
#
#
#
# Elastic Compliance Matrix: (Units=1/GPa)
#
#
# Indices 1 2 3 4 5 6 
#
# 1 0.011405 -0.000310 -0.004801 0.000000 -0.001318 0.000000
# 2 -0.000310 0.011976 -0.005990 0.000000 -0.000170 0.000000
# 3 -0.004801 -0.005990 0.014397 0.000000 0.000068 0.000000
# 4 0.000000 0.000000 0.000000 0.042692 0.000000 -0.006412
# 5 -0.001318 -0.000170 0.000068 0.000000 0.026904 0.000000
# 6 0.000000 0.000000 0.000000 -0.006412 0.000000 0.037955
#
#
# Mechanical properties :
#
#
# Convention : Reuss Voigt Hill
#
# Bulk Modulus (GPa) = 64.20003 65.33612 64.76807
# Shear Modulus (GPa) = 28.94802 31.02219 29.98511
#
# Velocity S-wave (km/s) = 3.84851 3.98400 3.91684
# Velocity P-wave (km/s) = 7.25227 7.38861 7.32076
#
# Compressibility (1/GPa) = 0.01557632
#
# Stress axis : x y z
#
# Youngs Moduli (GPa) = 87.67963 83.49967 69.45926
#
# Poissons Ratio (x) = 0.02586 0.33349
# Poissons Ratio (y) = 0.02715 0.41607
# Poissons Ratio (z) = 0.42097 0.50017
#
# Static dielectric constant tensor:
#      x y z
#    x 3.645760 0.000000 0.156960 
#    y 0.000000 4.194100 0.000000 
#    z 0.156960 0.000000 3.374920 
# 
# 
# High freq. dielectric constant tensor:
#      x y z
#    x 1.771170 0.000000 0.019890 
#    y 0.000000 1.777130 0.000000 
#    z 0.019890 0.000000 1.740010 
# 
# From -- ./inp_files/112048.got.cif
#   From: 2010.06.25/outbox.cif.g09.slc.cpg/sg12_57_cif.got.tgz:112048.got - 2010.06.28 00:19:55.
