data_PCOD8099688
_publ_section_title
;
Structure prediction by ZEFSAII (Michael W. Deem and Ramdas Pophale) SiO2 
 PCOD8099688
Probable space group: C 2/M
;
_chemical_formula_sum "Si O2"
_cell_formula_units_Z 64
_cell_length_a 28.205455
_cell_length_b 8.816955
_cell_length_c 30.690619
_cell_angle_alpha 90.000000
_cell_angle_beta 27.383657
_cell_angle_gamma 90.000000
_cell_volume 3510.465630
_symmetry_space_group_name_H-M "C 2/M"
_symmetry_group_IT_number 12
_symmetry_cell_setting 'monoclinic'
loop_
_space_group_symop_operation_xyz
x,y,z
-x,y,-z
-x,-y,-z
x,-y,z
1/2+x,1/2+y,z
1/2-x,1/2+y,-z
1/2-x,1/2-y,-z
1/2+x,1/2-y,z
loop_
_atom_site_type_symbol
_atom_site_label
_atom_site_fract_x
_atom_site_fract_y
_atom_site_fract_z
Si Si1 0.681096 0.177764 0.018736
Si Si2 0.101750 0.325061 0.554313
Si Si3 0.259894 0.323342 0.351469
Si Si4 0.975434 0.821845 0.301135
Si Si5 0.114181 0.325171 0.310100
Si Si6 0.117806 0.822832 0.395771
Si Si7 0.549188 0.822269 0.768408
Si Si8 0.813246 0.676904 0.842602
O O1 0.562380 0.221709 0.121942
O O2 0.699049 0.000000 0.005382
O O3 0.750000 0.250000 0.000000
O O4 0.714943 0.241202 0.943982
O O5 0.093634 0.500000 0.575324
O O6 0.202369 0.290944 0.444005
O O7 0.104591 0.222985 0.595388
O O8 0.002629 0.281233 0.606433
O O9 0.283171 0.500000 0.326422
O O10 0.190933 0.269516 0.367880
O O11 0.366501 0.230449 0.264971
O O12 0.083485 0.738065 0.219397
O O13 0.927498 0.769800 0.294663
O O14 0.993914 0.000000 0.286166
O O15 0.121617 0.500000 0.318514
O O16 0.150476 0.218971 0.319901
O O17 0.187041 0.292407 0.208972
O O18 0.000000 0.772629 0.500000
O O19 0.133508 0.000000 0.391237
O O20 0.558549 0.000000 0.751638
O O21 0.808360 0.500000 0.857193
#
# Coordination Sequence:
#
# PCOD8099688 Si02
#       8
#     8   8   8   8   8   8   8   8
#     4  11  22  36  59  85 112 149 188 233 283 336
#     4   9  19  35  54  78 111 149 188 231 277 326
#     4  11  23  39  59  81 110 151 194 233 280 337
#     4  11  21  33  54  81 111 150 192 228 273 335
#     4   9  18  34  56  82 112 147 183 227 281 330
#     4  11  22  35  56  86 116 147 186 232 280 330
#     4  11  24  40  56  79 115 151 187 234 285 333
#     4  10  20  35  56  84 116 146 183 234 283 329
#
# _framework density 18.231200000000001
#
# number of rings (size 3 to 8) (size 9 to 14) (size 15 to 20)
#    0.000    1.625    2.500    3.750    0.000    6.000 
#    0.000    0.000    0.000    0.750    0.000    5.250 
#    0.000    0.000    0.000    0.000    0.000    0.000 
#
# Total GULP energy -396935.345655 kJ/mol
# GULP energy per Si atom -12404.229552 kJ/mol
# Density = 1.818970 g / cm^3
# Si number density = 18.231200 Si / 1000 Ang^3
#
#
#
# Elastic Constant Matrix: (Units=GPa)
#
#
# Indices 1 2 3 4 5 6 
#
# 1 86.2987 37.4587 50.7476 -0.0055 3.2240 0.0012
# 2 37.4587 82.9269 51.4630 -0.0430 2.9784 0.0255
# 3 50.7476 51.4630 101.5021 -0.0049 -1.7911 0.0009
# 4 -0.0055 -0.0430 -0.0049 29.4357 0.0109 2.7581
# 5 3.2240 2.9784 -1.7911 0.0109 22.8639 -0.0053
# 6 0.0012 0.0255 0.0009 2.7581 -0.0053 33.5300
#
#
#
# Elastic Compliance Matrix: (Units=1/GPa)
#
#
# Indices 1 2 3 4 5 6 
#
# 1 0.017236 -0.003384 -0.006946 -0.000002 -0.002534 0.000002
# 2 -0.003384 0.018466 -0.007716 0.000028 -0.002533 -0.000016
# 3 -0.006946 -0.007716 0.017296 -0.000012 0.003340 0.000007
# 4 -0.000002 0.000028 -0.000012 0.034236 -0.000021 -0.002816
# 5 -0.002534 -0.002533 0.003340 -0.000021 0.044686 0.000011
# 6 0.000002 -0.000016 0.000007 -0.002816 0.000011 0.030056
#
#
# Mechanical properties :
#
#
# Convention : Reuss Voigt Hill
#
# Bulk Modulus (GPa) = 59.14891 61.11846 60.13368
# Shear Modulus (GPa) = 24.54547 25.90315 25.22431
#
# Velocity S-wave (km/s) = 3.67324 3.77346 3.72369
# Velocity P-wave (km/s) = 7.10665 7.25136 7.17937
#
# Compressibility (1/GPa) = 0.01690648
#
# Stress axis : x y z
#
# Youngs Moduli (GPa) = 58.01848 54.15217 57.81708
#
# Poissons Ratio (x) = 0.18323 0.40163
# Poissons Ratio (y) = 0.19632 0.44610
# Poissons Ratio (z) = 0.40302 0.41782
#
# Static dielectric constant tensor:
#      x y z
#    x 3.296790 -0.000030 0.213550 
#    y -0.000030 3.389490 0.000020 
#    z 0.213550 0.000020 3.415430 
# 
# 
# High freq. dielectric constant tensor:
#      x y z
#    x 1.695880 0.000000 0.013480 
#    y 0.000000 1.717630 0.000000 
#    z 0.013480 0.000000 1.694480 
# 
# From -- ./inp_files/382358.got.cif
#   From: 2010.06.25/outbox.cif.g09.slc.cpg/sg12_192_cif.got.tgz:382358.got - 2010.06.28 00:19:55.
