data_PCOD8099407
_publ_section_title
;
Structure prediction by ZEFSAII (Michael W. Deem and Ramdas Pophale) SiO2 
 PCOD8099407
Probable space group: C 2/M
;
_chemical_formula_sum "Si O2"
_cell_formula_units_Z 56
_cell_length_a 23.501530
_cell_length_b 9.115689
_cell_length_c 13.542797
_cell_angle_alpha 90.000000
_cell_angle_beta 103.273633
_cell_angle_gamma 90.000000
_cell_volume 2823.799606
_symmetry_space_group_name_H-M "C 2/M"
_symmetry_group_IT_number 12
_symmetry_cell_setting 'monoclinic'
loop_
_space_group_symop_operation_xyz
x,y,z
-x,y,-z
-x,-y,-z
x,-y,z
1/2+x,1/2+y,z
1/2-x,1/2+y,-z
1/2-x,1/2-y,-z
1/2+x,1/2-y,z
loop_
_atom_site_type_symbol
_atom_site_label
_atom_site_fract_x
_atom_site_fract_y
_atom_site_fract_z
Si Si1 0.138225 0.832157 0.131986
Si Si2 0.736744 0.831839 0.893647
Si Si3 0.055678 0.672664 0.959519
Si Si4 0.344598 0.331571 0.283785
Si Si5 0.465999 0.332184 0.249340
Si Si6 0.404135 0.672492 0.675407
Si Si7 0.691585 0.325292 0.514172
O O1 0.208138 0.819622 0.157841
O O2 0.115022 0.763285 0.225572
O O3 0.117591 0.000000 0.111730
O O4 0.113449 0.741083 0.030371
O O5 0.681770 0.761516 0.816291
O O6 0.721727 0.000000 0.912246
O O7 0.750000 0.750000 0.000000
O O8 0.062978 0.500000 0.961524
O O9 0.048926 0.727696 0.846570
O O10 0.000000 0.724609 0.000000
O O11 0.326405 0.500000 0.259832
O O12 0.415195 0.314831 0.310810
O O13 0.321199 0.274406 0.379294
O O14 0.469597 0.500000 0.212629
O O15 0.528500 0.285445 0.320998
O O16 0.394849 0.500000 0.675323
O O17 0.362215 0.735258 0.573402
O O18 0.698042 0.500000 0.509461
O O19 0.750000 0.250000 0.500000
#
# Coordination Sequence:
#
# PCOD8099407 Si02
#       7
#     8   8   8   8   8   8   8
#     4  10  20  35  56  80 106 145 193 233 273 331
#     4  11  23  38  58  83 114 151 192 234 281 338
#     4  11  22  34  51  81 117 149 182 227 283 336
#     4  10  22  38  58  86 117 149 188 235 286 338
#     4  10  20  36  58  82 111 150 191 229 277 339
#     4   9  18  34  58  83 107 140 186 233 276 327
#     4  10  21  39  61  86 115 146 187 237 286 337
#
# _framework density 19.831436
#
# number of rings (size 3 to 8) (size 9 to 14) (size 15 to 20)
#    0.000    1.857    1.429    2.571    0.000    8.000 
#    0.000    4.286    0.000    0.000    0.000    3.000 
#    0.000    0.000    0.000    0.000    0.000    0.000 
#
# Total GULP energy -347266.531603 kJ/mol
# GULP energy per Si atom -12402.376129 kJ/mol
# Density = 1.978630 g / cm^3
# Si number density = 19.831436 Si / 1000 Ang^3
#
#
#
# Elastic Constant Matrix: (Units=GPa)
#
#
# Indices 1 2 3 4 5 6 
#
# 1 131.5854 35.0242 57.9562 0.0000 4.5971 0.0000
# 2 35.0242 61.1413 39.5976 0.0000 1.7777 0.0000
# 3 57.9562 39.5976 134.1521 0.0000 10.6583 0.0000
# 4 0.0000 0.0000 0.0000 18.6391 0.0000 -0.6893
# 5 4.5971 1.7777 10.6583 0.0000 38.1248 0.0000
# 6 0.0000 0.0000 0.0000 -0.6893 0.0000 28.6678
#
#
#
# Elastic Compliance Matrix: (Units=1/GPa)
#
#
# Indices 1 2 3 4 5 6 
#
# 1 0.009995 -0.003625 -0.003238 0.000000 -0.000131 0.000000
# 2 -0.003625 0.021556 -0.004860 0.000000 0.000790 0.000000
# 3 -0.003238 -0.004860 0.010471 0.000000 -0.002310 0.000000
# 4 0.000000 0.000000 0.000000 0.053698 0.000000 0.001291
# 5 -0.000131 0.000790 -0.002310 0.000000 0.026854 0.000000
# 6 0.000000 0.000000 0.000000 0.001291 0.000000 0.034913
#
#
# Mechanical properties :
#
#
# Convention : Reuss Voigt Hill
#
# Bulk Modulus (GPa) = 53.82707 65.78164 59.80435
# Shear Modulus (GPa) = 26.72003 30.03972 28.37987
#
# Velocity S-wave (km/s) = 3.67462 3.89620 3.78703
# Velocity P-wave (km/s) = 6.72346 7.31320 7.02453
#
# Compressibility (1/GPa) = 0.01857801
#
# Stress axis : x y z
#
# Youngs Moduli (GPa) = 100.04927 46.39011 95.50278
#
# Poissons Ratio (x) = 0.16816 0.30921
# Poissons Ratio (y) = 0.36267 0.46410
# Poissons Ratio (z) = 0.32393 0.22543
#
# Static dielectric constant tensor:
#      x y z
#    x 3.868760 0.000000 0.026580 
#    y 0.000000 3.393730 0.000000 
#    z 0.026580 0.000000 3.595980 
# 
# 
# High freq. dielectric constant tensor:
#      x y z
#    x 1.791360 0.000000 0.001550 
#    y 0.000000 1.750280 0.000000 
#    z 0.001550 0.000000 1.767790 
# 
# From -- ./inp_files/237814.got.cif
#   From: 2010.06.25/outbox.cif.g09.slc.cpg/sg12_119_cif.got.tgz:237814.got - 2010.06.28 00:19:55.
