data_PCOD8099164
_publ_section_title
;
Structure prediction by ZEFSAII (Michael W. Deem and Ramdas Pophale) SiO2 
 PCOD8099164
Probable space group: C 2/M
;
_chemical_formula_sum "Si O2"
_cell_formula_units_Z 56
_cell_length_a 18.146024
_cell_length_b 8.818998
_cell_length_c 18.559770
_cell_angle_alpha 90.000000
_cell_angle_beta 76.003986
_cell_angle_gamma 90.000000
_cell_volume 2881.940203
_symmetry_space_group_name_H-M "C 2/M"
_symmetry_group_IT_number 12
_symmetry_cell_setting 'monoclinic'
loop_
_space_group_symop_operation_xyz
x,y,z
-x,y,-z
-x,-y,-z
x,-y,z
1/2+x,1/2+y,z
1/2-x,1/2+y,-z
1/2-x,1/2-y,-z
1/2+x,1/2-y,z
loop_
_atom_site_type_symbol
_atom_site_label
_atom_site_fract_x
_atom_site_fract_y
_atom_site_fract_z
Si Si1 0.899382 0.822461 0.223047
Si Si2 0.269860 0.821074 0.776941
Si Si3 0.557781 0.826194 0.928321
Si Si4 0.621230 0.676658 0.360602
Si Si5 0.229986 0.675466 0.929927
Si Si6 0.829030 0.321332 0.504043
Si Si7 0.553276 0.323257 0.630683
O O1 0.811391 0.773742 0.237473
O O2 0.950144 0.751549 0.147631
O O3 0.931326 0.765687 0.291893
O O4 0.908008 0.000000 0.212913
O O5 0.334833 0.731142 0.720154
O O6 0.275201 0.766843 0.858003
O O7 0.283976 0.000000 0.768579
O O8 0.640978 0.804032 0.939998
O O9 0.536014 0.000000 0.921330
O O10 0.500000 0.752327 0.000000
O O11 0.636580 0.500000 0.370894
O O12 0.650749 0.771678 0.420603
O O13 0.532903 0.709281 0.369772
O O14 0.254440 0.500000 0.922366
O O15 0.250000 0.750000 0.000000
O O16 0.820103 0.500000 0.504328
O O17 0.750000 0.250000 0.500000
O O18 0.895019 0.271827 0.434875
O O19 0.574213 0.500000 0.617867
#
# Coordination Sequence:
#
# PCOD8099164 Si02
#       7
#     8   8   8   8   8   8   8
#     4   9  19  36  57  80 107 144 187 229 276 332
#     4  10  20  36  58  82 111 149 194 238 280 337
#     4   9  19  35  54  78 108 142 181 228 279 330
#     4  11  23  39  60  87 120 154 188 233 287 338
#     4  10  20  35  55  79 110 146 186 234 287 343
#     4  12  25  41  63  88 115 151 194 236 282 339
#     4  10  22  40  60  86 120 152 186 233 286 338
#
# _framework density 19.431353000000001
#
# number of rings (size 3 to 8) (size 9 to 14) (size 15 to 20)
#    0.000    1.857    0.000    3.857    0.000    7.143 
#    0.000    2.857    0.000    0.000    0.000    0.000 
#    0.000    0.000    0.000    0.000    0.000    0.000 
#
# Total GULP energy -347321.234194 kJ/mol
# GULP energy per Si atom -12404.329793 kJ/mol
# Density = 1.938713 g / cm^3
# Si number density = 19.431353 Si / 1000 Ang^3
#
#
#
# Elastic Constant Matrix: (Units=GPa)
#
#
# Indices 1 2 3 4 5 6 
#
# 1 87.0132 51.5698 62.4081 0.0000 -0.1952 0.0000
# 2 51.5698 80.6983 49.4930 0.0000 -8.1141 0.0000
# 3 62.4081 49.4930 150.7267 0.0000 -6.2687 0.0000
# 4 0.0000 0.0000 0.0000 33.8863 0.0000 -0.5004
# 5 -0.1952 -8.1141 -6.2687 0.0000 41.0796 0.0000
# 6 0.0000 0.0000 0.0000 -0.5004 0.0000 25.9777
#
#
#
# Elastic Compliance Matrix: (Units=1/GPa)
#
#
# Indices 1 2 3 4 5 6 
#
# 1 0.021986 -0.010875 -0.005653 0.000000 -0.002906 0.000000
# 2 -0.010875 0.021115 -0.002274 0.000000 0.003772 0.000000
# 3 -0.005653 -0.002274 0.009764 0.000000 0.001014 0.000000
# 4 0.000000 0.000000 0.000000 0.029519 0.000000 0.000569
# 5 -0.002906 0.003772 0.001014 0.000000 0.025229 0.000000
# 6 0.000000 0.000000 0.000000 0.000569 0.000000 0.038506
#
#
# Mechanical properties :
#
#
# Convention : Reuss Voigt Hill
#
# Bulk Modulus (GPa) = 65.52562 71.70891 68.61726
# Shear Modulus (GPa) = 26.48174 30.51987 28.50080
#
# Velocity S-wave (km/s) = 3.69567 3.96744 3.83396
# Velocity P-wave (km/s) = 7.21148 7.61389 7.41541
#
# Compressibility (1/GPa) = 0.01526121
#
# Stress axis : x y z
#
# Youngs Moduli (GPa) = 45.48389 47.35908 102.41718
#
# Poissons Ratio (x) = 0.51503 0.57898
# Poissons Ratio (y) = 0.49464 0.23288
# Poissons Ratio (z) = 0.25713 0.10768
#
# Static dielectric constant tensor:
#      x y z
#    x 3.551420 0.000000 -0.035070 
#    y 0.000000 3.618960 0.000000 
#    z -0.035070 0.000000 3.747280 
# 
# 
# High freq. dielectric constant tensor:
#      x y z
#    x 1.755260 0.000000 0.000440 
#    y 0.000000 1.759250 0.000000 
#    z 0.000440 0.000000 1.775420 
# 
# From -- ./inp_files/275033.got.cif
#   From: 2010.06.25/outbox.cif.g09.slc.cpg/sg12_138_cif.got.tgz:275033.got - 2010.06.28 00:19:55.
