data_PCOD8099305
_publ_section_title
;
Structure prediction by ZEFSAII (Michael W. Deem and Ramdas Pophale) SiO2 
 PCOD8099305
Probable space group: C 2/M
;
_chemical_formula_sum "Si O2"
_cell_formula_units_Z 64
_cell_length_a 28.446037
_cell_length_b 8.977382
_cell_length_c 18.034915
_cell_angle_alpha 90.000000
_cell_angle_beta 43.646476
_cell_angle_gamma 90.000000
_cell_volume 3178.811452
_symmetry_space_group_name_H-M "C 2/M"
_symmetry_group_IT_number 12
_symmetry_cell_setting 'monoclinic'
loop_
_space_group_symop_operation_xyz
x,y,z
-x,y,-z
-x,-y,-z
x,-y,z
1/2+x,1/2+y,z
1/2-x,1/2+y,-z
1/2-x,1/2-y,-z
1/2+x,1/2-y,z
loop_
_atom_site_type_symbol
_atom_site_label
_atom_site_fract_x
_atom_site_fract_y
_atom_site_fract_z
Si Si1 0.317325 0.322440 0.956432
Si Si2 0.953570 0.324546 0.756832
Si Si3 0.064709 0.328165 0.744579
Si Si4 0.196948 0.669644 0.510281
Si Si5 0.312198 0.676193 0.131147
Si Si6 0.572730 0.676778 0.889689
Si Si7 0.038192 0.168596 0.533284
Si Si8 0.679214 0.825812 0.364884
O O1 0.312927 0.500000 0.954108
O O2 0.382255 0.262555 0.837125
O O3 0.250000 0.250000 0.000000
O O4 0.325318 0.269858 0.032537
O O5 0.940438 0.500000 0.762160
O O6 0.991661 0.290489 0.791356
O O7 0.999678 0.271256 0.636181
O O8 0.068277 0.500000 0.764287
O O9 0.119589 0.287640 0.618723
O O10 0.082934 0.229800 0.794445
O O11 0.210362 0.500000 0.511843
O O12 0.250000 0.750000 0.500000
O O13 0.210599 0.708003 0.409550
O O14 0.316674 0.500000 0.131269
O O15 0.369396 0.743301 0.121439
O O16 0.236525 0.727451 0.241232
O O17 0.575371 0.500000 0.886746
O O18 0.500000 0.737006 0.000000
O O19 0.112570 0.229404 0.429143
O O20 0.000000 0.172798 0.500000
O O21 0.042992 0.000000 0.558757
O O22 0.660794 0.000000 0.377123
#
# Coordination Sequence:
#
# PCOD8099305 Si02
#       8
#     8   8   8   8   8   8   8   8
#     4  11  24  43  65  94 126 161 208 261 311 365
#     4  11  23  43  67  91 122 165 208 250 306 373
#     4  10  21  37  57  86 122 156 198 247 302 357
#     4  10  20  35  55  84 120 158 200 245 292 352
#     4   9  20  38  61  89 123 163 207 251 301 365
#     4  10  20  36  60  88 117 157 207 252 300 359
#     4  11  25  42  62  93 125 155 199 261 317 364
#     4  10  20  39  62  86 121 166 207 245 296 369
#
# _framework density 20.133310999999999
#
# number of rings (size 3 to 8) (size 9 to 14) (size 15 to 20)
#    0.000    1.750    1.250    2.625    1.750    5.250 
#    0.000    2.500    0.000    0.000    0.000    0.000 
#    0.000    0.000    0.000    0.000    0.000    0.000 
#
# Total GULP energy -396849.586420 kJ/mol
# GULP energy per Si atom -12401.549576 kJ/mol
# Density = 2.008749 g / cm^3
# Si number density = 20.133311 Si / 1000 Ang^3
#
#
#
# Elastic Constant Matrix: (Units=GPa)
#
#
# Indices 1 2 3 4 5 6 
#
# 1 111.9758 45.2168 40.8987 0.0026 -17.5796 0.0007
# 2 45.2168 64.3386 29.3327 0.0300 -5.5372 -0.0167
# 3 40.8987 29.3327 97.2708 0.0287 -6.7332 -0.0156
# 4 0.0026 0.0300 0.0287 28.7771 -0.0119 -0.1785
# 5 -17.5796 -5.5372 -6.7332 -0.0119 35.4859 0.0041
# 6 0.0007 -0.0167 -0.0156 -0.1785 0.0041 28.9191
#
#
#
# Elastic Compliance Matrix: (Units=1/GPa)
#
#
# Indices 1 2 3 4 5 6 
#
# 1 0.014148 -0.008058 -0.003162 0.000012 0.005152 -0.000007
# 2 -0.008058 0.022725 -0.003542 -0.000020 -0.001118 0.000011
# 3 -0.003162 -0.003542 0.012698 -0.000009 0.000290 0.000005
# 4 0.000012 -0.000020 -0.000009 0.034751 0.000013 0.000214
# 5 0.005152 -0.001118 0.000290 0.000013 0.030613 -0.000005
# 6 -0.000007 0.000011 0.000005 0.000214 -0.000005 0.034581
#
#
# Mechanical properties :
#
#
# Convention : Reuss Voigt Hill
#
# Bulk Modulus (GPa) = 49.88422 56.05350 52.96886
# Shear Modulus (GPa) = 26.92180 29.17887 28.05034
#
# Velocity S-wave (km/s) = 3.66071 3.81108 3.73665
# Velocity P-wave (km/s) = 6.53441 6.87512 6.70693
#
# Compressibility (1/GPa) = 0.02004642
#
# Stress axis : x y z
#
# Youngs Moduli (GPa) = 70.68012 44.00500 78.75032
#
# Poissons Ratio (x) = 0.35460 0.24902
# Poissons Ratio (y) = 0.56956 0.27893
# Poissons Ratio (z) = 0.22350 0.15586
#
# Static dielectric constant tensor:
#      x y z
#    x 3.692950 -0.000020 -0.009520 
#    y -0.000020 3.584390 0.000020 
#    z -0.009520 0.000020 3.923090 
# 
# 
# High freq. dielectric constant tensor:
#      x y z
#    x 1.797510 0.000000 -0.004260 
#    y 0.000000 1.769590 0.000000 
#    z -0.004260 0.000000 1.797280 
# 
# From -- ./inp_files/295570.got.cif
#   From: 2010.06.25/outbox.cif.g09.slc.cpg/sg12_148_cif.got.tgz:295570.got - 2010.06.28 00:19:55.
