data_PCOD8099069
_publ_section_title
;
Structure prediction by ZEFSAII (Michael W. Deem and Ramdas Pophale) SiO2 
 PCOD8099069
Probable space group: C 2/M
;
_chemical_formula_sum "Si O2"
_cell_formula_units_Z 64
_cell_length_a 22.993982
_cell_length_b 8.879623
_cell_length_c 17.652769
_cell_angle_alpha 90.000000
_cell_angle_beta 71.112303
_cell_angle_gamma 90.000000
_cell_volume 3410.230949
_symmetry_space_group_name_H-M "C 2/M"
_symmetry_group_IT_number 12
_symmetry_cell_setting 'monoclinic'
loop_
_space_group_symop_operation_xyz
x,y,z
-x,y,-z
-x,-y,-z
x,-y,z
1/2+x,1/2+y,z
1/2-x,1/2+y,-z
1/2-x,1/2-y,-z
1/2+x,1/2-y,z
loop_
_atom_site_type_symbol
_atom_site_label
_atom_site_fract_x
_atom_site_fract_y
_atom_site_fract_z
Si Si1 0.849174 0.173157 0.471689
Si Si2 0.428890 0.675544 0.024677
Si Si3 0.491154 0.671762 0.419441
Si Si4 0.936692 0.822441 0.858650
Si Si5 0.182499 0.321626 0.666149
Si Si6 0.080287 0.821923 0.807745
Si Si7 0.305749 0.177899 0.643092
Si Si8 0.407555 0.824146 0.720352
O O1 0.921112 0.183196 0.422800
O O2 0.812572 0.260318 0.421645
O O3 0.836639 0.251050 0.556420
O O4 0.826946 0.000000 0.484067
O O5 0.416988 0.500000 0.028315
O O6 0.398941 0.735250 0.115975
O O7 0.500000 0.711657 0.000000
O O8 0.407547 0.739207 0.951325
O O9 0.500000 0.739041 0.500000
O O10 0.514915 0.500000 0.408217
O O11 0.530345 0.765527 0.343826
O O12 0.899313 0.745076 0.807088
O O13 0.009049 0.783816 0.823145
O O14 0.927561 0.000000 0.856240
O O15 0.186794 0.500000 0.663662
O O16 0.119416 0.269761 0.730819
O O17 0.239643 0.251317 0.687790
O O18 0.092200 0.000000 0.792784
O O19 0.348280 0.220211 0.696293
O O20 0.299296 0.000000 0.634864
O O21 0.414398 0.000000 0.726104
#
# Coordination Sequence:
#
# PCOD8099069 Si02
#       8
#     8   8   8   8   8   8   8   8
#     4  11  22  38  59  80 104 135 174 219 265 311
#     4   7  12  26  51  81 109 138 172 208 249 303
#     4  10  20  35  55  78 104 137 174 210 253 309
#     4   9  17  31  55  84 112 142 174 208 252 312
#     4  12  25  38  54  77 105 137 177 222 265 311
#     4   9  17  33  56  82 111 141 174 212 256 307
#     4  11  24  41  56  72  99 139 183 223 267 310
#     4  11  23  35  52  78 109 141 174 218 266 311
#
# _framework density 18.767057999999999
#
# number of rings (size 3 to 8) (size 9 to 14) (size 15 to 20)
#    0.000    2.000    1.250    4.875    0.000    6.250 
#    0.000    0.625    0.000    3.000    0.000    0.000 
#    0.000    0.000    0.000    0.000    0.000    0.000 
#
# Total GULP energy -396668.007104 kJ/mol
# GULP energy per Si atom -12395.875222 kJ/mol
# Density = 1.872434 g / cm^3
# Si number density = 18.767058 Si / 1000 Ang^3
#
#
#
# Elastic Constant Matrix: (Units=GPa)
#
#
# Indices 1 2 3 4 5 6 
#
# 1 64.5922 40.6085 26.3138 0.0000 16.2754 0.0000
# 2 40.6085 85.2182 45.2251 0.0000 12.2890 0.0000
# 3 26.3138 45.2251 112.0561 0.0000 31.2037 0.0000
# 4 0.0000 0.0000 0.0000 16.2736 0.0000 8.3065
# 5 16.2754 12.2890 31.2037 0.0000 25.6118 0.0000
# 6 0.0000 0.0000 0.0000 8.3065 0.0000 22.3621
#
#
#
# Elastic Compliance Matrix: (Units=1/GPa)
#
#
# Indices 1 2 3 4 5 6 
#
# 1 0.024933 -0.011226 0.002403 0.000000 -0.013386 0.000000
# 2 -0.011226 0.019989 -0.007184 0.000000 0.006296 0.000000
# 3 0.002403 -0.007184 0.016231 0.000000 -0.017855 0.000000
# 4 0.000000 0.000000 0.000000 0.075826 0.000000 -0.028166
# 5 -0.013386 0.006296 -0.017855 0.000000 0.066283 0.000000
# 6 0.000000 0.000000 0.000000 -0.028166 0.000000 0.055181
#
#
# Mechanical properties :
#
#
# Convention : Reuss Voigt Hill
#
# Bulk Modulus (GPa) = 34.31847 54.01793 44.16820
# Shear Modulus (GPa) = 16.65713 22.83077 19.74395
#
# Velocity S-wave (km/s) = 2.98245 3.49167 3.24706
# Velocity P-wave (km/s) = 5.49420 6.71577 6.13546
#
# Compressibility (1/GPa) = 0.02913883
#
# Stress axis : x y z
#
# Youngs Moduli (GPa) = 40.10677 50.02732 61.60927
#
# Poissons Ratio (x) = 0.56163 -0.14807
# Poissons Ratio (y) = 0.45026 0.44262
# Poissons Ratio (z) = -0.09639 0.35941
#
# Static dielectric constant tensor:
#      x y z
#    x 3.353230 0.000000 0.208990 
#    y 0.000000 3.300340 0.000000 
#    z 0.208990 0.000000 3.807950 
# 
# 
# High freq. dielectric constant tensor:
#      x y z
#    x 1.707550 0.000000 0.015350 
#    y 0.000000 1.715280 0.000000 
#    z 0.015350 0.000000 1.739480 
# 
# From -- ./inp_files/287488.got.cif
#   From: 2010.06.25/outbox.cif.g09.slc.cpg/sg12_144_cif.got.tgz:287488.got - 2010.06.28 00:19:55.
