data_PCOD8099982
_publ_section_title
;
Structure prediction by ZEFSAII (Michael W. Deem and Ramdas Pophale) SiO2 
 PCOD8099982
Probable space group: C 2/M
;
_chemical_formula_sum "Si O2"
_cell_formula_units_Z 64
_cell_length_a 33.478653
_cell_length_b 8.689545
_cell_length_c 14.189778
_cell_angle_alpha 90.000000
_cell_angle_beta 48.333699
_cell_angle_gamma 90.000000
_cell_volume 3083.743576
_symmetry_space_group_name_H-M "C 2/M"
_symmetry_group_IT_number 12
_symmetry_cell_setting 'monoclinic'
loop_
_space_group_symop_operation_xyz
x,y,z
-x,y,-z
-x,-y,-z
x,-y,z
1/2+x,1/2+y,z
1/2-x,1/2+y,-z
1/2-x,1/2-y,-z
1/2+x,1/2-y,z
loop_
_atom_site_type_symbol
_atom_site_label
_atom_site_fract_x
_atom_site_fract_y
_atom_site_fract_z
Si Si1 0.930009 0.322094 0.734109
Si Si2 0.049214 0.670926 0.853727
Si Si3 0.364390 0.323080 0.163811
Si Si4 0.528381 0.679218 0.686514
Si Si5 0.260281 0.175522 0.385904
Si Si6 0.276915 0.682667 0.750227
Si Si7 0.394350 0.680527 0.603675
Si Si8 0.340109 0.178969 0.016679
O O1 0.946502 0.500000 0.714316
O O2 0.928371 0.269885 0.628507
O O3 0.973738 0.223906 0.720547
O O4 0.870603 0.293960 0.870570
O O5 0.075228 0.500000 0.804435
O O6 0.086137 0.798074 0.844913
O O7 0.033557 0.725422 0.774112
O O8 0.000000 0.658049 0.000000
O O9 0.345921 0.500000 0.200533
O O10 0.321408 0.200725 0.265771
O O11 0.374140 0.278186 0.039380
O O12 0.526159 0.500000 0.715466
O O13 0.579046 0.715045 0.539371
O O14 0.250000 0.250000 0.500000
O O15 0.225868 0.245306 0.353178
O O16 0.245635 0.000000 0.420415
O O17 0.278904 0.500000 0.745608
O O18 0.332905 0.744010 0.704398
O O19 0.222567 0.734834 0.891351
O O20 0.396579 0.500000 0.623112
O O21 0.341654 0.000000 0.044196
#
# Coordination Sequence:
#
# PCOD8099982 Si02
#       8
#     8   8   8   8   8   8   8   8
#     4  11  23  39  61  87 116 154 199 247 301 359
#     4  11  24  41  61  87 120 157 196 243 301 359
#     4  11  22  36  57  86 119 155 197 241 291 352
#     4  11  24  40  61  88 119 155 198 247 297 355
#     4  10  20  35  57  84 117 157 198 240 292 353
#     4   8  17  36  59  82 115 154 192 239 296 349
#     4  10  22  40  61  86 117 154 195 244 298 355
#     4   9  19  38  61  85 117 156 197 245 300 355
#
# _framework density 20.753995
#
# number of rings (size 3 to 8) (size 9 to 14) (size 15 to 20)
#    0.000    1.875    0.000    4.500    1.750    8.000 
#    0.000    3.125    0.000    0.000    0.000    0.000 
#    0.000    0.000    0.000    0.000    0.000    0.000 
#
# Total GULP energy -396628.454983 kJ/mol
# GULP energy per Si atom -12394.639218 kJ/mol
# Density = 2.070676 g / cm^3
# Si number density = 20.753995 Si / 1000 Ang^3
#
#
#
# Elastic Constant Matrix: (Units=GPa)
#
#
# Indices 1 2 3 4 5 6 
#
# 1 99.5621 22.5481 33.4648 0.0000 -3.6168 0.0000
# 2 22.5481 63.0735 28.6103 0.0000 6.0635 -0.0001
# 3 33.4648 28.6103 79.7923 0.0000 8.3573 0.0000
# 4 0.0000 0.0000 0.0000 6.5655 0.0000 -14.6620
# 5 -3.6168 6.0635 8.3573 0.0000 32.7867 0.0000
# 6 0.0000 -0.0001 0.0000 -14.6620 0.0000 16.1948
#
#
#
# Elastic Compliance Matrix: (Units=1/GPa)
#
#
# Indices 1 2 3 4 5 6 
#
# 1 0.012265 -0.002623 -0.004516 0.000000 0.002989 0.000000
# 2 -0.002623 0.019601 -0.005669 0.000000 -0.002469 0.000000
# 3 -0.004516 -0.005669 0.016852 0.000000 -0.003745 0.000000
# 4 0.000000 0.000000 0.000000 -0.149057 0.000000 -0.134950
# 5 0.002989 -0.002469 -0.003745 0.000000 0.032241 0.000000
# 6 0.000000 0.000000 0.000000 -0.134950 0.000000 -0.060429
#
#
# Mechanical properties :
#
#
# Convention : Reuss Voigt Hill
#
# Bulk Modulus (GPa) = 43.29037 45.74158 44.51597
# Shear Modulus (GPa) = -52.51592 21.62972 -15.44310
#
# Velocity S-wave (km/s) = -5.03577 3.23181 -2.73078
# Velocity P-wave (km/s) = 3.59275 6.00115 3.39897
#
# Compressibility (1/GPa) = 0.02309983
#
# Stress axis : x y z
#
# Youngs Moduli (GPa) = 81.53488 51.01691 59.34093
#
# Poissons Ratio (x) = 0.13383 0.26800
# Poissons Ratio (y) = 0.21389 0.33643
# Poissons Ratio (z) = 0.36824 0.28924
#
# Static dielectric constant tensor:
#      x y z
#    x 3.739420 0.000000 0.125800 
#    y 0.000000 3.649300 0.000000 
#    z 0.125800 0.000000 3.647220 
# 
# 
# High freq. dielectric constant tensor:
#      x y z
#    x 1.812140 0.000000 0.001830 
#    y 0.000000 1.801080 0.000000 
#    z 0.001830 0.000000 1.818050 
# 
# From -- ./inp_files/249765.got.cif
#   From: 2010.06.25/outbox.cif.g09.slc.cpg/sg12_125_cif.got.tgz:249765.got - 2010.06.28 00:19:55.
