data_PCOD8099542
_publ_section_title
;
Structure prediction by ZEFSAII (Michael W. Deem and Ramdas Pophale) SiO2 
 PCOD8099542
Probable space group: C 2/M
;
_chemical_formula_sum "Si O2"
_cell_formula_units_Z 64
_cell_length_a 27.696401
_cell_length_b 8.899165
_cell_length_c 20.755222
_cell_angle_alpha 90.000000
_cell_angle_beta 46.574637
_cell_angle_gamma 90.000000
_cell_volume 3715.338208
_symmetry_space_group_name_H-M "C 2/M"
_symmetry_group_IT_number 12
_symmetry_cell_setting 'monoclinic'
loop_
_space_group_symop_operation_xyz
x,y,z
-x,y,-z
-x,-y,-z
x,-y,z
1/2+x,1/2+y,z
1/2-x,1/2+y,-z
1/2-x,1/2-y,-z
1/2+x,1/2-y,z
loop_
_atom_site_type_symbol
_atom_site_label
_atom_site_fract_x
_atom_site_fract_y
_atom_site_fract_z
Si Si1 0.267136 0.824591 0.295024
Si Si2 0.691362 0.321562 0.095717
Si Si3 0.097150 0.827822 0.858026
Si Si4 0.064117 0.171083 0.749003
Si Si5 0.101830 0.325596 0.975501
Si Si6 0.250688 0.677071 0.826482
Si Si7 0.716094 0.677029 0.592089
Si Si8 0.936090 0.673351 0.845472
O O1 0.342635 0.787189 0.208230
O O2 0.225233 0.778009 0.268503
O O3 0.245708 0.732873 0.378318
O O4 0.259369 0.000000 0.317782
O O5 0.696356 0.500000 0.083597
O O6 0.699736 0.268263 0.162684
O O7 0.618943 0.266959 0.141829
O O8 0.750000 0.250000 0.000000
O O9 0.049929 0.813657 0.838938
O O10 0.062801 0.771603 0.956180
O O11 0.122285 0.000000 0.840884
O O12 0.138797 0.226681 0.664595
O O13 0.010292 0.269984 0.759181
O O14 0.055399 0.000000 0.734364
O O15 0.097966 0.500000 0.960069
O O16 0.177059 0.260996 0.909449
O O17 0.069926 0.296320 0.073499
O O18 0.244718 0.500000 0.835281
O O19 0.723400 0.500000 0.581913
O O20 0.750000 0.750000 0.500000
O O21 0.927662 0.500000 0.834657
#
# Coordination Sequence:
#
# PCOD8099542 Si02
#       8
#     8   8   8   8   8   8   8   8
#     4   9  16  29  49  73 101 131 161 198 246 295
#     4  11  20  33  50  70  97 132 176 222 262 296
#     4   9  17  29  45  66  93 125 166 207 246 293
#     4   9  20  36  49  68  99 130 160 201 247 297
#     4   9  17  30  44  62  91 127 170 210 248 293
#     4   8  15  29  47  66  95 130 167 210 250 292
#     4  10  20  35  56  82 108 131 160 196 240 301
#     4  11  22  34  47  67  95 130 175 216 253 299
#
# _framework density 17.225888000000001
#
# number of rings (size 3 to 8) (size 9 to 14) (size 15 to 20)
#    0.000    2.500    1.250    3.375    0.000    4.500 
#    0.000    4.375    0.000    0.000    0.000    0.875 
#    0.000    7.000    0.000    0.000    0.000    0.000 
#
# Total GULP energy -396494.589043 kJ/mol
# GULP energy per Si atom -12390.455908 kJ/mol
# Density = 1.718668 g / cm^3
# Si number density = 17.225888 Si / 1000 Ang^3
#
#
#
# Elastic Constant Matrix: (Units=GPa)
#
#
# Indices 1 2 3 4 5 6 
#
# 1 107.9559 54.7015 54.5519 0.0035 8.2648 -0.0017
# 2 54.7015 70.6451 37.1896 -0.0121 7.9002 0.0147
# 3 54.5519 37.1896 63.7266 -0.0038 12.5853 0.0006
# 4 0.0035 -0.0121 -0.0038 22.6014 -0.0003 3.8105
# 5 8.2648 7.9002 12.5853 -0.0003 21.2329 -0.0005
# 6 -0.0017 0.0147 0.0006 3.8105 -0.0005 26.3877
#
#
#
# Elastic Compliance Matrix: (Units=1/GPa)
#
#
# Indices 1 2 3 4 5 6 
#
# 1 0.019934 -0.009347 -0.012191 -0.000012 0.002944 0.000009
# 2 -0.009347 0.024822 -0.006092 0.000017 -0.001986 -0.000017
# 3 -0.012191 -0.006092 0.032050 0.000004 -0.011985 0.000001
# 4 -0.000012 0.000017 0.000004 0.045349 -0.000003 -0.006549
# 5 0.002944 -0.001986 -0.011985 -0.000003 0.053793 0.000003
# 6 0.000009 -0.000017 0.000001 -0.006549 0.000003 0.038842
#
#
# Mechanical properties :
#
#
# Convention : Reuss Voigt Hill
#
# Bulk Modulus (GPa) = 46.41216 59.46817 52.94016
# Shear Modulus (GPa) = 18.03541 20.43669 19.23605
#
# Velocity S-wave (km/s) = 3.23924 3.44814 3.34532
# Velocity P-wave (km/s) = 6.40250 7.10285 6.76175
#
# Compressibility (1/GPa) = 0.02154608
#
# Stress axis : x y z
#
# Youngs Moduli (GPa) = 50.16570 40.28716 31.20117
#
# Poissons Ratio (x) = 0.37655 0.38037
# Poissons Ratio (y) = 0.46889 0.19008
# Poissons Ratio (z) = 0.61157 0.24544
#
# Static dielectric constant tensor:
#      x y z
#    x 3.474070 -0.000050 0.304790 
#    y -0.000050 3.195220 0.000010 
#    z 0.304790 0.000010 2.991040 
# 
# 
# High freq. dielectric constant tensor:
#      x y z
#    x 1.661160 0.000000 0.017850 
#    y 0.000000 1.666430 0.000000 
#    z 0.017850 0.000000 1.623630 
# 
# From -- ./inp_files/324205.got.cif
#   From: 2010.06.25/outbox.cif.g09.slc.cpg/sg12_163_cif.got.tgz:324205.got - 2010.06.28 00:19:55.
