data_PCOD8099622
_publ_section_title
;
Structure prediction by ZEFSAII (Michael W. Deem and Ramdas Pophale) SiO2 
 PCOD8099622
Probable space group: C 2/M
;
_chemical_formula_sum "Si O2"
_cell_formula_units_Z 48
_cell_length_a 17.929795
_cell_length_b 8.870520
_cell_length_c 30.113664
_cell_angle_alpha 90.000000
_cell_angle_beta 149.377649
_cell_angle_gamma 90.000000
_cell_volume 2439.649655
_symmetry_space_group_name_H-M "C 2/M"
_symmetry_group_IT_number 12
_symmetry_cell_setting 'monoclinic'
loop_
_space_group_symop_operation_xyz
x,y,z
-x,y,-z
-x,-y,-z
x,-y,z
1/2+x,1/2+y,z
1/2-x,1/2+y,-z
1/2-x,1/2-y,-z
1/2+x,1/2-y,z
loop_
_atom_site_type_symbol
_atom_site_label
_atom_site_fract_x
_atom_site_fract_y
_atom_site_fract_z
Si Si1 0.595747 0.821510 0.682641
Si Si2 0.063666 0.678816 0.486868
Si Si3 0.093930 0.675584 0.159232
Si Si4 0.180250 0.826099 0.006532
Si Si5 0.102934 0.823131 0.345632
Si Si6 0.022346 0.671841 0.802182
O O1 0.534295 0.761360 0.604079
O O2 0.751859 0.749913 0.772288
O O3 0.485447 0.773174 0.664348
O O4 0.610744 0.000000 0.690449
O O5 0.057562 0.500000 0.485964
O O6 0.229838 0.731887 0.565196
O O7 0.000000 0.748044 0.500000
O O8 0.105162 0.500000 0.155525
O O9 0.974963 0.744888 0.063605
O O10 0.045332 0.711269 0.184574
O O11 0.149951 0.000000 0.980629
O O12 0.250000 0.750000 0.000000
O O13 0.300204 0.808485 0.107265
O O14 0.045437 0.788830 0.266926
O O15 0.085836 0.000000 0.346581
O O16 0.982617 0.500000 0.768756
#
# Coordination Sequence:
#
# PCOD8099622 Si02
#       6
#     8   8   8   8   8   8
#     4  11  22  37  57  79 111 150 183 222 275 330
#     4   9  19  36  58  84 109 138 181 227 270 323
#     4  10  20  35  56  83 113 143 184 233 276 326
#     4   9  17  31  53  81 112 145 183 228 275 323
#     4  11  22  36  56  81 112 147 184 226 270 324
#     4   9  19  35  55  81 112 144 181 226 273 324
#
# _framework density 19.674956000000002
#
# number of rings (size 3 to 8) (size 9 to 14) (size 15 to 20)
#    0.000    2.167    0.000    4.500    0.000    5.333 
#    0.000    3.333    0.000   11.000    0.000    0.000 
#    0.000    0.000    0.000    0.000    0.000    0.000 
#
# Total GULP energy -297586.284069 kJ/mol
# GULP energy per Si atom -12399.428503 kJ/mol
# Density = 1.963017 g / cm^3
# Si number density = 19.674956 Si / 1000 Ang^3
#
#
#
# Elastic Constant Matrix: (Units=GPa)
#
#
# Indices 1 2 3 4 5 6 
#
# 1 64.5784 17.8954 19.6063 0.0000 26.5044 0.0000
# 2 17.8954 80.5736 34.0836 0.0000 12.3482 0.0000
# 3 19.6063 34.0836 100.9708 0.0000 38.1445 0.0000
# 4 0.0000 0.0000 0.0000 27.3636 0.0000 0.0774
# 5 26.5044 12.3482 38.1445 0.0000 30.8167 0.0000
# 6 0.0000 0.0000 0.0000 0.0774 0.0000 26.5455
#
#
#
# Elastic Compliance Matrix: (Units=1/GPa)
#
#
# Indices 1 2 3 4 5 6 
#
# 1 0.027402 -0.004719 0.008379 0.000000 -0.032049 0.000000
# 2 -0.004719 0.015295 -0.006508 0.000000 0.005985 0.000000
# 3 0.008379 -0.006508 0.022936 0.000000 -0.032989 0.000000
# 4 0.000000 0.000000 0.000000 0.036545 0.000000 -0.000107
# 5 -0.032049 0.005985 -0.032989 0.000000 0.098449 0.000000
# 6 0.000000 0.000000 0.000000 -0.000107 0.000000 0.037671
#
#
# Mechanical properties :
#
#
# Convention : Reuss Voigt Hill
#
# Bulk Modulus (GPa) = 16.68382 43.25481 29.96932
# Shear Modulus (GPa) = 18.94136 28.58099 23.76117
#
# Velocity S-wave (km/s) = 3.10613 3.81551 3.47895
# Velocity P-wave (km/s) = 4.62192 6.43764 5.60381
#
# Compressibility (1/GPa) = 0.05993830
#
# Stress axis : x y z
#
# Youngs Moduli (GPa) = 36.49338 65.38246 43.59961
#
# Poissons Ratio (x) = 0.30854 -0.36533
# Poissons Ratio (y) = 0.17221 0.28373
# Poissons Ratio (z) = -0.30579 0.42548
#
# Static dielectric constant tensor:
#      x y z
#    x 3.404650 0.000000 0.111990 
#    y 0.000000 3.515810 0.000000 
#    z 0.111990 0.000000 4.080630 
# 
# 
# High freq. dielectric constant tensor:
#      x y z
#    x 1.746400 0.000000 0.012180 
#    y 0.000000 1.760920 0.000000 
#    z 0.012180 0.000000 1.785110 
# 
# From -- ./inp_files/274062.got.cif
#   From: 2010.06.25/outbox.cif.g09.slc.cpg/sg12_138_cif.got.tgz:274062.got - 2010.06.28 00:19:55.
