data_PCOD8099226
_publ_section_title
;
Structure prediction by ZEFSAII (Michael W. Deem and Ramdas Pophale) SiO2 
 PCOD8099226
Probable space group: C 2/M
;
_chemical_formula_sum "Si O2"
_cell_formula_units_Z 48
_cell_length_a 23.845775
_cell_length_b 8.877444
_cell_length_c 12.178432
_cell_angle_alpha 90.000000
_cell_angle_beta 77.423132
_cell_angle_gamma 90.000000
_cell_volume 2516.185709
_symmetry_space_group_name_H-M "C 2/M"
_symmetry_group_IT_number 12
_symmetry_cell_setting 'monoclinic'
loop_
_space_group_symop_operation_xyz
x,y,z
-x,y,-z
-x,-y,-z
x,-y,z
1/2+x,1/2+y,z
1/2-x,1/2+y,-z
1/2-x,1/2-y,-z
1/2+x,1/2-y,z
loop_
_atom_site_type_symbol
_atom_site_label
_atom_site_fract_x
_atom_site_fract_y
_atom_site_fract_z
Si Si1 0.660815 0.677616 0.339727
Si Si2 0.095498 0.825777 0.147225
Si Si3 0.614850 0.177799 0.913585
Si Si4 0.789085 0.677176 0.291280
Si Si5 0.620107 0.821912 0.571406
Si Si6 0.962910 0.176246 0.226278
O O1 0.659610 0.500000 0.362359
O O2 0.634070 0.718568 0.234305
O O3 0.725306 0.747155 0.315608
O O4 0.622532 0.757002 0.448425
O O5 0.030044 0.787851 0.203101
O O6 0.102833 0.000000 0.111967
O O7 0.118217 0.725015 0.038045
O O8 0.673775 0.231109 0.829419
O O9 0.561140 0.257331 0.877317
O O10 0.606235 0.000000 0.905588
O O11 0.782231 0.500000 0.289121
O O12 0.821995 0.726536 0.388175
O O13 0.565020 0.754326 0.656080
O O14 0.612912 0.000000 0.571616
O O15 0.949723 0.000000 0.235732
#
# Coordination Sequence:
#
# PCOD8099226 Si02
#       6
#     8   8   8   8   8   8
#     4  10  20  36  55  75 105 143 176 209 256 310
#     4  10  22  36  52  77 107 140 177 213 253 309
#     4  10  20  35  56  81 106 134 172 217 262 306
#     4   8  17  34  55  78 104 134 171 215 258 306
#     4  10  20  35  55  81 107 132 172 220 263 306
#     4  10  20  36  56  77 103 137 177 216 256 306
#
# _framework density 19.076494
#
# number of rings (size 3 to 8) (size 9 to 14) (size 15 to 20)
#    0.000    2.333    0.000    3.500    0.000    5.333 
#    0.000    7.500    0.000    0.000    0.000    0.000 
#    0.000    0.000    0.000    0.000    0.000    0.000 
#
# Total GULP energy -297655.352292 kJ/mol
# GULP energy per Si atom -12402.306345 kJ/mol
# Density = 1.903307 g / cm^3
# Si number density = 19.076494 Si / 1000 Ang^3
#
#
#
# Elastic Constant Matrix: (Units=GPa)
#
#
# Indices 1 2 3 4 5 6 
#
# 1 60.3400 23.2172 35.2523 0.0000 0.5358 0.0000
# 2 23.2172 62.9391 53.2447 0.0000 2.4815 0.0000
# 3 35.2523 53.2447 83.7856 0.0000 -5.1103 0.0000
# 4 0.0000 0.0000 0.0000 36.4646 0.0000 0.2325
# 5 0.5358 2.4815 -5.1103 0.0000 17.1162 0.0000
# 6 0.0000 0.0000 0.0000 0.2325 0.0000 22.0107
#
#
#
# Elastic Compliance Matrix: (Units=1/GPa)
#
#
# Indices 1 2 3 4 5 6 
#
# 1 0.022184 0.000082 -0.009604 0.000000 -0.003574 0.000000
# 2 0.000082 0.036833 -0.024208 0.000000 -0.012570 0.000000
# 3 -0.009604 -0.024208 0.032179 0.000000 0.013418 0.000000
# 4 0.000000 0.000000 0.000000 0.027426 0.000000 -0.000290
# 5 -0.003574 -0.012570 0.013418 0.000000 0.064365 0.000000
# 6 0.000000 0.000000 0.000000 -0.000290 0.000000 0.045436
#
#
# Mechanical properties :
#
#
# Convention : Reuss Voigt Hill
#
# Bulk Modulus (GPa) = 42.13103 47.83256 44.98180
# Shear Modulus (GPa) = 16.45858 21.47501 18.96680
#
# Velocity S-wave (km/s) = 2.94048 3.35883 3.15659
# Velocity P-wave (km/s) = 5.80188 6.33805 6.07588
#
# Compressibility (1/GPa) = 0.02373547
#
# Stress axis : x y z
#
# Youngs Moduli (GPa) = 45.07816 27.14948 31.07664
#
# Poissons Ratio (x) = -0.00224 0.29846
# Poissons Ratio (y) = -0.00372 0.75231
# Poissons Ratio (z) = 0.43293 0.65724
#
# Static dielectric constant tensor:
#      x y z
#    x 3.620520 0.000000 -0.075350 
#    y 0.000000 3.334780 0.000000 
#    z -0.075350 0.000000 3.520180 
# 
# 
# High freq. dielectric constant tensor:
#      x y z
#    x 1.740230 0.000000 -0.006190 
#    y 0.000000 1.730810 0.000000 
#    z -0.006190 0.000000 1.749980 
# 
# From -- ./inp_files/172017.got.cif
#   From: 2010.06.25/outbox.cif.g09.slc.cpg/sg12_87_cif.got.tgz:172017.got - 2010.06.28 00:19:55.
