data_PCOD8099633
_publ_section_title
;
Structure prediction by ZEFSAII (Michael W. Deem and Ramdas Pophale) SiO2 
 PCOD8099633
Probable space group: C 2/M
;
_chemical_formula_sum "Si O2"
_cell_formula_units_Z 56
_cell_length_a 15.194330
_cell_length_b 8.928032
_cell_length_c 24.422824
_cell_angle_alpha 90.000000
_cell_angle_beta 61.377823
_cell_angle_gamma 90.000000
_cell_volume 2908.222128
_symmetry_space_group_name_H-M "C 2/M"
_symmetry_group_IT_number 12
_symmetry_cell_setting 'monoclinic'
loop_
_space_group_symop_operation_xyz
x,y,z
-x,y,-z
-x,-y,-z
x,-y,z
1/2+x,1/2+y,z
1/2-x,1/2+y,-z
1/2-x,1/2-y,-z
1/2+x,1/2-y,z
loop_
_atom_site_type_symbol
_atom_site_label
_atom_site_fract_x
_atom_site_fract_y
_atom_site_fract_z
Si Si1 0.916017 0.323419 0.792904
Si Si2 0.578420 0.676046 0.431111
Si Si3 0.310842 0.329090 0.117163
Si Si4 0.001032 0.171934 0.871688
Si Si5 0.847790 0.322730 0.996175
Si Si6 0.997434 0.323294 0.348130
Si Si7 0.226122 0.324347 0.564218
O O1 0.931099 0.500000 0.795692
O O2 0.800426 0.275963 0.834048
O O3 0.983656 0.240455 0.817336
O O4 0.952571 0.267768 0.722910
O O5 0.500000 0.734993 0.500000
O O6 0.565560 0.500000 0.426979
O O7 0.558710 0.753151 0.379451
O O8 0.690415 0.721319 0.416118
O O9 0.309161 0.500000 0.095898
O O10 0.380779 0.315538 0.149893
O O11 0.356415 0.223364 0.056792
O O12 0.964547 0.000000 0.883454
O O13 0.943166 0.264009 0.935117
O O14 0.842317 0.500000 0.992202
O O15 0.750000 0.250000 0.000000
O O16 0.004875 0.500000 0.351805
O O17 0.881959 0.269358 0.382410
O O18 0.228042 0.500000 0.553470
O O19 0.250000 0.250000 0.500000
#
# Coordination Sequence:
#
# PCOD8099633 Si02
#       7
#     8   8   8   8   8   8   8
#     4  10  22  41  60  81 116 159 195 237 293 349
#     4  10  20  35  56  83 114 148 184 231 291 344
#     4  10  22  40  61  85 119 157 195 242 294 348
#     4  11  23  39  61  89 118 154 199 243 292 347
#     4  12  23  37  61  91 120 153 196 246 298 347
#     4  10  22  38  58  85 115 150 195 240 287 344
#     4  10  20  35  56  83 114 146 186 234 287 344
#
# _framework density 19.255749000000002
#
# number of rings (size 3 to 8) (size 9 to 14) (size 15 to 20)
#    0.000    1.571    2.857    2.143    0.000    5.429 
#    0.000    0.000    0.000    0.000    0.000    0.000 
#    0.000    0.000    0.000    0.000    0.000    0.000 
#
# Total GULP energy -347307.482543 kJ/mol
# GULP energy per Si atom -12403.838662 kJ/mol
# Density = 1.921192 g / cm^3
# Si number density = 19.255749 Si / 1000 Ang^3
#
#
#
# Elastic Constant Matrix: (Units=GPa)
#
#
# Indices 1 2 3 4 5 6 
#
# 1 140.7569 39.7050 63.9441 0.0000 19.6499 0.0000
# 2 39.7050 68.0439 45.7562 0.0000 10.5772 0.0001
# 3 63.9441 45.7562 147.9967 0.0000 22.3226 0.0000
# 4 0.0000 0.0000 0.0000 29.3716 0.0000 8.4913
# 5 19.6499 10.5772 22.3226 0.0000 24.4053 0.0000
# 6 0.0000 0.0001 0.0000 8.4913 0.0000 30.8467
#
#
#
# Elastic Compliance Matrix: (Units=1/GPa)
#
#
# Indices 1 2 3 4 5 6 
#
# 1 0.009789 -0.003343 -0.002582 0.000000 -0.004071 0.000000
# 2 -0.003343 0.019919 -0.004429 0.000000 -0.001890 0.000000
# 3 -0.002582 -0.004429 0.010021 0.000000 -0.005168 0.000000
# 4 0.000000 0.000000 0.000000 0.036990 0.000000 -0.010183
# 5 -0.004071 -0.001890 -0.005168 0.000000 0.049799 0.000000
# 6 0.000000 0.000000 0.000000 -0.010183 0.000000 0.035221
#
#
# Mechanical properties :
#
#
# Convention : Reuss Voigt Hill
#
# Bulk Modulus (GPa) = 52.57143 72.84535 62.70839
# Shear Modulus (GPa) = 26.48489 30.75086 28.61787
#
# Velocity S-wave (km/s) = 3.71270 4.00055 3.85931
# Velocity P-wave (km/s) = 6.76312 7.69751 7.24540
#
# Compressibility (1/GPa) = 0.01902174
#
# Stress axis : x y z
#
# Youngs Moduli (GPa) = 102.15962 50.20300 99.78913
#
# Poissons Ratio (x) = 0.16782 0.25763
# Poissons Ratio (y) = 0.34151 0.44196
# Poissons Ratio (z) = 0.26375 0.22234
#
# Static dielectric constant tensor:
#      x y z
#    x 3.780800 0.000000 -0.256140 
#    y 0.000000 3.498760 0.000000 
#    z -0.256140 0.000000 3.669070 
# 
# 
# High freq. dielectric constant tensor:
#      x y z
#    x 1.766380 0.000000 -0.000040 
#    y 0.000000 1.743910 0.000000 
#    z -0.000040 0.000000 1.743720 
# 
# From -- ./inp_files/338430.got.cif
#   From: 2010.06.25/outbox.cif.g09.slc.cpg/sg12_170_cif.got.tgz:338430.got - 2010.06.28 00:19:55.
