data_PCOD8099057
_publ_section_title
;
Structure prediction by ZEFSAII (Michael W. Deem and Ramdas Pophale) SiO2 
 PCOD8099057
Probable space group: C 2/M
;
_chemical_formula_sum "Si O2"
_cell_formula_units_Z 44
_cell_length_a 9.032659
_cell_length_b 22.223367
_cell_length_c 12.849954
_cell_angle_alpha 90.000000
_cell_angle_beta 54.108343
_cell_angle_gamma 90.000000
_cell_volume 2089.681804
_symmetry_space_group_name_H-M "C 2/M"
_symmetry_group_IT_number 12
_symmetry_cell_setting 'monoclinic'
loop_
_space_group_symop_operation_xyz
x,y,z
-x,y,-z
-x,-y,-z
x,-y,z
1/2+x,1/2+y,z
1/2-x,1/2+y,-z
1/2-x,1/2-y,-z
1/2+x,1/2-y,z
loop_
_atom_site_type_symbol
_atom_site_label
_atom_site_fract_x
_atom_site_fract_y
_atom_site_fract_z
Si Si1 0.000000 0.264382 0.000000
Si Si2 0.965663 0.372128 0.633339
Si Si3 0.398375 0.431985 0.236749
Si Si4 0.959876 0.238742 0.404611
Si Si5 0.826626 0.932047 0.510446
Si Si6 0.891479 0.181312 0.854889
O O1 0.018520 0.223546 0.094577
O O2 0.822912 0.307492 0.075991
O O3 0.784787 0.407393 0.745814
O O4 0.000000 0.388018 0.500000
O O5 0.931783 0.300929 0.663554
O O6 0.147623 0.393896 0.618572
O O7 0.440464 0.500000 0.181661
O O8 0.367432 0.429761 0.372004
O O9 0.568323 0.388649 0.134150
O O10 0.750000 0.250000 0.500000
O O11 0.000000 0.209797 0.500000
O O12 0.001226 0.192060 0.296895
O O13 0.000000 0.905113 0.500000
O O14 0.788587 0.000000 0.562759
#
# Coordination Sequence:
#
# PCOD8099057 Si02
#       6
#     4   8   8   8   8   8
#     4  10  24  42  64  82 110 156 198 240 284 342
#     4   9  17  30  48  75 112 153 187 219 275 348
#     4  10  20  35  55  77 107 147 191 237 282 337
#     4  11  21  33  56  90 121 146 179 236 297 343
#     4   9  17  28  44  73 114 154 186 218 269 342
#     4  11  22  41  61  86 115 150 196 238 287 345
#
# _framework density 21.055837
#
# number of rings (size 3 to 8) (size 9 to 14) (size 15 to 20)
#    0.000    2.000    0.000    6.000    0.000    6.545 
#    0.000    0.909    0.000    0.000    0.000    0.000 
#    0.000    0.000    0.000    0.000    0.000    0.000 
#
# Total GULP energy -272701.175612 kJ/mol
# GULP energy per Si atom -12395.507982 kJ/mol
# Density = 2.100791 g / cm^3
# Si number density = 21.055837 Si / 1000 Ang^3
#
#
#
# Elastic Constant Matrix: (Units=GPa)
#
#
# Indices 1 2 3 4 5 6 
#
# 1 131.3578 36.1298 30.2340 0.0000 -22.6513 0.0000
# 2 36.1298 150.9694 33.2647 0.0000 -24.6099 0.0000
# 3 30.2340 33.2647 58.7640 0.0000 -12.2161 0.0000
# 4 0.0000 0.0000 0.0000 14.1317 0.0000 -16.5076
# 5 -22.6513 -24.6099 -12.2161 0.0000 34.9592 0.0000
# 6 0.0000 0.0000 0.0000 -16.5076 0.0000 28.8667
#
#
#
# Elastic Compliance Matrix: (Units=1/GPa)
#
#
# Indices 1 2 3 4 5 6 
#
# 1 0.009371 -0.000771 -0.003489 0.000000 0.004310 0.000000
# 2 -0.000771 0.008228 -0.003408 0.000000 0.004101 0.000000
# 3 -0.003489 -0.003408 0.021322 0.000000 0.002791 0.000000
# 4 0.000000 0.000000 0.000000 0.213142 0.000000 0.121887
# 5 0.004310 0.004101 0.002791 0.000000 0.035260 0.000000
# 6 0.000000 0.000000 0.000000 0.121887 0.000000 0.104344
#
#
# Mechanical properties :
#
#
# Convention : Reuss Voigt Hill
#
# Bulk Modulus (GPa) = 42.40158 60.03870 51.22014
# Shear Modulus (GPa) = 12.05213 31.68901 21.87057
#
# Velocity S-wave (km/s) = 2.39506 3.88364 3.22637
# Velocity P-wave (km/s) = 5.27540 6.97755 6.18530
#
# Compressibility (1/GPa) = 0.02358402
#
# Stress axis : x y z
#
# Youngs Moduli (GPa) = 106.71048 121.53605 46.90062
#
# Poissons Ratio (x) = 0.09376 0.16363
# Poissons Ratio (y) = 0.08232 0.15984
# Poissons Ratio (z) = 0.37230 0.41421
#
# Static dielectric constant tensor:
#      x y z
#    x 4.049600 0.000000 -0.205730 
#    y 0.000000 4.571460 0.000000 
#    z -0.205730 0.000000 3.382070 
# 
# 
# High freq. dielectric constant tensor:
#      x y z
#    x 1.839840 0.000000 -0.016830 
#    y 0.000000 1.831060 0.000000 
#    z -0.016830 0.000000 1.778440 
# 
# From -- ./inp_files/198245.got.cif
#   From: 2010.06.25/outbox.cif.g09.slc.cpg/sg12_100_cif.got.tgz:198245.got - 2010.06.28 00:19:55.
