data_PCOD8099055
_publ_section_title
;
Structure prediction by ZEFSAII (Michael W. Deem and Ramdas Pophale) SiO2 
 PCOD8099055
Probable space group: C 2/M
;
_chemical_formula_sum "Si O2"
_cell_formula_units_Z 48
_cell_length_a 34.435026
_cell_length_b 8.889718
_cell_length_c 7.998545
_cell_angle_alpha 90.000000
_cell_angle_beta 90.644702
_cell_angle_gamma 90.000000
_cell_volume 2448.340960
_symmetry_space_group_name_H-M "C 2/M"
_symmetry_group_IT_number 12
_symmetry_cell_setting 'monoclinic'
loop_
_space_group_symop_operation_xyz
x,y,z
-x,y,-z
-x,-y,-z
x,-y,z
1/2+x,1/2+y,z
1/2-x,1/2+y,-z
1/2-x,1/2-y,-z
1/2+x,1/2-y,z
loop_
_atom_site_type_symbol
_atom_site_label
_atom_site_fract_x
_atom_site_fract_y
_atom_site_fract_z
Si Si1 0.345219 0.321674 0.804720
Si Si2 0.839010 0.171576 0.181113
Si Si3 0.574275 0.328772 0.832620
Si Si4 0.504683 0.835783 0.690557
Si Si5 0.075649 0.324480 0.173740
Si Si6 0.207997 0.179381 0.505934
O O1 0.349058 0.500000 0.814560
O O2 0.386963 0.259215 0.747552
O O3 0.314316 0.269354 0.664075
O O4 0.334086 0.258819 0.991935
O O5 0.883319 0.185586 0.249617
O O6 0.812499 0.245166 0.325934
O O7 0.826056 0.000000 0.165625
O O8 0.568044 0.500000 0.895401
O O9 0.539912 0.281711 0.707952
O O10 0.573012 0.208674 0.979098
O O11 0.500000 0.870064 0.500000
O O12 0.464730 0.761877 0.754032
O O13 0.512395 0.000000 0.778750
O O14 0.080379 0.500000 0.211010
O O15 0.250000 0.250000 0.500000
O O16 0.210205 0.000000 0.511941
#
# Coordination Sequence:
#
# PCOD8099055 Si02
#       6
#     8   8   8   8   8   8
#     4   9  19  36  58  80 107 143 182 223 270 321
#     4   8  17  35  55  78 108 140 175 221 271 317
#     4  10  20  35  56  79 104 140 186 228 268 318
#     4  10  22  36  49  74 112 148 180 223 274 319
#     4  10  20  35  55  77 106 144 181 222 274 321
#     4  10  21  37  57  81 110 141 173 218 273 327
#
# _framework density 19.605111999999998
#
# number of rings (size 3 to 8) (size 9 to 14) (size 15 to 20)
#    0.000    2.500    0.000    2.500    2.333    5.000 
#    0.000    4.167    0.000    0.000    0.000    0.000 
#    0.000    0.000    0.000    0.000    0.000    0.000 
#
# Total GULP energy -297373.788851 kJ/mol
# GULP energy per Si atom -12390.574535 kJ/mol
# Density = 1.956049 g / cm^3
# Si number density = 19.605112 Si / 1000 Ang^3
#
#
#
# Elastic Constant Matrix: (Units=GPa)
#
#
# Indices 1 2 3 4 5 6 
#
# 1 149.0842 34.3214 70.0014 0.0000 -0.2422 0.0000
# 2 34.3214 29.4288 20.4472 0.0000 3.0350 0.0000
# 3 70.0014 20.4472 99.8709 0.0000 -0.0428 0.0000
# 4 0.0000 0.0000 0.0000 17.2760 0.0000 3.1592
# 5 -0.2422 3.0350 -0.0428 0.0000 37.2926 0.0000
# 6 0.0000 0.0000 0.0000 3.1592 0.0000 39.5133
#
#
#
# Elastic Compliance Matrix: (Units=1/GPa)
#
#
# Indices 1 2 3 4 5 6 
#
# 1 0.011904 -0.009529 -0.006393 0.000000 0.000845 0.000000
# 2 -0.009529 0.047637 -0.003076 0.000000 -0.003942 0.000000
# 3 -0.006393 -0.003076 0.015123 0.000000 0.000226 0.000000
# 4 0.000000 0.000000 0.000000 0.058743 0.000000 -0.004697
# 5 0.000845 -0.003942 0.000226 0.000000 0.027142 0.000000
# 6 0.000000 0.000000 0.000000 -0.004697 0.000000 0.025683
#
#
# Mechanical properties :
#
#
# Convention : Reuss Voigt Hill
#
# Bulk Modulus (GPa) = 27.27015 58.65824 42.96420
# Shear Modulus (GPa) = 21.14607 29.05732 25.10169
#
# Velocity S-wave (km/s) = 3.28777 3.85402 3.58210
# Velocity P-wave (km/s) = 5.32470 7.05616 6.25068
#
# Compressibility (1/GPa) = 0.03667013
#
# Stress axis : x y z
#
# Youngs Moduli (GPa) = 84.00293 20.99207 66.12233
#
# Poissons Ratio (x) = 0.20003 0.42270
# Poissons Ratio (y) = 0.80046 0.20337
# Poissons Ratio (z) = 0.53700 0.06457
#
# Static dielectric constant tensor:
#      x y z
#    x 5.115880 0.000000 -0.468670 
#    y 0.000000 3.412230 0.000000 
#    z -0.468670 0.000000 3.838760 
# 
# 
# High freq. dielectric constant tensor:
#      x y z
#    x 1.767570 0.000000 -0.001940 
#    y 0.000000 1.738910 0.000000 
#    z -0.001940 0.000000 1.761650 
# 
# From -- ./inp_files/108668.got.cif
#   From: 2010.06.25/outbox.cif.g09.slc.cpg/sg12_55_cif.got.tgz:108668.got - 2010.06.28 00:19:55.
