data_PCOD8099624
_publ_section_title
;
Structure prediction by ZEFSAII (Michael W. Deem and Ramdas Pophale) SiO2 
 PCOD8099624
Probable space group: C 2/M
;
_chemical_formula_sum "Si O2"
_cell_formula_units_Z 56
_cell_length_a 29.376181
_cell_length_b 8.886799
_cell_length_c 21.578315
_cell_angle_alpha 90.000000
_cell_angle_beta 149.005609
_cell_angle_gamma 90.000000
_cell_volume 2900.860150
_symmetry_space_group_name_H-M "C 2/M"
_symmetry_group_IT_number 12
_symmetry_cell_setting 'monoclinic'
loop_
_space_group_symop_operation_xyz
x,y,z
-x,y,-z
-x,-y,-z
x,-y,z
1/2+x,1/2+y,z
1/2-x,1/2+y,-z
1/2-x,1/2-y,-z
1/2+x,1/2-y,z
loop_
_atom_site_type_symbol
_atom_site_label
_atom_site_fract_x
_atom_site_fract_y
_atom_site_fract_z
Si Si1 0.914434 0.321954 0.127770
Si Si2 0.457993 0.327246 0.514987
Si Si3 0.226121 0.324582 0.689165
Si Si4 0.882595 0.676101 0.637893
Si Si5 0.773761 0.822394 0.882784
Si Si6 0.238165 0.324095 0.390217
Si Si7 0.874712 0.825913 0.207541
O O1 0.903375 0.500000 0.108925
O O2 0.867622 0.266331 0.135803
O O3 0.016219 0.271626 0.244683
O O4 0.867249 0.240592 0.015270
O O5 0.500000 0.269003 0.500000
O O6 0.427466 0.500000 0.472118
O O7 0.375053 0.225591 0.434199
O O8 0.527436 0.307245 0.651235
O O9 0.230216 0.500000 0.682299
O O10 0.267691 0.280053 0.803473
O O11 0.283207 0.245875 0.701771
O O12 0.872808 0.500000 0.613293
O O13 0.841289 0.719523 0.656295
O O14 0.831480 0.762350 0.524127
O O15 0.694429 0.739878 0.824827
O O16 0.766287 0.000000 0.885255
O O17 0.248623 0.500000 0.394550
O O18 0.851737 0.000000 0.168133
#
# Coordination Sequence:
#
# PCOD8099624 Si02
#       7
#     8   8   8   8   8   8   8
#     4  11  23  39  59  81 110 147 189 234 279 329
#     4  10  20  35  56  83 113 145 184 228 275 329
#     4  11  23  37  56  83 116 152 188 229 281 335
#     4   9  20  39  61  88 116 144 183 230 280 334
#     4  11  24  40  56  78 111 151 194 233 275 329
#     4  10  20  36  62  90 116 146 181 226 281 337
#     4  11  22  37  58  83 113 148 187 231 280 331
#
# _framework density 19.30462
#
# number of rings (size 3 to 8) (size 9 to 14) (size 15 to 20)
#    0.000    1.571    1.429    3.429    0.000    7.143 
#    0.000    0.714    0.000    4.286    0.000    0.000 
#    0.000    0.000    0.000    0.000    0.000    0.000 
#
# Total GULP energy -347360.527634 kJ/mol
# GULP energy per Si atom -12405.733130 kJ/mol
# Density = 1.926068 g / cm^3
# Si number density = 19.304620 Si / 1000 Ang^3
#
#
#
# Elastic Constant Matrix: (Units=GPa)
#
#
# Indices 1 2 3 4 5 6 
#
# 1 104.4213 35.8493 39.8867 0.0000 -18.0889 0.0000
# 2 35.8493 59.8172 42.0216 0.0000 -5.0870 0.0000
# 3 39.8867 42.0216 86.8499 0.0000 -12.6481 0.0000
# 4 0.0000 0.0000 0.0000 32.2134 0.0000 -2.8266
# 5 -18.0889 -5.0870 -12.6481 0.0000 25.9602 0.0000
# 6 0.0000 0.0000 0.0000 -2.8266 0.0000 33.4993
#
#
#
# Elastic Compliance Matrix: (Units=1/GPa)
#
#
# Indices 1 2 3 4 5 6 
#
# 1 0.013801 -0.005975 -0.002387 0.000000 0.007283 0.000000
# 2 -0.005975 0.027941 -0.011392 0.000000 -0.004239 0.000000
# 3 -0.002387 -0.011392 0.018896 0.000000 0.005311 0.000000
# 4 0.000000 0.000000 0.000000 0.031275 0.000000 0.002639
# 5 0.007283 -0.004239 0.005311 0.000000 0.045352 0.000000
# 6 0.000000 0.000000 0.000000 0.002639 0.000000 0.030074
#
#
# Mechanical properties :
#
#
# Convention : Reuss Voigt Hill
#
# Bulk Modulus (GPa) = 47.32645 54.06706 50.69676
# Shear Modulus (GPa) = 23.37645 27.22330 25.29988
#
# Velocity S-wave (km/s) = 3.48361 3.75933 3.62409
# Velocity P-wave (km/s) = 6.38354 6.84920 6.62046
#
# Compressibility (1/GPa) = 0.02112983
#
# Stress axis : x y z
#
# Youngs Moduli (GPa) = 72.45707 35.78936 52.92224
#
# Poissons Ratio (x) = 0.21385 0.12631
# Poissons Ratio (y) = 0.43296 0.60290
# Poissons Ratio (z) = 0.17293 0.40772
#
# Static dielectric constant tensor:
#      x y z
#    x 3.659180 0.000000 -0.132370 
#    y 0.000000 3.562740 0.000000 
#    z -0.132370 0.000000 3.568320 
# 
# 
# High freq. dielectric constant tensor:
#      x y z
#    x 1.755870 0.000000 -0.009910 
#    y 0.000000 1.759770 0.000000 
#    z -0.009910 0.000000 1.746650 
# 
# From -- ./inp_files/238945.got.cif
#   From: 2010.06.25/outbox.cif.g09.slc.cpg/sg12_120_cif.got.tgz:238945.got - 2010.06.28 00:19:55.
