data_PCOD8099627
_publ_section_title
;
Structure prediction by ZEFSAII (Michael W. Deem and Ramdas Pophale) SiO2 
 PCOD8099627
Probable space group: C 2/M
;
_chemical_formula_sum "Si O2"
_cell_formula_units_Z 48
_cell_length_a 15.419743
_cell_length_b 9.257258
_cell_length_c 16.038147
_cell_angle_alpha 90.000000
_cell_angle_beta 71.768151
_cell_angle_gamma 90.000000
_cell_volume 2174.428216
_symmetry_space_group_name_H-M "C 2/M"
_symmetry_group_IT_number 12
_symmetry_cell_setting 'monoclinic'
loop_
_space_group_symop_operation_xyz
x,y,z
-x,y,-z
-x,-y,-z
x,-y,z
1/2+x,1/2+y,z
1/2-x,1/2+y,-z
1/2-x,1/2-y,-z
1/2+x,1/2-y,z
loop_
_atom_site_type_symbol
_atom_site_label
_atom_site_fract_x
_atom_site_fract_y
_atom_site_fract_z
Si Si1 0.838179 0.843462 0.470512
Si Si2 0.805062 0.834009 0.213845
Si Si3 0.164408 0.158308 0.339039
Si Si4 0.312748 0.169375 0.915225
Si Si5 0.500289 0.160833 0.600034
Si Si6 0.006356 0.830578 0.095184
O O1 0.750000 0.750000 0.500000
O O2 0.866203 0.867502 0.557268
O O3 0.915366 0.759424 0.395654
O O4 0.821976 0.000000 0.432583
O O5 0.764229 0.733122 0.299863
O O6 0.736935 0.806136 0.157506
O O7 0.908789 0.787546 0.164110
O O8 0.802108 0.000000 0.242798
O O9 0.087987 0.269408 0.328357
O O10 0.163167 0.000000 0.294855
O O11 0.413981 0.238831 0.884395
O O12 0.319324 0.000000 0.935434
O O13 0.250000 0.250000 0.000000
O O14 0.500000 0.152789 0.500000
O O15 0.510673 0.000000 0.633676
O O16 0.027901 0.000000 0.099984
O O17 0.000000 0.790764 0.000000
#
# Coordination Sequence:
#
# PCOD8099627 Si02
#       6
#     8   8   8   8   8   8
#     4  10  20  35  56  83 113 147 188 233 281 338
#     4  10  22  40  60  83 119 160 195 242 299 351
#     4  10  21  37  57  83 114 146 186 235 284 338
#     4  11  22  38  61  89 117 153 199 244 292 351
#     4   9  17  32  56  80 104 140 181 221 271 332
#     4  10  20  39  62  86 118 155 196 243 294 348
#
# _framework density 22.074767999999999
#
# number of rings (size 3 to 8) (size 9 to 14) (size 15 to 20)
#    0.000    2.000    1.667    2.000    0.000    6.333 
#    3.000    0.000    0.000    0.000    0.000    0.000 
#    0.000    0.000    0.000    0.000    0.000    0.000 
#
# Total GULP energy -297473.428876 kJ/mol
# GULP energy per Si atom -12394.726203 kJ/mol
# Density = 2.202453 g / cm^3
# Si number density = 22.074768 Si / 1000 Ang^3
#
#
#
# Elastic Constant Matrix: (Units=GPa)
#
#
# Indices 1 2 3 4 5 6 
#
# 1 124.2308 66.9827 21.2268 0.0000 -44.3186 0.0000
# 2 66.9827 184.2289 29.8297 0.0000 -43.2250 0.0000
# 3 21.2268 29.8297 58.5415 0.0000 -36.1964 0.0000
# 4 0.0000 0.0000 0.0000 28.1645 0.0000 -10.4052
# 5 -44.3186 -43.2250 -36.1964 0.0000 47.0402 0.0000
# 6 0.0000 0.0000 0.0000 -10.4052 0.0000 40.3042
#
#
#
# Elastic Compliance Matrix: (Units=1/GPa)
#
#
# Indices 1 2 3 4 5 6 
#
# 1 0.013736 -0.002365 0.005498 0.000000 0.014999 0.000000
# 2 -0.002365 0.007346 -0.000171 0.000000 0.004390 0.000000
# 3 0.005498 -0.000171 0.034872 0.000000 0.031857 0.000000
# 4 0.000000 0.000000 0.000000 0.039249 0.000000 0.010133
# 5 0.014999 0.004390 0.031857 0.000000 0.063936 0.000000
# 6 0.000000 0.000000 0.000000 0.010133 0.000000 0.027427
#
#
# Mechanical properties :
#
#
# Convention : Reuss Voigt Hill
#
# Bulk Modulus (GPa) = 16.16081 67.00885 41.58483
# Shear Modulus (GPa) = 24.84237 39.69926 32.27081
#
# Velocity S-wave (km/s) = 3.35830 4.24535 3.82761
# Velocity P-wave (km/s) = 4.73016 7.37916 6.19784
#
# Compressibility (1/GPa) = 0.06187809
#
# Stress axis : x y z
#
# Youngs Moduli (GPa) = 72.80062 136.13398 28.67592
#
# Poissons Ratio (x) = 0.32201 -0.15767
# Poissons Ratio (y) = 0.17220 0.00491
# Poissons Ratio (z) = -0.40029 0.02330
#
# Static dielectric constant tensor:
#      x y z
#    x 3.770540 0.000000 0.073010 
#    y 0.000000 4.281540 0.000000 
#    z 0.073010 0.000000 4.073900 
# 
# 
# High freq. dielectric constant tensor:
#      x y z
#    x 1.863110 0.000000 -0.025090 
#    y 0.000000 1.880450 0.000000 
#    z -0.025090 0.000000 1.852110 
# 
# From -- ./inp_files/313232.got.cif
#   From: 2010.06.25/outbox.cif.g09.slc.cpg/sg12_157_cif.got.tgz:313232.got - 2010.06.28 00:19:55.
