data_PCOD8099684
_publ_section_title
;
Structure prediction by ZEFSAII (Michael W. Deem and Ramdas Pophale) SiO2 
 PCOD8099684
Probable space group: C 2/M
;
_chemical_formula_sum "Si O2"
_cell_formula_units_Z 64
_cell_length_a 28.549834
_cell_length_b 9.126354
_cell_length_c 24.133623
_cell_angle_alpha 90.000000
_cell_angle_beta 149.253145
_cell_angle_gamma 90.000000
_cell_volume 3214.794898
_symmetry_space_group_name_H-M "C 2/M"
_symmetry_group_IT_number 12
_symmetry_cell_setting 'monoclinic'
loop_
_space_group_symop_operation_xyz
x,y,z
-x,y,-z
-x,-y,-z
x,-y,z
1/2+x,1/2+y,z
1/2-x,1/2+y,-z
1/2-x,1/2-y,-z
1/2+x,1/2-y,z
loop_
_atom_site_type_symbol
_atom_site_label
_atom_site_fract_x
_atom_site_fract_y
_atom_site_fract_z
Si Si1 0.608698 0.664594 0.114873
Si Si2 0.253871 0.830774 0.561803
Si Si3 0.381133 0.826653 0.491608
Si Si4 0.892497 0.338681 0.380705
Si Si5 0.122595 0.327495 0.020431
Si Si6 0.428333 0.668760 0.314130
Si Si7 0.585693 0.166299 0.196434
Si Si8 0.260123 0.331808 0.067457
O O1 0.646843 0.500000 0.153351
O O2 0.636214 0.737977 0.200894
O O3 0.500000 0.671311 0.000000
O O4 0.653488 0.749615 0.108855
O O5 0.250000 0.750000 0.500000
O O6 0.185871 0.755063 0.535301
O O7 0.357836 0.816668 0.689496
O O8 0.225347 0.000000 0.525559
O O9 0.348084 0.792836 0.394750
O O10 0.483169 0.767406 0.606383
O O11 0.381270 0.000000 0.503464
O O12 0.856830 0.500000 0.326431
O O13 0.871987 0.221639 0.311550
O O14 0.000000 0.346584 0.500000
O O15 0.135301 0.500000 0.042126
O O16 0.018604 0.283717 0.898514
O O17 0.187149 0.267674 0.037240
O O18 0.456730 0.500000 0.351841
O O19 0.362757 0.687531 0.194657
O O20 0.586073 0.000000 0.175057
O O21 0.236686 0.500000 0.032581
O O22 0.250000 0.250000 0.000000
#
# Coordination Sequence:
#
# PCOD8099684 Si02
#       8
#     8   8   8   8   8   8   8   8
#     4   9  17  30  52  84 115 141 175 220 270 322
#     4  11  24  40  57  81 111 145 190 236 278 326
#     4  10  21  38  59  83 112 147 185 225 275 333
#     4   8  16  32  54  81 110 141 180 223 273 335
#     4   9  18  36  58  79 108 145 182 221 268 326
#     4  10  20  35  56  84 115 145 181 228 280 331
#     4   9  19  36  58  81 108 145 183 220 269 327
#     4  10  23  39  55  79 109 144 189 233 273 323
#
# _framework density 19.907958000000001
#
# number of rings (size 3 to 8) (size 9 to 14) (size 15 to 20)
#    0.000    2.500    0.000    2.250    0.000    8.750 
#    0.000    5.000    0.000    0.000    0.000    0.000 
#    0.000    0.000    0.000    0.000    0.000    0.000 
#
# Total GULP energy -396785.556443 kJ/mol
# GULP energy per Si atom -12399.548639 kJ/mol
# Density = 1.986265 g / cm^3
# Si number density = 19.907958 Si / 1000 Ang^3
#
#
#
# Elastic Constant Matrix: (Units=GPa)
#
#
# Indices 1 2 3 4 5 6 
#
# 1 93.2611 37.9095 8.9979 0.0000 -12.3738 0.0000
# 2 37.9095 99.5023 26.3561 0.0000 -13.7649 0.0000
# 3 8.9979 26.3561 43.6098 0.0000 -14.0849 0.0000
# 4 0.0000 0.0000 0.0000 24.6132 0.0000 -9.3223
# 5 -12.3738 -13.7649 -14.0849 0.0000 31.5769 0.0000
# 6 0.0000 0.0000 0.0000 -9.3223 0.0000 36.9666
#
#
#
# Elastic Compliance Matrix: (Units=1/GPa)
#
#
# Indices 1 2 3 4 5 6 
#
# 1 0.013034 -0.004836 0.001405 0.000000 0.003626 0.000000
# 2 -0.004836 0.013908 -0.007082 0.000000 0.001009 0.000000
# 3 0.001405 -0.007082 0.030495 0.000000 0.011065 0.000000
# 4 0.000000 0.000000 0.000000 0.044919 0.000000 0.011328
# 5 0.003626 0.001009 0.011065 0.000000 0.038465 0.000000
# 6 0.000000 0.000000 0.000000 0.011328 0.000000 0.029908
#
#
# Mechanical properties :
#
#
# Convention : Reuss Voigt Hill
#
# Bulk Modulus (GPa) = 27.46517 42.54448 35.00483
# Shear Modulus (GPa) = 24.52276 29.50534 27.01405
#
# Velocity S-wave (km/s) = 3.51352 3.85397 3.68767
# Velocity P-wave (km/s) = 5.50325 6.42036 5.97942
#
# Compressibility (1/GPa) = 0.03640975
#
# Stress axis : x y z
#
# Youngs Moduli (GPa) = 76.72215 71.90117 32.79267
#
# Poissons Ratio (x) = 0.34774 -0.04606
# Poissons Ratio (y) = 0.37105 0.23223
# Poissons Ratio (z) = -0.10777 0.50919
#
# Static dielectric constant tensor:
#      x y z
#    x 3.715440 0.000000 0.014640 
#    y 0.000000 3.705750 0.000000 
#    z 0.014640 0.000000 3.444660 
# 
# 
# High freq. dielectric constant tensor:
#      x y z
#    x 1.774260 0.000000 0.002070 
#    y 0.000000 1.778560 0.000000 
#    z 0.002070 0.000000 1.771800 
# 
# From -- ./inp_files/353449.got.cif
#   From: 2010.06.25/outbox.cif.g09.slc.cpg/sg12_177_cif.got.tgz:353449.got - 2010.06.28 00:19:55.
