data_PCOD8099234
_publ_section_title
;
Structure prediction by ZEFSAII (Michael W. Deem and Ramdas Pophale) SiO2 
 PCOD8099234
Probable space group: C 2/M
;
_chemical_formula_sum "Si O2"
_cell_formula_units_Z 36
_cell_length_a 5.238012
_cell_length_b 34.508610
_cell_length_c 11.921092
_cell_angle_alpha 90.000000
_cell_angle_beta 123.047416
_cell_angle_gamma 90.000000
_cell_volume 1806.208094
_symmetry_space_group_name_H-M "C 2/M"
_symmetry_group_IT_number 12
_symmetry_cell_setting 'monoclinic'
loop_
_space_group_symop_operation_xyz
x,y,z
-x,y,-z
-x,-y,-z
x,-y,z
1/2+x,1/2+y,z
1/2-x,1/2+y,-z
1/2-x,1/2-y,-z
1/2+x,1/2-y,z
loop_
_atom_site_type_symbol
_atom_site_label
_atom_site_fract_x
_atom_site_fract_y
_atom_site_fract_z
Si Si1 0.217299 0.858240 0.752952
Si Si2 0.301400 0.773917 0.844421
Si Si3 0.500000 0.398374 0.500000
Si Si4 0.855014 0.101304 0.849385
Si Si5 0.011695 0.543233 0.635490
O O1 0.230461 0.812007 0.755702
O O2 0.956950 0.870906 0.598632
O O3 0.549183 0.874317 0.798920
O O4 0.104693 0.872088 0.847679
O O5 0.484495 0.744743 0.808005
O O6 0.500000 0.785690 0.000000
O O7 0.244943 0.426896 0.391538
O O8 0.811654 0.062627 0.761743
O O9 0.000000 0.086993 0.000000
O O10 0.963504 0.500000 0.673926
O O11 0.000000 0.540932 0.500000
#
# Coordination Sequence:
#
# PCOD8099234 Si02
#       5
#     8   8   4   8   8
#     4  11  22  38  61  85 117 153 194 238 287 344
#     4  10  20  35  55  81 112 147 187 232 286 343
#     4  10  21  38  60  84 114 156 198 236 280 352
#     4  11  22  37  59  88 118 152 195 243 291 338
#     4  10  20  37  59  83 116 155 196 238 285 346
#
# _framework density 19.931258
#
# number of rings (size 3 to 8) (size 9 to 14) (size 15 to 20)
#    0.000    1.556    2.222    3.667    0.000    2.222 
#    0.000    1.111    0.000    4.000    0.000    0.000 
#    0.000    0.000    0.000    0.000    0.000    0.000 
#
# Total GULP energy -223050.789002 kJ/mol
# GULP energy per Si atom -12391.710500 kJ/mol
# Density = 1.988589 g / cm^3
# Si number density = 19.931258 Si / 1000 Ang^3
#
#
#
# Elastic Constant Matrix: (Units=GPa)
#
#
# Indices 1 2 3 4 5 6 
#
# 1 92.6101 29.8291 10.6365 0.0000 -14.2020 0.0000
# 2 29.8291 153.0109 56.3480 0.0000 -2.9818 0.0000
# 3 10.6365 56.3480 85.4224 0.0000 -11.7386 0.0000
# 4 0.0000 0.0000 0.0000 25.8181 0.0000 0.3745
# 5 -14.2020 -2.9818 -11.7386 0.0000 21.9842 0.0000
# 6 0.0000 0.0000 0.0000 0.3745 0.0000 21.4977
#
#
#
# Elastic Compliance Matrix: (Units=1/GPa)
#
#
# Indices 1 2 3 4 5 6 
#
# 1 0.012900 -0.002900 0.001508 0.000000 0.008746 0.000000
# 2 -0.002900 0.009368 -0.006369 0.000000 -0.004003 0.000000
# 3 0.001508 -0.006369 0.016981 0.000000 0.009178 0.000000
# 4 0.000000 0.000000 0.000000 0.038742 0.000000 -0.000675
# 5 0.008746 -0.004003 0.009178 0.000000 0.055494 0.000000
# 6 0.000000 0.000000 0.000000 -0.000675 0.000000 0.046528
#
#
# Mechanical properties :
#
#
# Convention : Reuss Voigt Hill
#
# Bulk Modulus (GPa) = 42.14301 58.29674 50.21988
# Shear Modulus (GPa) = 24.57683 29.47531 27.02607
#
# Velocity S-wave (km/s) = 3.51533 3.84975 3.68634
# Velocity P-wave (km/s) = 6.13733 7.00523 6.58559
#
# Compressibility (1/GPa) = 0.02372873
#
# Stress axis : x y z
#
# Youngs Moduli (GPa) = 77.52011 106.74515 58.88974
#
# Poissons Ratio (x) = 0.30955 -0.08883
# Poissons Ratio (y) = 0.22480 0.37505
# Poissons Ratio (z) = -0.11693 0.67982
#
# Static dielectric constant tensor:
#      x y z
#    x 3.248040 0.000000 -0.219710 
#    y 0.000000 3.810050 0.000000 
#    z -0.219710 0.000000 3.703110 
# 
# 
# High freq. dielectric constant tensor:
#      x y z
#    x 1.770610 0.000000 -0.007130 
#    y 0.000000 1.782620 0.000000 
#    z -0.007130 0.000000 1.772710 
# 
# From -- ./inp_files/115371.got.cif
#   From: 2010.06.25/outbox.cif.g09.slc.cpg/sg12_58_cif.got.tgz:115371.got - 2010.06.28 00:19:55.
