data_PCOD8099050
_publ_section_title
;
Structure prediction by ZEFSAII (Michael W. Deem and Ramdas Pophale) SiO2 
 PCOD8099050
Probable space group: C 2/M
;
_chemical_formula_sum "Si O2"
_cell_formula_units_Z 56
_cell_length_a 22.939902
_cell_length_b 9.015729
_cell_length_c 19.224240
_cell_angle_alpha 90.000000
_cell_angle_beta 127.500185
_cell_angle_gamma 90.000000
_cell_volume 3154.330284
_symmetry_space_group_name_H-M "C 2/M"
_symmetry_group_IT_number 12
_symmetry_cell_setting 'monoclinic'
loop_
_space_group_symop_operation_xyz
x,y,z
-x,y,-z
-x,-y,-z
x,-y,z
1/2+x,1/2+y,z
1/2-x,1/2+y,-z
1/2-x,1/2-y,-z
1/2+x,1/2-y,z
loop_
_atom_site_type_symbol
_atom_site_label
_atom_site_fract_x
_atom_site_fract_y
_atom_site_fract_z
Si Si1 0.024700 0.827883 0.820479
Si Si2 0.430219 0.663409 0.498740
Si Si3 0.148370 0.175097 0.690483
Si Si4 0.305914 0.169797 0.858603
Si Si5 0.456726 0.830284 0.899761
Si Si6 0.515340 0.175185 0.671087
Si Si7 0.815704 0.828407 0.008652
O O1 0.998475 0.733659 0.735611
O O2 0.978302 0.776353 0.852930
O O3 0.008393 0.000000 0.795230
O O4 0.110796 0.799257 0.894530
O O5 0.500000 0.652757 0.500000
O O6 0.413360 0.500000 0.517949
O O7 0.363932 0.717479 0.400019
O O8 0.446169 0.777542 0.572542
O O9 0.230134 0.225623 0.769631
O O10 0.091810 0.258132 0.699661
O O11 0.135666 0.000000 0.692000
O O12 0.369616 0.186948 0.847844
O O13 0.326742 0.266852 0.939774
O O14 0.298617 0.000000 0.878145
O O15 0.477963 0.000000 0.897066
O O16 0.500000 0.779079 0.000000
O O17 0.521428 0.000000 0.675810
O O18 0.796657 0.000000 0.989346
O O19 0.750000 0.750000 0.000000
#
# Coordination Sequence:
#
# PCOD8099050 Si02
#       7
#     8   8   8   8   8   8   8
#     4  11  23  37  53  73 102 139 177 215 255 307
#     4   8  15  30  51  74 104 139 171 204 250 311
#     4   9  18  33  53  78 108 141 172 204 252 314
#     4  10  20  35  55  77 104 136 171 211 255 305
#     4  10  20  36  57  78 101 133 174 219 262 301
#     4  11  21  32  51  79 108 136 171 216 262 306
#     4  11  23  35  50  74 104 137 171 209 256 306
#
# _framework density 17.753371999999999
#
# number of rings (size 3 to 8) (size 9 to 14) (size 15 to 20)
#    0.000    2.000    1.429    3.857    0.000    9.143 
#    0.000    0.000    0.000    0.857    0.000    0.000 
#    0.000    0.000    0.000    0.000    0.000    0.000 
#
# Total GULP energy -347229.862254 kJ/mol
# GULP energy per Si atom -12401.066509 kJ/mol
# Density = 1.771296 g / cm^3
# Si number density = 17.753372 Si / 1000 Ang^3
#
#
#
# Elastic Constant Matrix: (Units=GPa)
#
#
# Indices 1 2 3 4 5 6 
#
# 1 60.0192 31.5529 21.3685 0.0000 -13.2358 0.0000
# 2 31.5529 88.6199 47.9228 0.0000 -12.4381 0.0000
# 3 21.3685 47.9228 100.1377 0.0000 -15.3735 0.0000
# 4 0.0000 0.0000 0.0000 27.7433 0.0000 -5.4947
# 5 -13.2358 -12.4381 -15.3735 0.0000 19.1444 0.0000
# 6 0.0000 0.0000 0.0000 -5.4947 0.0000 26.3476
#
#
#
# Elastic Compliance Matrix: (Units=1/GPa)
#
#
# Indices 1 2 3 4 5 6 
#
# 1 0.022560 -0.006440 0.000023 0.000000 0.011431 0.000000
# 2 -0.006440 0.017428 -0.006743 0.000000 0.001456 0.000000
# 3 0.000023 -0.006743 0.014301 0.000000 0.007120 0.000000
# 4 0.000000 0.000000 0.000000 0.037598 0.000000 0.007841
# 5 0.011431 0.001456 0.007120 0.000000 0.066801 0.000000
# 6 0.000000 0.000000 0.000000 0.007841 0.000000 0.039589
#
#
# Mechanical properties :
#
#
# Convention : Reuss Voigt Hill
#
# Bulk Modulus (GPa) = 35.75404 50.05167 42.90285
# Shear Modulus (GPa) = 21.37490 24.50923 22.94206
#
# Velocity S-wave (km/s) = 3.47362 3.71959 3.59871
# Velocity P-wave (km/s) = 6.02255 6.83382 6.44097
#
# Compressibility (1/GPa) = 0.02796887
#
# Stress axis : x y z
#
# Youngs Moduli (GPa) = 44.32659 57.37993 69.92459
#
# Poissons Ratio (x) = 0.36955 -0.00162
# Poissons Ratio (y) = 0.28548 0.47147
# Poissons Ratio (z) = -0.00102 0.38689
#
# Static dielectric constant tensor:
#      x y z
#    x 3.069310 0.000000 0.108810 
#    y 0.000000 3.302200 0.000000 
#    z 0.108810 0.000000 3.719010 
# 
# 
# High freq. dielectric constant tensor:
#      x y z
#    x 1.660620 0.000000 0.000180 
#    y 0.000000 1.686880 0.000000 
#    z 0.000180 0.000000 1.695610 
# 
# From -- ./inp_files/281598.got.cif
#   From: 2010.06.25/outbox.cif.g09.slc.cpg/sg12_141_cif.got.tgz:281598.got - 2010.06.28 00:19:55.
