data_PCOD8099651
_publ_section_title
;
Structure prediction by ZEFSAII (Michael W. Deem and Ramdas Pophale) SiO2 
 PCOD8099651
Probable space group: C 2/M
;
_chemical_formula_sum "Si O2"
_cell_formula_units_Z 64
_cell_length_a 25.226071
_cell_length_b 9.040458
_cell_length_c 14.489564
_cell_angle_alpha 90.000000
_cell_angle_beta 79.884525
_cell_angle_gamma 90.000000
_cell_volume 3253.056280
_symmetry_space_group_name_H-M "C 2/M"
_symmetry_group_IT_number 12
_symmetry_cell_setting 'monoclinic'
loop_
_space_group_symop_operation_xyz
x,y,z
-x,y,-z
-x,-y,-z
x,-y,z
1/2+x,1/2+y,z
1/2-x,1/2+y,-z
1/2-x,1/2-y,-z
1/2+x,1/2-y,z
loop_
_atom_site_type_symbol
_atom_site_label
_atom_site_fract_x
_atom_site_fract_y
_atom_site_fract_z
Si Si1 0.215058 0.173012 0.293208
Si Si2 0.231885 0.326911 0.913088
Si Si3 0.506645 0.831460 0.289245
Si Si4 0.093792 0.173762 0.379519
Si Si5 0.638148 0.666926 0.857496
Si Si6 0.099530 0.326738 0.566999
Si Si7 0.968326 0.334474 0.103509
Si Si8 0.309634 0.669168 0.355439
O O1 0.230833 0.222782 0.184581
O O2 0.153293 0.216611 0.326800
O O3 0.251211 0.256731 0.358549
O O4 0.225969 0.000000 0.303016
O O5 0.234009 0.500000 0.928305
O O6 0.171026 0.277096 0.912762
O O7 0.250000 0.250000 0.000000
O O8 0.551213 0.721493 0.315345
O O9 0.447020 0.791643 0.344613
O O10 0.507571 0.809219 0.178673
O O11 0.521226 0.000000 0.312331
O O12 0.079441 0.260776 0.476649
O O13 0.088540 0.000000 0.399315
O O14 0.646120 0.500000 0.890597
O O15 0.576400 0.709528 0.882182
O O16 0.656430 0.683962 0.747426
O O17 0.109970 0.500000 0.554096
O O18 0.156208 0.251271 0.576277
O O19 0.943181 0.500000 0.118384
O O20 0.000000 0.314543 0.000000
O O21 0.301020 0.500000 0.388667
#
# Coordination Sequence:
#
# PCOD8099651 Si02
#       8
#     8   8   8   8   8   8   8   8
#     4   9  21  40  58  81 117 157 192 235 296 353
#     4  10  20  36  59  84 113 150 195 239 288 350
#     4  10  22  40  60  84 117 156 197 239 290 351
#     4  11  24  40  59  85 118 155 196 244 293 347
#     4  10  20  35  56  83 115 148 188 238 292 342
#     4  11  22  38  62  87 115 155 197 239 294 353
#     4  10  21  38  60  87 117 153 196 239 290 348
#     4  10  20  35  60  89 114 147 193 242 286 341
#
# _framework density 19.673805000000002
#
# number of rings (size 3 to 8) (size 9 to 14) (size 15 to 20)
#    0.000    1.875    1.250    2.250    0.000    7.250 
#    0.000    2.500    0.000    0.000    0.000    0.000 
#    0.000    0.000    0.000    0.000    0.000    0.000 
#
# Total GULP energy -396927.346961 kJ/mol
# GULP energy per Si atom -12403.979593 kJ/mol
# Density = 1.962903 g / cm^3
# Si number density = 19.673805 Si / 1000 Ang^3
#
#
#
# Elastic Constant Matrix: (Units=GPa)
#
#
# Indices 1 2 3 4 5 6 
#
# 1 96.5616 48.8330 34.1183 0.0000 11.1300 0.0000
# 2 48.8330 85.7892 40.0263 0.0000 5.6920 0.0000
# 3 34.1183 40.0263 94.8538 0.0000 14.1860 0.0000
# 4 0.0000 0.0000 0.0000 31.5079 0.0000 8.4382
# 5 11.1300 5.6920 14.1860 0.0000 26.4254 0.0000
# 6 0.0000 0.0000 0.0000 8.4382 0.0000 39.0736
#
#
#
# Elastic Compliance Matrix: (Units=1/GPa)
#
#
# Indices 1 2 3 4 5 6 
#
# 1 0.015265 -0.007646 -0.001684 0.000000 -0.003878 0.000000
# 2 -0.007646 0.018345 -0.005308 0.000000 0.002118 0.000000
# 3 -0.001684 -0.005308 0.014256 0.000000 -0.005800 0.000000
# 4 0.000000 0.000000 0.000000 0.033686 0.000000 -0.007275
# 5 -0.003878 0.002118 -0.005800 0.000000 0.042133 0.000000
# 6 0.000000 0.000000 0.000000 -0.007275 0.000000 0.027164
#
#
# Mechanical properties :
#
#
# Convention : Reuss Voigt Hill
#
# Bulk Modulus (GPa) = 53.79432 58.12889 55.96161
# Shear Modulus (GPa) = 26.83548 29.68318 28.25933
#
# Velocity S-wave (km/s) = 3.69727 3.88850 3.79409
# Velocity P-wave (km/s) = 6.75492 7.05486 6.90652
#
# Compressibility (1/GPa) = 0.01858932
#
# Stress axis : x y z
#
# Youngs Moduli (GPa) = 65.50967 54.51210 70.14834
#
# Poissons Ratio (x) = 0.41680 0.11815
# Poissons Ratio (y) = 0.50089 0.37232
# Poissons Ratio (z) = 0.11033 0.28933
#
# Static dielectric constant tensor:
#      x y z
#    x 3.561180 0.000000 0.062170 
#    y 0.000000 3.641880 0.000000 
#    z 0.062170 0.000000 3.603930 
# 
# 
# High freq. dielectric constant tensor:
#      x y z
#    x 1.764540 0.000000 0.007520 
#    y 0.000000 1.772860 0.000000 
#    z 0.007520 0.000000 1.767540 
# 
# From -- ./inp_files/238640.got.cif
#   From: 2010.06.25/outbox.cif.g09.slc.cpg/sg12_120_cif.got.tgz:238640.got - 2010.06.28 00:19:55.
