data_PCOD8099897
_publ_section_title
;
Structure prediction by ZEFSAII (Michael W. Deem and Ramdas Pophale) SiO2 
 PCOD8099897
Probable space group: C 2/M
;
_chemical_formula_sum "Si O2"
_cell_formula_units_Z 64
_cell_length_a 8.859506
_cell_length_b 18.446441
_cell_length_c 29.941293
_cell_angle_alpha 90.000000
_cell_angle_beta 137.709280
_cell_angle_gamma 90.000000
_cell_volume 3292.596162
_symmetry_space_group_name_H-M "C 2/M"
_symmetry_group_IT_number 12
_symmetry_cell_setting 'monoclinic'
loop_
_space_group_symop_operation_xyz
x,y,z
-x,y,-z
-x,-y,-z
x,-y,z
1/2+x,1/2+y,z
1/2-x,1/2+y,-z
1/2-x,1/2-y,-z
1/2+x,1/2-y,z
loop_
_atom_site_type_symbol
_atom_site_label
_atom_site_fract_x
_atom_site_fract_y
_atom_site_fract_z
Si Si1 0.148058 0.172332 0.688461
Si Si2 0.432645 0.415820 0.803390
Si Si3 0.205753 0.827669 0.311538
Si Si4 0.597605 0.673876 0.068166
Si Si5 0.517277 0.582730 0.576776
Si Si6 0.366601 0.917270 0.576777
Si Si7 0.256772 0.173876 0.931834
Si Si8 0.584301 0.915820 0.803389
O O1 0.247961 0.250001 0.699186
O O2 0.022392 0.137696 0.618764
O O3 0.342933 0.120171 0.748149
O O4 0.970551 0.183135 0.688221
O O5 0.476392 0.500000 0.805458
O O6 0.397817 0.379829 0.748151
O O7 0.652036 0.384050 0.875246
O O8 0.212483 0.401453 0.784993
O O9 0.428572 0.862306 0.381235
O O10 0.723529 0.749999 0.089411
O O11 0.394094 0.685015 0.057637
O O12 0.775810 0.615950 0.124755
O O13 0.500000 0.644872 0.000000
O O14 0.514585 0.500000 0.593702
O O15 0.294072 0.599371 0.500000
O O16 0.735786 0.595263 0.594315
O O17 0.453920 0.000000 0.593702
O O18 0.500000 0.144874 0.000000
O O19 0.550892 0.000000 0.805456
#
# Coordination Sequence:
#
# PCOD8099897 Si02
#       8
#     8   8   8   8   8   8   8   8
#     4  12  25  39  58  84 114 150 191 236 284 333
#     4  10  22  40  60  83 114 150 187 231 284 339
#     4  12  25  39  58  84 114 150 191 236 284 333
#     4  10  20  35  57  83 112 148 187 229 278 331
#     4   9  19  38  63  88 116 151 187 226 278 337
#     4   9  19  38  63  88 116 151 187 226 278 337
#     4  10  20  35  57  83 112 148 187 229 278 331
#     4  10  22  40  60  83 114 150 187 231 284 339
#
# _framework density 19.437550000000002
#
# number of rings (size 3 to 8) (size 9 to 14) (size 15 to 20)
#    0.000    1.750    0.000    6.000    0.000    9.500 
#    0.000    1.250    0.000    0.000    0.000    0.000 
#    0.000    0.000    0.000    0.000    0.000    0.000 
#
# Total GULP energy -396952.115475 kJ/mol
# GULP energy per Si atom -12404.753609 kJ/mol
# Density = 1.939331 g / cm^3
# Si number density = 19.437550 Si / 1000 Ang^3
#
#
#
# Elastic Constant Matrix: (Units=GPa)
#
#
# Indices 1 2 3 4 5 6 
#
# 1 124.7314 60.1711 64.1041 0.0000 -0.0998 0.0000
# 2 60.1711 121.2475 71.8544 -0.0002 -0.1406 0.0000
# 3 64.1041 71.8544 118.3425 -0.0002 0.1784 0.0001
# 4 0.0000 -0.0002 -0.0002 46.7750 0.0000 -0.2076
# 5 -0.0998 -0.1406 0.1784 0.0000 34.4620 0.0001
# 6 0.0000 0.0000 0.0001 -0.2076 0.0001 29.6946
#
#
#
# Elastic Compliance Matrix: (Units=1/GPa)
#
#
# Indices 1 2 3 4 5 6 
#
# 1 0.011878 -0.003252 -0.004460 0.000000 0.000044 0.000000
# 2 -0.003252 0.013774 -0.006602 0.000000 0.000081 0.000000
# 3 -0.004460 -0.006602 0.014875 0.000000 -0.000117 0.000000
# 4 0.000000 0.000000 0.000000 0.021380 0.000000 0.000149
# 5 0.000044 0.000081 -0.000117 0.000000 0.029019 0.000000
# 6 0.000000 0.000000 0.000000 0.000149 0.000000 0.033677
#
#
# Mechanical properties :
#
#
# Convention : Reuss Voigt Hill
#
# Bulk Modulus (GPa) = 84.03619 84.06453 84.05036
# Shear Modulus (GPa) = 31.80768 33.39911 32.60340
#
# Velocity S-wave (km/s) = 4.04964 4.14971 4.09998
# Velocity P-wave (km/s) = 8.07427 8.14264 8.10853
#
# Compressibility (1/GPa) = 0.01189964
#
# Stress axis : x y z
#
# Youngs Moduli (GPa) = 84.18977 72.60184 67.22875
#
# Poissons Ratio (x) = 0.23607 0.29983
# Poissons Ratio (y) = 0.27374 0.44384
# Poissons Ratio (z) = 0.37548 0.47931
#
# Static dielectric constant tensor:
#      x y z
#    x 3.542050 0.000000 -0.001440 
#    y 0.000000 3.570890 0.000000 
#    z -0.001440 0.000000 3.660360 
# 
# 
# High freq. dielectric constant tensor:
#      x y z
#    x 1.756640 0.000000 -0.000180 
#    y 0.000000 1.760830 0.000000 
#    z -0.000180 0.000000 1.771700 
# 
# From -- ./inp_files/372969.got.cif
#   From: 2010.06.25/outbox.cif.g09.slc.cpg/sg12_187_cif.got.tgz:372969.got - 2010.06.28 00:19:55.
