data_PCOD8099429
_publ_section_title
;
Structure prediction by ZEFSAII (Michael W. Deem and Ramdas Pophale) SiO2 
 PCOD8099429
Probable space group: C 2/M
;
_chemical_formula_sum "Si O2"
_cell_formula_units_Z 56
_cell_length_a 27.357884
_cell_length_b 8.991544
_cell_length_c 13.582714
_cell_angle_alpha 90.000000
_cell_angle_beta 59.931993
_cell_angle_gamma 90.000000
_cell_volume 2891.584862
_symmetry_space_group_name_H-M "C 2/M"
_symmetry_group_IT_number 12
_symmetry_cell_setting 'monoclinic'
loop_
_space_group_symop_operation_xyz
x,y,z
-x,y,-z
-x,-y,-z
x,-y,z
1/2+x,1/2+y,z
1/2-x,1/2+y,-z
1/2-x,1/2-y,-z
1/2+x,1/2-y,z
loop_
_atom_site_type_symbol
_atom_site_label
_atom_site_fract_x
_atom_site_fract_y
_atom_site_fract_z
Si Si1 0.592486 0.675581 0.272305
Si Si2 0.165281 0.823620 0.836750
Si Si3 0.761056 0.324687 0.592243
Si Si4 0.982251 0.326909 0.299368
Si Si5 0.047289 0.829231 0.870247
Si Si6 0.692028 0.676379 0.027336
Si Si7 0.882629 0.327440 0.549445
O O1 0.586433 0.500000 0.277281
O O2 0.534824 0.742024 0.291150
O O3 0.643781 0.728161 0.151487
O O4 0.603219 0.729206 0.371222
O O5 0.215182 0.764619 0.716402
O O6 0.105674 0.765788 0.855430
O O7 0.164728 0.000000 0.841116
O O8 0.174904 0.762416 0.936996
O O9 0.756233 0.500000 0.583008
O O10 0.750000 0.250000 0.500000
O O11 0.822175 0.277483 0.569578
O O12 0.996692 0.500000 0.282660
O O13 0.970225 0.272242 0.202345
O O14 0.927726 0.292717 0.419890
O O15 0.053723 0.000000 0.828656
O O16 0.000000 0.815164 0.000000
O O17 0.699850 0.500000 0.019241
O O18 0.750000 0.750000 0.000000
O O19 0.883066 0.500000 0.580062
#
# Coordination Sequence:
#
# PCOD8099429 Si02
#       7
#     8   8   8   8   8   8   8
#     4  11  23  38  59  86 113 145 188 235 280 333
#     4   9  18  34  56  79 106 144 182 218 271 332
#     4  10  20  35  56  80 108 143 182 225 273 327
#     4  11  23  38  57  82 113 149 188 232 285 341
#     4  10  20  36  58  82 111 147 186 231 281 335
#     4  10  21  38  59  84 113 145 184 227 274 330
#     4  10  22  39  57  80 113 151 188 232 287 340
#
# _framework density 19.366541000000002
#
# number of rings (size 3 to 8) (size 9 to 14) (size 15 to 20)
#    0.000    1.857    0.000    3.857    0.000    8.286 
#    0.000    1.429    0.000    0.000    0.000    0.000 
#    0.000    0.000    0.000    0.000    0.000    0.000 
#
# Total GULP energy -347327.744442 kJ/mol
# GULP energy per Si atom -12404.562301 kJ/mol
# Density = 1.932246 g / cm^3
# Si number density = 19.366541 Si / 1000 Ang^3
#
#
#
# Elastic Constant Matrix: (Units=GPa)
#
#
# Indices 1 2 3 4 5 6 
#
# 1 169.5385 39.6687 52.5778 0.0000 -1.3262 0.0000
# 2 39.6687 41.7153 35.2465 0.0000 0.8138 0.0000
# 3 52.5778 35.2465 105.7686 0.0000 6.1665 0.0000
# 4 0.0000 0.0000 0.0000 26.8448 0.0000 7.3096
# 5 -1.3262 0.8138 6.1665 0.0000 43.5943 0.0000
# 6 0.0000 0.0000 0.0000 7.3096 0.0000 34.1595
#
#
#
# Elastic Compliance Matrix: (Units=1/GPa)
#
#
# Indices 1 2 3 4 5 6 
#
# 1 0.007889 -0.005804 -0.002025 0.000000 0.000635 0.000000
# 2 -0.005804 0.037676 -0.009699 0.000000 0.000492 0.000000
# 3 -0.002025 -0.009699 0.013800 0.000000 -0.001833 0.000000
# 4 0.000000 0.000000 0.000000 0.039556 0.000000 -0.008464
# 5 0.000635 0.000492 -0.001833 0.000000 0.023208 0.000000
# 6 0.000000 0.000000 0.000000 -0.008464 0.000000 0.031086
#
#
# Mechanical properties :
#
#
# Convention : Reuss Voigt Hill
#
# Bulk Modulus (GPa) = 41.13410 63.55650 52.34530
# Shear Modulus (GPa) = 25.46165 33.55503 29.50834
#
# Velocity S-wave (km/s) = 3.62985 4.16700 3.90766
# Velocity P-wave (km/s) = 6.23327 7.48604 6.88819
#
# Compressibility (1/GPa) = 0.02431073
#
# Stress axis : x y z
#
# Youngs Moduli (GPa) = 126.75539 26.54181 72.46372
#
# Poissons Ratio (x) = 0.15404 0.14672
# Poissons Ratio (y) = 0.73567 0.70282
# Poissons Ratio (z) = 0.25664 0.25743
#
# Static dielectric constant tensor:
#      x y z
#    x 3.661150 0.000000 -0.136160 
#    y 0.000000 3.371090 0.000000 
#    z -0.136160 0.000000 3.754710 
# 
# 
# High freq. dielectric constant tensor:
#      x y z
#    x 1.775650 0.000000 -0.002230 
#    y 0.000000 1.734890 0.000000 
#    z -0.002230 0.000000 1.772170 
# 
# From -- ./inp_files/180842.got.cif
#   From: 2010.06.25/outbox.cif.g09.slc.cpg/sg12_91_cif.got.tgz:180842.got - 2010.06.28 00:19:55.
