data_PCOD8099334
_publ_section_title
;
Structure prediction by ZEFSAII (Michael W. Deem and Ramdas Pophale) SiO2 
 PCOD8099334
Probable space group: C 2/M
;
_chemical_formula_sum "Si O2"
_cell_formula_units_Z 48
_cell_length_a 18.325585
_cell_length_b 8.958803
_cell_length_c 20.713013
_cell_angle_alpha 90.000000
_cell_angle_beta 131.753210
_cell_angle_gamma 90.000000
_cell_volume 2536.889915
_symmetry_space_group_name_H-M "C 2/M"
_symmetry_group_IT_number 12
_symmetry_cell_setting 'monoclinic'
loop_
_space_group_symop_operation_xyz
x,y,z
-x,y,-z
-x,-y,-z
x,-y,z
1/2+x,1/2+y,z
1/2-x,1/2+y,-z
1/2-x,1/2-y,-z
1/2+x,1/2-y,z
loop_
_atom_site_type_symbol
_atom_site_label
_atom_site_fract_x
_atom_site_fract_y
_atom_site_fract_z
Si Si1 0.231454 0.676134 0.921097
Si Si2 0.510584 0.823329 0.405808
Si Si3 0.480274 0.822569 0.246134
Si Si4 0.355625 0.176976 0.755008
Si Si5 0.341643 0.823314 0.400459
Si Si6 0.893013 0.175270 0.913060
O O1 0.230351 0.500000 0.930073
O O2 0.128334 0.735460 0.833252
O O3 0.316169 0.725517 0.921989
O O4 0.250000 0.750000 0.000000
O O5 0.512929 0.756236 0.334943
O O6 0.412176 0.770018 0.383918
O O7 0.607480 0.775082 0.502057
O O8 0.506887 0.000000 0.401871
O O9 0.553521 0.764503 0.234229
O O10 0.481654 0.000000 0.249971
O O11 0.258658 0.235132 0.663446
O O12 0.366200 0.239752 0.832537
O O13 0.352784 0.000000 0.756576
O O14 0.321861 0.000000 0.385631
O O15 0.886703 0.000000 0.895248
O O16 0.000000 0.223228 0.000000
#
# Coordination Sequence:
#
# PCOD8099334 Si02
#       6
#     8   8   8   8   8   8
#     4  10  20  35  56  78 102 133 167 207 253 301
#     4   8  15  31  55  77  97 130 176 216 252 302
#     4   9  18  32  49  72 103 137 171 205 248 305
#     4  11  22  33  49  75 107 140 169 204 254 308
#     4   9  17  32  56  79  98 129 174 218 256 299
#     4  10  21  37  57  79 102 131 171 217 257 295
#
# _framework density 18.920805999999999
#
# number of rings (size 3 to 8) (size 9 to 14) (size 15 to 20)
#    0.000    2.500    0.000    3.500    0.000    4.333 
#    0.000    2.500    0.000    4.000    0.000    0.000 
#    0.000    0.000    0.000    0.000    0.000    0.000 
#
# Total GULP energy -297595.210795 kJ/mol
# GULP energy per Si atom -12399.800450 kJ/mol
# Density = 1.887774 g / cm^3
# Si number density = 18.920806 Si / 1000 Ang^3
#
#
#
# Elastic Constant Matrix: (Units=GPa)
#
#
# Indices 1 2 3 4 5 6 
#
# 1 171.3891 36.5648 104.9521 0.0000 1.0009 0.0000
# 2 36.5648 28.2502 35.9393 0.0000 -1.6874 0.0000
# 3 104.9521 35.9393 173.5215 0.0000 -3.1418 0.0000
# 4 0.0000 0.0000 0.0000 27.2989 0.0000 2.8990
# 5 1.0009 -1.6874 -3.1418 0.0000 43.3049 0.0000
# 6 0.0000 0.0000 0.0000 2.8990 0.0000 19.7370
#
#
#
# Elastic Compliance Matrix: (Units=1/GPa)
#
#
# Indices 1 2 3 4 5 6 
#
# 1 0.010305 -0.007387 -0.004719 0.000000 -0.000868 0.000000
# 2 -0.007387 0.053414 -0.006563 0.000000 0.001776 0.000000
# 3 -0.004719 -0.006563 0.009987 0.000000 0.000578 0.000000
# 4 0.000000 0.000000 0.000000 0.037212 0.000000 -0.005466
# 5 -0.000868 0.001776 0.000578 0.000000 0.023223 0.000000
# 6 0.000000 0.000000 0.000000 -0.005466 0.000000 0.051469
#
#
# Mechanical properties :
#
#
# Convention : Reuss Voigt Hill
#
# Bulk Modulus (GPa) = 27.49594 80.89703 54.19648
# Shear Modulus (GPa) = 21.27014 31.11516 26.19265
#
# Velocity S-wave (km/s) = 3.35650 4.05964 3.72470
# Velocity P-wave (km/s) = 5.43922 8.05125 6.87051
#
# Compressibility (1/GPa) = 0.03636901
#
# Stress axis : x y z
#
# Youngs Moduli (GPa) = 97.03699 18.72152 100.13225
#
# Poissons Ratio (x) = 0.13830 0.47250
# Poissons Ratio (y) = 0.71683 0.65715
# Poissons Ratio (z) = 0.45789 0.12287
#
# Static dielectric constant tensor:
#      x y z
#    x 3.740720 0.000000 -0.030200 
#    y 0.000000 3.052760 0.000000 
#    z -0.030200 0.000000 3.779100 
# 
# 
# High freq. dielectric constant tensor:
#      x y z
#    x 1.745530 0.000000 -0.000060 
#    y 0.000000 1.694250 0.000000 
#    z -0.000060 0.000000 1.754320 
# 
# From -- ./inp_files/250733.got.cif
#   From: 2010.06.25/outbox.cif.g09.slc.cpg/sg12_126_cif.got.tgz:250733.got - 2010.06.28 00:19:55.
