data_PCOD8099576
_publ_section_title
;
Structure prediction by ZEFSAII (Michael W. Deem and Ramdas Pophale) SiO2 
 PCOD8099576
Probable space group: C 2/M
;
_chemical_formula_sum "Si O2"
_cell_formula_units_Z 56
_cell_length_a 19.206871
_cell_length_b 9.089071
_cell_length_c 18.568823
_cell_angle_alpha 90.000000
_cell_angle_beta 63.929211
_cell_angle_gamma 90.000000
_cell_volume 2911.780043
_symmetry_space_group_name_H-M "C 2/M"
_symmetry_group_IT_number 12
_symmetry_cell_setting 'monoclinic'
loop_
_space_group_symop_operation_xyz
x,y,z
-x,y,-z
-x,-y,-z
x,-y,z
1/2+x,1/2+y,z
1/2-x,1/2+y,-z
1/2-x,1/2-y,-z
1/2+x,1/2-y,z
loop_
_atom_site_type_symbol
_atom_site_label
_atom_site_fract_x
_atom_site_fract_y
_atom_site_fract_z
Si Si1 0.663813 0.670685 0.252213
Si Si2 0.945460 0.833817 0.823951
Si Si3 0.171316 0.327214 0.515203
Si Si4 0.177704 0.827656 0.784350
Si Si5 0.104720 0.835698 0.670179
Si Si6 0.914826 0.830113 0.564767
Si Si7 0.972774 0.330015 0.093020
O O1 0.687820 0.500000 0.240863
O O2 0.627112 0.717161 0.191986
O O3 0.740220 0.766021 0.228197
O O4 0.599753 0.698213 0.343884
O O5 0.019454 0.826734 0.739541
O O6 0.958410 0.729390 0.886592
O O7 0.932937 0.000000 0.857740
O O8 0.182312 0.500000 0.508351
O O9 0.250000 0.250000 0.500000
O O10 0.108801 0.280870 0.603835
O O11 0.146180 0.272009 0.448488
O O12 0.166880 0.796536 0.704216
O O13 0.108060 0.753514 0.860002
O O14 0.173778 0.000000 0.802656
O O15 0.121318 0.000000 0.632656
O O16 0.000000 0.781654 0.500000
O O17 0.900425 0.000000 0.551075
O O18 0.959270 0.500000 0.117230
O O19 0.000000 0.304121 0.000000
#
# Coordination Sequence:
#
# PCOD8099576 Si02
#       7
#     8   8   8   8   8   8   8
#     4  10  20  35  56  82 112 145 183 227 274 326
#     4   9  19  36  59  84 109 141 178 217 265 322
#     4  12  24  35  50  74 104 140 184 232 279 324
#     4  10  21  36  57  83 111 146 184 224 271 324
#     4   9  18  35  55  75 102 138 183 229 273 324
#     4  10  21  38  58  78 106 146 187 230 282 332
#     4  10  21  38  61  88 115 142 176 219 266 321
#
# _framework density 19.232223000000001
#
# number of rings (size 3 to 8) (size 9 to 14) (size 15 to 20)
#    0.000    2.000    0.000    4.714    0.000   10.000 
#    0.000    2.143    0.000    0.000    0.000    0.000 
#    0.000    0.000    0.000    0.000    0.000    0.000 
#
# Total GULP energy -347217.906532 kJ/mol
# GULP energy per Si atom -12400.639519 kJ/mol
# Density = 1.918845 g / cm^3
# Si number density = 19.232223 Si / 1000 Ang^3
#
#
#
# Elastic Constant Matrix: (Units=GPa)
#
#
# Indices 1 2 3 4 5 6 
#
# 1 110.7759 49.2838 27.9929 0.0000 15.1905 0.0000
# 2 49.2838 109.9659 46.3193 0.0000 11.0898 0.0001
# 3 27.9929 46.3193 72.7768 0.0000 14.3193 0.0000
# 4 0.0000 0.0000 0.0000 29.1037 0.0000 1.8836
# 5 15.1905 11.0898 14.3193 0.0000 24.2238 0.0000
# 6 0.0000 0.0001 0.0000 1.8836 0.0000 34.8575
#
#
#
# Elastic Compliance Matrix: (Units=1/GPa)
#
#
# Indices 1 2 3 4 5 6 
#
# 1 0.011906 -0.004533 -0.000717 0.000000 -0.004967 0.000000
# 2 -0.004533 0.014179 -0.007426 0.000000 0.000741 0.000000
# 3 -0.000717 -0.007426 0.020353 0.000000 -0.008181 0.000000
# 4 0.000000 0.000000 0.000000 0.034480 0.000000 -0.001863
# 5 -0.004967 0.000741 -0.008181 0.000000 0.048893 0.000000
# 6 0.000000 0.000000 0.000000 -0.001863 0.000000 0.028789
#
#
# Mechanical properties :
#
#
# Convention : Reuss Voigt Hill
#
# Bulk Modulus (GPa) = 47.42833 60.07896 53.75365
# Shear Modulus (GPa) = 26.18045 28.96518 27.57281
#
# Velocity S-wave (km/s) = 3.69356 3.88503 3.79050
# Velocity P-wave (km/s) = 6.55013 7.17155 6.86787
#
# Compressibility (1/GPa) = 0.02108444
#
# Stress axis : x y z
#
# Youngs Moduli (GPa) = 83.98869 70.52857 49.13313
#
# Poissons Ratio (x) = 0.31971 0.03524
# Poissons Ratio (y) = 0.38073 0.36488
# Poissons Ratio (z) = 0.06024 0.52377
#
# Static dielectric constant tensor:
#      x y z
#    x 3.707110 0.000000 0.239750 
#    y 0.000000 3.633120 0.000000 
#    z 0.239750 0.000000 3.540840 
# 
# 
# High freq. dielectric constant tensor:
#      x y z
#    x 1.753730 0.000000 0.007800 
#    y 0.000000 1.746450 0.000000 
#    z 0.007800 0.000000 1.736670 
# 
# From -- ./inp_files/275051.got.cif
#   From: 2010.06.25/outbox.cif.g09.slc.cpg/sg12_138_cif.got.tgz:275051.got - 2010.06.28 00:19:55.
