data_PCOD8099721
_publ_section_title
;
Structure prediction by ZEFSAII (Michael W. Deem and Ramdas Pophale) SiO2 
 PCOD8099721
Probable space group: C 2/M
;
_chemical_formula_sum "Si O2"
_cell_formula_units_Z 48
_cell_length_a 9.657292
_cell_length_b 20.615305
_cell_length_c 20.365855
_cell_angle_alpha 90.000000
_cell_angle_beta 144.403549
_cell_angle_gamma 90.000000
_cell_volume 2360.070270
_symmetry_space_group_name_H-M "C 2/M"
_symmetry_group_IT_number 12
_symmetry_cell_setting 'monoclinic'
loop_
_space_group_symop_operation_xyz
x,y,z
-x,y,-z
-x,-y,-z
x,-y,z
1/2+x,1/2+y,z
1/2-x,1/2+y,-z
1/2-x,1/2-y,-z
1/2+x,1/2-y,z
loop_
_atom_site_type_symbol
_atom_site_label
_atom_site_fract_x
_atom_site_fract_y
_atom_site_fract_z
Si Si1 0.617350 0.256879 0.757412
Si Si2 0.888960 0.707218 0.106611
Si Si3 0.011088 0.575394 0.202090
Si Si4 0.732730 0.134418 0.623120
Si Si5 0.025083 0.375133 0.347971
Si Si6 0.055859 0.927571 0.413227
O O1 0.714923 0.230307 0.864065
O O2 0.444285 0.315033 0.707815
O O3 0.474553 0.201502 0.664342
O O4 0.832732 0.278442 0.794273
O O5 0.866051 0.627169 0.099285
O O6 0.750000 0.750000 0.000000
O O7 0.963926 0.500000 0.162334
O O8 0.943117 0.584210 0.252500
O O9 0.286307 0.596908 0.303172
O O10 0.500000 0.167132 0.500000
O O11 0.667769 0.106939 0.670028
O O12 0.819294 0.075735 0.609991
O O13 0.295169 0.388428 0.474805
O O14 0.056558 0.000000 0.439585
#
# Coordination Sequence:
#
# PCOD8099721 Si02
#       6
#     8   8   8   8   8   8
#     4  11  21  39  58  88 118 153 199 251 305 355
#     4  11  23  40  66  88 116 153 205 260 313 358
#     4  10  21  38  62  89 121 159 201 250 301 357
#     4  10  21  34  53  85 123 162 196 236 292 353
#     4  10  21  33  56  86 125 157 198 237 292 358
#     4  10  20  35  56  84 122 168 200 232 290 364
#
# _framework density 20.338377000000001
#
# number of rings (size 3 to 8) (size 9 to 14) (size 15 to 20)
#    0.000    1.667    3.333    1.500    0.000   10.333 
#    0.000    0.000    0.000   12.000    0.000    0.000 
#    0.000    0.000    0.000    0.000    0.000    0.000 
#
# Total GULP energy -297380.020645 kJ/mol
# GULP energy per Si atom -12390.834194 kJ/mol
# Density = 2.029209 g / cm^3
# Si number density = 20.338377 Si / 1000 Ang^3
#
#
#
# Elastic Constant Matrix: (Units=GPa)
#
#
# Indices 1 2 3 4 5 6 
#
# 1 91.1615 15.6558 16.1610 0.0023 -10.0075 0.0013
# 2 15.6558 119.9506 49.5819 0.0016 -9.2666 0.0013
# 3 16.1610 49.5819 65.8892 0.0048 -10.9249 0.0032
# 4 0.0023 0.0016 0.0048 35.3471 0.0026 -1.2927
# 5 -10.0075 -9.2666 -10.9249 0.0026 26.4725 0.0015
# 6 0.0013 0.0013 0.0032 -1.2927 0.0015 25.9226
#
#
#
# Elastic Compliance Matrix: (Units=1/GPa)
#
#
# Indices 1 2 3 4 5 6 
#
# 1 0.011779 -0.000454 -0.001970 -0.000001 0.003481 -0.000001
# 2 -0.000454 0.012125 -0.008950 0.000001 0.000379 0.000001
# 3 -0.001970 -0.008950 0.023350 -0.000003 0.005759 -0.000003
# 4 -0.000001 0.000001 -0.000003 0.028343 -0.000004 0.001413
# 5 0.003481 0.000379 0.005759 -0.000004 0.041600 -0.000003
# 6 -0.000001 0.000001 -0.000003 0.001413 -0.000003 0.038647
#
#
# Mechanical properties :
#
#
# Convention : Reuss Voigt Hill
#
# Bulk Modulus (GPa) = 40.80735 48.86653 44.83694
# Shear Modulus (GPa) = 26.77245 30.58862 28.68054
#
# Velocity S-wave (km/s) = 3.63209 3.88233 3.75929
# Velocity P-wave (km/s) = 6.13981 6.64647 6.39816
#
# Compressibility (1/GPa) = 0.02450539
#
# Stress axis : x y z
#
# Youngs Moduli (GPa) = 84.89745 82.47643 42.82707
#
# Poissons Ratio (x) = 0.03745 0.08438
# Poissons Ratio (y) = 0.03855 0.38329
# Poissons Ratio (z) = 0.16727 0.73814
#
# Static dielectric constant tensor:
#      x y z
#    x 4.153440 0.000000 0.041560 
#    y 0.000000 3.660470 0.000000 
#    z 0.041560 0.000000 3.354710 
# 
# 
# High freq. dielectric constant tensor:
#      x y z
#    x 1.816960 0.000000 0.002370 
#    y 0.000000 1.789650 0.000000 
#    z 0.002370 0.000000 1.757970 
# 
# From -- ./inp_files/132436.got.cif
#   From: 2010.06.25/outbox.cif.g09.slc.cpg/sg12_67_cif.got.tgz:132436.got - 2010.06.28 00:19:55.
