data_PCOD8099363
_publ_section_title
;
Structure prediction by ZEFSAII (Michael W. Deem and Ramdas Pophale) SiO2 
 PCOD8099363
Probable space group: C 2/M
;
_chemical_formula_sum "Si O2"
_cell_formula_units_Z 64
_cell_length_a 14.626701
_cell_length_b 9.172279
_cell_length_c 25.568751
_cell_angle_alpha 90.000000
_cell_angle_beta 88.886485
_cell_angle_gamma 90.000000
_cell_volume 3429.660505
_symmetry_space_group_name_H-M "C 2/M"
_symmetry_group_IT_number 12
_symmetry_cell_setting 'monoclinic'
loop_
_space_group_symop_operation_xyz
x,y,z
-x,y,-z
-x,-y,-z
x,-y,z
1/2+x,1/2+y,z
1/2-x,1/2+y,-z
1/2-x,1/2-y,-z
1/2+x,1/2-y,z
loop_
_atom_site_type_symbol
_atom_site_label
_atom_site_fract_x
_atom_site_fract_y
_atom_site_fract_z
Si Si1 0.867790 0.666493 0.738719
Si Si2 0.328108 0.169365 0.620953
Si Si3 0.605252 0.670190 0.006659
Si Si4 0.241357 0.329379 0.078221
Si Si5 0.376375 0.328040 0.361279
Si Si6 0.073564 0.335822 0.742233
Si Si7 0.265411 0.168464 0.185835
Si Si8 0.524286 0.327142 0.441856
O O1 0.833248 0.500000 0.747437
O O2 0.869542 0.704892 0.677388
O O3 0.803605 0.779557 0.768721
O O4 0.969112 0.689382 0.760155
O O5 0.223685 0.221860 0.619745
O O6 0.379273 0.260340 0.575967
O O7 0.338405 0.000000 0.607448
O O8 0.607697 0.500000 0.020954
O O9 0.665175 0.703555 0.954364
O O10 0.500000 0.722160 0.000000
O O11 0.651564 0.757686 0.053495
O O12 0.222070 0.500000 0.082369
O O13 0.253909 0.265398 0.135152
O O14 0.382078 0.500000 0.357375
O O15 0.396445 0.271516 0.303489
O O16 0.447387 0.267083 0.403010
O O17 0.088020 0.500000 0.721068
O O18 0.132363 0.308247 0.793702
O O19 0.245710 0.000000 0.172715
O O20 0.500000 0.272132 0.500000
O O21 0.531956 0.500000 0.439909
#
# Coordination Sequence:
#
# PCOD8099363 Si02
#       8
#     8   8   8   8   8   8   8   8
#     4  10  20  36  56  80 110 143 182 228 278 333
#     4  10  20  35  57  81 106 139 180 226 274 332
#     4   9  19  38  63  88 116 151 194 237 281 332
#     4  10  21  37  58  85 118 154 189 233 282 328
#     4  10  20  35  56  79 106 141 180 222 274 333
#     4  10  21  36  55  80 109 143 183 226 275 330
#     4  11  23  37  55  82 116 149 186 231 277 330
#     4  10  22  38  55  79 111 143 180 229 280 333
#
# _framework density 18.660739
#
# number of rings (size 3 to 8) (size 9 to 14) (size 15 to 20)
#    0.000    2.000    2.500    0.750    0.000    4.500 
#    0.000    2.500    0.000    0.000    0.000    0.000 
#    0.000    0.000    0.000    0.000    0.000    0.000 
#
# Total GULP energy -396888.498817 kJ/mol
# GULP energy per Si atom -12402.765588 kJ/mol
# Density = 1.861827 g / cm^3
# Si number density = 18.660739 Si / 1000 Ang^3
#
#
#
# Elastic Constant Matrix: (Units=GPa)
#
#
# Indices 1 2 3 4 5 6 
#
# 1 94.4277 22.5278 9.4500 0.0000 11.2565 0.0000
# 2 22.5278 34.0390 15.4220 0.0000 4.7134 0.0000
# 3 9.4500 15.4220 57.1652 0.0000 4.8293 0.0000
# 4 0.0000 0.0000 0.0000 30.8142 0.0000 -3.2568
# 5 11.2565 4.7134 4.8293 0.0000 23.0948 0.0000
# 6 0.0000 0.0000 0.0000 -3.2568 0.0000 29.4929
#
#
#
# Elastic Compliance Matrix: (Units=1/GPa)
#
#
# Indices 1 2 3 4 5 6 
#
# 1 0.013071 -0.008193 0.000454 0.000000 -0.004794 0.000000
# 2 -0.008193 0.039188 -0.009039 0.000000 -0.002115 0.000000
# 3 0.000454 -0.009039 0.020074 0.000000 -0.002574 0.000000
# 4 0.000000 0.000000 0.000000 0.032836 0.000000 0.003626
# 5 -0.004794 -0.002115 -0.002574 0.000000 0.046606 0.000000
# 6 0.000000 0.000000 0.000000 0.003626 0.000000 0.034307
#
#
# Mechanical properties :
#
#
# Convention : Reuss Voigt Hill
#
# Bulk Modulus (GPa) = 25.78758 31.15907 28.47333
# Shear Modulus (GPa) = 21.49956 25.89582 23.69769
#
# Velocity S-wave (km/s) = 3.39798 3.72925 3.56746
# Velocity P-wave (km/s) = 5.40779 5.93944 5.67984
#
# Compressibility (1/GPa) = 0.03877835
#
# Stress axis : x y z
#
# Youngs Moduli (GPa) = 76.50765 25.51778 49.81542
#
# Poissons Ratio (x) = 0.20906 -0.02264
# Poissons Ratio (y) = 0.62679 0.45029
# Poissons Ratio (z) = -0.03477 0.23066
#
# Static dielectric constant tensor:
#      x y z
#    x 3.638350 0.000000 0.166070 
#    y 0.000000 3.372480 0.000000 
#    z 0.166070 0.000000 3.382420 
# 
# 
# High freq. dielectric constant tensor:
#      x y z
#    x 1.734940 0.000000 0.007500 
#    y 0.000000 1.721720 0.000000 
#    z 0.007500 0.000000 1.719030 
# 
# From -- ./inp_files/359921.got.cif
#   From: 2010.06.25/outbox.cif.g09.slc.cpg/sg12_180_cif.got.tgz:359921.got - 2010.06.28 00:19:55.
