data_PCOD8099218
_publ_section_title
;
Structure prediction by ZEFSAII (Michael W. Deem and Ramdas Pophale) SiO2 
 PCOD8099218
Probable space group: C 2/M
;
_chemical_formula_sum "Si O2"
_cell_formula_units_Z 56
_cell_length_a 15.913055
_cell_length_b 8.950795
_cell_length_c 19.297667
_cell_angle_alpha 90.000000
_cell_angle_beta 89.078534
_cell_angle_gamma 90.000000
_cell_volume 2748.297955
_symmetry_space_group_name_H-M "C 2/M"
_symmetry_group_IT_number 12
_symmetry_cell_setting 'monoclinic'
loop_
_space_group_symop_operation_xyz
x,y,z
-x,y,-z
-x,-y,-z
x,-y,z
1/2+x,1/2+y,z
1/2-x,1/2+y,-z
1/2-x,1/2-y,-z
1/2+x,1/2-y,z
loop_
_atom_site_type_symbol
_atom_site_label
_atom_site_fract_x
_atom_site_fract_y
_atom_site_fract_z
Si Si1 0.170929 0.829398 0.425459
Si Si2 0.156714 0.829263 0.579716
Si Si3 0.577154 0.330657 0.288978
Si Si4 0.830040 0.171818 0.847668
Si Si5 0.339127 0.677057 0.163743
Si Si6 0.997579 0.177609 0.921795
Si Si7 0.089441 0.674497 0.709514
O O1 0.126377 0.806453 0.500643
O O2 0.245965 0.713568 0.415805
O O3 0.104159 0.794228 0.366756
O O4 0.204749 0.000000 0.418220
O O5 0.101756 0.725831 0.630191
O O6 0.145444 0.000000 0.603304
O O7 0.542002 0.500000 0.283606
O O8 0.654383 0.310349 0.235032
O O9 0.504529 0.217739 0.266882
O O10 0.747325 0.264920 0.869846
O O11 0.911824 0.235375 0.887001
O O12 0.814028 0.000000 0.868157
O O13 0.336457 0.500000 0.167196
O O14 0.419133 0.736255 0.118745
O O15 0.344633 0.743485 0.241106
O O16 0.998321 0.000000 0.919784
O O17 0.000000 0.238997 0.000000
O O18 0.104417 0.500000 0.716180
#
# Coordination Sequence:
#
# PCOD8099218 Si02
#       7
#     8   8   8   8   8   8   8
#     4   9  19  35  56  81 112 150 194 245 299 356
#     4  10  20  35  55  80 112 151 195 244 298 357
#     4  10  20  37  58  81 112 152 197 244 299 357
#     4  10  20  37  62  91 124 163 201 243 297 355
#     4  11  22  39  63  91 121 159 203 248 298 357
#     4   9  19  38  63  91 126 165 200 237 292 361
#     4  12  24  37  56  82 114 152 198 252 302 353
#
# _framework density 20.376248
#
# number of rings (size 3 to 8) (size 9 to 14) (size 15 to 20)
#    0.000    1.857    1.429    3.000    0.000    4.000 
#    0.000    2.857    0.000    3.000    0.000    0.000 
#    0.000    0.000    0.000    0.000    0.000    0.000 
#
# Total GULP energy -347243.930023 kJ/mol
# GULP energy per Si atom -12401.568929 kJ/mol
# Density = 2.032987 g / cm^3
# Si number density = 20.376248 Si / 1000 Ang^3
#
#
#
# Elastic Constant Matrix: (Units=GPa)
#
#
# Indices 1 2 3 4 5 6 
#
# 1 132.1951 45.6329 52.5950 0.0000 6.4512 0.0000
# 2 45.6329 81.3233 35.1979 0.0000 1.6482 0.0000
# 3 52.5950 35.1979 116.8096 0.0000 8.5808 0.0000
# 4 0.0000 0.0000 0.0000 16.8442 0.0000 0.9122
# 5 6.4512 1.6482 8.5808 0.0000 26.8170 0.0000
# 6 0.0000 0.0000 0.0000 0.9122 0.0000 35.6009
#
#
#
# Elastic Compliance Matrix: (Units=1/GPa)
#
#
# Indices 1 2 3 4 5 6 
#
# 1 0.010457 -0.004420 -0.003289 0.000000 -0.001192 0.000000
# 2 -0.004420 0.016016 -0.002910 0.000000 0.001010 0.000000
# 3 -0.003289 -0.002910 0.011109 0.000000 -0.002584 0.000000
# 4 0.000000 0.000000 0.000000 0.059450 0.000000 -0.001523
# 5 -0.001192 0.001010 -0.002584 0.000000 0.038341 0.000000
# 6 0.000000 0.000000 0.000000 -0.001523 0.000000 0.028128
#
#
# Mechanical properties :
#
#
# Convention : Reuss Voigt Hill
#
# Bulk Modulus (GPa) = 61.18721 66.35330 63.77025
# Shear Modulus (GPa) = 26.28989 28.97922 27.63456
#
# Velocity S-wave (km/s) = 3.59586 3.77531 3.68668
# Velocity P-wave (km/s) = 6.87998 7.18600 7.03466
#
# Compressibility (1/GPa) = 0.01634329
#
# Stress axis : x y z
#
# Youngs Moduli (GPa) = 95.62917 62.43811 90.02054
#
# Poissons Ratio (x) = 0.27598 0.29608
# Poissons Ratio (y) = 0.42269 0.26196
# Poissons Ratio (z) = 0.31452 0.18170
#
# Static dielectric constant tensor:
#      x y z
#    x 3.579980 0.000000 0.005330 
#    y 0.000000 3.488300 0.000000 
#    z 0.005330 0.000000 3.877660 
# 
# 
# High freq. dielectric constant tensor:
#      x y z
#    x 1.791670 0.000000 0.000920 
#    y 0.000000 1.773890 0.000000 
#    z 0.000920 0.000000 1.800970 
# 
# From -- ./inp_files/308974.got.cif
#   From: 2010.06.25/outbox.cif.g09.slc.cpg/sg12_155_cif.got.tgz:308974.got - 2010.06.28 00:19:55.
