data_PCOD8099219
_publ_section_title
;
Structure prediction by ZEFSAII (Michael W. Deem and Ramdas Pophale) SiO2 
 PCOD8099219
Probable space group: C 2/M
;
_chemical_formula_sum "Si O2"
_cell_formula_units_Z 48
_cell_length_a 31.490815
_cell_length_b 8.596125
_cell_length_c 16.361428
_cell_angle_alpha 90.000000
_cell_angle_beta 145.221868
_cell_angle_gamma 90.000000
_cell_volume 2526.314623
_symmetry_space_group_name_H-M "C 2/M"
_symmetry_group_IT_number 12
_symmetry_cell_setting 'monoclinic'
loop_
_space_group_symop_operation_xyz
x,y,z
-x,y,-z
-x,-y,-z
x,-y,z
1/2+x,1/2+y,z
1/2-x,1/2+y,-z
1/2-x,1/2-y,-z
1/2+x,1/2-y,z
loop_
_atom_site_type_symbol
_atom_site_label
_atom_site_fract_x
_atom_site_fract_y
_atom_site_fract_z
Si Si1 0.659308 0.678494 0.174683
Si Si2 0.331476 0.679321 0.627198
Si Si3 0.276424 0.317033 0.956726
Si Si4 0.416662 0.817512 0.092832
Si Si5 0.202302 0.181119 0.687033
Si Si6 0.915602 0.318710 0.611073
O O1 0.678207 0.500000 0.183466
O O2 0.632917 0.696448 0.226269
O O3 0.593693 0.737388 0.011958
O O4 0.734328 0.777438 0.279008
O O5 0.327383 0.500000 0.593073
O O6 0.250000 0.750000 0.500000
O O7 0.383635 0.772816 0.648497
O O8 0.284973 0.500000 0.976839
O O9 0.356274 0.244180 0.061394
O O10 0.215835 0.274504 0.792028
O O11 0.250000 0.250000 0.000000
O O12 0.405921 0.000000 0.063865
O O13 0.497615 0.775444 0.255087
O O14 0.122832 0.225863 0.523492
O O15 0.204596 0.000000 0.711065
O O16 0.901374 0.500000 0.574939
#
# Coordination Sequence:
#
# PCOD8099219 Si02
#       6
#     8   8   8   8   8   8
#     4  10  20  35  55  80 112 151 196 242 286 334
#     4  11  22  34  54  81 113 153 199 246 285 334
#     4  11  22  40  66  91 117 146 184 231 279 342
#     4  10  22  39  59  84 116 152 190 235 289 342
#     4  11  21  35  59  86 114 150 192 234 283 341
#     4  11  23  38  56  82 118 155 193 239 289 336
#
# _framework density 19.000008999999999
#
# number of rings (size 3 to 8) (size 9 to 14) (size 15 to 20)
#    0.000    1.333    1.667    7.000    0.000    5.333 
#    0.000    4.167    0.000    5.000    0.000    0.000 
#    0.000    0.000    0.000    0.000    0.000    0.000 
#
# Total GULP energy -297701.625198 kJ/mol
# GULP energy per Si atom -12404.234383 kJ/mol
# Density = 1.895676 g / cm^3
# Si number density = 19.000009 Si / 1000 Ang^3
#
#
#
# Elastic Constant Matrix: (Units=GPa)
#
#
# Indices 1 2 3 4 5 6 
#
# 1 104.3281 10.6577 49.9880 0.0000 -5.8780 0.0000
# 2 10.6577 49.4284 32.7611 0.0000 6.3274 0.0000
# 3 49.9880 32.7611 121.7734 0.0000 0.7095 0.0000
# 4 0.0000 0.0000 0.0000 33.4012 0.0000 -2.6508
# 5 -5.8780 6.3274 0.7095 0.0000 20.3126 0.0000
# 6 0.0000 0.0000 0.0000 -2.6508 0.0000 32.5995
#
#
#
# Elastic Compliance Matrix: (Units=1/GPa)
#
#
# Indices 1 2 3 4 5 6 
#
# 1 0.012208 0.000292 -0.005111 0.000000 0.003620 0.000000
# 2 0.000292 0.025807 -0.007018 0.000000 -0.007709 0.000000
# 3 -0.005111 -0.007018 0.012196 0.000000 0.000281 0.000000
# 4 0.000000 0.000000 0.000000 0.030134 0.000000 0.002450
# 5 0.003620 -0.007709 0.000281 0.000000 0.052670 0.000000
# 6 0.000000 0.000000 0.000000 0.002450 0.000000 0.030875
#
#
# Mechanical properties :
#
#
# Convention : Reuss Voigt Hill
#
# Bulk Modulus (GPa) = 37.68277 51.37150 44.52713
# Shear Modulus (GPa) = 25.45711 29.40420 27.43066
#
# Velocity S-wave (km/s) = 3.66436 3.93821 3.80375
# Velocity P-wave (km/s) = 6.14650 6.91199 6.54046
#
# Compressibility (1/GPa) = 0.02653733
#
# Stress axis : x y z
#
# Youngs Moduli (GPa) = 81.91178 38.74985 81.99106
#
# Poissons Ratio (x) = -0.01131 0.41907
# Poissons Ratio (y) = -0.02391 0.57539
# Poissons Ratio (z) = 0.41866 0.27194
#
# Static dielectric constant tensor:
#      x y z
#    x 3.367760 0.000000 -0.195800 
#    y 0.000000 3.709860 0.000000 
#    z -0.195800 0.000000 3.475150 
# 
# 
# High freq. dielectric constant tensor:
#      x y z
#    x 1.724200 0.000000 -0.013940 
#    y 0.000000 1.759930 0.000000 
#    z -0.013940 0.000000 1.738500 
# 
# From -- ./inp_files/295897.got.cif
#   From: 2010.06.25/outbox.cif.g09.slc.cpg/sg12_148_cif.got.tgz:295897.got - 2010.06.28 00:19:55.
