data_PCOD8099311
_publ_section_title
;
Structure prediction by ZEFSAII (Michael W. Deem and Ramdas Pophale) SiO2 
 PCOD8099311
Probable space group: C 2/M
;
_chemical_formula_sum "Si O2"
_cell_formula_units_Z 56
_cell_length_a 25.072131
_cell_length_b 14.982546
_cell_length_c 9.586958
_cell_angle_alpha 90.000000
_cell_angle_beta 52.084816
_cell_angle_gamma 90.000000
_cell_volume 2841.131630
_symmetry_space_group_name_H-M "C 2/M"
_symmetry_group_IT_number 12
_symmetry_cell_setting 'monoclinic'
loop_
_space_group_symop_operation_xyz
x,y,z
-x,y,-z
-x,-y,-z
x,-y,z
1/2+x,1/2+y,z
1/2-x,1/2+y,-z
1/2-x,1/2-y,-z
1/2+x,1/2-y,z
loop_
_atom_site_type_symbol
_atom_site_label
_atom_site_fract_x
_atom_site_fract_y
_atom_site_fract_z
Si Si1 0.422627 0.598611 0.628851
Si Si2 0.324101 0.753230 0.815685
Si Si3 0.639425 0.215632 0.550315
Si Si4 0.299192 0.099872 0.315144
Si Si5 0.020800 0.399741 0.620210
Si Si6 0.142244 0.094685 0.563180
Si Si7 0.125402 0.600137 0.073592
O O1 0.500000 0.634531 0.500000
O O2 0.419077 0.500000 0.707969
O O3 0.371726 0.669076 0.785744
O O4 0.400282 0.586957 0.507414
O O5 0.319089 0.758720 0.656125
O O6 0.358530 0.843493 0.814494
O O7 0.250000 0.750000 0.000000
O O8 0.687852 0.156667 0.567296
O O9 0.571483 0.166019 0.616280
O O10 0.622059 0.309028 0.662428
O O11 0.221271 0.099532 0.401053
O O12 0.326363 0.000000 0.299976
O O13 0.339636 0.141983 0.119543
O O14 0.051666 0.500000 0.557721
O O15 0.000000 0.364641 0.500000
O O16 0.954712 0.401104 0.823535
O O17 0.128647 0.000000 0.669888
O O18 0.153216 0.500000 0.055163
#
# Coordination Sequence:
#
# PCOD8099311 Si02
#       7
#     8   8   8   8   8   8   8
#     4   9  19  36  60  86 114 152 202 252 292 346
#     4  11  23  35  57  91 121 152 194 246 302 358
#     4  11  21  34  60  82 114 150 201 241 276 348
#     4  10  21  38  57  84 117 155 196 235 287 354
#     4  10  20  35  55  85 117 151 189 235 292 347
#     4   9  19  34  54  80 111 146 187 236 294 341
#     4  10  21  36  56  80 122 158 183 233 300 354
#
# _framework density 19.710456000000001
#
# number of rings (size 3 to 8) (size 9 to 14) (size 15 to 20)
#    0.000    2.000    1.429    2.571    4.000    2.857 
#    0.000    2.143    0.000    0.857    0.000    1.000 
#    0.000    0.429    0.000    0.000    0.000    0.000 
#
# Total GULP energy -346888.520493 kJ/mol
# GULP energy per Si atom -12388.875732 kJ/mol
# Density = 1.966559 g / cm^3
# Si number density = 19.710456 Si / 1000 Ang^3
#
#
#
# Elastic Constant Matrix: (Units=GPa)
#
#
# Indices 1 2 3 4 5 6 
#
# 1 96.8011 38.9999 29.5467 0.0000 -15.3154 0.0000
# 2 38.9999 131.2656 27.5099 0.0000 -5.8045 0.0000
# 3 29.5467 27.5099 49.2620 0.0000 -7.6684 0.0000
# 4 0.0000 0.0000 0.0000 22.0447 0.0000 -2.8729
# 5 -15.3154 -5.8045 -7.6684 0.0000 30.0509 0.0000
# 6 0.0000 0.0000 0.0000 -2.8729 0.0000 35.3511
#
#
#
# Elastic Compliance Matrix: (Units=1/GPa)
#
#
# Indices 1 2 3 4 5 6 
#
# 1 0.014095 -0.002669 -0.006171 0.000000 0.005093 0.000000
# 2 -0.002669 0.009139 -0.003582 0.000000 -0.000509 0.000000
# 3 -0.006171 -0.003582 0.026455 0.000000 0.002914 0.000000
# 4 0.000000 0.000000 0.000000 0.045848 0.000000 0.003726
# 5 0.005093 -0.000509 0.002914 0.000000 0.036518 0.000000
# 6 0.000000 0.000000 0.000000 0.003726 0.000000 0.028590
#
#
# Mechanical properties :
#
#
# Convention : Reuss Voigt Hill
#
# Bulk Modulus (GPa) = 40.24905 52.16020 46.20463
# Shear Modulus (GPa) = 25.80360 29.57415 27.68888
#
# Velocity S-wave (km/s) = 3.62212 3.87774 3.75211
# Velocity P-wave (km/s) = 6.16096 6.82421 6.50105
#
# Compressibility (1/GPa) = 0.02484530
#
# Stress axis : x y z
#
# Youngs Moduli (GPa) = 70.94606 109.41623 37.80060
#
# Poissons Ratio (x) = 0.29207 0.23325
# Poissons Ratio (y) = 0.18938 0.13540
# Poissons Ratio (z) = 0.43778 0.39193
#
# Static dielectric constant tensor:
#      x y z
#    x 3.588110 0.000000 -0.173370 
#    y 0.000000 4.447340 0.000000 
#    z -0.173370 0.000000 3.272780 
# 
# 
# High freq. dielectric constant tensor:
#      x y z
#    x 1.770170 0.000000 -0.017620 
#    y 0.000000 1.795190 0.000000 
#    z -0.017620 0.000000 1.718750 
# 
# From -- ./inp_files/96781.got.cif
#   From: 2010.06.25/outbox.cif.g09.slc.cpg/sg12_49_cif.got.tgz:96781.got - 2010.06.28 00:19:55.
