data_PCOD8099279
_publ_section_title
;
Structure prediction by ZEFSAII (Michael W. Deem and Ramdas Pophale) SiO2 
 PCOD8099279
Probable space group: C 2/M
;
_chemical_formula_sum "Si O2"
_cell_formula_units_Z 56
_cell_length_a 22.095119
_cell_length_b 9.323399
_cell_length_c 30.487351
_cell_angle_alpha 90.000000
_cell_angle_beta 154.044098
_cell_angle_gamma 90.000000
_cell_volume 2748.819792
_symmetry_space_group_name_H-M "C 2/M"
_symmetry_group_IT_number 12
_symmetry_cell_setting 'monoclinic'
loop_
_space_group_symop_operation_xyz
x,y,z
-x,y,-z
-x,-y,-z
x,-y,z
1/2+x,1/2+y,z
1/2-x,1/2+y,-z
1/2-x,1/2-y,-z
1/2+x,1/2-y,z
loop_
_atom_site_type_symbol
_atom_site_label
_atom_site_fract_x
_atom_site_fract_y
_atom_site_fract_z
Si Si1 0.875641 0.658127 0.739037
Si Si2 0.966226 0.163063 0.639751
Si Si3 0.594878 0.339590 0.601465
Si Si4 0.715217 0.838714 0.416176
Si Si5 0.880958 0.827756 0.062814
Si Si6 0.011733 0.833316 0.056981
Si Si7 0.172773 0.665286 0.729569
O O1 0.947661 0.500000 0.783967
O O2 0.757262 0.655895 0.697890
O O3 0.793234 0.691284 0.640728
O O4 0.987545 0.779772 0.822682
O O5 0.872416 0.182409 0.534865
O O6 0.884805 0.223113 0.627871
O O7 0.111418 0.248552 0.731089
O O8 0.004362 0.000000 0.674131
O O9 0.500000 0.287086 0.500000
O O10 0.547118 0.500000 0.585758
O O11 0.579465 0.221360 0.628791
O O12 0.665786 0.000000 0.396068
O O13 0.908594 0.778965 0.029312
O O14 0.865041 0.000000 0.055408
O O15 0.750000 0.750000 0.000000
O O16 0.166757 0.802548 0.173792
O O17 0.979781 0.000000 0.030741
O O18 0.000000 0.762912 0.000000
O O19 0.143861 0.500000 0.718712
#
# Coordination Sequence:
#
# PCOD8099279 Si02
#       7
#     8   8   8   8   8   8   8
#     4  10  20  36  59  84 115 154 195 240 299 362
#     4  10  20  35  55  82 118 157 198 244 295 352
#     4  10  20  35  57  85 119 157 193 234 291 356
#     4   9  19  36  56  80 114 158 202 239 288 360
#     4  11  23  41  64  90 120 154 203 259 316 378
#     4   9  20  40  63  85 114 155 201 252 308 368
#     4  11  21  35  57  85 114 149 196 245 297 357
#
# _framework density 20.37238
#
# number of rings (size 3 to 8) (size 9 to 14) (size 15 to 20)
#    0.000    2.000    1.429    2.143    0.000    4.857 
#    0.000    4.286    0.000    6.000    0.000    0.000 
#    0.000    0.000    0.000    0.000    0.000    0.000 
#
# Total GULP energy -346924.559384 kJ/mol
# GULP energy per Si atom -12390.162835 kJ/mol
# Density = 2.032601 g / cm^3
# Si number density = 20.372380 Si / 1000 Ang^3
#
#
#
# Elastic Constant Matrix: (Units=GPa)
#
#
# Indices 1 2 3 4 5 6 
#
# 1 105.2588 50.1053 24.4666 -0.0001 9.4995 0.0000
# 2 50.1053 98.9908 30.3743 -0.0014 12.3360 0.0001
# 3 24.4666 30.3743 28.1416 -0.0023 6.6460 -0.0002
# 4 -0.0001 -0.0014 -0.0023 29.9201 0.0000 3.2188
# 5 9.4995 12.3360 6.6460 0.0000 36.3084 0.0000
# 6 0.0000 0.0001 -0.0002 3.2188 0.0000 32.2376
#
#
#
# Elastic Compliance Matrix: (Units=1/GPa)
#
#
# Indices 1 2 3 4 5 6 
#
# 1 0.013262 -0.004691 -0.006297 -0.000001 -0.000724 0.000000
# 2 -0.004691 0.016940 -0.013730 0.000000 -0.002015 0.000000
# 3 -0.006297 -0.013730 0.056793 0.000004 -0.004083 0.000000
# 4 -0.000001 0.000000 0.000004 0.033785 0.000000 -0.003373
# 5 -0.000724 -0.002015 -0.004083 0.000000 0.029163 0.000000
# 6 0.000000 0.000000 0.000000 -0.003373 0.000000 0.031357
#
#
# Mechanical properties :
#
#
# Convention : Reuss Voigt Hill
#
# Bulk Modulus (GPa) = 26.62396 49.14263 37.88330
# Shear Modulus (GPa) = 20.55452 28.18954 24.37203
#
# Velocity S-wave (km/s) = 3.17983 3.72387 3.46255
# Velocity P-wave (km/s) = 5.15546 6.53178 5.88400
#
# Compressibility (1/GPa) = 0.03756016
#
# Stress axis : x y z
#
# Youngs Moduli (GPa) = 75.40294 59.03092 17.60782
#
# Poissons Ratio (x) = 0.27689 0.11087
# Poissons Ratio (y) = 0.35368 0.24176
# Poissons Ratio (z) = 0.47479 0.81052
#
# Static dielectric constant tensor:
#      x y z
#    x 3.883590 0.000000 0.048610 
#    y 0.000000 3.620550 0.000000 
#    z 0.048610 0.000000 3.561970 
# 
# 
# High freq. dielectric constant tensor:
#      x y z
#    x 1.808300 0.000000 0.008330 
#    y 0.000000 1.780900 0.000000 
#    z 0.008330 0.000000 1.781460 
# 
# From -- ./inp_files/329647.got.cif
#   From: 2010.06.25/outbox.cif.g09.slc.cpg/sg12_165_cif.got.tgz:329647.got - 2010.06.28 00:19:55.
