data_PCOD8099464
_publ_section_title
;
Structure prediction by ZEFSAII (Michael W. Deem and Ramdas Pophale) SiO2 
 PCOD8099464
Probable space group: C 2/M
;
_chemical_formula_sum "Si O2"
_cell_formula_units_Z 56
_cell_length_a 20.001425
_cell_length_b 10.414854
_cell_length_c 19.784957
_cell_angle_alpha 90.000000
_cell_angle_beta 43.151029
_cell_angle_gamma 90.000000
_cell_volume 2818.752561
_symmetry_space_group_name_H-M "C 2/M"
_symmetry_group_IT_number 12
_symmetry_cell_setting 'monoclinic'
loop_
_space_group_symop_operation_xyz
x,y,z
-x,y,-z
-x,-y,-z
x,-y,z
1/2+x,1/2+y,z
1/2-x,1/2+y,-z
1/2-x,1/2-y,-z
1/2+x,1/2-y,z
loop_
_atom_site_type_symbol
_atom_site_label
_atom_site_fract_x
_atom_site_fract_y
_atom_site_fract_z
Si Si1 0.678341 0.351064 0.516806
Si Si2 0.562151 0.862149 0.812757
Si Si3 0.920496 0.778957 0.006553
Si Si4 0.391191 0.652739 0.577197
Si Si5 0.328619 0.361351 0.943030
Si Si6 0.474234 0.356489 0.261294
Si Si7 0.729712 0.858159 0.792756
O O1 0.717231 0.500000 0.492409
O O2 0.750000 0.250000 0.500000
O O3 0.663241 0.304018 0.451341
O O4 0.571277 0.343352 0.630859
O O5 0.575284 0.749241 0.749578
O O6 0.663718 0.871518 0.775583
O O7 0.541190 0.000000 0.792511
O O8 0.475567 0.840829 0.931122
O O9 0.820053 0.735310 0.116310
O O10 0.887315 0.872641 0.970892
O O11 0.000000 0.843086 0.000000
O O12 0.500000 0.712528 0.500000
O O13 0.396738 0.500000 0.573501
O O14 0.331566 0.699113 0.688102
O O15 0.277805 0.500000 0.968722
O O16 0.407990 0.334119 0.825079
O O17 0.250000 0.250000 0.000000
O O18 0.452972 0.500000 0.248079
O O19 0.745260 0.000000 0.813794
#
# Coordination Sequence:
#
# PCOD8099464 Si02
#       7
#     8   8   8   8   8   8   8
#     4  10  20  35  56  81 106 135 175 221 267 314
#     4   9  16  28  49  78 106 131 167 214 260 309
#     4   9  18  32  52  78 105 133 170 214 262 312
#     4   9  18  31  48  72 101 134 174 215 253 302
#     4  10  22  38  55  79 111 145 179 216 261 314
#     4   9  19  34  51  74 106 141 174 212 264 318
#     4   9  16  27  46  73 103 133 167 212 262 305
#
# _framework density 19.866942999999999
#
# number of rings (size 3 to 8) (size 9 to 14) (size 15 to 20)
#    0.000    2.714    0.000    1.286    0.000    7.714 
#    0.000    5.000    0.000    1.286    0.000    0.000 
#    0.000    0.000    0.000    0.000    0.000    0.000 
#
# Total GULP energy -346874.812801 kJ/mol
# GULP energy per Si atom -12388.386171 kJ/mol
# Density = 1.982173 g / cm^3
# Si number density = 19.866943 Si / 1000 Ang^3
#
#
#
# Elastic Constant Matrix: (Units=GPa)
#
#
# Indices 1 2 3 4 5 6 
#
# 1 47.2009 14.4886 16.0496 0.0000 -5.0771 0.0000
# 2 14.4886 80.0481 17.8809 0.0000 -7.8734 0.0000
# 3 16.0496 17.8809 135.7826 0.0000 -9.5518 0.0000
# 4 0.0000 0.0000 0.0000 18.1282 0.0000 -3.7145
# 5 -5.0771 -7.8734 -9.5518 0.0000 27.8345 0.0000
# 6 0.0000 0.0000 0.0000 -3.7145 0.0000 21.1849
#
#
#
# Elastic Compliance Matrix: (Units=1/GPa)
#
#
# Indices 1 2 3 4 5 6 
#
# 1 0.023246 -0.003487 -0.002111 0.000000 0.002530 0.000000
# 2 -0.003487 0.013667 -0.001189 0.000000 0.002822 0.000000
# 3 -0.002111 -0.001189 0.007911 0.000000 0.001993 0.000000
# 4 0.000000 0.000000 0.000000 0.057218 0.000000 0.010032
# 5 0.002530 0.002822 0.001993 0.000000 0.037870 0.000000
# 6 0.000000 0.000000 0.000000 0.010032 0.000000 0.048962
#
#
# Mechanical properties :
#
#
# Convention : Reuss Voigt Hill
#
# Bulk Modulus (GPa) = 31.99974 39.98554 35.99264
# Shear Modulus (GPa) = 23.48899 27.73702 25.61301
#
# Velocity S-wave (km/s) = 3.44221 3.74055 3.59448
# Velocity P-wave (km/s) = 5.65159 6.23105 5.94838
#
# Compressibility (1/GPa) = 0.03125026
#
# Stress axis : x y z
#
# Youngs Moduli (GPa) = 43.01782 73.16983 126.40627
#
# Poissons Ratio (x) = 0.25516 0.26679
# Poissons Ratio (y) = 0.15002 0.15030
# Poissons Ratio (z) = 0.09079 0.08700
#
# Static dielectric constant tensor:
#      x y z
#    x 3.442110 0.000000 -0.038650 
#    y 0.000000 3.417000 0.000000 
#    z -0.038650 0.000000 4.006190 
# 
# 
# High freq. dielectric constant tensor:
#      x y z
#    x 1.748290 0.000000 -0.000890 
#    y 0.000000 1.743390 0.000000 
#    z -0.000890 0.000000 1.796180 
# 
# From -- ./inp_files/320915.got.cif
#   From: 2010.06.25/outbox.cif.g09.slc.cpg/sg12_161_cif.got.tgz:320915.got - 2010.06.28 00:19:55.
