data_PCOD8099458
_publ_section_title
;
Structure prediction by ZEFSAII (Michael W. Deem and Ramdas Pophale) SiO2 
 PCOD8099458
Probable space group: C 2/M
;
_chemical_formula_sum "Si O2"
_cell_formula_units_Z 52
_cell_length_a 8.934480
_cell_length_b 13.122847
_cell_length_c 26.196897
_cell_angle_alpha 90.000000
_cell_angle_beta 123.626611
_cell_angle_gamma 90.000000
_cell_volume 2557.508315
_symmetry_space_group_name_H-M "C 2/M"
_symmetry_group_IT_number 12
_symmetry_cell_setting 'monoclinic'
loop_
_space_group_symop_operation_xyz
x,y,z
-x,y,-z
-x,-y,-z
x,-y,z
1/2+x,1/2+y,z
1/2-x,1/2+y,-z
1/2-x,1/2-y,-z
1/2+x,1/2-y,z
loop_
_atom_site_type_symbol
_atom_site_label
_atom_site_fract_x
_atom_site_fract_y
_atom_site_fract_z
Si Si1 0.932018 0.114922 0.338801
Si Si2 0.383904 0.617849 0.927515
Si Si3 0.532758 0.745618 0.863740
Si Si4 0.536054 0.114593 0.297413
Si Si5 0.613894 0.196065 0.416080
Si Si6 0.000000 0.742941 0.500000
Si Si7 0.853584 0.803005 0.220285
O O1 0.733637 0.150930 0.317816
O O2 0.944646 0.124211 0.279532
O O3 0.076235 0.185994 0.393801
O O4 0.972545 0.000000 0.363266
O O5 0.342045 0.500000 0.905683
O O6 0.501196 0.670134 0.905066
O O7 0.200551 0.679186 0.903345
O O8 0.500000 0.624489 0.000000
O O9 0.360669 0.818351 0.822321
O O10 0.563086 0.674787 0.819484
O O11 0.525785 0.122809 0.357207
O O12 0.389218 0.184622 0.242264
O O13 0.495239 0.000000 0.272582
O O14 0.528907 0.172006 0.455476
O O15 0.828952 0.182986 0.459555
#
# Coordination Sequence:
#
# PCOD8099458 Si02
#       7
#     8   8   8   8   8   4   8
#     4  10  20  35  56  80 111 147 183 224 285 352
#     4  10  22  41  64  89 122 165 207 249 298 348
#     4  10  21  37  61  90 123 156 200 249 293 349
#     4  10  20  36  59  81 110 150 186 224 287 355
#     4  10  20  38  55  81 102 145 177 235 276 345
#     4  10  20  36  58  72 110 138 180 230 292 318
#     4  10  20  36  57  87 119 150 185 237 291 346
#
# _framework density 20.332288999999999
#
# number of rings (size 3 to 8) (size 9 to 14) (size 15 to 20)
#    0.000    2.000    3.077    0.462    0.000    3.692 
#    0.000    9.231    0.000    8.308    0.000    0.000 
#    0.000    0.000    0.000    0.000    0.000    0.000 
#
# Total GULP energy -322367.588256 kJ/mol
# GULP energy per Si atom -12398.753394 kJ/mol
# Density = 2.028601 g / cm^3
# Si number density = 20.332289 Si / 1000 Ang^3
#
#
#
# Elastic Constant Matrix: (Units=GPa)
#
#
# Indices 1 2 3 4 5 6 
#
# 1 120.8146 32.3006 43.8666 0.0000 -11.4218 0.0000
# 2 32.3006 91.2022 30.0806 0.0000 3.6508 0.0000
# 3 43.8666 30.0806 94.1422 0.0000 -12.6984 0.0000
# 4 0.0000 0.0000 0.0000 11.3290 0.0000 -1.2846
# 5 -11.4218 3.6508 -12.6984 0.0000 35.0852 0.0000
# 6 0.0000 0.0000 0.0000 -1.2846 0.0000 21.4600
#
#
#
# Elastic Compliance Matrix: (Units=1/GPa)
#
#
# Indices 1 2 3 4 5 6 
#
# 1 0.010562 -0.002588 -0.003779 0.000000 0.002340 0.000000
# 2 -0.002588 0.013164 -0.003468 0.000000 -0.003467 0.000000
# 3 -0.003779 -0.003468 0.014060 0.000000 0.004219 0.000000
# 4 0.000000 0.000000 0.000000 0.088872 0.000000 0.005320
# 5 0.002340 -0.003467 0.004219 0.000000 0.031152 0.000000
# 6 0.000000 0.000000 0.000000 0.005320 0.000000 0.046917
#
#
# Mechanical properties :
#
#
# Convention : Reuss Voigt Hill
#
# Bulk Modulus (GPa) = 55.19835 57.62827 56.41331
# Shear Modulus (GPa) = 21.69793 26.90225 24.30009
#
# Velocity S-wave (km/s) = 3.27029 3.64143 3.46084
# Velocity P-wave (km/s) = 6.43947 6.78858 6.61633
#
# Compressibility (1/GPa) = 0.01811648
#
# Stress axis : x y z
#
# Youngs Moduli (GPa) = 94.67481 75.96556 71.12196
#
# Poissons Ratio (x) = 0.19661 0.26878
# Poissons Ratio (y) = 0.24503 0.24664
# Poissons Ratio (z) = 0.35779 0.26344
#
# Static dielectric constant tensor:
#      x y z
#    x 3.852530 0.000000 -0.163630 
#    y 0.000000 3.269220 0.000000 
#    z -0.163630 0.000000 3.810300 
# 
# 
# High freq. dielectric constant tensor:
#      x y z
#    x 1.804250 0.000000 -0.008450 
#    y 0.000000 1.755080 0.000000 
#    z -0.008450 0.000000 1.808800 
# 
# From -- ./inp_files/356023.got.cif
#   From: 2010.06.25/outbox.cif.g09.slc.cpg/sg12_179_cif.got.tgz:356023.got - 2010.06.28 00:19:55.
