data_PCOD8099481
_publ_section_title
;
Structure prediction by ZEFSAII (Michael W. Deem and Ramdas Pophale) SiO2 
 PCOD8099481
Probable space group: C 2/M
;
_chemical_formula_sum "Si O2"
_cell_formula_units_Z 40
_cell_length_a 25.504010
_cell_length_b 8.946182
_cell_length_c 15.456323
_cell_angle_alpha 90.000000
_cell_angle_beta 35.649962
_cell_angle_gamma 90.000000
_cell_volume 2055.396458
_symmetry_space_group_name_H-M "C 2/M"
_symmetry_group_IT_number 12
_symmetry_cell_setting 'monoclinic'
loop_
_space_group_symop_operation_xyz
x,y,z
-x,y,-z
-x,-y,-z
x,-y,z
1/2+x,1/2+y,z
1/2-x,1/2+y,-z
1/2-x,1/2-y,-z
1/2+x,1/2-y,z
loop_
_atom_site_type_symbol
_atom_site_label
_atom_site_fract_x
_atom_site_fract_y
_atom_site_fract_z
Si Si1 0.073759 0.825559 0.828828
Si Si2 0.257469 0.822864 0.664357
Si Si3 0.768976 0.674656 0.844104
Si Si4 0.441014 0.177019 0.331559
Si Si5 0.891504 0.825972 0.813361
O O1 0.169160 0.761284 0.734206
O O2 0.043159 0.737613 0.785393
O O3 0.079391 0.000000 0.798006
O O4 0.000000 0.794320 0.000000
O O5 0.260391 0.762570 0.758492
O O6 0.344411 0.767126 0.495630
O O7 0.251440 0.000000 0.676334
O O8 0.793664 0.500000 0.814001
O O9 0.848995 0.765100 0.781952
O O10 0.674763 0.706262 0.017684
O O11 0.515834 0.240512 0.295450
O O12 0.447463 0.000000 0.322792
O O13 0.911688 0.000000 0.775809
#
# Coordination Sequence:
#
# PCOD8099481 Si02
#       5
#     8   8   8   8   8
#     4  10  20  37  60  81 104 138 179 221 265 315
#     4   9  19  35  55  79 107 141 178 216 266 321
#     4   9  18  36  59  79 103 139 182 223 262 311
#     4  11  22  35  53  79 111 143 176 217 264 317
#     4  10  20  35  56  81 108 140 179 222 266 312
#
# _framework density 19.460965999999999
#
# number of rings (size 3 to 8) (size 9 to 14) (size 15 to 20)
#    0.000    2.200    0.000    3.000    0.000    5.200 
#    0.000    8.000    0.000    0.000    0.000    0.000 
#    0.000    0.000    0.000    0.000    0.000    0.000 
#
# Total GULP energy -248086.938631 kJ/mol
# GULP energy per Si atom -12404.346932 kJ/mol
# Density = 1.941667 g / cm^3
# Si number density = 19.460966 Si / 1000 Ang^3
#
#
#
# Elastic Constant Matrix: (Units=GPa)
#
#
# Indices 1 2 3 4 5 6 
#
# 1 97.9279 25.8799 31.7321 0.0014 -17.0397 0.0001
# 2 25.8799 50.0795 30.0464 0.0052 -9.9874 -0.0012
# 3 31.7321 30.0464 68.6395 0.0011 -21.9294 0.0001
# 4 0.0014 0.0052 0.0011 22.1043 -0.0003 -1.8717
# 5 -17.0397 -9.9874 -21.9294 -0.0003 38.6426 -0.0002
# 6 0.0001 -0.0012 0.0001 -1.8717 -0.0002 35.5667
#
#
#
# Elastic Compliance Matrix: (Units=1/GPa)
#
#
# Indices 1 2 3 4 5 6 
#
# 1 0.012835 -0.004138 -0.003244 0.000000 0.002749 0.000000
# 2 -0.004138 0.028418 -0.010704 -0.000006 -0.000554 0.000001
# 3 -0.003244 -0.010704 0.023712 0.000002 0.009260 0.000000
# 4 0.000000 -0.000006 0.000002 0.045443 0.000000 0.002391
# 5 0.002749 -0.000554 0.009260 0.000000 0.032202 0.000000
# 6 0.000000 0.000001 0.000000 0.002391 0.000000 0.028242
#
#
# Mechanical properties :
#
#
# Convention : Reuss Voigt Hill
#
# Bulk Modulus (GPa) = 34.72972 43.55150 39.14061
# Shear Modulus (GPa) = 23.08177 27.86195 25.47186
#
# Velocity S-wave (km/s) = 3.44765 3.78786 3.62175
# Velocity P-wave (km/s) = 5.80801 6.44655 6.13559
#
# Compressibility (1/GPa) = 0.02879379
#
# Stress axis : x y z
#
# Youngs Moduli (GPa) = 77.91402 35.18863 42.17224
#
# Poissons Ratio (x) = 0.14562 0.13679
# Poissons Ratio (y) = 0.32243 0.45140
# Poissons Ratio (z) = 0.25273 0.37665
#
# Static dielectric constant tensor:
#      x y z
#    x 3.682420 0.000000 -0.068120 
#    y 0.000000 3.317320 0.000000 
#    z -0.068120 0.000000 3.608200 
# 
# 
# High freq. dielectric constant tensor:
#      x y z
#    x 1.773800 0.000000 -0.003730 
#    y 0.000000 1.736610 0.000000 
#    z -0.003730 0.000000 1.760480 
# 
# From -- ./inp_files/220562.got.cif
#   From: 2010.06.25/outbox.cif.g09.slc.cpg/sg12_111_cif.got.tgz:220562.got - 2010.06.28 00:19:55.
