data_PCOD8099623
_publ_section_title
;
Structure prediction by ZEFSAII (Michael W. Deem and Ramdas Pophale) SiO2 
 PCOD8099623
Probable space group: C 2/M
;
_chemical_formula_sum "Si O2"
_cell_formula_units_Z 56
_cell_length_a 29.211237
_cell_length_b 8.974188
_cell_length_c 19.661284
_cell_angle_alpha 90.000000
_cell_angle_beta 146.659868
_cell_angle_gamma 90.000000
_cell_volume 2832.762226
_symmetry_space_group_name_H-M "C 2/M"
_symmetry_group_IT_number 12
_symmetry_cell_setting 'monoclinic'
loop_
_space_group_symop_operation_xyz
x,y,z
-x,y,-z
-x,-y,-z
x,-y,z
1/2+x,1/2+y,z
1/2-x,1/2+y,-z
1/2-x,1/2-y,-z
1/2+x,1/2-y,z
loop_
_atom_site_type_symbol
_atom_site_label
_atom_site_fract_x
_atom_site_fract_y
_atom_site_fract_z
Si Si1 0.176558 0.673988 0.868079
Si Si2 0.266420 0.173043 0.207791
Si Si3 0.166164 0.671847 0.564039
Si Si4 0.037212 0.176365 0.193161
Si Si5 0.178656 0.672351 0.295615
Si Si6 0.891431 0.672707 0.940083
Si Si7 0.503659 0.825844 0.717473
O O1 0.186754 0.500000 0.892134
O O2 0.181467 0.715123 0.794439
O O3 0.087324 0.728783 0.784180
O O4 0.250000 0.750000 0.000000
O O5 0.322764 0.214144 0.342958
O O6 0.181980 0.268770 0.102313
O O7 0.240675 0.000000 0.176615
O O8 0.188393 0.500000 0.578986
O O9 0.227291 0.767724 0.592242
O O10 0.071753 0.708790 0.427376
O O11 0.129473 0.239970 0.293365
O O12 0.005597 0.229868 0.226640
O O13 0.039563 0.000000 0.193485
O O14 0.975541 0.237759 0.058770
O O15 0.181419 0.500000 0.318964
O O16 0.132287 0.701012 0.167088
O O17 0.907174 0.500000 0.975467
O O18 0.506952 0.000000 0.740894
#
# Coordination Sequence:
#
# PCOD8099623 Si02
#       7
#     8   8   8   8   8   8   8
#     4  10  21  36  56  83 113 145 181 222 270 324
#     4   9  18  34  57  84 112 143 181 226 273 320
#     4   9  19  37  59  82 109 142 183 228 272 321
#     4  12  24  36  54  80 110 146 186 229 276 323
#     4  10  21  37  58  82 110 144 181 224 274 329
#     4  10  20  35  56  83 113 144 180 223 274 330
#     4  10  22  39  57  79 110 147 185 226 272 324
#
# _framework density 19.768689999999999
#
# number of rings (size 3 to 8) (size 9 to 14) (size 15 to 20)
#    0.000    2.000    0.000    3.429    0.000    8.571 
#    0.000    2.857    0.000    0.000    0.000    6.000 
#    0.000    0.000    0.000    0.000    0.000    0.000 
#
# Total GULP energy -347329.140853 kJ/mol
# GULP energy per Si atom -12404.612173 kJ/mol
# Density = 1.972370 g / cm^3
# Si number density = 19.768690 Si / 1000 Ang^3
#
#
#
# Elastic Constant Matrix: (Units=GPa)
#
#
# Indices 1 2 3 4 5 6 
#
# 1 129.5437 52.7799 39.1520 0.0000 31.9578 0.0000
# 2 52.7799 94.1601 39.1664 0.0000 15.5050 0.0000
# 3 39.1520 39.1664 103.1016 0.0000 26.2436 0.0000
# 4 0.0000 0.0000 0.0000 27.9096 0.0000 2.1177
# 5 31.9578 15.5050 26.2436 0.0000 26.9491 0.0000
# 6 0.0000 0.0000 0.0000 2.1177 0.0000 29.6558
#
#
#
# Elastic Compliance Matrix: (Units=1/GPa)
#
#
# Indices 1 2 3 4 5 6 
#
# 1 0.012865 -0.005277 0.000306 0.000000 -0.012518 0.000000
# 2 -0.005277 0.015023 -0.004116 0.000000 0.001623 0.000000
# 3 0.000306 -0.004116 0.014142 0.000000 -0.011765 0.000000
# 4 0.000000 0.000000 0.000000 0.036025 0.000000 -0.002573
# 5 -0.012518 0.001623 -0.011765 0.000000 0.062475 0.000000
# 6 0.000000 0.000000 0.000000 -0.002573 0.000000 0.033904
#
#
# Mechanical properties :
#
#
# Convention : Reuss Voigt Hill
#
# Bulk Modulus (GPa) = 41.92130 65.44467 53.68299
# Shear Modulus (GPa) = 24.93007 29.95003 27.44005
#
# Velocity S-wave (km/s) = 3.55503 3.89655 3.72970
# Velocity P-wave (km/s) = 6.17276 7.30898 6.76477
#
# Compressibility (1/GPa) = 0.02385422
#
# Stress axis : x y z
#
# Youngs Moduli (GPa) = 77.72898 66.56387 70.71338
#
# Poissons Ratio (x) = 0.35127 -0.02160
# Poissons Ratio (y) = 0.41019 0.29107
# Poissons Ratio (z) = -0.02375 0.27399
#
# Static dielectric constant tensor:
#      x y z
#    x 3.734840 0.000000 0.036950 
#    y 0.000000 3.563220 0.000000 
#    z 0.036950 0.000000 3.690850 
# 
# 
# High freq. dielectric constant tensor:
#      x y z
#    x 1.777380 0.000000 0.003340 
#    y 0.000000 1.766270 0.000000 
#    z 0.003340 0.000000 1.770340 
# 
# From -- ./inp_files/288256.got.cif
#   From: 2010.06.25/outbox.cif.g09.slc.cpg/sg12_145_cif.got.tgz:288256.got - 2010.06.28 00:19:55.
