data_PCOD8099753
_publ_section_title
;
Structure prediction by ZEFSAII (Michael W. Deem and Ramdas Pophale) SiO2 
 PCOD8099753
Probable space group: C 2/M
;
_chemical_formula_sum "Si O2"
_cell_formula_units_Z 56
_cell_length_a 27.053699
_cell_length_b 13.897151
_cell_length_c 9.425918
_cell_angle_alpha 90.000000
_cell_angle_beta 122.918154
_cell_angle_gamma 90.000000
_cell_volume 2974.881979
_symmetry_space_group_name_H-M "C 2/M"
_symmetry_group_IT_number 12
_symmetry_cell_setting 'monoclinic'
loop_
_space_group_symop_operation_xyz
x,y,z
-x,y,-z
-x,-y,-z
x,-y,z
1/2+x,1/2+y,z
1/2-x,1/2+y,-z
1/2-x,1/2-y,-z
1/2+x,1/2-y,z
loop_
_atom_site_type_symbol
_atom_site_label
_atom_site_fract_x
_atom_site_fract_y
_atom_site_fract_z
Si Si1 0.026853 0.610111 0.695855
Si Si2 0.593912 0.888614 0.361900
Si Si3 0.667382 0.892064 0.220887
Si Si4 0.315619 0.218309 0.317120
Si Si5 0.140745 0.266946 0.924364
Si Si6 0.702145 0.607603 0.508808
Si Si7 0.692866 0.612298 0.175924
O O1 0.051174 0.500000 0.746070
O O2 0.075781 0.690135 0.802971
O O3 0.000000 0.627233 0.500000
O O4 0.975816 0.628147 0.732314
O O5 0.616499 0.848767 0.244658
O O6 0.628002 0.842417 0.546773
O O7 0.610334 0.000000 0.394893
O O8 0.727533 0.885878 0.403379
O O9 0.651267 0.000000 0.150339
O O10 0.675883 0.833250 0.090360
O O11 0.322507 0.238106 0.161807
O O12 0.319721 0.318753 0.407452
O O13 0.255614 0.161306 0.245684
O O14 0.142271 0.160334 0.997545
O O15 0.684359 0.500000 0.531266
O O16 0.674652 0.629944 0.311528
O O17 0.696966 0.500000 0.145611
#
# Coordination Sequence:
#
# PCOD8099753 Si02
#       7
#     8   8   8   8   8   8   8
#     4  10  21  39  60  85 118 154 194 239 291 346
#     4  10  20  36  61  86 114 154 196 235 283 346
#     4  10  20  35  56  86 119 153 191 234 284 343
#     4  12  21  36  58  88 118 153 192 234 290 349
#     4  12  24  36  55  87 122 154 189 241 290 341
#     4  10  21  38  59  83 119 158 192 232 283 349
#     4  11  23  38  57  84 118 155 193 235 287 347
#
# _framework density 18.824275
#
# number of rings (size 3 to 8) (size 9 to 14) (size 15 to 20)
#    0.000    1.286    4.286    2.571    0.000    2.857 
#    0.000    2.143    0.000    1.286    0.000    3.000 
#    0.000    0.000    0.000    0.000    0.000    0.000 
#
# Total GULP energy -347149.049173 kJ/mol
# GULP energy per Si atom -12398.180328 kJ/mol
# Density = 1.878143 g / cm^3
# Si number density = 18.824275 Si / 1000 Ang^3
#
#
#
# Elastic Constant Matrix: (Units=GPa)
#
#
# Indices 1 2 3 4 5 6 
#
# 1 74.9033 49.9709 38.7611 0.0000 -16.2017 0.0000
# 2 49.9709 122.0153 63.8720 0.0000 -7.6744 0.0000
# 3 38.7611 63.8720 99.6150 0.0000 -13.3262 0.0000
# 4 0.0000 0.0000 0.0000 34.9037 0.0000 4.4605
# 5 -16.2017 -7.6744 -13.3262 0.0000 37.9407 0.0000
# 6 0.0000 0.0000 0.0000 4.4605 0.0000 20.3223
#
#
#
# Elastic Compliance Matrix: (Units=1/GPa)
#
#
# Indices 1 2 3 4 5 6 
#
# 1 0.020612 -0.006456 -0.003020 0.000000 0.006435 0.000000
# 2 -0.006456 0.014362 -0.007006 0.000000 -0.002313 0.000000
# 3 -0.003020 -0.007006 0.016100 0.000000 0.002948 0.000000
# 4 0.000000 0.000000 0.000000 0.029477 0.000000 -0.006470
# 5 0.006435 -0.002313 0.002948 0.000000 0.029673 0.000000
# 6 0.000000 0.000000 0.000000 -0.006470 0.000000 0.050627
#
#
# Mechanical properties :
#
#
# Convention : Reuss Voigt Hill
#
# Bulk Modulus (GPa) = 55.21642 66.86018 61.03830
# Shear Modulus (GPa) = 25.01852 28.22864 26.62358
#
# Velocity S-wave (km/s) = 3.64958 3.87665 3.76483
# Velocity P-wave (km/s) = 6.86698 7.45876 7.16898
#
# Compressibility (1/GPa) = 0.01811056
#
# Stress axis : x y z
#
# Youngs Moduli (GPa) = 48.51434 69.62987 62.11095
#
# Poissons Ratio (x) = 0.44953 0.18758
# Poissons Ratio (y) = 0.31321 0.43514
# Poissons Ratio (z) = 0.14651 0.48781
#
# Static dielectric constant tensor:
#      x y z
#    x 3.402100 0.000000 -0.123860 
#    y 0.000000 3.604770 0.000000 
#    z -0.123860 0.000000 3.517520 
# 
# 
# High freq. dielectric constant tensor:
#      x y z
#    x 1.716220 0.000000 -0.019080 
#    y 0.000000 1.727440 0.000000 
#    z -0.019080 0.000000 1.732140 
# 
# From -- ./inp_files/96959.got.cif
#   From: 2010.06.25/outbox.cif.g09.slc.cpg/sg12_49_cif.got.tgz:96959.got - 2010.06.28 00:19:55.
