data_PCOD8099918
_publ_section_title
;
Structure prediction by ZEFSAII (Michael W. Deem and Ramdas Pophale) SiO2 
 PCOD8099918
Probable space group: C 2/M
;
_chemical_formula_sum "Si O2"
_cell_formula_units_Z 56
_cell_length_a 28.389342
_cell_length_b 8.774551
_cell_length_c 14.243614
_cell_angle_alpha 90.000000
_cell_angle_beta 60.058251
_cell_angle_gamma 90.000000
_cell_volume 3074.579152
_symmetry_space_group_name_H-M "C 2/M"
_symmetry_group_IT_number 12
_symmetry_cell_setting 'monoclinic'
loop_
_space_group_symop_operation_xyz
x,y,z
-x,y,-z
-x,-y,-z
x,-y,z
1/2+x,1/2+y,z
1/2-x,1/2+y,-z
1/2-x,1/2-y,-z
1/2+x,1/2-y,z
loop_
_atom_site_type_symbol
_atom_site_label
_atom_site_fract_x
_atom_site_fract_y
_atom_site_fract_z
Si Si1 0.802822 0.179433 0.397745
Si Si2 0.988315 0.174606 0.617575
Si Si3 0.116248 0.672178 0.195584
Si Si4 0.327629 0.829352 0.666834
Si Si5 0.282222 0.178283 0.228404
Si Si6 0.106550 0.173078 0.545040
Si Si7 0.201092 0.179451 0.988701
O O1 0.750000 0.250000 0.500000
O O2 0.814667 0.254677 0.284876
O O3 0.857450 0.218063 0.401095
O O4 0.793323 0.000000 0.396697
O O5 0.042336 0.192934 0.627979
O O6 0.000000 0.233320 0.500000
O O7 0.942546 0.271642 0.714361
O O8 0.968487 0.000000 0.632396
O O9 0.110252 0.500000 0.164444
O O10 0.158911 0.679332 0.237659
O O11 0.142145 0.775961 0.088610
O O12 0.281113 0.708755 0.687698
O O13 0.380175 0.783323 0.555039
O O14 0.308603 0.000000 0.658864
O O15 0.293466 0.000000 0.206621
O O16 0.299302 0.264121 0.117408
O O17 0.118956 0.000000 0.501990
O O18 0.208913 0.000000 0.982744
O O19 0.250000 0.250000 0.000000
#
# Coordination Sequence:
#
# PCOD8099918 Si02
#       7
#     8   8   8   8   8   8   8
#     4  11  22  36  56  84 117 153 195 238 286 343
#     4  10  20  35  57  83 114 153 194 234 283 339
#     4  11  23  37  55  84 119 154 191 232 282 340
#     4  11  21  32  53  82 117 152 190 233 279 337
#     4  12  24  38  57  82 116 154 193 236 287 341
#     4  10  21  36  55  81 116 155 194 235 285 341
#     4  12  24  39  60  85 115 151 190 234 286 343
#
# _framework density 18.213875000000002
#
# number of rings (size 3 to 8) (size 9 to 14) (size 15 to 20)
#    0.000    1.000    4.286    3.857    0.000    2.571 
#    0.000    0.000    0.000    0.857    0.000    6.000 
#    0.000    0.000    0.000    0.000    0.000    0.000 
#
# Total GULP energy -347258.041423 kJ/mol
# GULP energy per Si atom -12402.072908 kJ/mol
# Density = 1.817242 g / cm^3
# Si number density = 18.213875 Si / 1000 Ang^3
#
#
#
# Elastic Constant Matrix: (Units=GPa)
#
#
# Indices 1 2 3 4 5 6 
#
# 1 96.5338 39.5268 39.4518 0.0000 1.2389 0.0000
# 2 39.5268 128.4213 54.0659 0.0000 4.7949 0.0000
# 3 39.4518 54.0659 108.8596 0.0000 5.8850 0.0000
# 4 0.0000 0.0000 0.0000 33.6984 0.0000 -0.1209
# 5 1.2389 4.7949 5.8850 0.0000 28.1289 0.0000
# 6 0.0000 0.0000 0.0000 -0.1209 0.0000 26.2445
#
#
#
# Elastic Compliance Matrix: (Units=1/GPa)
#
#
# Indices 1 2 3 4 5 6 
#
# 1 0.012777 -0.002518 -0.003411 0.000000 0.000580 0.000000
# 2 -0.002518 0.010354 -0.004188 0.000000 -0.000778 0.000000
# 3 -0.003411 -0.004188 0.012598 0.000000 -0.001772 0.000000
# 4 0.000000 0.000000 0.000000 0.029675 0.000000 0.000137
# 5 0.000580 -0.000778 -0.001772 0.000000 0.036028 0.000000
# 6 0.000000 0.000000 0.000000 0.000137 0.000000 0.038104
#
#
# Mechanical properties :
#
#
# Convention : Reuss Voigt Hill
#
# Bulk Modulus (GPa) = 64.53787 66.65598 65.59692
# Shear Modulus (GPa) = 30.31490 30.99906 30.65698
#
# Velocity S-wave (km/s) = 4.08411 4.12994 4.10709
# Velocity P-wave (km/s) = 7.59936 7.70828 7.65401
#
# Compressibility (1/GPa) = 0.01549478
#
# Stress axis : x y z
#
# Youngs Moduli (GPa) = 78.26704 96.58077 79.37748
#
# Poissons Ratio (x) = 0.24320 0.27077
# Poissons Ratio (y) = 0.19709 0.33241
# Poissons Ratio (z) = 0.26698 0.40446
#
# Static dielectric constant tensor:
#      x y z
#    x 3.395070 0.000000 0.070650 
#    y 0.000000 3.477990 0.000000 
#    z 0.070650 0.000000 3.308830 
# 
# 
# High freq. dielectric constant tensor:
#      x y z
#    x 1.694520 0.000000 0.001980 
#    y 0.000000 1.718010 0.000000 
#    z 0.001980 0.000000 1.694800 
# 
# From -- ./inp_files/248896.got.cif
#   From: 2010.06.25/outbox.cif.g09.slc.cpg/sg12_125_cif.got.tgz:248896.got - 2010.06.28 00:19:55.
