data_PCOD8099162
_publ_section_title
;
Structure prediction by ZEFSAII (Michael W. Deem and Ramdas Pophale) SiO2 
 PCOD8099162
Probable space group: C 2/M
;
_chemical_formula_sum "Si O2"
_cell_formula_units_Z 56
_cell_length_a 24.954902
_cell_length_b 8.730449
_cell_length_c 15.026298
_cell_angle_alpha 90.000000
_cell_angle_beta 105.104448
_cell_angle_gamma 90.000000
_cell_volume 3160.642054
_symmetry_space_group_name_H-M "C 2/M"
_symmetry_group_IT_number 12
_symmetry_cell_setting 'monoclinic'
loop_
_space_group_symop_operation_xyz
x,y,z
-x,y,-z
-x,-y,-z
x,-y,z
1/2+x,1/2+y,z
1/2-x,1/2+y,-z
1/2-x,1/2-y,-z
1/2+x,1/2-y,z
loop_
_atom_site_type_symbol
_atom_site_label
_atom_site_fract_x
_atom_site_fract_y
_atom_site_fract_z
Si Si1 0.954671 0.177913 0.797827
Si Si2 0.538860 0.679741 0.396940
Si Si3 0.348859 0.820809 0.225395
Si Si4 0.256167 0.820331 0.905687
Si Si5 0.629711 0.677231 0.086145
Si Si6 0.431199 0.821089 0.103170
Si Si7 0.918934 0.181486 0.401589
O O1 0.938378 0.227490 0.690055
O O2 0.901008 0.208963 0.834183
O O3 0.004962 0.281460 0.853205
O O4 0.972992 0.000000 0.809540
O O5 0.534238 0.500000 0.406305
O O6 0.476300 0.741615 0.382378
O O7 0.579906 0.735124 0.493927
O O8 0.291586 0.736821 0.180218
O O9 0.394860 0.773490 0.172663
O O10 0.368688 0.767412 0.331174
O O11 0.337454 0.000000 0.220095
O O12 0.314867 0.776606 0.888640
O O13 0.252363 0.000000 0.914902
O O14 0.250000 0.750000 0.000000
O O15 0.645416 0.500000 0.081703
O O16 0.589280 0.724460 0.989233
O O17 0.425044 0.000000 0.079152
O O18 0.910522 0.000000 0.386956
#
# Coordination Sequence:
#
# PCOD8099162 Si02
#       7
#     8   8   8   8   8   8   8
#     4  10  20  35  55  79 110 146 182 219 265 321
#     4   8  15  29  52  80 108 138 176 218 262 316
#     4  11  22  35  53  80 112 142 175 220 270 316
#     4  12  24  39  59  79 103 139 180 226 268 315
#     4  11  23  37  55  78 107 145 183 222 266 318
#     4  11  22  34  51  77 111 148 180 218 266 317
#     4   9  16  30  54  80 106 140 178 218 264 316
#
# _framework density 17.717919999999999
#
# number of rings (size 3 to 8) (size 9 to 14) (size 15 to 20)
#    0.000    1.714    2.857    3.857    0.000    4.000 
#    0.000    2.143    0.000    0.857    0.000    0.000 
#    0.000    0.000    0.000    0.000    0.000    0.000 
#
# Total GULP energy -347231.442081 kJ/mol
# GULP energy per Si atom -12401.122931 kJ/mol
# Density = 1.767759 g / cm^3
# Si number density = 17.717920 Si / 1000 Ang^3
#
#
#
# Elastic Constant Matrix: (Units=GPa)
#
#
# Indices 1 2 3 4 5 6 
#
# 1 87.8829 32.9299 64.4029 0.0000 -0.5822 0.0000
# 2 32.9299 72.7458 46.1123 0.0000 0.0491 0.0000
# 3 64.4029 46.1123 148.3001 0.0000 9.5380 0.0000
# 4 0.0000 0.0000 0.0000 23.7755 0.0000 5.1275
# 5 -0.5822 0.0491 9.5380 0.0000 22.8388 0.0000
# 6 0.0000 0.0000 0.0000 5.1275 0.0000 26.5832
#
#
#
# Elastic Compliance Matrix: (Units=1/GPa)
#
#
# Indices 1 2 3 4 5 6 
#
# 1 0.017759 -0.003760 -0.006754 0.000000 0.003282 0.000000
# 2 -0.003760 0.018030 -0.004074 0.000000 0.001567 0.000000
# 3 -0.006754 -0.004074 0.011256 0.000000 -0.004864 0.000000
# 4 0.000000 0.000000 0.000000 0.043886 0.000000 -0.008465
# 5 0.003282 0.001567 -0.004864 0.000000 0.045897 0.000000
# 6 0.000000 0.000000 0.000000 -0.008465 0.000000 0.039250
#
#
# Mechanical properties :
#
#
# Convention : Reuss Voigt Hill
#
# Bulk Modulus (GPa) = 55.96474 66.20212 61.08343
# Shear Modulus (GPa) = 23.67307 25.67176 24.67241
#
# Velocity S-wave (km/s) = 3.65925 3.81059 3.73569
# Velocity P-wave (km/s) = 7.03623 7.53700 7.29092
#
# Compressibility (1/GPa) = 0.01786839
#
# Stress axis : x y z
#
# Youngs Moduli (GPa) = 56.30938 55.46321 88.84174
#
# Poissons Ratio (x) = 0.20853 0.60006
# Poissons Ratio (y) = 0.21171 0.36196
# Poissons Ratio (z) = 0.38033 0.22597
#
# Static dielectric constant tensor:
#      x y z
#    x 3.186800 0.000000 -0.058300 
#    y 0.000000 3.200790 0.000000 
#    z -0.058300 0.000000 3.543940 
# 
# 
# High freq. dielectric constant tensor:
#      x y z
#    x 1.663990 0.000000 0.002620 
#    y 0.000000 1.680280 0.000000 
#    z 0.002620 0.000000 1.692650 
# 
# From -- ./inp_files/237887.got.cif
#   From: 2010.06.25/outbox.cif.g09.slc.cpg/sg12_119_cif.got.tgz:237887.got - 2010.06.28 00:19:55.
