data_PCOD8099621
_publ_section_title
;
Structure prediction by ZEFSAII (Michael W. Deem and Ramdas Pophale) SiO2 
 PCOD8099621
Probable space group: C 2/M
;
_chemical_formula_sum "Si O2"
_cell_formula_units_Z 64
_cell_length_a 14.637499
_cell_length_b 9.112963
_cell_length_c 24.164570
_cell_angle_alpha 90.000000
_cell_angle_beta 88.958028
_cell_angle_gamma 90.000000
_cell_volume 3222.802834
_symmetry_space_group_name_H-M "C 2/M"
_symmetry_group_IT_number 12
_symmetry_cell_setting 'monoclinic'
loop_
_space_group_symop_operation_xyz
x,y,z
-x,y,-z
-x,-y,-z
x,-y,z
1/2+x,1/2+y,z
1/2-x,1/2+y,-z
1/2-x,1/2-y,-z
1/2+x,1/2-y,z
loop_
_atom_site_type_symbol
_atom_site_label
_atom_site_fract_x
_atom_site_fract_y
_atom_site_fract_z
Si Si1 0.398658 0.162547 0.263352
Si Si2 0.107054 0.673620 0.857940
Si Si3 0.581961 0.330100 0.138950
Si Si4 0.415146 0.328552 0.369732
Si Si5 0.625225 0.669572 0.352414
Si Si6 0.885672 0.664012 0.754937
Si Si7 0.227151 0.672897 0.557188
Si Si8 0.256944 0.331643 0.942625
O O1 0.356750 0.212123 0.204641
O O2 0.372050 0.276580 0.311579
O O3 0.506453 0.159294 0.253852
O O4 0.363508 0.000000 0.281107
O O5 0.088362 0.500000 0.861490
O O6 0.182365 0.729537 0.900217
O O7 0.014151 0.756389 0.873596
O O8 0.567276 0.500000 0.154101
O O9 0.635464 0.255956 0.189609
O O10 0.642652 0.309889 0.083592
O O11 0.396003 0.500000 0.377355
O O12 0.522244 0.289733 0.371522
O O13 0.367490 0.239654 0.419495
O O14 0.631012 0.500000 0.336119
O O15 0.658734 0.759039 0.298223
O O16 0.690865 0.710683 0.402009
O O17 0.845516 0.500000 0.761155
O O18 0.215515 0.500000 0.548390
O O19 0.250000 0.750000 0.500000
O O20 0.235627 0.500000 0.954662
O O21 0.250000 0.250000 0.000000
#
# Coordination Sequence:
#
# PCOD8099621 Si02
#       8
#     8   8   8   8   8   8   8   8
#     4   8  15  30  53  81 111 141 174 214 265 325
#     4   9  19  37  58  80 109 146 183 221 271 329
#     4  10  20  35  56  83 113 143 178 224 276 325
#     4  10  20  36  58  84 112 142 179 223 271 323
#     4   9  20  38  59  82 112 148 181 220 273 327
#     4   9  17  31  55  86 115 142 177 221 269 325
#     4  11  24  41  58  79 109 146 188 230 272 321
#     4  10  23  40  56  77 107 144 187 231 274 325
#
# _framework density 19.85849
#
# number of rings (size 3 to 8) (size 9 to 14) (size 15 to 20)
#    0.000    2.500    0.000    2.250    0.000    8.000 
#    0.000    7.500    0.000    0.000    0.000    0.000 
#    0.000    0.000    0.000    0.000    0.000    0.000 
#
# Total GULP energy -396825.262465 kJ/mol
# GULP energy per Si atom -12400.789452 kJ/mol
# Density = 1.981329 g / cm^3
# Si number density = 19.858490 Si / 1000 Ang^3
#
#
#
# Elastic Constant Matrix: (Units=GPa)
#
#
# Indices 1 2 3 4 5 6 
#
# 1 46.7280 17.8986 13.0444 0.0000 3.8166 0.0000
# 2 17.8986 78.4483 33.4198 0.0000 -1.5890 0.0000
# 3 13.0444 33.4198 95.3744 0.0000 1.2834 0.0000
# 4 0.0000 0.0000 0.0000 42.6458 0.0000 -2.1915
# 5 3.8166 -1.5890 1.2834 0.0000 29.4946 0.0000
# 6 0.0000 0.0000 0.0000 -2.1915 0.0000 26.4106
#
#
#
# Elastic Compliance Matrix: (Units=1/GPa)
#
#
# Indices 1 2 3 4 5 6 
#
# 1 0.023966 -0.004887 -0.001521 0.000000 -0.003298 0.000000
# 2 -0.004887 0.016012 -0.004965 0.000000 0.001711 0.000000
# 3 -0.001521 -0.004965 0.012441 0.000000 -0.000612 0.000000
# 4 0.000000 0.000000 0.000000 0.023549 0.000000 0.001954
# 5 -0.003298 0.001711 -0.000612 0.000000 0.034450 0.000000
# 6 0.000000 0.000000 0.000000 0.001954 0.000000 0.038026
#
#
# Mechanical properties :
#
#
# Convention : Reuss Voigt Hill
#
# Bulk Modulus (GPa) = 33.70080 38.80846 36.25463
# Shear Modulus (GPa) = 27.61168 30.12272 28.86720
#
# Velocity S-wave (km/s) = 3.73288 3.89893 3.81681
# Velocity P-wave (km/s) = 5.96544 6.31298 6.14167
#
# Compressibility (1/GPa) = 0.02967289
#
# Stress axis : x y z
#
# Youngs Moduli (GPa) = 41.72522 62.45235 80.37821
#
# Poissons Ratio (x) = 0.30520 0.12226
# Poissons Ratio (y) = 0.20391 0.39911
# Poissons Ratio (z) = 0.06347 0.31010
#
# Static dielectric constant tensor:
#      x y z
#    x 3.533100 0.000000 0.070520 
#    y 0.000000 3.685450 0.000000 
#    z 0.070520 0.000000 3.693080 
# 
# 
# High freq. dielectric constant tensor:
#      x y z
#    x 1.767970 0.000000 0.000210 
#    y 0.000000 1.776390 0.000000 
#    z 0.000210 0.000000 1.773900 
# 
# From -- ./inp_files/338733.got.cif
#   From: 2010.06.25/outbox.cif.g09.slc.cpg/sg12_170_cif.got.tgz:338733.got - 2010.06.28 00:19:55.
