data_PCOD8099113
_publ_section_title
;
Structure prediction by ZEFSAII (Michael W. Deem and Ramdas Pophale) SiO2 
 PCOD8099113
Probable space group: C 2/M
;
_chemical_formula_sum "Si O2"
_cell_formula_units_Z 56
_cell_length_a 14.202931
_cell_length_b 9.091745
_cell_length_c 27.642834
_cell_angle_alpha 90.000000
_cell_angle_beta 57.906693
_cell_angle_gamma 90.000000
_cell_volume 3024.026062
_symmetry_space_group_name_H-M "C 2/M"
_symmetry_group_IT_number 12
_symmetry_cell_setting 'monoclinic'
loop_
_space_group_symop_operation_xyz
x,y,z
-x,y,-z
-x,-y,-z
x,-y,z
1/2+x,1/2+y,z
1/2-x,1/2+y,-z
1/2-x,1/2-y,-z
1/2+x,1/2-y,z
loop_
_atom_site_type_symbol
_atom_site_label
_atom_site_fract_x
_atom_site_fract_y
_atom_site_fract_z
Si Si1 0.454298 0.671523 0.063163
Si Si2 0.365985 0.827067 0.643662
Si Si3 0.263269 0.172236 0.238671
Si Si4 0.706608 0.172009 0.159017
Si Si5 0.180930 0.331321 0.453383
Si Si6 0.488367 0.829082 0.858269
Si Si7 0.917322 0.829480 0.433698
O O1 0.478598 0.500000 0.061059
O O2 0.323498 0.706889 0.101401
O O3 0.521951 0.747583 0.087835
O O4 0.500000 0.733954 0.000000
O O5 0.275393 0.752827 0.702513
O O6 0.331339 0.787656 0.598736
O O7 0.486426 0.757301 0.620813
O O8 0.369663 0.000000 0.652688
O O9 0.196520 0.237441 0.211309
O O10 0.393900 0.205879 0.198602
O O11 0.237864 0.000000 0.249027
O O12 0.608809 0.227246 0.150531
O O13 0.694373 0.000000 0.174663
O O14 0.147736 0.500000 0.472121
O O15 0.097961 0.233065 0.507962
O O16 0.307601 0.300347 0.432685
O O17 0.473990 0.000000 0.873075
O O18 0.948503 0.000000 0.428650
#
# Coordination Sequence:
#
# PCOD8099113 Si02
#       7
#     8   8   8   8   8   8   8
#     4   9  18  32  51  78 110 140 172 210 251 301
#     4  11  22  36  54  75 102 136 170 206 256 311
#     4  10  21  36  52  74 101 128 169 218 257 299
#     4   9  18  35  55  74 102 139 173 207 255 307
#     4   9  20  37  54  75 105 138 169 204 253 311
#     4   9  19  35  54  75 101 136 174 213 256 301
#     4  10  20  35  55  79 105 133 169 212 254 300
#
# _framework density 18.518359
#
# number of rings (size 3 to 8) (size 9 to 14) (size 15 to 20)
#    0.000    2.429    0.000    1.714    0.000    6.571 
#    0.000    2.857    0.000    0.000    0.000    0.000 
#    0.000    0.000    0.000    0.000    0.000    0.000 
#
# Total GULP energy -347316.528905 kJ/mol
# GULP energy per Si atom -12404.161747 kJ/mol
# Density = 1.847621 g / cm^3
# Si number density = 18.518359 Si / 1000 Ang^3
#
#
#
# Elastic Constant Matrix: (Units=GPa)
#
#
# Indices 1 2 3 4 5 6 
#
# 1 104.5380 35.2833 39.8000 0.0000 11.1597 0.0000
# 2 35.2833 71.1642 45.4629 0.0000 1.9340 0.0000
# 3 39.8000 45.4629 107.3070 0.0000 2.6840 0.0000
# 4 0.0000 0.0000 0.0000 35.5073 0.0000 2.5818
# 5 11.1597 1.9340 2.6840 0.0000 18.3569 0.0000
# 6 0.0000 0.0000 0.0000 2.5818 0.0000 27.0530
#
#
#
# Elastic Compliance Matrix: (Units=1/GPa)
#
#
# Indices 1 2 3 4 5 6 
#
# 1 0.012838 -0.004450 -0.002703 0.000000 -0.006940 0.000000
# 2 -0.004450 0.020822 -0.007210 0.000000 0.001566 0.000000
# 3 -0.002703 -0.007210 0.013365 0.000000 0.000449 0.000000
# 4 0.000000 0.000000 0.000000 0.028360 0.000000 -0.002707
# 5 -0.006940 0.001566 0.000449 0.000000 0.058464 0.000000
# 6 0.000000 0.000000 0.000000 -0.002707 0.000000 0.037223
#
#
# Mechanical properties :
#
#
# Convention : Reuss Voigt Hill
#
# Bulk Modulus (GPa) = 54.64753 58.23352 56.44052
# Shear Modulus (GPa) = 24.28401 27.01432 25.64917
#
# Velocity S-wave (km/s) = 3.62518 3.82355 3.72569
# Velocity P-wave (km/s) = 6.86269 7.14194 7.00371
#
# Compressibility (1/GPa) = 0.01829909
#
# Stress axis : x y z
#
# Youngs Moduli (GPa) = 77.89615 48.02617 74.82177
#
# Poissons Ratio (x) = 0.21370 0.20222
# Poissons Ratio (y) = 0.34662 0.53950
# Poissons Ratio (z) = 0.21052 0.34629
#
# Static dielectric constant tensor:
#      x y z
#    x 3.479480 0.000000 -0.005680 
#    y 0.000000 3.408930 0.000000 
#    z -0.005680 0.000000 3.410150 
# 
# 
# High freq. dielectric constant tensor:
#      x y z
#    x 1.722490 0.000000 -0.000220 
#    y 0.000000 1.720310 0.000000 
#    z -0.000220 0.000000 1.717210 
# 
# From -- ./inp_files/309038.got.cif
#   From: 2010.06.25/outbox.cif.g09.slc.cpg/sg12_155_cif.got.tgz:309038.got - 2010.06.28 00:19:55.
