data_PCOD8099577
_publ_section_title
;
Structure prediction by ZEFSAII (Michael W. Deem and Ramdas Pophale) SiO2 
 PCOD8099577
Probable space group: C 2/M
;
_chemical_formula_sum "Si O2"
_cell_formula_units_Z 40
_cell_length_a 19.277344
_cell_length_b 8.675559
_cell_length_c 27.284868
_cell_angle_alpha 90.000000
_cell_angle_beta 27.564217
_cell_angle_gamma 90.000000
_cell_volume 2111.572001
_symmetry_space_group_name_H-M "C 2/M"
_symmetry_group_IT_number 12
_symmetry_cell_setting 'monoclinic'
loop_
_space_group_symop_operation_xyz
x,y,z
-x,y,-z
-x,-y,-z
x,-y,z
1/2+x,1/2+y,z
1/2-x,1/2+y,-z
1/2-x,1/2-y,-z
1/2+x,1/2-y,z
loop_
_atom_site_type_symbol
_atom_site_label
_atom_site_fract_x
_atom_site_fract_y
_atom_site_fract_z
Si Si1 0.685039 0.682211 0.491108
Si Si2 0.933523 0.323500 0.090380
Si Si3 0.090148 0.677358 0.091912
Si Si4 0.803417 0.818227 0.318748
Si Si5 0.850287 0.817209 0.675715
O O1 0.700925 0.500000 0.481754
O O2 0.750000 0.750000 0.500000
O O3 0.778579 0.749238 0.387769
O O4 0.511583 0.732343 0.594643
O O5 0.899969 0.500000 0.098089
O O6 0.775226 0.251473 0.207780
O O7 0.056715 0.307119 0.055376
O O8 0.000000 0.240007 0.000000
O O9 0.086803 0.500000 0.110847
O O10 0.969461 0.770676 0.198758
O O11 0.250000 0.750000 0.000000
O O12 0.677583 0.754701 0.360352
O O13 0.790386 0.000000 0.329409
O O14 0.832641 0.000000 0.680423
#
# Coordination Sequence:
#
# PCOD8099577 Si02
#       5
#     8   8   8   8   8
#     4  11  23  38  56  81 114 147 184 232 286 339
#     4   8  15  30  53  79 105 137 178 219 263 322
#     4  10  20  35  56  82 112 145 183 228 278 331
#     4  11  22  37  58  81 108 146 191 234 279 333
#     4   9  19  36  57  80 109 147 186 227 278 335
#
# _framework density 18.943231999999998
#
# number of rings (size 3 to 8) (size 9 to 14) (size 15 to 20)
#    0.000    2.200    0.000    4.800    0.000    5.600 
#    0.000    4.000    0.000   15.000    0.000    0.000 
#    0.000    0.000    0.000    0.000    0.000    0.000 
#
# Total GULP energy -248002.391954 kJ/mol
# GULP energy per Si atom -12400.119598 kJ/mol
# Density = 1.890012 g / cm^3
# Si number density = 18.943232 Si / 1000 Ang^3
#
#
#
# Elastic Constant Matrix: (Units=GPa)
#
#
# Indices 1 2 3 4 5 6 
#
# 1 142.3436 46.0629 86.6077 0.0009 6.2913 -0.0049
# 2 46.0629 64.7980 36.1433 0.0042 -4.6092 -0.0023
# 3 86.6077 36.1433 112.9020 0.0068 0.6323 -0.0018
# 4 0.0009 0.0042 0.0068 26.8175 0.0013 -2.5235
# 5 6.2913 -4.6092 0.6323 0.0013 44.0866 0.0020
# 6 -0.0049 -0.0023 -0.0018 -2.5235 0.0020 31.3603
#
#
#
# Elastic Compliance Matrix: (Units=1/GPa)
#
#
# Indices 1 2 3 4 5 6 
#
# 1 0.014639 -0.005269 -0.009528 0.000003 -0.002503 0.000002
# 2 -0.005269 0.020871 -0.002656 -0.000003 0.002972 0.000000
# 3 -0.009528 -0.002656 0.017012 -0.000004 0.000838 -0.000001
# 4 0.000003 -0.000003 -0.000004 0.037574 -0.000002 0.003023
# 5 -0.002503 0.002972 0.000838 -0.000002 0.023339 -0.000002
# 6 0.000002 0.000000 -0.000001 0.003023 -0.000002 0.032131
#
#
# Mechanical properties :
#
#
# Convention : Reuss Voigt Hill
#
# Bulk Modulus (GPa) = 56.77180 73.07461 64.92320
# Shear Modulus (GPa) = 26.83211 30.53485 28.68348
#
# Velocity S-wave (km/s) = 3.76766 4.01922 3.89547
# Velocity P-wave (km/s) = 6.99725 7.75875 7.38782
#
# Compressibility (1/GPa) = 0.01761438
#
# Stress axis : x y z
#
# Youngs Moduli (GPa) = 68.31279 47.91269 58.78161
#
# Poissons Ratio (x) = 0.25247 0.56010
# Poissons Ratio (y) = 0.35996 0.15613
# Poissons Ratio (z) = 0.65091 0.12726
#
# Static dielectric constant tensor:
#      x y z
#    x 3.496690 0.000000 0.094070 
#    y 0.000000 3.353190 0.000040 
#    z 0.094070 0.000040 3.373990 
# 
# 
# High freq. dielectric constant tensor:
#      x y z
#    x 1.735370 0.000000 0.002860 
#    y 0.000000 1.722270 0.000000 
#    z 0.002860 0.000000 1.750730 
# 
# From -- ./inp_files/229095.got.cif
#   From: 2010.06.25/outbox.cif.g09.slc.cpg/sg12_115_cif.got.tgz:229095.got - 2010.06.28 00:19:55.
