data_PCOD8099914
_publ_section_title
;
Structure prediction by ZEFSAII (Michael W. Deem and Ramdas Pophale) SiO2 
 PCOD8099914
Probable space group: C 2/M
;
_chemical_formula_sum "Si O2"
_cell_formula_units_Z 56
_cell_length_a 18.673413
_cell_length_b 8.942464
_cell_length_c 27.349350
_cell_angle_alpha 90.000000
_cell_angle_beta 140.884273
_cell_angle_gamma 90.000000
_cell_volume 2881.248583
_symmetry_space_group_name_H-M "C 2/M"
_symmetry_group_IT_number 12
_symmetry_cell_setting 'monoclinic'
loop_
_space_group_symop_operation_xyz
x,y,z
-x,y,-z
-x,-y,-z
x,-y,z
1/2+x,1/2+y,z
1/2-x,1/2+y,-z
1/2-x,1/2-y,-z
1/2+x,1/2-y,z
loop_
_atom_site_type_symbol
_atom_site_label
_atom_site_fract_x
_atom_site_fract_y
_atom_site_fract_z
Si Si1 0.084421 0.677724 0.003049
Si Si2 0.359063 0.675640 0.535913
Si Si3 0.630421 0.165754 0.557408
Si Si4 0.751877 0.673674 0.709037
Si Si5 0.658132 0.322118 0.849523
Si Si6 0.413316 0.323534 0.293570
Si Si7 0.484100 0.825590 0.140158
O O1 0.077347 0.500000 0.000582
O O2 0.047312 0.736543 0.930082
O O3 0.212009 0.733820 0.080412
O O4 0.000000 0.743309 0.000000
O O5 0.352970 0.500000 0.539724
O O6 0.250000 0.750000 0.500000
O O7 0.357503 0.713336 0.478350
O O8 0.471130 0.742478 0.621801
O O9 0.500000 0.152797 0.500000
O O10 0.701181 0.222598 0.640626
O O11 0.676137 0.000000 0.566832
O O12 0.726531 0.500000 0.683919
O O13 0.694128 0.720050 0.729771
O O14 0.884306 0.707297 0.781776
O O15 0.652887 0.500000 0.849110
O O16 0.604253 0.259745 0.770401
O O17 0.589378 0.259120 0.858639
O O18 0.423822 0.500000 0.296096
O O19 0.455933 0.000000 0.129494
#
# Coordination Sequence:
#
# PCOD8099914 Si02
#       7
#     8   8   8   8   8   8   8
#     4   9  17  33  59  86 111 144 189 231 268 322
#     4  11  23  39  59  83 115 152 193 239 287 342
#     4  11  23  39  59  85 114 147 191 242 290 342
#     4  10  20  37  59  81 109 148 193 236 282 336
#     4  10  20  35  57  83 114 151 184 225 280 335
#     4   9  19  36  57  80 107 145 191 231 273 334
#     4  10  21  35  55  86 116 144 183 233 279 329
#
# _framework density 19.436018000000001
#
# number of rings (size 3 to 8) (size 9 to 14) (size 15 to 20)
#    0.000    2.000    1.429    2.143    2.000    4.571 
#    0.000    1.429    0.000    3.429    0.000    0.000 
#    0.000    0.000    0.000    0.000    0.000    0.000 
#
# Total GULP energy -347196.434613 kJ/mol
# GULP energy per Si atom -12399.872665 kJ/mol
# Density = 1.939178 g / cm^3
# Si number density = 19.436018 Si / 1000 Ang^3
#
#
#
# Elastic Constant Matrix: (Units=GPa)
#
#
# Indices 1 2 3 4 5 6 
#
# 1 163.1374 33.5237 80.4082 0.0000 0.0522 0.0000
# 2 33.5237 44.6769 37.1973 0.0000 2.7770 0.0001
# 3 80.4082 37.1973 136.7974 0.0000 -10.8362 0.0000
# 4 0.0000 0.0000 0.0000 31.1356 0.0000 6.4433
# 5 0.0522 2.7770 -10.8362 0.0000 40.8803 0.0000
# 6 0.0000 0.0001 0.0000 6.4433 0.0000 36.0583
#
#
#
# Elastic Compliance Matrix: (Units=1/GPa)
#
#
# Indices 1 2 3 4 5 6 
#
# 1 0.008975 -0.002857 -0.004580 0.000000 -0.001031 0.000000
# 2 -0.002857 0.030544 -0.006936 0.000000 -0.003910 0.000000
# 3 -0.004580 -0.006936 0.012182 0.000000 0.003706 0.000000
# 4 0.000000 0.000000 0.000000 0.033351 0.000000 -0.005959
# 5 -0.001031 -0.003910 0.003706 0.000000 0.025711 0.000000
# 6 0.000000 0.000000 0.000000 -0.005959 0.000000 0.028798
#
#
# Mechanical properties :
#
#
# Convention : Reuss Voigt Hill
#
# Bulk Modulus (GPa) = 43.56338 71.87445 57.71892
# Shear Modulus (GPa) = 28.41590 34.51369 31.46479
#
# Velocity S-wave (km/s) = 3.82779 4.21855 4.02791
# Velocity P-wave (km/s) = 6.48061 7.79670 7.16892
#
# Compressibility (1/GPa) = 0.02295506
#
# Stress axis : x y z
#
# Youngs Moduli (GPa) = 111.42479 32.73925 82.08955
#
# Poissons Ratio (x) = 0.09353 0.37598
# Poissons Ratio (y) = 0.31831 0.56937
# Poissons Ratio (z) = 0.51034 0.22708
#
# Static dielectric constant tensor:
#      x y z
#    x 3.722340 0.000000 -0.047060 
#    y 0.000000 1.576800 0.000000 
#    z -0.047060 0.000000 3.877250 
# 
# 
# High freq. dielectric constant tensor:
#      x y z
#    x 1.770640 0.000000 -0.000600 
#    y 0.000000 1.721510 0.000000 
#    z -0.000600 0.000000 1.773930 
# 
# From -- ./inp_files/363211.got.cif
#   From: 2010.06.25/outbox.cif.g09.slc.cpg/sg12_182_cif.got.tgz:363211.got - 2010.06.28 00:19:55.
