data_PCOD8099283
_publ_section_title
;
Structure prediction by ZEFSAII (Michael W. Deem and Ramdas Pophale) SiO2 
 PCOD8099283
Probable space group: C 2/M
;
_chemical_formula_sum "Si O2"
_cell_formula_units_Z 56
_cell_length_a 27.305456
_cell_length_b 25.705332
_cell_length_c 12.563752
_cell_angle_alpha 90.000000
_cell_angle_beta 20.285818
_cell_angle_gamma 90.000000
_cell_volume 3057.385647
_symmetry_space_group_name_H-M "C 2/M"
_symmetry_group_IT_number 12
_symmetry_cell_setting 'monoclinic'
loop_
_space_group_symop_operation_xyz
x,y,z
-x,y,-z
-x,-y,-z
x,-y,z
1/2+x,1/2+y,z
1/2-x,1/2+y,-z
1/2-x,1/2-y,-z
1/2+x,1/2-y,z
loop_
_atom_site_type_symbol
_atom_site_label
_atom_site_fract_x
_atom_site_fract_y
_atom_site_fract_z
Si Si1 0.763902 0.943898 0.792753
Si Si2 0.977584 0.847723 0.920294
Si Si3 0.339425 0.604036 0.854583
Si Si4 0.168026 0.301368 0.138040
Si Si5 0.119034 0.739291 0.839462
Si Si6 0.087319 0.057714 0.075320
Si Si7 0.780530 0.660288 0.199569
O O1 0.775843 0.933371 0.894058
O O2 0.671718 0.899779 0.919229
O O3 0.920379 0.945578 0.427536
O O4 0.689859 0.000000 0.926524
O O5 0.119554 0.842449 0.563990
O O6 0.883302 0.896611 0.071454
O O7 0.000000 0.855429 0.000000
O O8 0.903308 0.792403 0.048692
O O9 0.500000 0.621679 0.500000
O O10 0.334598 0.572969 0.974793
O O11 0.236518 0.653713 0.071815
O O12 0.000000 0.297622 0.500000
O O13 0.250000 0.250000 0.000000
O O14 0.203898 0.309422 0.941733
O O15 0.250000 0.750000 0.500000
O O16 0.128746 0.689646 0.896793
O O17 0.000000 0.724123 0.000000
O O18 0.142236 0.000000 0.927276
#
# Coordination Sequence:
#
# PCOD8099283 Si02
#       7
#     8   8   8   8   8   8   8
#     4   8  15  30  55  83 110 141 184 226 269 328
#     4  10  20  35  55  83 112 141 188 234 276 319
#     4   9  17  33  54  81 111 143 184 227 268 330
#     4  11  25  37  53  83 115 149 183 222 280 333
#     4  11  21  37  58  81 107 145 188 231 272 323
#     4   9  17  29  53  83 112 145 178 225 280 323
#     4  10  21  37  57  82 111 146 182 225 280 327
#
# _framework density 18.316303000000001
#
# number of rings (size 3 to 8) (size 9 to 14) (size 15 to 20)
#    0.000    2.286    2.857    1.714    4.000    2.000 
#    0.000    0.000    0.000   11.143    0.000    0.000 
#    0.000    0.000    0.000    0.000    0.000    0.000 
#
# Total GULP energy -346905.469620 kJ/mol
# GULP energy per Si atom -12389.481058 kJ/mol
# Density = 1.827461 g / cm^3
# Si number density = 18.316303 Si / 1000 Ang^3
#
#
#
# Elastic Constant Matrix: (Units=GPa)
#
#
# Indices 1 2 3 4 5 6 
#
# 1 105.8257 87.0053 32.6470 -0.0018 4.5841 0.0115
# 2 87.0053 201.0194 36.9410 -0.0037 -7.4342 0.0034
# 3 32.6470 36.9410 73.9311 -0.0018 3.3571 -0.0008
# 4 -0.0018 -0.0037 -0.0018 20.9533 -0.0009 -1.9646
# 5 4.5841 -7.4342 3.3571 -0.0009 25.0080 -0.0071
# 6 0.0115 0.0034 -0.0008 -1.9646 -0.0071 37.4721
#
#
#
# Elastic Compliance Matrix: (Units=1/GPa)
#
#
# Indices 1 2 3 4 5 6 
#
# 1 0.016068 -0.006440 -0.003679 -0.000001 -0.004366 -0.000005
# 2 -0.006440 0.008161 -0.001406 0.000001 0.003795 0.000002
# 3 -0.003679 -0.001406 0.015939 0.000001 -0.001883 0.000001
# 4 -0.000001 0.000001 0.000001 0.047961 0.000003 0.002514
# 5 -0.004366 0.003795 -0.001883 0.000003 0.042169 0.000009
# 6 -0.000005 0.000002 0.000001 0.002514 0.000009 0.026818
#
#
# Mechanical properties :
#
#
# Convention : Reuss Voigt Hill
#
# Bulk Modulus (GPa) = 58.42182 77.10695 67.76439
# Shear Modulus (GPa) = 26.90006 31.63222 29.26614
#
# Velocity S-wave (km/s) = 3.83644 4.16022 4.00161
# Velocity P-wave (km/s) = 7.18260 8.07870 7.64379
#
# Compressibility (1/GPa) = 0.01711689
#
# Stress axis : x y z
#
# Youngs Moduli (GPa) = 62.23371 122.53706 62.73897
#
# Poissons Ratio (x) = 0.78914 0.23085
# Poissons Ratio (y) = 0.40079 0.08822
# Poissons Ratio (z) = 0.22899 0.17231
#
# Static dielectric constant tensor:
#      x y z
#    x 3.364800 0.000010 0.102020 
#    y 0.000010 4.028930 0.000060 
#    z 0.102020 0.000060 3.140530 
# 
# 
# High freq. dielectric constant tensor:
#      x y z
#    x 1.702210 0.000000 0.012710 
#    y 0.000000 1.729120 0.000000 
#    z 0.012710 0.000000 1.674990 
# 
# From -- ./inp_files/185117.got.cif
#   From: 2010.06.25/outbox.cif.g09.slc.cpg/sg12_93_cif.got.tgz:185117.got - 2010.06.28 00:19:55.
