data_PCOD8099257
_publ_section_title
;
Structure prediction by ZEFSAII (Michael W. Deem and Ramdas Pophale) SiO2 
 PCOD8099257
Probable space group: C 2/M
;
_chemical_formula_sum "Si O2"
_cell_formula_units_Z 40
_cell_length_a 19.068417
_cell_length_b 7.770107
_cell_length_c 17.022738
_cell_angle_alpha 90.000000
_cell_angle_beta 122.504655
_cell_angle_gamma 90.000000
_cell_volume 2127.050330
_symmetry_space_group_name_H-M "C 2/M"
_symmetry_group_IT_number 12
_symmetry_cell_setting 'monoclinic'
loop_
_space_group_symop_operation_xyz
x,y,z
-x,y,-z
-x,-y,-z
x,-y,z
1/2+x,1/2+y,z
1/2-x,1/2+y,-z
1/2-x,1/2-y,-z
1/2+x,1/2-y,z
loop_
_atom_site_type_symbol
_atom_site_label
_atom_site_fract_x
_atom_site_fract_y
_atom_site_fract_z
Si Si1 0.127442 0.696420 0.609382
Si Si2 0.965176 0.198985 0.595662
Si Si3 0.979739 0.000000 0.114077
Si Si4 0.703583 0.807946 0.220696
Si Si5 0.946054 0.694306 0.756442
Si Si6 0.634971 0.500000 0.092413
O O1 0.154639 0.500000 0.614156
O O2 0.106054 0.778927 0.512447
O O3 0.202897 0.800851 0.692011
O O4 0.048715 0.704504 0.619747
O O5 0.932105 0.282265 0.655614
O O6 0.985829 0.000000 0.620153
O O7 0.984691 0.171918 0.170299
O O8 0.053572 0.000000 0.096401
O O9 0.891891 0.000000 0.015189
O O10 0.642110 0.766576 0.255925
O O11 0.689159 0.670793 0.142280
O O12 0.687050 0.000000 0.177463
O O13 0.976355 0.500000 0.793068
#
# Coordination Sequence:
#
# PCOD8099257 Si02
#       6
#     8   8   4   8   8   4
#     4  11  21  35  54  79 110 145 186 221 263 323
#     4  11  21  35  54  79 110 145 186 221 263 323
#     4   9  18  34  56  81 108 140 179 224 272 320
#     4  10  20  35  55  82 112 142 180 223 270 319
#     4  10  20  35  55  82 112 142 180 223 270 319
#     4   9  18  34  56  81 108 140 179 224 272 320
#
# _framework density 18.805385000000001
#
# number of rings (size 3 to 8) (size 9 to 14) (size 15 to 20)
#    0.000    1.800    2.000    4.800    0.000    1.600 
#    0.000    4.000    0.000    1.200    0.000    0.000 
#    0.000    0.000    0.000    0.000    0.000    0.000 
#
# Total GULP energy -248044.543459 kJ/mol
# GULP energy per Si atom -12402.227173 kJ/mol
# Density = 1.876258 g / cm^3
# Si number density = 18.805385 Si / 1000 Ang^3
#
#
#
# Elastic Constant Matrix: (Units=GPa)
#
#
# Indices 1 2 3 4 5 6 
#
# 1 26.6442 14.1994 26.0211 0.0000 13.6162 0.0000
# 2 14.1994 133.3585 39.8127 0.0000 10.1877 0.0000
# 3 26.0211 39.8127 103.3543 0.0000 28.3152 0.0000
# 4 0.0000 0.0000 0.0000 28.1201 0.0000 0.3176
# 5 13.6162 10.1877 28.3152 0.0000 16.9513 0.0000
# 6 0.0000 0.0000 0.0000 0.3176 0.0000 23.1281
#
#
#
# Elastic Compliance Matrix: (Units=1/GPa)
#
#
# Indices 1 2 3 4 5 6 
#
# 1 0.065234 -0.002590 -0.002760 0.000000 -0.046233 0.000000
# 2 -0.002590 0.008580 -0.003338 0.000000 0.002499 0.000000
# 3 -0.002760 -0.003338 0.019357 0.000000 -0.028111 0.000000
# 4 0.000000 0.000000 0.000000 0.035567 0.000000 -0.000488
# 5 -0.046233 0.002499 -0.028111 0.000000 0.141584 0.000000
# 6 0.000000 0.000000 0.000000 -0.000488 0.000000 0.043244
#
#
# Mechanical properties :
#
#
# Convention : Reuss Voigt Hill
#
# Bulk Modulus (GPa) = 13.19329 47.04706 30.12017
# Shear Modulus (GPa) = 14.03679 25.86149 19.94914
#
# Velocity S-wave (km/s) = 2.73504 3.71242 3.26056
# Velocity P-wave (km/s) = 4.12369 6.59153 5.49787
#
# Compressibility (1/GPa) = 0.07579611
#
# Stress axis : x y z
#
# Youngs Moduli (GPa) = 15.32944 116.55223 51.65968
#
# Poissons Ratio (x) = 0.30187 0.14258
# Poissons Ratio (y) = 0.03970 0.17242
# Poissons Ratio (z) = 0.04231 0.38900
#
# Static dielectric constant tensor:
#      x y z
#    x 3.149430 0.000000 -0.005860 
#    y 0.000000 3.720320 0.000000 
#    z -0.005860 0.000000 3.498540 
# 
# 
# High freq. dielectric constant tensor:
#      x y z
#    x 1.697700 0.000000 0.001890 
#    y 0.000000 1.754360 0.000000 
#    z 0.001890 0.000000 1.719610 
# 
# From -- ./inp_files/221274.got.cif
#   From: 2010.06.25/outbox.cif.g09.slc.cpg/sg12_111_cif.got.tgz:221274.got - 2010.06.28 00:19:55.
