data_PCOD8099816
_publ_section_title
;
Structure prediction by ZEFSAII (Michael W. Deem and Ramdas Pophale) SiO2 
 PCOD8099816
Probable space group: C 2/M
;
_chemical_formula_sum "Si O2"
_cell_formula_units_Z 56
_cell_length_a 9.144815
_cell_length_b 10.448202
_cell_length_c 35.360567
_cell_angle_alpha 90.000000
_cell_angle_beta 124.492410
_cell_angle_gamma 90.000000
_cell_volume 2784.639340
_symmetry_space_group_name_H-M "C 2/M"
_symmetry_group_IT_number 12
_symmetry_cell_setting 'monoclinic'
loop_
_space_group_symop_operation_xyz
x,y,z
-x,y,-z
-x,-y,-z
x,-y,z
1/2+x,1/2+y,z
1/2-x,1/2+y,-z
1/2-x,1/2-y,-z
1/2+x,1/2-y,z
loop_
_atom_site_type_symbol
_atom_site_label
_atom_site_fract_x
_atom_site_fract_y
_atom_site_fract_z
Si Si1 0.814091 0.000000 0.452148
Si Si2 0.301483 0.258368 0.396321
Si Si3 0.023852 0.500000 0.547778
Si Si4 0.563238 0.347988 0.661188
Si Si5 0.880698 0.643568 0.757560
Si Si6 0.263891 0.749836 0.816060
Si Si7 0.863079 0.143170 0.125388
Si Si8 0.707668 0.854144 0.025169
O O1 0.788337 0.871041 0.424718
O O2 0.000000 0.000000 0.500000
O O3 0.670257 0.000000 0.463686
O O4 0.373419 0.127947 0.425058
O O5 0.423188 0.312013 0.380791
O O6 0.110928 0.225718 0.349959
O O7 0.000000 0.500000 0.500000
O O8 0.543589 0.500000 0.663800
O O9 0.727587 0.291294 0.709656
O O10 0.896596 0.500000 0.746483
O O11 0.827320 0.646768 0.794184
O O12 0.071439 0.701570 0.775416
O O13 0.247247 0.797634 0.856287
O O14 0.423169 0.646493 0.838579
O O15 0.801199 0.203426 0.076615
O O16 0.796767 0.000000 0.115052
O O17 0.776100 0.000000 0.025539
O O18 0.500000 0.859850 0.000000
O O19 0.750000 0.750000 0.000000
#
# Coordination Sequence:
#
# PCOD8099816 Si02
#       8
#     4   8   4   8   8   8   8   8
#     4  12  28  44  68  96 126 162 204 246 300 352
#     4  12  24  44  66  94 126 160 203 244 297 357
#     4  12  28  44  68  96 126 160 204 250 296 352
#     4  11  23  40  65  91 123 162 197 248 297 352
#     4  10  21  37  58  87 118 151 193 241 296 353
#     4  10  20  36  57  84 114 151 197 240 295 360
#     4  10  20  35  57  81 114 154 194 248 302 350
#     4  10  21  37  56  83 118 156 203 251 302 360
#
# _framework density 20.110325
#
# number of rings (size 3 to 8) (size 9 to 14) (size 15 to 20)
#    0.000    1.286    2.857    3.000    2.000    1.429 
#    0.000    3.571    3.143    0.000    0.000    0.000 
#    0.000    0.000    0.000    0.000    0.000    0.000 
#
# Total GULP energy -347043.552294 kJ/mol
# GULP energy per Si atom -12394.412582 kJ/mol
# Density = 2.006455 g / cm^3
# Si number density = 20.110325 Si / 1000 Ang^3
#
#
#
# Elastic Constant Matrix: (Units=GPa)
#
#
# Indices 1 2 3 4 5 6 
#
# 1 95.9727 20.4027 18.7043 0.0000 4.0527 0.0000
# 2 20.4027 87.1755 24.7929 0.0000 -1.6896 0.0000
# 3 18.7043 24.7929 94.8771 0.0000 6.8467 0.0000
# 4 0.0000 0.0000 0.0000 18.9487 0.0000 3.6542
# 5 4.0527 -1.6896 6.8467 0.0000 44.7737 0.0000
# 6 0.0000 0.0000 0.0000 3.6542 0.0000 19.6579
#
#
#
# Elastic Compliance Matrix: (Units=1/GPa)
#
#
# Indices 1 2 3 4 5 6 
#
# 1 0.011230 -0.002196 -0.001578 0.000000 -0.000858 0.000000
# 2 -0.002196 0.012864 -0.003011 0.000000 0.001145 0.000000
# 3 -0.001578 -0.003011 0.011766 0.000000 -0.001770 0.000000
# 4 0.000000 0.000000 0.000000 0.054736 0.000000 -0.010175
# 5 -0.000858 0.001145 -0.001770 0.000000 0.022726 0.000000
# 6 0.000000 0.000000 0.000000 -0.010175 0.000000 0.052762
#
#
# Mechanical properties :
#
#
# Convention : Reuss Voigt Hill
#
# Bulk Modulus (GPa) = 44.86571 45.09168 44.97869
# Shear Modulus (GPa) = 26.72596 30.95109 28.83852
#
# Velocity S-wave (km/s) = 3.64946 3.92735 3.79095
# Velocity P-wave (km/s) = 6.33374 6.56020 6.44796
#
# Compressibility (1/GPa) = 0.02228874
#
# Stress axis : x y z
#
# Youngs Moduli (GPa) = 89.04469 77.73834 84.99316
#
# Poissons Ratio (x) = 0.17073 0.13413
# Poissons Ratio (y) = 0.19556 0.25593
# Poissons Ratio (z) = 0.14053 0.23408
#
# Static dielectric constant tensor:
#      x y z
#    x 3.758910 0.000000 0.148870 
#    y 0.000000 3.661610 0.000000 
#    z 0.148870 0.000000 4.019690 
# 
# 
# High freq. dielectric constant tensor:
#      x y z
#    x 1.796600 0.000000 0.005990 
#    y 0.000000 1.777600 0.000000 
#    z 0.005990 0.000000 1.799330 
# 
# From -- ./inp_files/372227.got.cif
#   From: 2010.06.25/outbox.cif.g09.slc.cpg/sg12_187_cif.got.tgz:372227.got - 2010.06.28 00:19:55.
