data_PCOD8099390
_publ_section_title
;
Structure prediction by ZEFSAII (Michael W. Deem and Ramdas Pophale) SiO2 
 PCOD8099390
Probable space group: C 2/M
;
_chemical_formula_sum "Si O2"
_cell_formula_units_Z 64
_cell_length_a 14.586450
_cell_length_b 9.148600
_cell_length_c 30.096525
_cell_angle_alpha 90.000000
_cell_angle_beta 120.931317
_cell_angle_gamma 90.000000
_cell_volume 3445.074237
_symmetry_space_group_name_H-M "C 2/M"
_symmetry_group_IT_number 12
_symmetry_cell_setting 'monoclinic'
loop_
_space_group_symop_operation_xyz
x,y,z
-x,y,-z
-x,-y,-z
x,-y,z
1/2+x,1/2+y,z
1/2-x,1/2+y,-z
1/2-x,1/2-y,-z
1/2+x,1/2-y,z
loop_
_atom_site_type_symbol
_atom_site_label
_atom_site_fract_x
_atom_site_fract_y
_atom_site_fract_z
Si Si1 0.351983 0.333332 0.760878
Si Si2 0.838075 0.671049 0.577676
Si Si3 0.570769 0.330358 0.315061
Si Si4 0.598266 0.329318 0.493193
Si Si5 0.034741 0.327265 0.135954
Si Si6 0.200111 0.670418 0.946003
Si Si7 0.291853 0.667256 0.874933
Si Si8 0.860614 0.665886 0.241159
O O1 0.383533 0.500000 0.779160
O O2 0.356322 0.299955 0.709761
O O3 0.436278 0.234237 0.808318
O O4 0.232294 0.300733 0.746661
O O5 0.861217 0.500000 0.581664
O O6 0.881424 0.735166 0.633879
O O7 0.711439 0.704835 0.544816
O O8 0.903945 0.742748 0.553655
O O9 0.570673 0.500000 0.328661
O O10 0.451229 0.282483 0.273879
O O11 0.500000 0.276482 0.500000
O O12 0.586019 0.500000 0.479265
O O13 0.038304 0.500000 0.140341
O O14 0.918564 0.270490 0.092698
O O15 0.116110 0.273822 0.118727
O O16 0.197603 0.500000 0.955926
O O17 0.271772 0.705051 0.920970
O O18 0.250000 0.750000 0.000000
O O19 0.329784 0.500000 0.877889
O O20 0.183456 0.691153 0.819645
O O21 0.903610 0.500000 0.257237
#
# Coordination Sequence:
#
# PCOD8099390 Si02
#       8
#     8   8   8   8   8   8   8   8
#     4   9  20  37  55  77 107 143 177 211 260 319
#     4  10  21  36  55  81 111 143 178 216 264 316
#     4  11  22  35  53  79 112 144 176 218 261 305
#     4   9  19  38  61  82 106 138 179 225 266 307
#     4  10  20  35  56  80 104 133 174 221 262 307
#     4  10  22  37  53  76 105 137 173 215 265 317
#     4   9  19  37  57  76 103 139 174 211 261 319
#     4   9  18  35  56  77 104 138 176 215 259 314
#
# _framework density 18.577248000000001
#
# number of rings (size 3 to 8) (size 9 to 14) (size 15 to 20)
#    0.000    2.375    0.000    2.625    0.000    7.750 
#    0.000    5.000    0.000    0.000    0.000    0.000 
#    0.000    0.000    0.000    0.000    0.000    0.000 
#
# Total GULP energy -396862.274071 kJ/mol
# GULP energy per Si atom -12401.946065 kJ/mol
# Density = 1.853497 g / cm^3
# Si number density = 18.577248 Si / 1000 Ang^3
#
#
#
# Elastic Constant Matrix: (Units=GPa)
#
#
# Indices 1 2 3 4 5 6 
#
# 1 77.1306 25.3890 26.1384 0.0000 -18.8010 0.0000
# 2 25.3890 49.6769 23.2381 0.0000 -10.9607 0.0000
# 3 26.1384 23.2381 68.2318 0.0000 -27.0964 0.0000
# 4 0.0000 0.0000 0.0000 36.0113 0.0000 -0.0381
# 5 -18.8010 -10.9607 -27.0964 0.0000 25.2035 0.0000
# 6 0.0000 0.0000 0.0000 -0.0381 0.0000 28.7340
#
#
#
# Elastic Compliance Matrix: (Units=1/GPa)
#
#
# Indices 1 2 3 4 5 6 
#
# 1 0.017717 -0.006599 -0.000752 0.000000 0.009538 0.000000
# 2 -0.006599 0.026522 -0.006770 0.000000 -0.000666 0.000000
# 3 -0.000752 -0.006770 0.027672 0.000000 0.026246 0.000000
# 4 0.000000 0.000000 0.000000 0.027769 0.000000 0.000037
# 5 0.009538 -0.000666 0.026246 0.000000 0.074720 0.000000
# 6 0.000000 0.000000 0.000000 0.000037 0.000000 0.034802
#
#
# Mechanical properties :
#
#
# Convention : Reuss Voigt Hill
#
# Bulk Modulus (GPa) = 22.89820 38.28559 30.59190
# Shear Modulus (GPa) = 19.84129 26.00800 22.92465
#
# Velocity S-wave (km/s) = 3.27164 3.74571 3.51667
# Velocity P-wave (km/s) = 5.15986 6.27381 5.74390
#
# Compressibility (1/GPa) = 0.04367156
#
# Stress axis : x y z
#
# Youngs Moduli (GPa) = 56.44331 37.70417 36.13711
#
# Poissons Ratio (x) = 0.24879 0.02717
# Poissons Ratio (y) = 0.37245 0.24463
# Poissons Ratio (z) = 0.04244 0.25524
#
# Static dielectric constant tensor:
#      x y z
#    x 3.942630 0.000000 -0.279770 
#    y 0.000000 3.394620 0.000000 
#    z -0.279770 0.000000 3.476250 
# 
# 
# High freq. dielectric constant tensor:
#      x y z
#    x 1.728050 0.000000 -0.006250 
#    y 0.000000 1.722240 0.000000 
#    z -0.006250 0.000000 1.718100 
# 
# From -- ./inp_files/375609.got.cif
#   From: 2010.06.25/outbox.cif.g09.slc.cpg/sg12_188_cif.got.tgz:375609.got - 2010.06.28 00:19:55.
