data_PCOD8099322
_publ_section_title
;
Structure prediction by ZEFSAII (Michael W. Deem and Ramdas Pophale) SiO2 
 PCOD8099322
Probable space group: C 2/M
;
_chemical_formula_sum "Si O2"
_cell_formula_units_Z 48
_cell_length_a 13.536558
_cell_length_b 27.155637
_cell_length_c 10.258475
_cell_angle_alpha 90.000000
_cell_angle_beta 140.178799
_cell_angle_gamma 90.000000
_cell_volume 2414.895054
_symmetry_space_group_name_H-M "C 2/M"
_symmetry_group_IT_number 12
_symmetry_cell_setting 'monoclinic'
loop_
_space_group_symop_operation_xyz
x,y,z
-x,y,-z
-x,-y,-z
x,-y,z
1/2+x,1/2+y,z
1/2-x,1/2+y,-z
1/2-x,1/2-y,-z
1/2+x,1/2-y,z
loop_
_atom_site_type_symbol
_atom_site_label
_atom_site_fract_x
_atom_site_fract_y
_atom_site_fract_z
Si Si1 0.322152 0.000000 0.988510
Si Si2 0.335141 0.398279 0.164260
Si Si3 0.179833 0.698188 0.882791
Si Si4 0.839842 0.310165 0.636282
Si Si5 0.821447 0.902812 0.459032
Si Si6 0.167310 0.780229 0.217576
Si Si7 0.167674 0.500000 0.312489
O O1 0.238177 0.049524 0.958824
O O2 0.332061 0.000000 0.843191
O O3 0.500824 0.000000 0.213068
O O4 0.333096 0.400593 0.316617
O O5 0.514459 0.392569 0.305139
O O6 0.248137 0.350486 0.020238
O O7 0.207740 0.697421 0.755557
O O8 0.999379 0.700310 0.726065
O O9 0.250000 0.750000 0.000000
O O10 0.818540 0.366636 0.648245
O O11 0.826208 0.279412 0.758627
O O12 0.698408 0.298436 0.395504
O O13 0.764667 0.953909 0.459959
O O14 0.000000 0.797680 0.000000
#
# Coordination Sequence:
#
# PCOD8099322 Si02
#       7
#     4   8   8   8   8   8   4
#     4   9  17  33  53  84 115 152 197 239 300 345
#     4  10  21  34  57  85 119 156 195 246 293 351
#     4  12  23  38  58  84 117 156 196 240 295 346
#     4  11  24  39  59  84 117 155 199 238 296 352
#     4  10  20  35  55  86 117 154 197 240 298 347
#     4  11  23  41  58  82 115 155 195 246 288 349
#     4   9  17  31  55  80 117 150 189 247 292 347
#
# _framework density 19.876639999999998
#
# number of rings (size 3 to 8) (size 9 to 14) (size 15 to 20)
#    0.000    1.500    1.667    4.000    2.333    3.333 
#    0.000    0.000    0.000    1.000    0.000    7.000 
#    0.000    0.000    0.000    0.000    0.000    0.000 
#
# Total GULP energy -297414.140185 kJ/mol
# GULP energy per Si atom -12392.255841 kJ/mol
# Density = 1.983140 g / cm^3
# Si number density = 19.876640 Si / 1000 Ang^3
#
#
#
# Elastic Constant Matrix: (Units=GPa)
#
#
# Indices 1 2 3 4 5 6 
#
# 1 68.9058 32.2251 29.7218 0.0000 25.1727 0.0000
# 2 32.2251 151.6125 40.0405 0.0000 19.6356 0.0000
# 3 29.7218 40.0405 101.0870 0.0000 22.1130 0.0000
# 4 0.0000 0.0000 0.0000 27.7756 0.0000 7.1085
# 5 25.1727 19.6356 22.1130 0.0000 31.1455 0.0000
# 6 0.0000 0.0000 0.0000 7.1085 0.0000 22.9377
#
#
#
# Elastic Compliance Matrix: (Units=1/GPa)
#
#
# Indices 1 2 3 4 5 6 
#
# 1 0.021891 -0.002124 -0.002389 0.000000 -0.014658 0.000000
# 2 -0.002124 0.007825 -0.002097 0.000000 -0.001728 0.000000
# 3 -0.002389 -0.002097 0.012684 0.000000 -0.005753 0.000000
# 4 0.000000 0.000000 0.000000 0.039104 0.000000 -0.012119
# 5 -0.014658 -0.001728 -0.005753 0.000000 0.049128 0.000000
# 6 0.000000 0.000000 0.000000 -0.012119 0.000000 0.047352
#
#
# Mechanical properties :
#
#
# Convention : Reuss Voigt Hill
#
# Bulk Modulus (GPa) = 34.26913 58.39778 46.33345
# Shear Modulus (GPa) = 24.88433 31.01297 27.94865
#
# Velocity S-wave (km/s) = 3.54211 3.95431 3.75388
# Velocity P-wave (km/s) = 5.83156 7.09173 6.49229
#
# Compressibility (1/GPa) = 0.02918079
#
# Stress axis : x y z
#
# Youngs Moduli (GPa) = 45.68087 127.80001 78.84043
#
# Poissons Ratio (x) = 0.27140 0.18833
# Poissons Ratio (y) = 0.09701 0.16533
# Poissons Ratio (z) = 0.10912 0.26800
#
# Static dielectric constant tensor:
#      x y z
#    x 3.559500 0.000000 0.280480 
#    y 0.000000 3.855040 0.000000 
#    z 0.280480 0.000000 3.665480 
# 
# 
# High freq. dielectric constant tensor:
#      x y z
#    x 1.750590 0.000000 0.027070 
#    y 0.000000 1.783630 0.000000 
#    z 0.027070 0.000000 1.775260 
# 
# From -- ./inp_files/149902.got.cif
#   From: 2010.06.25/outbox.cif.g09.slc.cpg/sg12_75_cif.got.tgz:149902.got - 2010.06.28 00:19:55.
