data_PCOD8099841
_publ_section_title
;
Structure prediction by ZEFSAII (Michael W. Deem and Ramdas Pophale) SiO2 
 PCOD8099841
Probable space group: C 2/M
;
_chemical_formula_sum "Si O2"
_cell_formula_units_Z 64
_cell_length_a 14.254392
_cell_length_b 8.841816
_cell_length_c 30.022570
_cell_angle_alpha 90.000000
_cell_angle_beta 118.429067
_cell_angle_gamma 90.000000
_cell_volume 3327.576421
_symmetry_space_group_name_H-M "C 2/M"
_symmetry_group_IT_number 12
_symmetry_cell_setting 'monoclinic'
loop_
_space_group_symop_operation_xyz
x,y,z
-x,y,-z
-x,-y,-z
x,-y,z
1/2+x,1/2+y,z
1/2-x,1/2+y,-z
1/2-x,1/2-y,-z
1/2+x,1/2-y,z
loop_
_atom_site_type_symbol
_atom_site_label
_atom_site_fract_x
_atom_site_fract_y
_atom_site_fract_z
Si Si1 0.993500 0.180379 0.638388
Si Si2 0.855160 0.822041 0.823248
Si Si3 0.944098 0.822638 0.444157
Si Si4 0.712014 0.821253 0.363439
Si Si5 0.201228 0.821084 0.092256
Si Si6 0.934462 0.325357 0.114788
Si Si7 0.211266 0.680138 0.709045
Si Si8 0.144456 0.676202 0.994999
O O1 0.884038 0.238289 0.633944
O O2 0.000161 0.235960 0.588518
O O3 0.091989 0.255275 0.686827
O O4 0.002174 0.000000 0.644391
O O5 0.821337 0.756702 0.863708
O O6 0.771903 0.767884 0.767320
O O7 0.973278 0.763585 0.838391
O O8 0.858129 0.000000 0.825328
O O9 0.818589 0.783837 0.415692
O O10 0.000000 0.745825 0.500000
O O11 0.961702 0.000000 0.450283
O O12 0.724900 0.755428 0.317076
O O13 0.691005 0.000000 0.355780
O O14 0.320787 0.768396 0.107173
O O15 0.118304 0.749793 0.037271
O O16 0.188162 0.000000 0.086708
O O17 0.948520 0.500000 0.129540
O O18 0.944788 0.296159 0.063480
O O19 0.208561 0.500000 0.702235
O O20 0.163585 0.500000 0.006556
O O21 0.250000 0.750000 0.000000
#
# Coordination Sequence:
#
# PCOD8099841 Si02
#       8
#     8   8   8   8   8   8   8   8
#     4  10  20  35  57  83 110 144 185 225 268 320
#     4  10  22  37  54  77 103 132 170 215 264 315
#     4   8  16  32  53  80 116 151 182 220 264 312
#     4  10  20  35  57  82 109 146 187 225 269 318
#     4   9  19  36  53  73 102 134 166 204 254 310
#     4   9  19  34  52  74 103 135 167 205 251 308
#     4  10  21  38  56  77 107 140 180 230 275 320
#     4   9  17  31  51  75 101 132 167 203 248 303
#
# _framework density 19.233215999999999
#
# number of rings (size 3 to 8) (size 9 to 14) (size 15 to 20)
#    0.000    2.625    0.000    3.000    0.000    6.000 
#    0.000    3.750    0.000   12.750    0.000    0.000 
#    0.000    0.000    0.000    0.000    0.000    0.000 
#
# Total GULP energy -396680.661893 kJ/mol
# GULP energy per Si atom -12396.270684 kJ/mol
# Density = 1.918944 g / cm^3
# Si number density = 19.233216 Si / 1000 Ang^3
#
#
#
# Elastic Constant Matrix: (Units=GPa)
#
#
# Indices 1 2 3 4 5 6 
#
# 1 66.8725 6.2309 28.9312 0.0000 6.2178 0.0000
# 2 6.2309 40.2723 33.2656 0.0000 3.6939 0.0000
# 3 28.9312 33.2656 123.1876 0.0000 9.4626 0.0000
# 4 0.0000 0.0000 0.0000 26.1908 0.0000 1.3605
# 5 6.2178 3.6939 9.4626 0.0000 20.8906 0.0000
# 6 0.0000 0.0000 0.0000 1.3605 0.0000 28.1650
#
#
#
# Elastic Compliance Matrix: (Units=1/GPa)
#
#
# Indices 1 2 3 4 5 6 
#
# 1 0.016897 0.000978 -0.003971 0.000000 -0.003403 0.000000
# 2 0.000978 0.032082 -0.008739 0.000000 -0.002006 0.000000
# 3 -0.003971 -0.008739 0.011605 0.000000 -0.002529 0.000000
# 4 0.000000 0.000000 0.000000 0.038277 0.000000 -0.001849
# 5 -0.003403 -0.002006 -0.002529 0.000000 0.050382 0.000000
# 6 0.000000 0.000000 0.000000 -0.001849 0.000000 0.035594
#
#
# Mechanical properties :
#
#
# Convention : Reuss Voigt Hill
#
# Bulk Modulus (GPa) = 26.93996 40.79864 33.86930
# Shear Modulus (GPa) = 22.65776 25.84293 24.25034
#
# Velocity S-wave (km/s) = 3.43600 3.66958 3.55471
# Velocity P-wave (km/s) = 5.45700 6.26203 5.87333
#
# Compressibility (1/GPa) = 0.03711958
#
# Stress axis : x y z
#
# Youngs Moduli (GPa) = 59.18163 31.16984 86.17344
#
# Poissons Ratio (x) = -0.03048 0.34220
# Poissons Ratio (y) = -0.05788 0.75308
# Poissons Ratio (z) = 0.23501 0.27240
#
# Static dielectric constant tensor:
#      x y z
#    x 3.469900 0.000000 -0.105990 
#    y 0.000000 3.403190 0.000000 
#    z -0.105990 0.000000 3.953920 
# 
# 
# High freq. dielectric constant tensor:
#      x y z
#    x 1.745910 0.000000 0.000570 
#    y 0.000000 1.738100 0.000000 
#    z 0.000570 0.000000 1.752360 
# 
# From -- ./inp_files/375109.got.cif
#   From: 2010.06.25/outbox.cif.g09.slc.cpg/sg12_188_cif.got.tgz:375109.got - 2010.06.28 00:19:55.
