data_PCOD8099878
_publ_section_title
;
Structure prediction by ZEFSAII (Michael W. Deem and Ramdas Pophale) SiO2 
 PCOD8099878
Probable space group: C 2/M
;
_chemical_formula_sum "Si O2"
_cell_formula_units_Z 48
_cell_length_a 20.468563
_cell_length_b 8.921084
_cell_length_c 26.532779
_cell_angle_alpha 90.000000
_cell_angle_beta 30.095944
_cell_angle_gamma 90.000000
_cell_volume 2429.488890
_symmetry_space_group_name_H-M "C 2/M"
_symmetry_group_IT_number 12
_symmetry_cell_setting 'monoclinic'
loop_
_space_group_symop_operation_xyz
x,y,z
-x,y,-z
-x,-y,-z
x,-y,z
1/2+x,1/2+y,z
1/2-x,1/2+y,-z
1/2-x,1/2-y,-z
1/2+x,1/2-y,z
loop_
_atom_site_type_symbol
_atom_site_label
_atom_site_fract_x
_atom_site_fract_y
_atom_site_fract_z
Si Si1 0.999608 0.824134 0.620111
Si Si2 0.730526 0.674183 0.390278
Si Si3 0.499182 0.678172 0.944303
Si Si4 0.980488 0.675965 0.287522
Si Si5 0.232919 0.677557 0.282282
Si Si6 0.754638 0.676979 0.943053
O O1 0.869436 0.742901 0.688926
O O2 0.116093 0.783849 0.504783
O O3 0.041959 0.766322 0.646439
O O4 0.973510 0.000000 0.639795
O O5 0.728018 0.500000 0.377385
O O6 0.867383 0.719835 0.323862
O O7 0.705206 0.767829 0.356985
O O8 0.497765 0.500000 0.947330
O O9 0.624787 0.734774 0.829741
O O10 0.500000 0.745079 0.000000
O O11 0.369458 0.739103 0.004375
O O12 0.977503 0.500000 0.301987
O O13 0.116323 0.726967 0.172538
O O14 0.222270 0.500000 0.287445
O O15 0.750102 0.500000 0.952655
O O16 0.750000 0.750000 0.000000
#
# Coordination Sequence:
#
# PCOD8099878 Si02
#       6
#     8   8   8   8   8   8
#     4  11  23  38  57  81 112 148 184 228 280 328
#     4  10  22  39  57  81 114 147 180 226 281 329
#     4   9  18  34  55  79 108 141 178 221 268 317
#     4  10  21  38  60  84 111 145 185 228 274 328
#     4  11  22  36  58  84 110 146 189 228 269 325
#     4  10  20  35  57  83 111 143 178 221 272 325
#
# _framework density 19.757242000000002
#
# number of rings (size 3 to 8) (size 9 to 14) (size 15 to 20)
#    0.000    1.833    0.000    4.000    0.000    7.333 
#    0.000    0.833    0.000    3.500    0.000    0.000 
#    0.000    0.000    0.000    0.000    0.000    0.000 
#
# Total GULP energy -297723.142617 kJ/mol
# GULP energy per Si atom -12405.130942 kJ/mol
# Density = 1.971227 g / cm^3
# Si number density = 19.757242 Si / 1000 Ang^3
#
#
#
# Elastic Constant Matrix: (Units=GPa)
#
#
# Indices 1 2 3 4 5 6 
#
# 1 104.0896 21.2251 23.5575 -0.0016 2.6684 0.0015
# 2 21.2251 43.4303 26.0964 -0.0038 6.3572 0.0008
# 3 23.5575 26.0964 93.3993 0.0021 -2.5019 -0.0001
# 4 -0.0016 -0.0038 0.0021 24.5622 0.0009 2.2931
# 5 2.6684 6.3572 -2.5019 0.0009 46.1081 -0.0017
# 6 0.0015 0.0008 -0.0001 2.2931 -0.0017 36.9498
#
#
#
# Elastic Compliance Matrix: (Units=1/GPa)
#
#
# Indices 1 2 3 4 5 6 
#
# 1 0.010845 -0.004373 -0.001516 0.000000 -0.000107 0.000000
# 2 -0.004373 0.030288 -0.007476 0.000005 -0.004329 -0.000001
# 3 -0.001516 -0.007476 0.013227 -0.000002 0.001836 0.000000
# 4 0.000000 0.000005 -0.000002 0.040950 -0.000002 -0.002541
# 5 -0.000107 -0.004329 0.001836 -0.000002 0.022391 0.000001
# 6 0.000000 -0.000001 0.000000 -0.002541 0.000001 0.027221
#
#
# Mechanical properties :
#
#
# Convention : Reuss Voigt Hill
#
# Bulk Modulus (GPa) = 36.19286 42.51970 39.35628
# Shear Modulus (GPa) = 27.64526 32.86004 30.25265
#
# Velocity S-wave (km/s) = 3.74471 4.08265 3.91732
# Velocity P-wave (km/s) = 6.08734 6.61754 6.35797
#
# Compressibility (1/GPa) = 0.02762976
#
# Stress axis : x y z
#
# Youngs Moduli (GPa) = 92.21041 33.01607 75.60243
#
# Poissons Ratio (x) = 0.14439 0.11463
# Poissons Ratio (y) = 0.40326 0.56518
# Poissons Ratio (z) = 0.13981 0.24682
#
# Static dielectric constant tensor:
#      x y z
#    x 3.724340 -0.000010 -0.118540 
#    y -0.000010 3.367320 0.000010 
#    z -0.118540 0.000010 3.810810 
# 
# 
# High freq. dielectric constant tensor:
#      x y z
#    x 1.787960 0.000000 -0.003110 
#    y 0.000000 1.749360 0.000000 
#    z -0.003110 0.000000 1.788710 
# 
# From -- ./inp_files/365343.got.cif
#   From: 2010.06.25/outbox.cif.g09.slc.cpg/sg12_183_cif.got.tgz:365343.got - 2010.06.28 00:19:55.
