data_PCOD8099491
_publ_section_title
;
Structure prediction by ZEFSAII (Michael W. Deem and Ramdas Pophale) SiO2 
 PCOD8099491
Probable space group: C 2/M
;
_chemical_formula_sum "Si O2"
_cell_formula_units_Z 56
_cell_length_a 15.055385
_cell_length_b 9.046166
_cell_length_c 24.398384
_cell_angle_alpha 90.000000
_cell_angle_beta 61.829516
_cell_angle_gamma 90.000000
_cell_volume 2929.293175
_symmetry_space_group_name_H-M "C 2/M"
_symmetry_group_IT_number 12
_symmetry_cell_setting 'monoclinic'
loop_
_space_group_symop_operation_xyz
x,y,z
-x,y,-z
-x,-y,-z
x,-y,z
1/2+x,1/2+y,z
1/2-x,1/2+y,-z
1/2-x,1/2-y,-z
1/2+x,1/2-y,z
loop_
_atom_site_type_symbol
_atom_site_label
_atom_site_fract_x
_atom_site_fract_y
_atom_site_fract_z
Si Si1 0.166128 0.674402 0.773638
Si Si2 0.152100 0.173924 0.000462
Si Si3 0.930818 0.672932 0.307769
Si Si4 0.231089 0.672682 0.562572
Si Si5 0.927496 0.174178 0.094602
Si Si6 0.630956 0.166859 0.302706
Si Si7 0.595393 0.833316 0.435775
O O1 0.155766 0.500000 0.782114
O O2 0.103523 0.740265 0.740404
O O3 0.125468 0.745221 0.840386
O O4 0.281722 0.715360 0.729957
O O5 0.135461 0.219242 0.941651
O O6 0.170172 0.000000 0.000628
O O7 0.250000 0.250000 0.000000
O O8 0.045887 0.220323 0.059657
O O9 0.906923 0.500000 0.313203
O O10 0.867911 0.736626 0.377815
O O11 0.048454 0.706464 0.280763
O O12 0.223417 0.500000 0.553521
O O13 0.250000 0.750000 0.500000
O O14 0.321844 0.710353 0.576582
O O15 0.920079 0.000000 0.104520
O O16 0.573033 0.177746 0.377706
O O17 0.672782 0.000000 0.282113
O O18 0.500000 0.791172 0.500000
O O19 0.631503 0.000000 0.440451
#
# Coordination Sequence:
#
# PCOD8099491 Si02
#       7
#     8   8   8   8   8   8   8
#     4  11  22  38  58  84 117 151 194 245 288 331
#     4   9  19  37  62  89 122 156 193 236 280 334
#     4   9  20  38  57  77 109 149 185 231 290 345
#     4  11  21  36  56  79 110 143 184 238 294 352
#     4   9  20  39  59  84 119 161 195 228 282 344
#     4  10  20  37  59  79 107 150 191 229 286 356
#     4  10  20  35  56  81 109 142 186 234 291 358
#
# _framework density 19.117239999999999
#
# number of rings (size 3 to 8) (size 9 to 14) (size 15 to 20)
#    0.000    2.143    1.429    2.571    0.000    4.857 
#    0.000   10.000    0.000    0.000    0.000    0.000 
#    0.000    0.000    0.000    0.000    0.000    0.000 
#
# Total GULP energy -347060.307870 kJ/mol
# GULP energy per Si atom -12395.010995 kJ/mol
# Density = 1.907373 g / cm^3
# Si number density = 19.117240 Si / 1000 Ang^3
#
#
#
# Elastic Constant Matrix: (Units=GPa)
#
#
# Indices 1 2 3 4 5 6 
#
# 1 135.1670 31.1095 53.6745 0.0000 7.7337 0.0000
# 2 31.1095 40.1767 32.7597 0.0000 4.6516 0.0000
# 3 53.6745 32.7597 128.5861 0.0000 7.0876 0.0000
# 4 0.0000 0.0000 0.0000 29.1212 0.0000 -1.8026
# 5 7.7337 4.6516 7.0876 0.0000 24.2980 0.0000
# 6 0.0000 0.0000 0.0000 -1.8026 0.0000 34.1869
#
#
#
# Elastic Compliance Matrix: (Units=1/GPa)
#
#
# Indices 1 2 3 4 5 6 
#
# 1 0.009730 -0.005211 -0.002661 0.000000 -0.001323 0.000000
# 2 -0.005211 0.034545 -0.006457 0.000000 -0.003071 0.000000
# 3 -0.002661 -0.006457 0.010588 0.000000 -0.001005 0.000000
# 4 0.000000 0.000000 0.000000 0.034452 0.000000 0.001817
# 5 -0.001323 -0.003071 -0.001005 0.000000 0.042458 0.000000
# 6 0.000000 0.000000 0.000000 0.001817 0.000000 0.029347
#
#
# Mechanical properties :
#
#
# Convention : Reuss Voigt Hill
#
# Bulk Modulus (GPa) = 38.15916 59.89082 49.02499
# Shear Modulus (GPa) = 25.18732 29.94695 27.56714
#
# Velocity S-wave (km/s) = 3.63370 3.96218 3.80149
# Velocity P-wave (km/s) = 6.13262 7.23381 6.70586
#
# Compressibility (1/GPa) = 0.02620603
#
# Stress axis : x y z
#
# Youngs Moduli (GPa) = 102.77493 28.94739 94.44699
#
# Poissons Ratio (x) = 0.15085 0.25131
# Poissons Ratio (y) = 0.53559 0.60980
# Poissons Ratio (z) = 0.27347 0.18690
#
# Static dielectric constant tensor:
#      x y z
#    x 3.408910 0.000000 -0.105000 
#    y 0.000000 3.522860 0.000000 
#    z -0.105000 0.000000 3.351480 
# 
# 
# High freq. dielectric constant tensor:
#      x y z
#    x 1.749790 0.000000 0.004590 
#    y 0.000000 1.723850 0.000000 
#    z 0.004590 0.000000 1.749000 
# 
# From -- ./inp_files/308996.got.cif
#   From: 2010.06.25/outbox.cif.g09.slc.cpg/sg12_155_cif.got.tgz:308996.got - 2010.06.28 00:19:55.
