data_PCOD8099379
_publ_section_title
;
Structure prediction by ZEFSAII (Michael W. Deem and Ramdas Pophale) SiO2 
 PCOD8099379
Probable space group: C 2/M
;
_chemical_formula_sum "Si O2"
_cell_formula_units_Z 56
_cell_length_a 30.906533
_cell_length_b 9.417028
_cell_length_c 20.860117
_cell_angle_alpha 90.000000
_cell_angle_beta 151.230412
_cell_angle_gamma 90.000000
_cell_volume 2922.041307
_symmetry_space_group_name_H-M "C 2/M"
_symmetry_group_IT_number 12
_symmetry_cell_setting 'monoclinic'
loop_
_space_group_symop_operation_xyz
x,y,z
-x,y,-z
-x,-y,-z
x,-y,z
1/2+x,1/2+y,z
1/2-x,1/2+y,-z
1/2-x,1/2-y,-z
1/2+x,1/2-y,z
loop_
_atom_site_type_symbol
_atom_site_label
_atom_site_fract_x
_atom_site_fract_y
_atom_site_fract_z
Si Si1 0.720931 0.163421 0.400457
Si Si2 0.357883 0.662277 0.917605
Si Si3 0.525762 0.335386 0.461029
Si Si4 0.720660 0.337073 0.660368
Si Si5 0.112316 0.333949 0.800291
Si Si6 0.199468 0.159925 0.015822
Si Si7 0.520887 0.836998 0.101105
O O1 0.750000 0.250000 0.500000
O O2 0.788725 0.191100 0.428445
O O3 0.621606 0.209476 0.249104
O O4 0.722898 0.000000 0.423389
O O5 0.373445 0.500000 0.917107
O O6 0.300538 0.738957 0.788748
O O7 0.303047 0.674280 0.911749
O O8 0.453601 0.737266 0.053458
O O9 0.500000 0.291750 0.500000
O O10 0.502156 0.500000 0.418170
O O11 0.629871 0.304105 0.581237
O O12 0.472261 0.237836 0.342662
O O13 0.750685 0.500000 0.710224
O O14 0.093219 0.500000 0.783255
O O15 0.127781 0.265835 0.890364
O O16 0.199339 0.298514 0.870967
O O17 0.176915 0.000000 0.963586
O O18 0.503472 0.000000 0.097239
O O19 0.500000 0.809617 0.000000
#
# Coordination Sequence:
#
# PCOD8099379 Si02
#       7
#     8   8   8   8   8   8   8
#     4  10  22  40  61  84 114 155 193 237 290 343
#     4  11  22  35  58  89 115 142 187 242 289 334
#     4  10  21  36  57  84 114 150 189 231 284 348
#     4  10  21  39  59  80 113 155 192 229 286 351
#     4  10  20  35  56  79 109 149 191 235 282 333
#     4   9  20  37  54  78 113 149 184 230 287 342
#     4  10  20  39  62  82 113 152 190 231 282 347
#
# _framework density 19.164684999999999
#
# number of rings (size 3 to 8) (size 9 to 14) (size 15 to 20)
#    0.000    2.000    1.429    1.714    0.000    5.143 
#    0.000    4.286    0.000    0.000    0.000    0.000 
#    0.000    0.000    0.000    0.000    0.000    0.000 
#
# Total GULP energy -347252.377352 kJ/mol
# GULP energy per Si atom -12401.870620 kJ/mol
# Density = 1.912107 g / cm^3
# Si number density = 19.164685 Si / 1000 Ang^3
#
#
#
# Elastic Constant Matrix: (Units=GPa)
#
#
# Indices 1 2 3 4 5 6 
#
# 1 95.4778 38.0149 40.3875 0.0000 2.6346 0.0000
# 2 38.0149 90.0144 57.8349 0.0000 -1.6676 0.0000
# 3 40.3875 57.8349 107.2864 0.0000 -6.3792 0.0000
# 4 0.0000 0.0000 0.0000 34.6118 0.0000 -2.1236
# 5 2.6346 -1.6676 -6.3792 0.0000 27.0825 0.0000
# 6 0.0000 0.0000 0.0000 -2.1236 0.0000 27.5310
#
#
#
# Elastic Compliance Matrix: (Units=1/GPa)
#
#
# Indices 1 2 3 4 5 6 
#
# 1 0.013331 -0.003612 -0.003207 0.000000 -0.002275 0.000000
# 2 -0.003612 0.018009 -0.008379 0.000000 -0.000513 0.000000
# 3 -0.003207 -0.008379 0.015246 0.000000 0.003387 0.000000
# 4 0.000000 0.000000 0.000000 0.029029 0.000000 0.002239
# 5 -0.002275 -0.000513 0.003387 0.000000 0.037912 0.000000
# 6 0.000000 0.000000 0.000000 0.002239 0.000000 0.036495
#
#
# Mechanical properties :
#
#
# Convention : Reuss Voigt Hill
#
# Bulk Modulus (GPa) = 61.76170 62.80589 62.28379
# Shear Modulus (GPa) = 26.90874 28.28114 27.59494
#
# Velocity S-wave (km/s) = 3.75117 3.84564 3.79870
# Velocity P-wave (km/s) = 7.14552 7.24992 7.19791
#
# Compressibility (1/GPa) = 0.01619126
#
# Stress axis : x y z
#
# Youngs Moduli (GPa) = 75.01404 55.52921 65.59065
#
# Poissons Ratio (x) = 0.20056 0.21032
# Poissons Ratio (y) = 0.27093 0.54957
# Poissons Ratio (z) = 0.24054 0.46527
#
# Static dielectric constant tensor:
#      x y z
#    x 3.611750 0.000000 0.105780 
#    y 0.000000 3.536280 0.000000 
#    z 0.105780 0.000000 3.388800 
# 
# 
# High freq. dielectric constant tensor:
#      x y z
#    x 1.749410 0.000000 0.003070 
#    y 0.000000 1.746630 0.000000 
#    z 0.003070 0.000000 1.739210 
# 
# From -- ./inp_files/329513.got.cif
#   From: 2010.06.25/outbox.cif.g09.slc.cpg/sg12_165_cif.got.tgz:329513.got - 2010.06.28 00:19:55.
