data_PCOD8099394
_publ_section_title
;
Structure prediction by ZEFSAII (Michael W. Deem and Ramdas Pophale) SiO2 
 PCOD8099394
Probable space group: C 2/M
;
_chemical_formula_sum "Si O2"
_cell_formula_units_Z 48
_cell_length_a 19.132131
_cell_length_b 8.780955
_cell_length_c 15.074353
_cell_angle_alpha 90.000000
_cell_angle_beta 89.902777
_cell_angle_gamma 90.000000
_cell_volume 2532.463258
_symmetry_space_group_name_H-M "C 2/M"
_symmetry_group_IT_number 12
_symmetry_cell_setting 'monoclinic'
loop_
_space_group_symop_operation_xyz
x,y,z
-x,y,-z
-x,-y,-z
x,-y,z
1/2+x,1/2+y,z
1/2-x,1/2+y,-z
1/2-x,1/2-y,-z
1/2+x,1/2-y,z
loop_
_atom_site_type_symbol
_atom_site_label
_atom_site_fract_x
_atom_site_fract_y
_atom_site_fract_z
Si Si1 0.178453 0.179640 0.354700
Si Si2 0.822898 0.178996 0.846701
Si Si3 0.922319 0.181323 0.999509
Si Si4 0.322137 0.321337 0.152979
Si Si5 0.418462 0.821607 0.502093
Si Si6 0.174304 0.820391 0.644573
O O1 0.159399 0.226693 0.254079
O O2 0.114776 0.233768 0.415012
O O3 0.249392 0.262521 0.385376
O O4 0.189613 0.000000 0.364816
O O5 0.883097 0.242004 0.911578
O O6 0.749708 0.247027 0.878424
O O7 0.816345 0.000000 0.855920
O O8 0.925624 0.000000 0.998217
O O9 0.883189 0.238276 0.088335
O O10 0.000000 0.251347 0.000000
O O11 0.312013 0.500000 0.144385
O O12 0.340688 0.275454 0.253541
O O13 0.500000 0.781983 0.500000
O O14 0.384956 0.763499 0.411089
O O15 0.404784 0.000000 0.513185
O O16 0.170256 0.000000 0.627616
#
# Coordination Sequence:
#
# PCOD8099394 Si02
#       6
#     8   8   8   8   8   8
#     4  10  20  35  56  80 105 135 174 217 259 306
#     4   9  18  32  53  78 102 133 170 210 253 297
#     4   9  17  30  49  75 106 137 170 208 250 297
#     4   9  18  32  53  78 102 133 170 210 253 297
#     4  11  24  39  54  75 105 139 172 211 262 313
#     4  10  20  35  56  80 105 135 174 217 259 306
#
# _framework density 18.953878
#
# number of rings (size 3 to 8) (size 9 to 14) (size 15 to 20)
#    0.000    2.333    0.000    2.500    0.000    4.000 
#    0.000    3.333    0.000    2.000    0.000    0.000 
#    0.000    0.000    0.000    0.000    0.000    0.000 
#
# Total GULP energy -297645.731355 kJ/mol
# GULP energy per Si atom -12401.905473 kJ/mol
# Density = 1.891074 g / cm^3
# Si number density = 18.953878 Si / 1000 Ang^3
#
#
#
# Elastic Constant Matrix: (Units=GPa)
#
#
# Indices 1 2 3 4 5 6 
#
# 1 152.4962 19.3970 83.6380 0.0000 4.0888 0.0000
# 2 19.3970 19.8884 16.6459 0.0000 1.6179 0.0000
# 3 83.6380 16.6459 122.2217 0.0000 2.5866 0.0000
# 4 0.0000 0.0000 0.0000 14.4369 0.0000 0.8061
# 5 4.0888 1.6179 2.5866 0.0000 23.1673 0.0000
# 6 0.0000 0.0000 0.0000 0.8061 0.0000 28.3724
#
#
#
# Elastic Compliance Matrix: (Units=1/GPa)
#
#
# Indices 1 2 3 4 5 6 
#
# 1 0.010930 -0.004906 -0.006794 0.000000 -0.000828 0.000000
# 2 -0.004906 0.059176 -0.004644 0.000000 -0.002748 0.000000
# 3 -0.006794 -0.004644 0.013463 0.000000 0.000020 0.000000
# 4 0.000000 0.000000 0.000000 0.069377 0.000000 -0.001971
# 5 -0.000828 -0.002748 0.000020 0.000000 0.043500 0.000000
# 6 0.000000 0.000000 0.000000 -0.001971 0.000000 0.035301
#
#
# Mechanical properties :
#
#
# Convention : Reuss Voigt Hill
#
# Bulk Modulus (GPa) = 19.65371 59.32978 39.49175
# Shear Modulus (GPa) = 17.76861 24.85703 21.31282
#
# Velocity S-wave (km/s) = 3.06513 3.62532 3.35693
# Velocity P-wave (km/s) = 4.78732 6.99243 5.99218
#
# Compressibility (1/GPa) = 0.05088097
#
# Stress axis : x y z
#
# Youngs Moduli (GPa) = 91.49209 16.89878 74.27802
#
# Poissons Ratio (x) = 0.08291 0.50463
# Poissons Ratio (y) = 0.44890 0.34493
# Poissons Ratio (z) = 0.62157 0.07847
#
# Static dielectric constant tensor:
#      x y z
#    x 3.606160 0.000000 0.040430 
#    y 0.000000 3.320840 0.000000 
#    z 0.040430 0.000000 3.736980 
# 
# 
# High freq. dielectric constant tensor:
#      x y z
#    x 1.733190 0.000000 0.000780 
#    y 0.000000 1.722750 0.000000 
#    z 0.000780 0.000000 1.751640 
# 
# From -- ./inp_files/196519.got.cif
#   From: 2010.06.25/outbox.cif.g09.slc.cpg/sg12_99_cif.got.tgz:196519.got - 2010.06.28 00:19:55.
