data_PCOD8099129
_publ_section_title
;
Structure prediction by ZEFSAII (Michael W. Deem and Ramdas Pophale) SiO2 
 PCOD8099129
Probable space group: C 2/M
;
_chemical_formula_sum "Si O2"
_cell_formula_units_Z 64
_cell_length_a 8.571567
_cell_length_b 28.035239
_cell_length_c 13.998144
_cell_angle_alpha 90.000000
_cell_angle_beta 112.039546
_cell_angle_gamma 90.000000
_cell_volume 3118.024875
_symmetry_space_group_name_H-M "C 2/M"
_symmetry_group_IT_number 12
_symmetry_cell_setting 'monoclinic'
loop_
_space_group_symop_operation_xyz
x,y,z
-x,y,-z
-x,-y,-z
x,-y,z
1/2+x,1/2+y,z
1/2-x,1/2+y,-z
1/2-x,1/2-y,-z
1/2+x,1/2-y,z
loop_
_atom_site_type_symbol
_atom_site_label
_atom_site_fract_x
_atom_site_fract_y
_atom_site_fract_z
Si Si1 0.012994 0.866297 0.215345
Si Si2 0.724400 0.890112 0.874623
Si Si3 0.382473 0.790254 0.061992
Si Si4 0.544892 0.736319 0.267362
Si Si5 0.685341 0.096410 0.063057
Si Si6 0.404125 0.053656 0.769112
Si Si7 0.849717 0.787432 0.397383
Si Si8 0.104280 0.105043 0.612438
O O1 0.125023 0.896494 0.166216
O O2 0.100411 0.814363 0.235073
O O3 0.817846 0.864527 0.135386
O O4 0.016589 0.889303 0.322209
O O5 0.711724 0.837108 0.918523
O O6 0.553826 0.908543 0.785140
O O7 0.755218 0.923267 0.976734
O O8 0.502204 0.772871 0.174714
O O9 0.500000 0.802895 0.000000
O O10 0.250000 0.750000 0.000000
O O11 0.679843 0.757439 0.374806
O O12 0.383077 0.724290 0.293875
O O13 0.662920 0.055038 0.136519
O O14 0.500000 0.119840 0.000000
O O15 0.254060 0.068207 0.664410
O O16 0.462125 0.000000 0.758833
O O17 0.819700 0.843821 0.402084
O O18 0.000000 0.769681 0.500000
O O19 0.000000 0.083663 0.500000
#
# Coordination Sequence:
#
# PCOD8099129 Si02
#       8
#     8   8   8   8   8   8   8   8
#     4  10  20  36  56  84 114 149 191 234 287 342
#     4  11  21  35  55  83 120 153 184 235 289 341
#     4  12  23  35  53  82 117 158 200 233 279 342
#     4  11  21  34  51  76 112 148 188 234 274 327
#     4   9  19  35  57  80 109 147 186 229 274 329
#     4  10  21  38  61  86 111 146 191 234 289 355
#     4  10  20  35  55  79 107 143 188 235 287 337
#     4   9  20  39  61  82 108 146 192 242 291 344
#
# _framework density 20.525812999999999
#
# number of rings (size 3 to 8) (size 9 to 14) (size 15 to 20)
#    0.000    1.750    0.000    5.625    0.000    5.500 
#    0.000    3.125    0.000    6.750    0.000    0.000 
#    0.000    0.000    0.000    0.000    0.000    0.000 
#
# Total GULP energy -396511.097594 kJ/mol
# GULP energy per Si atom -12390.971800 kJ/mol
# Density = 2.047910 g / cm^3
# Si number density = 20.525813 Si / 1000 Ang^3
#
#
#
# Elastic Constant Matrix: (Units=GPa)
#
#
# Indices 1 2 3 4 5 6 
#
# 1 84.7713 27.4957 42.2848 0.0000 1.0218 0.0000
# 2 27.4957 78.2726 30.4026 0.0000 18.7609 0.0000
# 3 42.2848 30.4026 137.8546 0.0000 15.9096 0.0000
# 4 0.0000 0.0000 0.0000 19.1768 0.0000 2.7000
# 5 1.0218 18.7609 15.9096 0.0000 33.6743 0.0000
# 6 0.0000 0.0000 0.0000 2.7000 0.0000 17.5228
#
#
#
# Elastic Compliance Matrix: (Units=1/GPa)
#
#
# Indices 1 2 3 4 5 6 
#
# 1 0.015362 -0.004785 -0.004136 0.000000 0.004154 0.000000
# 2 -0.004785 0.017052 -0.001283 0.000000 -0.008749 0.000000
# 3 -0.004136 -0.001283 0.009211 0.000000 -0.003511 0.000000
# 4 0.000000 0.000000 0.000000 0.053303 0.000000 -0.008213
# 5 0.004154 -0.008749 -0.003511 0.000000 0.036103 0.000000
# 6 0.000000 0.000000 0.000000 -0.008213 0.000000 0.058334
#
#
# Mechanical properties :
#
#
# Convention : Reuss Voigt Hill
#
# Bulk Modulus (GPa) = 47.13503 55.69607 51.41555
# Shear Modulus (GPa) = 23.05784 27.45580 25.25682
#
# Velocity S-wave (km/s) = 3.35529 3.66132 3.51164
# Velocity P-wave (km/s) = 6.16638 6.71321 6.44560
#
# Compressibility (1/GPa) = 0.02121564
#
# Stress axis : x y z
#
# Youngs Moduli (GPa) = 65.09740 58.64323 108.56705
#
# Poissons Ratio (x) = 0.28063 0.44903
# Poissons Ratio (y) = 0.31152 0.13931
# Poissons Ratio (z) = 0.26924 0.07525
#
# Static dielectric constant tensor:
#      x y z
#    x 3.696160 0.000000 -0.093010 
#    y 0.000000 3.367030 0.000000 
#    z -0.093010 0.000000 3.895230 
# 
# 
# High freq. dielectric constant tensor:
#      x y z
#    x 1.791700 0.000000 0.000230 
#    y 0.000000 1.766770 0.000000 
#    z 0.000230 0.000000 1.815810 
# 
# From -- ./inp_files/200963.got.cif
#   From: 2010.06.25/outbox.cif.g09.slc.cpg/sg12_101_cif.got.tgz:200963.got - 2010.06.28 00:19:55.
