data_PCOD8099518
_publ_section_title
;
Structure prediction by ZEFSAII (Michael W. Deem and Ramdas Pophale) SiO2 
 PCOD8099518
Probable space group: C 2/M
;
_chemical_formula_sum "Si O2"
_cell_formula_units_Z 56
_cell_length_a 19.308946
_cell_length_b 15.641887
_cell_length_c 18.304021
_cell_angle_alpha 90.000000
_cell_angle_beta 30.337439
_cell_angle_gamma 90.000000
_cell_volume 2792.315191
_symmetry_space_group_name_H-M "C 2/M"
_symmetry_group_IT_number 12
_symmetry_cell_setting 'monoclinic'
loop_
_space_group_symop_operation_xyz
x,y,z
-x,y,-z
-x,-y,-z
x,-y,z
1/2+x,1/2+y,z
1/2-x,1/2+y,-z
1/2-x,1/2-y,-z
1/2+x,1/2-y,z
loop_
_atom_site_type_symbol
_atom_site_label
_atom_site_fract_x
_atom_site_fract_y
_atom_site_fract_z
Si Si1 0.919400 0.241000 0.895004
Si Si2 0.497802 0.905101 0.267878
Si Si3 0.216137 0.094689 0.452750
Si Si4 0.970282 0.345751 0.449248
Si Si5 0.705360 0.754713 0.713431
Si Si6 0.288890 0.280287 0.794606
Si Si7 0.083514 0.902013 0.220318
O O1 0.884279 0.161355 0.875471
O O2 0.918681 0.330709 0.850177
O O3 0.060241 0.229705 0.811004
O O4 0.793958 0.235695 0.064940
O O5 0.337181 0.890550 0.400334
O O6 0.511198 0.904147 0.343502
O O7 0.546283 0.000000 0.196879
O O8 0.234609 0.156309 0.368371
O O9 0.076818 0.112457 0.621648
O O10 0.218375 0.000000 0.417214
O O11 0.810346 0.319956 0.594878
O O12 0.000000 0.392823 0.500000
O O13 0.065939 0.262388 0.356554
O O14 0.691646 0.773011 0.812406
O O15 0.328550 0.375576 0.787490
O O16 0.118645 0.000000 0.168178
#
# Coordination Sequence:
#
# PCOD8099518 Si02
#       7
#     8   8   8   8   8   8   8
#     4  11  22  39  59  85 116 156 192 233 283 346
#     4  10  20  35  58  83 114 151 191 235 282 340
#     4   9  18  33  55  86 112 144 192 234 279 339
#     4  10  20  35  56  81 111 145 189 237 286 333
#     4  10  20  37  61  80 113 157 189 232 289 340
#     4  11  22  37  55  87 117 149 189 236 290 341
#     4  11  22  36  60  88 117 151 193 240 289 341
#
# _framework density 20.055042
#
# number of rings (size 3 to 8) (size 9 to 14) (size 15 to 20)
#    0.000    1.714    2.857    1.714    0.000    3.714 
#    0.000    1.429    0.000    7.714    0.000    0.000 
#    0.000    0.000    0.000    0.000    0.000    0.000 
#
# Total GULP energy -346997.024599 kJ/mol
# GULP energy per Si atom -12392.750879 kJ/mol
# Density = 2.000940 g / cm^3
# Si number density = 20.055042 Si / 1000 Ang^3
#
#
#
# Elastic Constant Matrix: (Units=GPa)
#
#
# Indices 1 2 3 4 5 6 
#
# 1 100.1281 36.5787 18.1715 -0.0009 12.2786 0.0005
# 2 36.5787 80.7113 15.5047 -0.0005 15.6508 0.0005
# 3 18.1715 15.5047 69.4540 -0.0014 11.8319 0.0014
# 4 -0.0009 -0.0005 -0.0014 10.0447 0.0016 -2.6669
# 5 12.2786 15.6508 11.8319 0.0016 36.3887 -0.0014
# 6 0.0005 0.0005 0.0014 -2.6669 -0.0014 20.3199
#
#
#
# Elastic Compliance Matrix: (Units=1/GPa)
#
#
# Indices 1 2 3 4 5 6 
#
# 1 0.012307 -0.004943 -0.001875 0.000001 -0.001417 0.000000
# 2 -0.004943 0.015811 -0.001442 0.000001 -0.004664 0.000000
# 3 -0.001875 -0.001442 0.015876 0.000002 -0.003909 -0.000001
# 4 0.000001 0.000001 0.000002 0.103149 -0.000005 0.013538
# 5 -0.001417 -0.004664 -0.003909 -0.000005 0.031236 0.000002
# 6 0.000000 0.000000 -0.000001 0.013538 0.000002 0.050990
#
#
# Mechanical properties :
#
#
# Convention : Reuss Voigt Hill
#
# Bulk Modulus (GPa) = 36.39628 43.42255 39.90942
# Shear Modulus (GPa) = 19.60421 25.35323 22.47872
#
# Velocity S-wave (km/s) = 3.12992 3.55939 3.35154
# Velocity P-wave (km/s) = 5.59012 6.21217 5.90934
#
# Compressibility (1/GPa) = 0.02747533
#
# Stress axis : x y z
#
# Youngs Moduli (GPa) = 81.25532 63.24637 62.98621
#
# Poissons Ratio (x) = 0.31260 0.11811
# Poissons Ratio (y) = 0.40160 0.09083
# Poissons Ratio (z) = 0.15236 0.09120
#
# Static dielectric constant tensor:
#      x y z
#    x 3.896510 0.000000 -0.036920 
#    y 0.000000 3.463290 0.000000 
#    z -0.036920 0.000000 3.620710 
# 
# 
# High freq. dielectric constant tensor:
#      x y z
#    x 1.793240 0.000000 -0.004570 
#    y 0.000000 1.761150 0.000000 
#    z -0.004570 0.000000 1.787060 
# 
# From -- ./inp_files/284475.got.cif
#   From: 2010.06.25/outbox.cif.g09.slc.cpg/sg12_143_cif.got.tgz:284475.got - 2010.06.28 00:19:55.
