data_PCOD8099967
_publ_section_title
;
Structure prediction by ZEFSAII (Michael W. Deem and Ramdas Pophale) SiO2 
 PCOD8099967
Probable space group: C 2/M
;
_chemical_formula_sum "Si O2"
_cell_formula_units_Z 48
_cell_length_a 27.661849
_cell_length_b 9.097553
_cell_length_c 17.167519
_cell_angle_alpha 90.000000
_cell_angle_beta 36.221057
_cell_angle_gamma 90.000000
_cell_volume 2552.871424
_symmetry_space_group_name_H-M "C 2/M"
_symmetry_group_IT_number 12
_symmetry_cell_setting 'monoclinic'
loop_
_space_group_symop_operation_xyz
x,y,z
-x,y,-z
-x,-y,-z
x,-y,z
1/2+x,1/2+y,z
1/2-x,1/2+y,-z
1/2-x,1/2-y,-z
1/2+x,1/2-y,z
loop_
_atom_site_type_symbol
_atom_site_label
_atom_site_fract_x
_atom_site_fract_y
_atom_site_fract_z
Si Si1 0.035891 0.325824 0.872132
Si Si2 0.335049 0.673121 0.870223
Si Si3 0.903879 0.669154 0.630783
Si Si4 0.282372 0.833742 0.385001
Si Si5 0.129393 0.831809 0.479670
Si Si6 0.486521 0.328406 0.781860
O O1 0.026469 0.500000 0.877367
O O2 0.129458 0.271196 0.753035
O O3 0.988160 0.256137 0.861388
O O4 0.000000 0.267518 0.000000
O O5 0.320798 0.500000 0.880179
O O6 0.369402 0.733645 0.744993
O O7 0.400354 0.708462 0.853032
O O8 0.250000 0.750000 0.000000
O O9 0.878696 0.500000 0.676459
O O10 0.866514 0.726546 0.599340
O O11 0.000000 0.689981 0.500000
O O12 0.250000 0.750000 0.500000
O O13 0.220237 0.818419 0.394830
O O14 0.292078 0.000000 0.399447
O O15 0.061467 0.775126 0.629539
O O16 0.108602 0.000000 0.482816
O O17 0.496268 0.500000 0.786412
#
# Coordination Sequence:
#
# PCOD8099967 Si02
#       6
#     8   8   8   8   8   8
#     4  10  22  38  57  85 121 156 193 238 292 351
#     4  11  24  42  63  88 122 159 200 248 304 361
#     4  11  23  38  60  91 122 155 202 249 295 352
#     4  10  20  35  57  84 114 150 194 240 288 344
#     4  10  20  36  59  87 119 156 201 246 298 351
#     4  10  21  38  61  87 116 154 196 241 297 356
#
# _framework density 18.802357000000001
#
# number of rings (size 3 to 8) (size 9 to 14) (size 15 to 20)
#    0.000    1.667    3.333    1.000    0.000    5.000 
#    0.000    1.667    0.000    0.000    0.000    0.000 
#    0.000    0.000    0.000    0.000    0.000    0.000 
#
# Total GULP energy -297662.337659 kJ/mol
# GULP energy per Si atom -12402.597402 kJ/mol
# Density = 1.875956 g / cm^3
# Si number density = 18.802357 Si / 1000 Ang^3
#
#
#
# Elastic Constant Matrix: (Units=GPa)
#
#
# Indices 1 2 3 4 5 6 
#
# 1 124.3417 57.8782 78.8602 -0.0117 6.6342 0.0065
# 2 57.8782 71.9004 63.5248 -0.0192 5.1381 0.0118
# 3 78.8602 63.5248 145.9359 -0.0122 6.0063 0.0081
# 4 -0.0117 -0.0192 -0.0122 34.5875 0.0098 4.1885
# 5 6.6342 5.1381 6.0063 0.0098 36.6469 -0.0050
# 6 0.0065 0.0118 0.0081 4.1885 -0.0050 36.7053
#
#
#
# Elastic Compliance Matrix: (Units=1/GPa)
#
#
# Indices 1 2 3 4 5 6 
#
# 1 0.014477 -0.007658 -0.004455 -0.000001 -0.000817 0.000001
# 2 -0.007658 0.026741 -0.007455 0.000011 -0.001141 -0.000007
# 3 -0.004455 -0.007455 0.012513 -0.000001 -0.000199 0.000001
# 4 -0.000001 0.000011 -0.000001 0.029317 -0.000009 -0.003345
# 5 -0.000817 -0.001141 -0.000199 -0.000009 0.027628 0.000005
# 6 0.000001 -0.000007 0.000001 -0.003345 0.000005 0.027626
#
#
# Mechanical properties :
#
#
# Convention : Reuss Voigt Hill
#
# Bulk Modulus (GPa) = 68.52480 82.52271 75.52376
# Shear Modulus (GPa) = 27.42685 31.04893 29.23789
#
# Velocity S-wave (km/s) = 3.82343 4.06807 3.94764
# Velocity P-wave (km/s) = 7.48434 8.12714 7.81235
#
# Compressibility (1/GPa) = 0.01459326
#
# Stress axis : x y z
#
# Youngs Moduli (GPa) = 69.07742 37.39598 79.91611
#
# Poissons Ratio (x) = 0.28639 0.35606
# Poissons Ratio (y) = 0.52902 0.59575
# Poissons Ratio (z) = 0.30777 0.27878
#
# Static dielectric constant tensor:
#      x y z
#    x 3.351430 0.000000 -0.063400 
#    y 0.000000 3.455490 0.000010 
#    z -0.063400 0.000010 3.489550 
# 
# 
# High freq. dielectric constant tensor:
#      x y z
#    x 1.741280 0.000000 -0.002770 
#    y 0.000000 1.729160 0.000000 
#    z -0.002770 0.000000 1.733200 
# 
# From -- ./inp_files/244648.got.cif
#   From: 2010.06.25/outbox.cif.g09.slc.cpg/sg12_123_cif.got.tgz:244648.got - 2010.06.28 00:19:55.
