data_PCOD8099435
_publ_section_title
;
Structure prediction by ZEFSAII (Michael W. Deem and Ramdas Pophale) SiO2 
 PCOD8099435
Probable space group: C 2/M
;
_chemical_formula_sum "Si O2"
_cell_formula_units_Z 56
_cell_length_a 18.331107
_cell_length_b 9.417504
_cell_length_c 17.174830
_cell_angle_alpha 90.000000
_cell_angle_beta 119.086162
_cell_angle_gamma 90.000000
_cell_volume 2591.036625
_symmetry_space_group_name_H-M "C 2/M"
_symmetry_group_IT_number 12
_symmetry_cell_setting 'monoclinic'
loop_
_space_group_symop_operation_xyz
x,y,z
-x,y,-z
-x,-y,-z
x,-y,z
1/2+x,1/2+y,z
1/2-x,1/2+y,-z
1/2-x,1/2-y,-z
1/2+x,1/2-y,z
loop_
_atom_site_type_symbol
_atom_site_label
_atom_site_fract_x
_atom_site_fract_y
_atom_site_fract_z
Si Si1 0.280403 0.843253 0.261820
Si Si2 0.927575 0.845604 0.173015
Si Si3 0.529648 0.165048 0.663265
Si Si4 0.223354 0.664311 0.369047
Si Si5 0.747233 0.213606 0.089312
Si Si6 0.122396 0.835034 0.440420
Si Si7 0.432558 0.844876 0.028012
O O1 0.379014 0.816467 0.325697
O O2 0.230075 0.726419 0.285253
O O3 0.254774 0.840436 0.156890
O O4 0.258099 0.000000 0.281515
O O5 0.974060 0.736484 0.253433
O O6 0.831219 0.876242 0.148158
O O7 0.932462 0.779126 0.090401
O O8 0.972127 0.000000 0.196761
O O9 0.462075 0.252708 0.577020
O O10 0.504209 0.000000 0.656107
O O11 0.195055 0.500000 0.350648
O O12 0.155833 0.755824 0.380724
O O13 0.313130 0.680028 0.455890
O O14 0.750000 0.250000 0.000000
O O15 0.659110 0.137597 0.059077
O O16 0.104270 0.000000 0.412191
O O17 0.455652 0.000000 0.075293
O O18 0.500000 0.798004 0.000000
#
# Coordination Sequence:
#
# PCOD8099435 Si02
#       7
#     8   8   8   8   8   8   8
#     4  10  22  39  60  87 118 153 195 242 291 346
#     4  10  20  35  56  80 108 144 187 234 283 340
#     4  10  21  37  58  84 114 149 190 237 289 343
#     4  10  22  39  60  87 119 155 194 238 289 345
#     4   9  20  37  59  82 109 148 192 235 283 338
#     4  10  21  39  62  86 116 155 196 238 288 347
#     4  10  21  36  54  78 109 144 183 231 287 344
#
# _framework density 21.612971000000002
#
# number of rings (size 3 to 8) (size 9 to 14) (size 15 to 20)
#    0.000    2.143    0.000    2.143    0.000   12.857 
#    0.000    5.714    0.000    0.000    0.000    0.000 
#    0.000    0.000    0.000    0.000    0.000    0.000 
#
# Total GULP energy -346931.777920 kJ/mol
# GULP energy per Si atom -12390.420640 kJ/mol
# Density = 2.156378 g / cm^3
# Si number density = 21.612971 Si / 1000 Ang^3
#
#
#
# Elastic Constant Matrix: (Units=GPa)
#
#
# Indices 1 2 3 4 5 6 
#
# 1 72.9934 25.1918 12.6122 0.0000 -7.0114 0.0000
# 2 25.1918 148.0090 18.4580 0.0000 -13.6115 0.0000
# 3 12.6122 18.4580 52.5374 0.0000 -7.6735 0.0000
# 4 0.0000 0.0000 0.0000 24.5602 0.0000 -4.4943
# 5 -7.0114 -13.6115 -7.6735 0.0000 27.9633 0.0000
# 6 0.0000 0.0000 0.0000 -4.4943 0.0000 22.4837
#
#
#
# Elastic Compliance Matrix: (Units=1/GPa)
#
#
# Indices 1 2 3 4 5 6 
#
# 1 0.015053 -0.002049 -0.002592 0.000000 0.002066 0.000000
# 2 -0.002049 0.007574 -0.001777 0.000000 0.002685 0.000000
# 3 -0.002592 -0.001777 0.020897 0.000000 0.004220 0.000000
# 4 0.000000 0.000000 0.000000 0.042262 0.000000 0.008448
# 5 0.002066 0.002685 0.004220 0.000000 0.038744 0.000000
# 6 0.000000 0.000000 0.000000 0.008448 0.000000 0.046165
#
#
# Mechanical properties :
#
#
# Convention : Reuss Voigt Hill
#
# Bulk Modulus (GPa) = 32.58588 42.89596 37.74092
# Shear Modulus (GPa) = 25.80507 29.48663 27.64585
#
# Velocity S-wave (km/s) = 3.45912 3.69765 3.58038
# Velocity P-wave (km/s) = 5.57349 6.17419 5.88151
#
# Compressibility (1/GPa) = 0.03068814
#
# Stress axis : x y z
#
# Youngs Moduli (GPa) = 66.43059 132.03758 47.85406
#
# Poissons Ratio (x) = 0.27053 0.12405
# Poissons Ratio (y) = 0.13611 0.08503
# Poissons Ratio (z) = 0.17220 0.23460
#
# Static dielectric constant tensor:
#      x y z
#    x 3.978280 0.000000 0.313480 
#    y 0.000000 3.839080 0.000000 
#    z 0.313480 0.000000 3.824340 
# 
# 
# High freq. dielectric constant tensor:
#      x y z
#    x 1.844740 0.000000 0.010940 
#    y 0.000000 1.851810 0.000000 
#    z 0.010940 0.000000 1.836500 
# 
# From -- ./inp_files/281676.got.cif
#   From: 2010.06.25/outbox.cif.g09.slc.cpg/sg12_141_cif.got.tgz:281676.got - 2010.06.28 00:19:55.
