data_PCOD8099872
_publ_section_title
;
Structure prediction by ZEFSAII (Michael W. Deem and Ramdas Pophale) SiO2 
 PCOD8099872
Probable space group: C 2/M
;
_chemical_formula_sum "Si O2"
_cell_formula_units_Z 48
_cell_length_a 18.482403
_cell_length_b 8.812422
_cell_length_c 31.409955
_cell_angle_alpha 90.000000
_cell_angle_beta 150.974210
_cell_angle_gamma 90.000000
_cell_volume 2482.245556
_symmetry_space_group_name_H-M "C 2/M"
_symmetry_group_IT_number 12
_symmetry_cell_setting 'monoclinic'
loop_
_space_group_symop_operation_xyz
x,y,z
-x,y,-z
-x,-y,-z
x,-y,z
1/2+x,1/2+y,z
1/2-x,1/2+y,-z
1/2-x,1/2-y,-z
1/2+x,1/2-y,z
loop_
_atom_site_type_symbol
_atom_site_label
_atom_site_fract_x
_atom_site_fract_y
_atom_site_fract_z
Si Si1 0.924992 0.675424 0.338892
Si Si2 0.580328 0.674892 0.496975
Si Si3 0.166190 0.178396 0.996327
Si Si4 0.192322 0.824124 0.849172
Si Si5 0.150383 0.323914 0.158280
Si Si6 0.420655 0.175496 0.668868
O O1 0.878994 0.500000 0.316381
O O2 0.776091 0.774227 0.256519
O O3 0.002666 0.719923 0.422520
O O4 0.040159 0.709099 0.360039
O O5 0.500000 0.702958 0.500000
O O6 0.569900 0.500000 0.476956
O O7 0.751456 0.725316 0.589882
O O8 0.995469 0.227860 0.907804
O O9 0.175140 0.000000 0.996644
O O10 0.250000 0.250000 0.000000
O O11 0.244597 0.227159 0.080012
O O12 0.294948 0.789659 0.861273
O O13 0.022889 0.775465 0.752568
O O14 0.195961 0.000000 0.863546
O O15 0.114226 0.500000 0.146312
O O16 0.447117 0.000000 0.693920
#
# Coordination Sequence:
#
# PCOD8099872 Si02
#       6
#     8   8   8   8   8   8
#     4  10  20  35  57  83 110 143 187 235 280 332
#     4  10  21  36  54  78 111 149 186 229 284 341
#     4  12  25  40  59  84 117 153 189 231 281 337
#     4  10  21  38  61  87 114 147 189 236 285 337
#     4  10  21  39  62  86 114 148 188 234 284 338
#     4   9  19  36  57  81 109 145 189 234 282 335
#
# _framework density 19.337330000000001
#
# number of rings (size 3 to 8) (size 9 to 14) (size 15 to 20)
#    0.000    1.833    0.000    4.000    0.000    7.000 
#    0.000    5.000    0.000    0.000    0.000    0.000 
#    0.000    0.000    0.000    0.000    0.000    0.000 
#
# Total GULP energy -297742.422700 kJ/mol
# GULP energy per Si atom -12405.934279 kJ/mol
# Density = 1.929332 g / cm^3
# Si number density = 19.337330 Si / 1000 Ang^3
#
#
#
# Elastic Constant Matrix: (Units=GPa)
#
#
# Indices 1 2 3 4 5 6 
#
# 1 87.7432 49.3375 64.9429 -0.0001 26.5111 0.0001
# 2 49.3375 107.2454 50.5993 -0.0002 19.1977 0.0004
# 3 64.9429 50.5993 114.2193 0.0001 40.7699 0.0001
# 4 -0.0001 -0.0002 0.0001 41.1029 0.0000 -2.2446
# 5 26.5111 19.1977 40.7699 0.0000 -25.4468 -0.0001
# 6 0.0001 0.0004 0.0001 -2.2446 -0.0001 28.3381
#
#
#
# Elastic Compliance Matrix: (Units=1/GPa)
#
#
# Indices 1 2 3 4 5 6 
#
# 1 0.021709 -0.005286 -0.010593 0.000000 0.001657 0.000000
# 2 -0.005286 0.013071 -0.002761 0.000000 -0.000069 0.000000
# 3 -0.010593 -0.002761 0.013159 0.000000 0.007963 0.000000
# 4 0.000000 0.000000 0.000000 0.024435 0.000000 0.001935
# 5 0.001657 -0.000069 0.007963 0.000000 -0.024864 0.000000
# 6 0.000000 0.000000 0.000000 0.001935 0.000000 0.035441
#
#
# Mechanical properties :
#
#
# Convention : Reuss Voigt Hill
#
# Bulk Modulus (GPa) = 93.81367 70.99637 82.40502
# Shear Modulus (GPa) = 40.39359 18.42073 29.40716
#
# Velocity S-wave (km/s) = 4.57540 3.08977 3.90390
# Velocity P-wave (km/s) = 8.74825 7.03728 7.93899
#
# Compressibility (1/GPa) = 0.01065943
#
# Stress axis : x y z
#
# Youngs Moduli (GPa) = 46.06424 76.50647 75.99603
#
# Poissons Ratio (x) = 0.40439 0.80504
# Poissons Ratio (y) = 0.24348 0.20979
# Poissons Ratio (z) = 0.48797 0.21120
#
# Static dielectric constant tensor:
#      x y z
#    x 3.584040 0.000000 0.079590 
#    y 0.000000 3.615540 0.000000 
#    z 0.079590 0.000000 3.617960 
# 
# 
# High freq. dielectric constant tensor:
#      x y z
#    x 1.749630 0.000000 0.004010 
#    y 0.000000 1.760330 0.000000 
#    z 0.004010 0.000000 1.764750 
# 
# From -- ./inp_files/274132.got.cif
#   From: 2010.06.25/outbox.cif.g09.slc.cpg/sg12_138_cif.got.tgz:274132.got - 2010.06.28 00:19:55.
