data_PCOD8099693
_publ_section_title
;
Structure prediction by ZEFSAII (Michael W. Deem and Ramdas Pophale) SiO2 
 PCOD8099693
Probable space group: C 2/M
;
_chemical_formula_sum "Si O2"
_cell_formula_units_Z 64
_cell_length_a 25.042740
_cell_length_b 8.914415
_cell_length_c 15.052750
_cell_angle_alpha 90.000000
_cell_angle_beta 70.614738
_cell_angle_gamma 90.000000
_cell_volume 3169.889259
_symmetry_space_group_name_H-M "C 2/M"
_symmetry_group_IT_number 12
_symmetry_cell_setting 'monoclinic'
loop_
_space_group_symop_operation_xyz
x,y,z
-x,y,-z
-x,-y,-z
x,-y,z
1/2+x,1/2+y,z
1/2-x,1/2+y,-z
1/2-x,1/2-y,-z
1/2+x,1/2-y,z
loop_
_atom_site_type_symbol
_atom_site_label
_atom_site_fract_x
_atom_site_fract_y
_atom_site_fract_z
Si Si1 0.143030 0.829360 0.369665
Si Si2 0.116218 0.677505 0.089236
Si Si3 0.310888 0.677629 0.467528
Si Si4 0.326744 0.676222 0.101308
Si Si5 0.621087 0.324684 0.741040
Si Si6 0.470180 0.822665 0.603189
Si Si7 0.708814 0.327248 0.161935
Si Si8 0.493878 0.176030 0.226905
O O1 0.159191 0.770211 0.458192
O O2 0.094244 0.727628 0.356125
O O3 0.196233 0.814884 0.274053
O O4 0.121442 0.000000 0.386564
O O5 0.125913 0.500000 0.092607
O O6 0.156728 0.762230 0.135406
O O7 0.051384 0.721593 0.145008
O O8 0.128334 0.734545 0.983353
O O9 0.303432 0.500000 0.467533
O O10 0.250000 0.750000 0.500000
O O11 0.347784 0.738266 0.364240
O O12 0.331240 0.500000 0.079438
O O13 0.340058 0.714910 0.196087
O O14 0.264345 0.731661 0.109904
O O15 0.611547 0.500000 0.736702
O O16 0.559677 0.252621 0.789451
O O17 0.500000 0.751796 0.500000
O O18 0.502759 0.767118 0.672913
O O19 0.470545 0.000000 0.598929
O O20 0.718768 0.500000 0.128563
O O21 0.484362 0.000000 0.227662
#
# Coordination Sequence:
#
# PCOD8099693 Si02
#       8
#     8   8   8   8   8   8   8   8
#     4  10  21  35  56  86 118 151 191 237 288 347
#     4  11  23  41  63  88 119 156 196 246 301 355
#     4  10  21  38  58  86 120 157 200 242 290 348
#     4  11  24  41  61  87 117 155 201 249 300 356
#     4  10  23  41  61  86 120 160 201 245 296 351
#     4  10  20  35  56  84 116 151 193 237 285 344
#     4  11  22  38  61  91 122 155 195 244 301 358
#     4  10  22  39  60  87 119 155 197 244 295 351
#
# _framework density 20.189981
#
# number of rings (size 3 to 8) (size 9 to 14) (size 15 to 20)
#    0.000    1.625    1.250    3.000    0.000    4.750 
#    0.000    2.500    0.000    0.000    0.000    0.000 
#    0.000    0.000    0.000    0.000    0.000    0.000 
#
# Total GULP energy -396925.227355 kJ/mol
# GULP energy per Si atom -12403.913355 kJ/mol
# Density = 2.014403 g / cm^3
# Si number density = 20.189981 Si / 1000 Ang^3
#
#
#
# Elastic Constant Matrix: (Units=GPa)
#
#
# Indices 1 2 3 4 5 6 
#
# 1 111.6995 30.5650 26.7711 0.0000 -10.4550 0.0000
# 2 30.5650 40.6828 27.8396 0.0000 -2.3558 0.0000
# 3 26.7711 27.8396 107.0782 0.0000 -7.8953 0.0000
# 4 0.0000 0.0000 0.0000 27.3402 0.0000 -3.7788
# 5 -10.4550 -2.3558 -7.8953 0.0000 33.8134 0.0000
# 6 0.0000 0.0000 0.0000 -3.7788 0.0000 37.2396
#
#
#
# Elastic Compliance Matrix: (Units=1/GPa)
#
#
# Indices 1 2 3 4 5 6 
#
# 1 0.011589 -0.008153 -0.000565 0.000000 0.002883 0.000000
# 2 -0.008153 0.035639 -0.007357 0.000000 -0.001756 0.000000
# 3 -0.000565 -0.007357 0.011541 0.000000 0.002008 0.000000
# 4 0.000000 0.000000 0.000000 0.037096 0.000000 0.003764
# 5 0.002883 -0.001756 0.002008 0.000000 0.030812 0.000000
# 6 0.000000 0.000000 0.000000 0.003764 0.000000 0.027235
#
#
# Mechanical properties :
#
#
# Convention : Reuss Voigt Hill
#
# Bulk Modulus (GPa) = 37.56794 47.75688 42.66241
# Shear Modulus (GPa) = 25.64961 31.29763 28.47362
#
# Velocity S-wave (km/s) = 3.56815 3.94147 3.75945
# Velocity P-wave (km/s) = 5.96852 6.66474 6.32621
#
# Compressibility (1/GPa) = 0.02661844
#
# Stress axis : x y z
#
# Youngs Moduli (GPa) = 86.28968 28.05949 86.64766
#
# Poissons Ratio (x) = 0.22877 0.04896
# Poissons Ratio (y) = 0.70353 0.63745
# Poissons Ratio (z) = 0.04876 0.20643
#
# Static dielectric constant tensor:
#      x y z
#    x 3.583700 0.000000 0.024870 
#    y 0.000000 3.576230 0.000000 
#    z 0.024870 0.000000 4.085090 
# 
# 
# High freq. dielectric constant tensor:
#      x y z
#    x 1.788110 0.000000 -0.001370 
#    y 0.000000 1.782180 0.000000 
#    z -0.001370 0.000000 1.805360 
# 
# From -- ./inp_files/243834.got.cif
#   From: 2010.06.25/outbox.cif.g09.slc.cpg/sg12_122_cif.got.tgz:243834.got - 2010.06.28 00:19:55.
