data_PCOD8099193
_publ_section_title
;
Structure prediction by ZEFSAII (Michael W. Deem and Ramdas Pophale) SiO2 
 PCOD8099193
Probable space group: C 2/M
;
_chemical_formula_sum "Si O2"
_cell_formula_units_Z 40
_cell_length_a 17.559996
_cell_length_b 12.821410
_cell_length_c 17.109092
_cell_angle_alpha 90.000000
_cell_angle_beta 25.104827
_cell_angle_gamma 90.000000
_cell_volume 1634.313372
_symmetry_space_group_name_H-M "C 2/M"
_symmetry_group_IT_number 12
_symmetry_cell_setting 'monoclinic'
loop_
_space_group_symop_operation_xyz
x,y,z
-x,y,-z
-x,-y,-z
x,-y,z
1/2+x,1/2+y,z
1/2-x,1/2+y,-z
1/2-x,1/2-y,-z
1/2+x,1/2-y,z
loop_
_atom_site_type_symbol
_atom_site_label
_atom_site_fract_x
_atom_site_fract_y
_atom_site_fract_z
Si Si1 0.433638 0.742557 0.426787
Si Si2 0.609068 0.619571 0.688621
Si Si3 0.104078 0.622141 0.017888
Si Si4 0.789837 0.621008 0.910482
Si Si5 0.276142 0.622268 0.702112
O O1 0.413451 0.655755 0.379303
O O2 0.260324 0.816721 0.592571
O O3 0.606829 0.815471 0.252352
O O4 0.440434 0.680558 0.503581
O O5 0.668773 0.500000 0.630262
O O6 0.421643 0.633147 0.909318
O O7 0.137105 0.500000 0.990870
O O8 0.155334 0.670035 0.054908
O O9 0.899964 0.646634 0.186211
O O10 0.240637 0.664775 0.823618
O O11 0.848078 0.500000 0.853339
O O12 0.316898 0.500000 0.665084
#
# Coordination Sequence:
#
# PCOD8099193 Si02
#       5
#     8   8   8   8   8
#     4  11  20  32  54  81 109 140 180 221 263 315
#     4  10  21  34  50  77 111 142 175 219 268 317
#     4   8  15  30  51  75 108 145 174 210 269 330
#     4  10  20  35  55  80 110 141 175 218 268 320
#     4   9  17  30  51  80 112 144 176 214 264 322
#
# _framework density 24.475110999999998
#
# number of rings (size 3 to 8) (size 9 to 14) (size 15 to 20)
#    0.000    2.400    0.000    5.400    0.000    1.600 
#    0.000    1.000    0.000    9.600    0.000   35.000 
#    0.000   43.200    0.000    0.000    0.000    0.000 
#
# Total GULP energy -248040.282951 kJ/mol
# GULP energy per Si atom -12402.014148 kJ/mol
# Density = 2.441940 g / cm^3
# Si number density = 24.475111 Si / 1000 Ang^3
#
#
#
# Elastic Constant Matrix: (Units=GPa)
#
#
# Indices 1 2 3 4 5 6 
#
# 1 79.4815 37.0895 51.8955 -0.0076 14.2012 0.0098
# 2 37.0895 123.9377 67.2697 -0.0043 24.7050 0.0068
# 3 51.8955 67.2697 186.2227 -0.0042 15.7784 0.0056
# 4 -0.0076 -0.0043 -0.0042 48.3786 0.0047 11.3524
# 5 14.2012 24.7050 15.7784 0.0047 21.0694 -0.0066
# 6 0.0098 0.0068 0.0056 11.3524 -0.0066 19.9079
#
#
#
# Elastic Compliance Matrix: (Units=1/GPa)
#
#
# Indices 1 2 3 4 5 6 
#
# 1 0.016899 -0.001849 -0.003481 0.000006 -0.006615 -0.000012
# 2 -0.001849 0.012498 -0.003057 0.000004 -0.011118 -0.000008
# 3 -0.003481 -0.003057 0.007412 0.000000 0.000380 0.000001
# 4 0.000006 0.000004 0.000000 0.023864 -0.000017 -0.013608
# 5 -0.006615 -0.011118 0.000380 -0.000017 0.064673 0.000038
# 6 -0.000012 -0.000008 0.000001 -0.013608 0.000038 0.057991
#
#
# Mechanical properties :
#
#
# Convention : Reuss Voigt Hill
#
# Bulk Modulus (GPa) = 49.91452 78.01681 63.96566
# Shear Modulus (GPa) = 24.17924 33.43034 28.80479
#
# Velocity S-wave (km/s) = 3.14652 3.69981 3.43432
# Velocity P-wave (km/s) = 5.79991 7.08496 6.47440
#
# Compressibility (1/GPa) = 0.02003425
#
# Stress axis : x y z
#
# Youngs Moduli (GPa) = 59.17439 80.01585 134.91503
#
# Poissons Ratio (x) = 0.14797 0.46962
# Poissons Ratio (y) = 0.10943 0.41245
# Poissons Ratio (z) = 0.20598 0.24462
#
# Static dielectric constant tensor:
#      x y z
#    x 4.355130 -0.000010 -0.080690 
#    y -0.000010 4.455990 0.000020 
#    z -0.080690 0.000020 4.789440 
# 
# 
# High freq. dielectric constant tensor:
#      x y z
#    x 1.960300 0.000000 -0.021630 
#    y 0.000000 1.977590 0.000000 
#    z -0.021630 0.000000 1.998730 
# 
# From -- ./inp_files/284403.got.cif
#   From: 2010.06.25/outbox.cif.g09.slc.cpg/sg12_143_cif.got.tgz:284403.got - 2010.06.28 00:19:55.
