data_PCOD8099145
_publ_section_title
;
Structure prediction by ZEFSAII (Michael W. Deem and Ramdas Pophale) SiO2 
 PCOD8099145
Probable space group: C 2/M
;
_chemical_formula_sum "Si O2"
_cell_formula_units_Z 48
_cell_length_a 21.422318
_cell_length_b 13.666680
_cell_length_c 12.136895
_cell_angle_alpha 90.000000
_cell_angle_beta 133.699448
_cell_angle_gamma 90.000000
_cell_volume 2568.973608
_symmetry_space_group_name_H-M "C 2/M"
_symmetry_group_IT_number 12
_symmetry_cell_setting 'monoclinic'
loop_
_space_group_symop_operation_xyz
x,y,z
-x,y,-z
-x,-y,-z
x,-y,z
1/2+x,1/2+y,z
1/2-x,1/2+y,-z
1/2-x,1/2-y,-z
1/2+x,1/2-y,z
loop_
_atom_site_type_symbol
_atom_site_label
_atom_site_fract_x
_atom_site_fract_y
_atom_site_fract_z
Si Si1 0.772622 0.613177 0.615287
Si Si2 0.440611 0.219186 0.226879
Si Si3 0.687665 0.610877 0.915390
Si Si4 0.334768 0.113558 0.930655
Si Si5 0.669227 0.112149 0.733301
Si Si6 0.642918 0.217242 0.477461
O O1 0.744358 0.500000 0.574634
O O2 0.826552 0.634680 0.791733
O O3 0.686357 0.678158 0.505722
O O4 0.834944 0.639445 0.590457
O O5 0.398082 0.325351 0.187884
O O6 0.409542 0.147911 0.286514
O O7 0.541662 0.234290 0.358653
O O8 0.415823 0.173240 0.078018
O O9 0.657686 0.500000 0.859966
O O10 0.747824 0.647631 0.888012
O O11 0.740202 0.622863 0.092758
O O12 0.350926 0.000000 0.976514
O O13 0.678148 0.175794 0.634855
O O14 0.650511 0.000000 0.679027
#
# Coordination Sequence:
#
# PCOD8099145 Si02
#       6
#     8   8   8   8   8   8
#     4  10  22  40  56  70 100 143 179 212 252 306
#     4  11  20  32  54  82 109 131 166 219 262 302
#     4   9  18  33  55  79 104 138 172 207 254 307
#     4   9  18  34  55  77 102 136 174 207 250 306
#     4  10  20  35  55  79 109 140 169 206 257 312
#     4  11  23  35  53  80 104 135 174 213 261 308
#
# _framework density 18.684505000000001
#
# number of rings (size 3 to 8) (size 9 to 14) (size 15 to 20)
#    0.000    2.000    0.000    6.500    0.000    4.667 
#    0.000    1.667    0.000    5.000    0.000    9.333 
#    0.000    0.000    0.000    0.000    0.000    0.000 
#
# Total GULP energy -297698.321588 kJ/mol
# GULP energy per Si atom -12404.096733 kJ/mol
# Density = 1.864198 g / cm^3
# Si number density = 18.684505 Si / 1000 Ang^3
#
#
#
# Elastic Constant Matrix: (Units=GPa)
#
#
# Indices 1 2 3 4 5 6 
#
# 1 78.9573 30.8081 42.2333 0.0000 -9.0352 0.0000
# 2 30.8081 93.3019 37.9255 0.0000 2.1560 0.0000
# 3 42.2333 37.9255 60.2080 0.0000 -13.0049 0.0000
# 4 0.0000 0.0000 0.0000 22.0536 0.0000 -7.2402
# 5 -9.0352 2.1560 -13.0049 0.0000 33.8181 0.0000
# 6 0.0000 0.0000 0.0000 -7.2402 0.0000 22.0728
#
#
#
# Elastic Compliance Matrix: (Units=1/GPa)
#
#
# Indices 1 2 3 4 5 6 
#
# 1 0.020380 -0.001290 -0.013402 0.000000 0.000373 0.000000
# 2 -0.001290 0.015243 -0.009794 0.000000 -0.005083 0.000000
# 3 -0.013402 -0.009794 0.034398 0.000000 0.010272 0.000000
# 4 0.000000 0.000000 0.000000 0.050816 0.000000 0.016668
# 5 0.000373 -0.005083 0.010272 0.000000 0.033944 0.000000
# 6 0.000000 0.000000 0.000000 0.016668 0.000000 0.050772
#
#
# Mechanical properties :
#
#
# Convention : Reuss Voigt Hill
#
# Bulk Modulus (GPa) = 47.51201 50.48899 49.00050
# Shear Modulus (GPa) = 19.11736 23.68892 21.40314
#
# Velocity S-wave (km/s) = 3.20217 3.56453 3.38820
# Velocity P-wave (km/s) = 6.25744 6.63489 6.44893
#
# Compressibility (1/GPa) = 0.02104731
#
# Stress axis : x y z
#
# Youngs Moduli (GPa) = 49.06784 65.60569 29.07116
#
# Poissons Ratio (x) = 0.08465 0.38962
# Poissons Ratio (y) = 0.06331 0.28473
# Poissons Ratio (z) = 0.65762 0.64256
#
# Static dielectric constant tensor:
#      x y z
#    x 3.309740 0.000000 -0.257940 
#    y 0.000000 3.572390 0.000000 
#    z -0.257940 0.000000 3.336240 
# 
# 
# High freq. dielectric constant tensor:
#      x y z
#    x 1.710330 0.000000 -0.018350 
#    y 0.000000 1.739970 0.000000 
#    z -0.018350 0.000000 1.720420 
# 
# From -- ./inp_files/143868.got.cif
#   From: 2010.06.25/outbox.cif.g09.slc.cpg/sg12_72_cif.got.tgz:143868.got - 2010.06.28 00:19:55.
