data_PCOD8099978
_publ_section_title
;
Structure prediction by ZEFSAII (Michael W. Deem and Ramdas Pophale) SiO2 
 PCOD8099978
Probable space group: C 2/M
;
_chemical_formula_sum "Si O2"
_cell_formula_units_Z 56
_cell_length_a 25.243464
_cell_length_b 8.949014
_cell_length_c 13.645941
_cell_angle_alpha 90.000000
_cell_angle_beta 67.637615
_cell_angle_gamma 90.000000
_cell_volume 2850.844792
_symmetry_space_group_name_H-M "C 2/M"
_symmetry_group_IT_number 12
_symmetry_cell_setting 'monoclinic'
loop_
_space_group_symop_operation_xyz
x,y,z
-x,y,-z
-x,-y,-z
x,-y,z
1/2+x,1/2+y,z
1/2-x,1/2+y,-z
1/2-x,1/2-y,-z
1/2+x,1/2-y,z
loop_
_atom_site_type_symbol
_atom_site_label
_atom_site_fract_x
_atom_site_fract_y
_atom_site_fract_z
Si Si1 0.169556 0.324041 0.805091
Si Si2 0.958179 0.323791 0.113799
Si Si3 0.807423 0.323692 0.425971
Si Si4 0.735726 0.677340 0.112689
Si Si5 0.885143 0.171908 0.712145
Si Si6 0.588727 0.176269 0.509463
Si Si7 0.505608 0.672330 0.710582
O O1 0.177576 0.500000 0.796268
O O2 0.104965 0.281174 0.880850
O O3 0.179666 0.258148 0.690245
O O4 0.216206 0.257885 0.846981
O O5 0.964434 0.500000 0.126664
O O6 0.971727 0.248572 0.207300
O O7 0.000000 0.264073 0.000000
O O8 0.800029 0.500000 0.430276
O O9 0.750000 0.250000 0.500000
O O10 0.858104 0.274188 0.461478
O O11 0.739024 0.500000 0.099448
O O12 0.673155 0.727688 0.194862
O O13 0.750000 0.750000 0.000000
O O14 0.898510 0.271295 0.608764
O O15 0.936904 0.190943 0.752937
O O16 0.878828 0.000000 0.682909
O O17 0.532401 0.253022 0.594410
O O18 0.578563 0.000000 0.516934
O O19 0.523622 0.500000 0.699819
#
# Coordination Sequence:
#
# PCOD8099978 Si02
#       7
#     8   8   8   8   8   8   8
#     4   9  18  37  59  82 114 150 186 234 294 343
#     4  10  21  38  62  89 117 151 195 247 297 348
#     4  10  20  35  57  84 117 151 190 236 286 348
#     4  10  22  40  62  85 115 155 197 243 292 349
#     4  10  23  41  59  84 122 162 198 240 298 358
#     4  11  22  38  61  90 120 151 198 250 293 348
#     4  11  23  39  60  87 122 162 197 238 298 360
#
# _framework density 19.643298999999999
#
# number of rings (size 3 to 8) (size 9 to 14) (size 15 to 20)
#    0.000    1.857    1.429    2.143    2.000    6.000 
#    0.000    1.429    0.000    0.000    0.000    0.000 
#    0.000    0.000    0.000    0.000    0.000    0.000 
#
# Total GULP energy -347247.382481 kJ/mol
# GULP energy per Si atom -12401.692231 kJ/mol
# Density = 1.959859 g / cm^3
# Si number density = 19.643299 Si / 1000 Ang^3
#
#
#
# Elastic Constant Matrix: (Units=GPa)
#
#
# Indices 1 2 3 4 5 6 
#
# 1 132.9491 30.9885 50.4449 0.0000 -13.4143 0.0000
# 2 30.9885 47.6593 31.6982 0.0000 -4.0505 0.0000
# 3 50.4449 31.6982 128.1482 0.0000 -16.7431 0.0000
# 4 0.0000 0.0000 0.0000 34.1257 0.0000 1.0694
# 5 -13.4143 -4.0505 -16.7431 0.0000 39.4831 0.0000
# 6 0.0000 0.0000 0.0000 1.0694 0.0000 25.7217
#
#
#
# Elastic Compliance Matrix: (Units=1/GPa)
#
#
# Indices 1 2 3 4 5 6 
#
# 1 0.009688 -0.004508 -0.002466 0.000000 0.001783 0.000000
# 2 -0.004508 0.027211 -0.005073 0.000000 -0.000891 0.000000
# 3 -0.002466 -0.005073 0.010429 0.000000 0.003065 0.000000
# 4 0.000000 0.000000 0.000000 0.029342 0.000000 -0.001220
# 5 0.001783 -0.000891 0.003065 0.000000 0.027141 0.000000
# 6 0.000000 0.000000 0.000000 -0.001220 0.000000 0.038928
#
#
# Mechanical properties :
#
#
# Convention : Reuss Voigt Hill
#
# Bulk Modulus (GPa) = 43.03632 59.44665 51.24148
# Shear Modulus (GPa) = 28.64057 32.90776 30.77417
#
# Velocity S-wave (km/s) = 3.82256 4.09744 3.96239
# Velocity P-wave (km/s) = 6.43732 7.26045 6.86124
#
# Compressibility (1/GPa) = 0.02323619
#
# Stress axis : x y z
#
# Youngs Moduli (GPa) = 103.22262 36.74925 95.88459
#
# Poissons Ratio (x) = 0.16565 0.23641
# Poissons Ratio (y) = 0.46530 0.48641
# Poissons Ratio (z) = 0.25450 0.18643
#
# Static dielectric constant tensor:
#      x y z
#    x 3.884910 0.000000 -0.133290 
#    y 0.000000 3.366350 0.000000 
#    z -0.133290 0.000000 3.653500 
# 
# 
# High freq. dielectric constant tensor:
#      x y z
#    x 1.784680 0.000000 -0.005120 
#    y 0.000000 1.745120 0.000000 
#    z -0.005120 0.000000 1.772950 
# 
# From -- ./inp_files/238230.got.cif
#   From: 2010.06.25/outbox.cif.g09.slc.cpg/sg12_120_cif.got.tgz:238230.got - 2010.06.28 00:19:55.
