data_PCOD8099873
_publ_section_title
;
Structure prediction by ZEFSAII (Michael W. Deem and Ramdas Pophale) SiO2 
 PCOD8099873
Probable space group: C 2/M
;
_chemical_formula_sum "Si O2"
_cell_formula_units_Z 64
_cell_length_a 17.424941
_cell_length_b 12.722355
_cell_length_c 19.997148
_cell_angle_alpha 90.000000
_cell_angle_beta 129.370335
_cell_angle_gamma 90.000000
_cell_volume 3427.056549
_symmetry_space_group_name_H-M "C 2/M"
_symmetry_group_IT_number 12
_symmetry_cell_setting 'monoclinic'
loop_
_space_group_symop_operation_xyz
x,y,z
-x,y,-z
-x,-y,-z
x,-y,z
1/2+x,1/2+y,z
1/2-x,1/2+y,-z
1/2-x,1/2-y,-z
1/2+x,1/2-y,z
loop_
_atom_site_type_symbol
_atom_site_label
_atom_site_fract_x
_atom_site_fract_y
_atom_site_fract_z
Si Si1 0.092658 0.619412 0.912411
Si Si2 0.683426 0.123092 0.097850
Si Si3 0.561826 0.620687 0.328912
Si Si4 0.624966 0.254109 0.809861
Si Si5 0.363284 0.119949 0.783170
Si Si6 0.112227 0.622658 0.671433
Si Si7 0.749893 0.710428 0.362218
Si Si8 0.947482 0.222396 0.536029
O O1 0.132421 0.500000 0.929962
O O2 0.149983 0.689934 0.890591
O O3 0.978249 0.624548 0.828648
O O4 0.114671 0.664859 0.998899
O O5 0.797818 0.150855 0.150454
O O6 0.647941 0.170239 0.149020
O O7 0.669636 0.000000 0.094909
O O8 0.535563 0.500000 0.300952
O O9 0.483974 0.694756 0.247530
O O10 0.670848 0.643736 0.360561
O O11 0.553108 0.640780 0.403435
O O12 0.640454 0.175500 0.756895
O O13 0.299940 0.185301 0.695274
O O14 0.323746 0.000000 0.758015
O O15 0.093133 0.500000 0.672044
O O16 0.203133 0.639597 0.670458
O O17 0.010669 0.673032 0.587695
O O18 0.834617 0.745611 0.460400
O O19 0.000000 0.168854 0.500000
#
# Coordination Sequence:
#
# PCOD8099873 Si02
#       8
#     8   8   8   8   8   8   8   8
#     4  10  20  35  57  83 110 143 188 235 278 324
#     4  10  20  35  57  83 110 146 186 229 281 330
#     4  11  23  37  56  81 113 149 180 220 274 332
#     4  11  20  36  54  83 116 147 181 228 274 332
#     4  10  20  36  58  83 111 143 186 232 277 325
#     4  10  21  37  59  82 110 147 187 228 270 321
#     4  11  20  39  57  82 112 144 185 226 272 329
#     4   9  22  39  58  83 110 140 184 229 272 322
#
# _framework density 18.674918999999999
#
# number of rings (size 3 to 8) (size 9 to 14) (size 15 to 20)
#    0.000    1.750    2.500    2.250    0.000    5.000 
#    0.000    0.000    0.000    0.000    0.000    1.750 
#    0.000    0.000    0.000    0.000    0.000    0.000 
#
# Total GULP energy -396813.848826 kJ/mol
# GULP energy per Si atom -12400.432776 kJ/mol
# Density = 1.863241 g / cm^3
# Si number density = 18.674919 Si / 1000 Ang^3
#
#
#
# Elastic Constant Matrix: (Units=GPa)
#
#
# Indices 1 2 3 4 5 6 
#
# 1 81.9814 28.1554 15.9330 0.0000 -5.9677 0.0000
# 2 28.1554 69.6442 32.5935 0.0000 -8.9928 0.0000
# 3 15.9330 32.5935 72.5321 0.0000 -2.5921 0.0000
# 4 0.0000 0.0000 0.0000 22.3324 0.0000 -1.2123
# 5 -5.9677 -8.9928 -2.5921 0.0000 31.8277 0.0000
# 6 0.0000 0.0000 0.0000 -1.2123 0.0000 21.3842
#
#
#
# Elastic Compliance Matrix: (Units=1/GPa)
#
#
# Indices 1 2 3 4 5 6 
#
# 1 0.014229 -0.005273 -0.000716 0.000000 0.001120 0.000000
# 2 -0.005273 0.020798 -0.008036 0.000000 0.004233 0.000000
# 3 -0.000716 -0.008036 0.017521 0.000000 -0.000978 0.000000
# 4 0.000000 0.000000 0.000000 0.044916 0.000000 0.002546
# 5 0.001120 0.004233 -0.000978 0.000000 0.032746 0.000000
# 6 0.000000 0.000000 0.000000 0.002546 0.000000 0.046908
#
#
# Mechanical properties :
#
#
# Convention : Reuss Voigt Hill
#
# Bulk Modulus (GPa) = 40.82102 41.94684 41.38393
# Shear Modulus (GPa) = 23.43736 24.94057 24.18897
#
# Velocity S-wave (km/s) = 3.54647 3.65843 3.60288
# Velocity P-wave (km/s) = 6.21901 6.35262 6.28617
#
# Compressibility (1/GPa) = 0.02449718
#
# Stress axis : x y z
#
# Youngs Moduli (GPa) = 70.27661 48.08155 57.07536
#
# Poissons Ratio (x) = 0.25352 0.04088
# Poissons Ratio (y) = 0.37055 0.45868
# Poissons Ratio (z) = 0.05034 0.38640
#
# Static dielectric constant tensor:
#      x y z
#    x 3.522280 0.000000 -0.125370 
#    y 0.000000 3.221480 0.000000 
#    z -0.125370 0.000000 3.526170 
# 
# 
# High freq. dielectric constant tensor:
#      x y z
#    x 1.732880 0.000000 -0.005880 
#    y 0.000000 1.707270 0.000000 
#    z -0.005880 0.000000 1.732690 
# 
# From -- ./inp_files/315744.got.cif
#   From: 2010.06.25/outbox.cif.g09.slc.cpg/sg12_158_cif.got.tgz:315744.got - 2010.06.28 00:19:55.
