data_PCOD8099802
_publ_section_title
;
Structure prediction by ZEFSAII (Michael W. Deem and Ramdas Pophale) SiO2 
 PCOD8099802
Probable space group: C 2/M
;
_chemical_formula_sum "Si O2"
_cell_formula_units_Z 40
_cell_length_a 17.943484
_cell_length_b 9.007601
_cell_length_c 13.606966
_cell_angle_alpha 90.000000
_cell_angle_beta 71.062783
_cell_angle_gamma 90.000000
_cell_volume 2080.227564
_symmetry_space_group_name_H-M "C 2/M"
_symmetry_group_IT_number 12
_symmetry_cell_setting 'monoclinic'
loop_
_space_group_symop_operation_xyz
x,y,z
-x,y,-z
-x,-y,-z
x,-y,z
1/2+x,1/2+y,z
1/2-x,1/2+y,-z
1/2-x,1/2-y,-z
1/2+x,1/2-y,z
loop_
_atom_site_type_symbol
_atom_site_label
_atom_site_fract_x
_atom_site_fract_y
_atom_site_fract_z
Si Si1 0.083568 0.327306 0.004016
Si Si2 0.783403 0.327521 0.211313
Si Si3 0.016393 0.176424 0.601602
Si Si4 0.812584 0.175839 0.402485
Si Si5 0.116251 0.174906 0.194126
O O1 0.078989 0.500000 0.031526
O O2 0.148610 0.292326 0.894998
O O3 0.106427 0.242645 0.091848
O O4 0.000000 0.268535 0.000000
O O5 0.782798 0.500000 0.243101
O O6 0.798005 0.225491 0.298249
O O7 0.700828 0.279399 0.199877
O O8 0.101303 0.231330 0.601504
O O9 0.000000 0.241265 0.500000
O O10 0.950403 0.238907 0.704189
O O11 0.012002 0.000000 0.600703
O O12 0.750000 0.250000 0.500000
O O13 0.804885 0.000000 0.414183
O O14 0.108371 0.000000 0.186776
#
# Coordination Sequence:
#
# PCOD8099802 Si02
#       5
#     8   8   8   8   8
#     4  10  21  36  54  79 113 147 176 217 273 323
#     4  10  21  37  56  79 109 144 180 220 267 317
#     4   9  18  34  55  78 105 138 177 220 264 311
#     4  11  22  36  57  82 108 140 177 220 269 320
#     4  10  20  35  57  81 105 140 185 227 264 310
#
# _framework density 19.228664999999999
#
# number of rings (size 3 to 8) (size 9 to 14) (size 15 to 20)
#    0.000    2.000    0.000    3.600    0.000    5.200 
#    0.000    1.000    0.000    4.200    0.000    0.000 
#    0.000    0.000    0.000    0.000    0.000    0.000 
#
# Total GULP energy -248080.794426 kJ/mol
# GULP energy per Si atom -12404.039721 kJ/mol
# Density = 1.918490 g / cm^3
# Si number density = 19.228665 Si / 1000 Ang^3
#
#
#
# Elastic Constant Matrix: (Units=GPa)
#
#
# Indices 1 2 3 4 5 6 
#
# 1 201.2181 50.0996 94.9434 0.0000 -2.6084 0.0000
# 2 50.0996 41.5182 43.9996 0.0000 6.9319 0.0000
# 3 94.9434 43.9996 134.2693 0.0000 11.0620 0.0000
# 4 0.0000 0.0000 0.0000 35.1428 0.0000 8.6245
# 5 -2.6084 6.9319 11.0620 0.0000 42.6422 0.0000
# 6 0.0000 0.0000 0.0000 8.6245 0.0000 -9.5740
#
#
#
# Elastic Compliance Matrix: (Units=1/GPa)
#
#
# Indices 1 2 3 4 5 6 
#
# 1 0.008558 -0.006318 -0.004199 0.000000 0.002640 0.000000
# 2 -0.006318 0.041926 -0.008867 0.000000 -0.004902 0.000000
# 3 -0.004199 -0.008867 0.013514 0.000000 -0.002321 0.000000
# 4 0.000000 0.000000 0.000000 0.023304 0.000000 0.020992
# 5 0.002640 -0.004902 -0.002321 0.000000 0.025011 0.000000
# 6 0.000000 0.000000 0.000000 0.020992 0.000000 -0.085539
#
#
# Mechanical properties :
#
#
# Convention : Reuss Voigt Hill
#
# Bulk Modulus (GPa) = 39.63684 83.89897 61.76790
# Shear Modulus (GPa) = 67.61208 26.17306 46.89257
#
# Velocity S-wave (km/s) = 5.93620 3.69338 4.94366
# Velocity P-wave (km/s) = 8.22452 7.86861 8.04853
#
# Compressibility (1/GPa) = 0.02522905
#
# Stress axis : x y z
#
# Youngs Moduli (GPa) = 116.84763 23.85171 73.99940
#
# Poissons Ratio (x) = 0.15070 0.31069
# Poissons Ratio (y) = 0.73827 0.65618
# Poissons Ratio (z) = 0.49059 0.21150
#
# Static dielectric constant tensor:
#      x y z
#    x 3.753570 0.000000 0.022980 
#    y 0.000000 3.267000 0.000000 
#    z 0.022980 0.000000 3.464500 
# 
# 
# High freq. dielectric constant tensor:
#      x y z
#    x 1.771130 0.000000 -0.003240 
#    y 0.000000 1.721260 0.000000 
#    z -0.003240 0.000000 1.766300 
# 
# From -- ./inp_files/151689.got.cif
#   From: 2010.06.25/outbox.cif.g09.slc.cpg/sg12_76_cif.got.tgz:151689.got - 2010.06.28 00:19:55.
