data_PCOD8099076
_publ_section_title
;
Structure prediction by ZEFSAII (Michael W. Deem and Ramdas Pophale) SiO2 
 PCOD8099076
Probable space group: C 2/M
;
_chemical_formula_sum "Si O2"
_cell_formula_units_Z 48
_cell_length_a 18.306762
_cell_length_b 8.759286
_cell_length_c 19.469367
_cell_angle_alpha 90.000000
_cell_angle_beta 122.322338
_cell_angle_gamma 90.000000
_cell_volume 2638.251830
_symmetry_space_group_name_H-M "C 2/M"
_symmetry_group_IT_number 12
_symmetry_cell_setting 'monoclinic'
loop_
_space_group_symop_operation_xyz
x,y,z
-x,y,-z
-x,-y,-z
x,-y,z
1/2+x,1/2+y,z
1/2-x,1/2+y,-z
1/2-x,1/2-y,-z
1/2+x,1/2-y,z
loop_
_atom_site_type_symbol
_atom_site_label
_atom_site_fract_x
_atom_site_fract_y
_atom_site_fract_z
Si Si1 0.008098 0.832127 0.085296
Si Si2 0.819955 0.321246 0.834718
Si Si3 0.680569 0.679122 0.515483
Si Si4 0.181546 0.319229 0.664923
Si Si5 0.318875 0.681007 0.983657
Si Si6 0.993131 0.331685 0.577835
O O1 0.082817 0.713430 0.143857
O O2 0.032551 0.000000 0.126793
O O3 0.913276 0.780790 0.063998
O O4 0.000000 0.842986 0.000000
O O5 0.802606 0.500000 0.822825
O O6 0.753595 0.234466 0.753339
O O7 0.806728 0.261265 0.904637
O O8 0.691953 0.500000 0.521700
O O9 0.750000 0.750000 0.500000
O O10 0.697402 0.741322 0.599852
O O11 0.584166 0.719222 0.439307
O O12 0.185731 0.500000 0.655863
O O13 0.087666 0.272965 0.650061
O O14 0.307024 0.500000 0.968330
O O15 0.250000 0.750000 0.000000
O O16 0.972781 0.500000 0.597983
O O17 0.000000 0.342588 0.500000
#
# Coordination Sequence:
#
# PCOD8099076 Si02
#       6
#     8   8   8   8   8   8
#     4   8  16  32  52  73 100 136 174 209 251 305
#     4  11  21  33  53  80 107 136 173 214 256 306
#     4  11  21  34  54  79 107 137 172 213 256 305
#     4  10  20  36  56  77 105 138 172 213 258 305
#     4  10  20  35  55  78 105 137 173 214 258 306
#     4   8  16  32  53  75 100 134 173 209 251 305
#
# _framework density 18.193864999999999
#
# number of rings (size 3 to 8) (size 9 to 14) (size 15 to 20)
#    0.000    2.333    0.000    6.000    0.000    7.333 
#    0.000    1.667    0.000    8.000    0.000    0.000 
#    0.000    0.000    0.000    0.000    0.000    0.000 
#
# Total GULP energy -297477.487317 kJ/mol
# GULP energy per Si atom -12394.895305 kJ/mol
# Density = 1.815245 g / cm^3
# Si number density = 18.193865 Si / 1000 Ang^3
#
#
#
# Elastic Constant Matrix: (Units=GPa)
#
#
# Indices 1 2 3 4 5 6 
#
# 1 141.2505 56.2635 45.7239 0.0000 20.4321 0.0000
# 2 56.2635 106.3433 28.6481 0.0000 7.8206 0.0000
# 3 45.7239 28.6481 73.5686 0.0000 22.3910 0.0000
# 4 0.0000 0.0000 0.0000 27.6280 0.0000 1.4956
# 5 20.4321 7.8206 22.3910 0.0000 25.2905 0.0000
# 6 0.0000 0.0000 0.0000 1.4956 0.0000 30.6954
#
#
#
# Elastic Compliance Matrix: (Units=1/GPa)
#
#
# Indices 1 2 3 4 5 6 
#
# 1 0.010556 -0.004302 -0.003689 0.000000 -0.003932 0.000000
# 2 -0.004302 0.012264 -0.002745 0.000000 0.002114 0.000000
# 3 -0.003689 -0.002745 0.021613 0.000000 -0.015306 0.000000
# 4 0.000000 0.000000 0.000000 0.036291 0.000000 -0.001768
# 5 -0.003932 0.002114 -0.015306 0.000000 0.055615 0.000000
# 6 0.000000 0.000000 0.000000 -0.001768 0.000000 0.032664
#
#
# Mechanical properties :
#
#
# Convention : Reuss Voigt Hill
#
# Bulk Modulus (GPa) = 43.55271 64.71483 54.13377
# Shear Modulus (GPa) = 25.23627 29.42459 27.33043
#
# Velocity S-wave (km/s) = 3.72839 4.02591 3.88000
# Velocity P-wave (km/s) = 6.52109 7.56686 7.06335
#
# Compressibility (1/GPa) = 0.02296068
#
# Stress axis : x y z
#
# Youngs Moduli (GPa) = 94.73206 81.54155 46.26907
#
# Poissons Ratio (x) = 0.35080 0.17068
# Poissons Ratio (y) = 0.40754 0.12701
# Poissons Ratio (z) = 0.34944 0.22384
#
# Static dielectric constant tensor:
#      x y z
#    x 4.631230 0.000000 1.395640 
#    y 0.000000 3.328020 0.000000 
#    z 1.395640 0.000000 4.252390 
# 
# 
# High freq. dielectric constant tensor:
#      x y z
#    x 1.708430 0.000000 0.029350 
#    y 0.000000 1.712870 0.000000 
#    z 0.029350 0.000000 1.680550 
# 
# From -- ./inp_files/313378.got.cif
#   From: 2010.06.25/outbox.cif.g09.slc.cpg/sg12_157_cif.got.tgz:313378.got - 2010.06.28 00:19:55.
