data_PCOD8099942
_publ_section_title
;
Structure prediction by ZEFSAII (Michael W. Deem and Ramdas Pophale) SiO2 
 PCOD8099942
Probable space group: C 2/M
;
_chemical_formula_sum "Si O2"
_cell_formula_units_Z 56
_cell_length_a 17.092122
_cell_length_b 31.635854
_cell_length_c 9.932596
_cell_angle_alpha 90.000000
_cell_angle_beta 34.232227
_cell_angle_gamma 90.000000
_cell_volume 3021.330847
_symmetry_space_group_name_H-M "C 2/M"
_symmetry_group_IT_number 12
_symmetry_cell_setting 'monoclinic'
loop_
_space_group_symop_operation_xyz
x,y,z
-x,y,-z
-x,-y,-z
x,-y,z
1/2+x,1/2+y,z
1/2-x,1/2+y,-z
1/2-x,1/2-y,-z
1/2+x,1/2-y,z
loop_
_atom_site_type_symbol
_atom_site_label
_atom_site_fract_x
_atom_site_fract_y
_atom_site_fract_z
Si Si1 0.712915 0.546219 0.271454
Si Si2 0.910733 0.162175 0.869182
Si Si3 0.510053 0.910913 0.136707
Si Si4 0.000000 0.111162 0.500000
Si Si5 0.588406 0.843140 0.245448
Si Si6 0.218711 0.048271 0.573160
Si Si7 0.500000 0.611285 0.000000
Si Si8 0.582992 0.250720 0.243448
O O1 0.673031 0.500000 0.271944
O O2 0.634924 0.581526 0.296288
O O3 0.670730 0.549729 0.487254
O O4 0.876783 0.552011 0.022002
O O5 0.007963 0.139588 0.620941
O O6 0.945256 0.142302 0.962719
O O7 0.956240 0.211800 0.805395
O O8 0.750104 0.156386 0.056024
O O9 0.555419 0.873355 0.169079
O O10 0.372020 0.934155 0.380121
O O11 0.500000 0.891798 0.000000
O O12 0.500000 0.857839 0.500000
O O13 0.536945 0.796644 0.268644
O O14 0.124310 0.080318 0.788461
O O15 0.207853 0.000000 0.643356
O O16 0.500000 0.261782 0.500000
O O17 0.750000 0.250000 0.000000
#
# Coordination Sequence:
#
# PCOD8099942 Si02
#       8
#     8   8   8   4   8   8   4   8
#     4  10  20  35  57  84 111 146 193 242 284 335
#     4  11  22  37  61  85 116 152 188 235 291 343
#     4  10  20  36  59  84 111 148 195 239 283 338
#     4  12  19  36  60  84 112 148 190 242 287 340
#     4  10  20  38  61  82 116 151 189 228 287 349
#     4  10  21  37  56  80 115 154 188 233 292 346
#     4  12  23  38  58  86 118 150 192 234 289 350
#     4   9  19  36  61  87 114 152 192 233 287 354
#
# _framework density 18.534877999999999
#
# number of rings (size 3 to 8) (size 9 to 14) (size 15 to 20)
#    0.000    1.714    3.571    1.714    0.000    1.714 
#    1.286    0.000    0.000    5.143    0.000    0.000 
#    0.000    0.000    0.000    0.000    0.000    0.000 
#
# Total GULP energy -346994.979555 kJ/mol
# GULP energy per Si atom -12392.677841 kJ/mol
# Density = 1.849269 g / cm^3
# Si number density = 18.534878 Si / 1000 Ang^3
#
#
#
# Elastic Constant Matrix: (Units=GPa)
#
#
# Indices 1 2 3 4 5 6 
#
# 1 82.4325 61.4423 27.9540 0.0000 5.1379 0.0000
# 2 61.4423 145.0703 48.4789 0.0000 19.4121 0.0000
# 3 27.9540 48.4789 100.5713 0.0000 -2.6864 0.0000
# 4 0.0000 0.0000 0.0000 35.0255 0.0000 -5.7743
# 5 5.1379 19.4121 -2.6864 0.0000 26.6693 0.0000
# 6 0.0000 0.0000 0.0000 -5.7743 0.0000 26.4071
#
#
#
# Elastic Compliance Matrix: (Units=1/GPa)
#
#
# Indices 1 2 3 4 5 6 
#
# 1 0.018008 -0.007400 -0.001391 0.000000 0.001777 0.000000
# 2 -0.007400 0.012512 -0.004191 0.000000 -0.008104 0.000000
# 3 -0.001391 -0.004191 0.012472 0.000000 0.004575 0.000000
# 4 0.000000 0.000000 0.000000 0.029618 0.000000 0.006477
# 5 0.001777 -0.008104 0.004575 0.000000 0.043514 0.000000
# 6 0.000000 0.000000 0.000000 0.006477 0.000000 0.039285
#
#
# Mechanical properties :
#
#
# Convention : Reuss Voigt Hill
#
# Bulk Modulus (GPa) = 58.72428 67.09159 62.90793
# Shear Modulus (GPa) = 26.73105 30.30030 28.51567
#
# Velocity S-wave (km/s) = 3.80175 4.04762 3.92661
# Velocity P-wave (km/s) = 7.14304 7.62367 7.38726
#
# Compressibility (1/GPa) = 0.01702873
#
# Stress axis : x y z
#
# Youngs Moduli (GPa) = 55.53204 79.92165 80.17841
#
# Poissons Ratio (x) = 0.59141 0.11151
# Poissons Ratio (y) = 0.41093 0.33603
# Poissons Ratio (z) = 0.07723 0.33495
#
# Static dielectric constant tensor:
#      x y z
#    x 3.173240 0.000000 -0.110630 
#    y 0.000000 3.723890 0.000000 
#    z -0.110630 0.000000 3.522510 
# 
# 
# High freq. dielectric constant tensor:
#      x y z
#    x 1.690330 0.000000 -0.013610 
#    y 0.000000 1.738340 0.000000 
#    z -0.013610 0.000000 1.730310 
# 
# From -- ./inp_files/80033.got.cif
#   From: 2010.06.25/outbox.cif.g09.slc.cpg/sg12_41_cif.got.tgz:80033.got - 2010.06.28 00:19:55.
