data_PCOD8099397
_publ_section_title
;
Structure prediction by ZEFSAII (Michael W. Deem and Ramdas Pophale) SiO2 
 PCOD8099397
Probable space group: C 2/M
;
_chemical_formula_sum "Si O2"
_cell_formula_units_Z 56
_cell_length_a 19.227241
_cell_length_b 9.081449
_cell_length_c 19.686632
_cell_angle_alpha 90.000000
_cell_angle_beta 60.378613
_cell_angle_gamma 90.000000
_cell_volume 2988.260564
_symmetry_space_group_name_H-M "C 2/M"
_symmetry_group_IT_number 12
_symmetry_cell_setting 'monoclinic'
loop_
_space_group_symop_operation_xyz
x,y,z
-x,y,-z
-x,-y,-z
x,-y,z
1/2+x,1/2+y,z
1/2-x,1/2+y,-z
1/2-x,1/2-y,-z
1/2+x,1/2-y,z
loop_
_atom_site_type_symbol
_atom_site_label
_atom_site_fract_x
_atom_site_fract_y
_atom_site_fract_z
Si Si1 0.286438 0.829152 0.807948
Si Si2 0.316684 0.325786 0.513797
Si Si3 0.932201 0.171010 0.793611
Si Si4 0.358303 0.172918 0.628486
Si Si5 0.975996 0.332500 0.903137
Si Si6 0.505091 0.329495 0.615616
Si Si7 0.128828 0.332103 0.920905
O O1 0.346572 0.748361 0.829723
O O2 0.307218 0.791227 0.720187
O O3 0.197616 0.779517 0.867507
O O4 0.294862 0.000000 0.818548
O O5 0.301049 0.500000 0.524657
O O6 0.250000 0.250000 0.500000
O O7 0.312116 0.256850 0.590916
O O8 0.403190 0.287951 0.440972
O O9 0.977483 0.225717 0.838321
O O10 0.987159 0.209315 0.702414
O O11 0.915970 0.000000 0.807842
O O12 0.448460 0.234417 0.593447
O O13 0.362664 0.000000 0.610560
O O14 0.970689 0.500000 0.880049
O O15 0.057420 0.304672 0.903463
O O16 0.901137 0.297490 0.988459
O O17 0.487795 0.500000 0.607522
O O18 0.159489 0.500000 0.901109
#
# Coordination Sequence:
#
# PCOD8099397 Si02
#       7
#     8   8   8   8   8   8   8
#     4  10  21  36  55  80 109 139 175 221 265 310
#     4  11  23  38  56  80 111 143 177 219 264 311
#     4  10  20  35  56  80 106 138 177 219 264 315
#     4  10  21  37  57  81 108 139 177 219 264 316
#     4   9  19  36  55  77 107 140 176 219 266 315
#     4   9  20  38  57  78 106 140 177 218 264 313
#     4   9  19  36  56  77 105 142 179 217 264 318
#
# _framework density 18.739999000000001
#
# number of rings (size 3 to 8) (size 9 to 14) (size 15 to 20)
#    0.000    2.286    0.000    3.000    0.000    8.000 
#    0.000    5.714    0.000    0.000    0.000    0.000 
#    0.000    0.000    0.000    0.000    0.000    0.000 
#
# Total GULP energy -347302.846903 kJ/mol
# GULP energy per Si atom -12403.673104 kJ/mol
# Density = 1.869735 g / cm^3
# Si number density = 18.739999 Si / 1000 Ang^3
#
#
#
# Elastic Constant Matrix: (Units=GPa)
#
#
# Indices 1 2 3 4 5 6 
#
# 1 58.6980 22.2988 16.4707 0.0000 10.7974 -0.0001
# 2 22.2988 66.9727 19.3295 0.0000 12.3831 -0.0001
# 3 16.4707 19.3295 47.7630 -0.0001 13.0666 -0.0003
# 4 0.0000 0.0000 -0.0001 34.5437 0.0000 3.3017
# 5 10.7974 12.3831 13.0666 0.0000 35.7654 0.0001
# 6 -0.0001 -0.0001 -0.0003 3.3017 0.0001 39.1930
#
#
#
# Elastic Compliance Matrix: (Units=1/GPa)
#
#
# Indices 1 2 3 4 5 6 
#
# 1 0.020719 -0.005126 -0.004272 0.000000 -0.002920 0.000000
# 2 -0.005126 0.018633 -0.004924 0.000000 -0.003105 0.000000
# 3 -0.004272 -0.004924 0.026202 0.000000 -0.006578 0.000000
# 4 0.000000 0.000000 0.000000 0.029184 0.000000 -0.002458
# 5 -0.002920 -0.003105 -0.006578 0.000000 0.032320 0.000000
# 6 0.000000 0.000000 0.000000 -0.002458 0.000000 0.025722
#
#
# Mechanical properties :
#
#
# Convention : Reuss Voigt Hill
#
# Bulk Modulus (GPa) = 27.09147 32.18131 29.63639
# Shear Modulus (GPa) = 25.80952 29.58940 27.69946
#
# Velocity S-wave (km/s) = 3.71515 3.97790 3.84877
# Velocity P-wave (km/s) = 5.73507 6.18935 5.96653
#
# Compressibility (1/GPa) = 0.03691198
#
# Stress axis : x y z
#
# Youngs Moduli (GPa) = 48.26405 53.66725 38.16497
#
# Poissons Ratio (x) = 0.27509 0.16303
# Poissons Ratio (y) = 0.24739 0.18792
# Poissons Ratio (z) = 0.20617 0.26424
#
# Static dielectric constant tensor:
#      x y z
#    x 3.345100 0.000000 0.020910 
#    y 0.000000 3.487870 0.000000 
#    z 0.020910 0.000000 3.507170 
# 
# 
# High freq. dielectric constant tensor:
#      x y z
#    x 1.724570 0.000000 0.002930 
#    y 0.000000 1.734120 0.000000 
#    z 0.002930 0.000000 1.732980 
# 
# From -- ./inp_files/275230.got.cif
#   From: 2010.06.25/outbox.cif.g09.slc.cpg/sg12_138_cif.got.tgz:275230.got - 2010.06.28 00:19:55.
