data_PCOD8099891
_publ_section_title
;
Structure prediction by ZEFSAII (Michael W. Deem and Ramdas Pophale) SiO2 
 PCOD8099891
Probable space group: C 2/M
;
_chemical_formula_sum "Si O2"
_cell_formula_units_Z 64
_cell_length_a 27.187949
_cell_length_b 12.338404
_cell_length_c 15.123190
_cell_angle_alpha 90.000000
_cell_angle_beta 42.010531
_cell_angle_gamma 90.000000
_cell_volume 3395.301719
_symmetry_space_group_name_H-M "C 2/M"
_symmetry_group_IT_number 12
_symmetry_cell_setting 'monoclinic'
loop_
_space_group_symop_operation_xyz
x,y,z
-x,y,-z
-x,-y,-z
x,-y,z
1/2+x,1/2+y,z
1/2-x,1/2+y,-z
1/2-x,1/2-y,-z
1/2+x,1/2-y,z
loop_
_atom_site_type_symbol
_atom_site_label
_atom_site_fract_x
_atom_site_fract_y
_atom_site_fract_z
Si Si1 0.316040 0.127927 0.175080
Si Si2 0.066618 0.623588 0.650847
Si Si3 0.173620 0.274948 0.650283
Si Si4 0.207787 0.239922 0.192476
Si Si5 0.920675 0.375207 0.563699
Si Si6 0.953712 0.123531 0.150216
Si Si7 0.677185 0.373710 0.056820
Si Si8 0.935881 0.264351 0.893683
O O1 0.313036 0.145990 0.284392
O O2 0.242981 0.179394 0.229740
O O3 0.320229 0.000000 0.150135
O O4 0.386906 0.187583 0.038388
O O5 0.086483 0.500000 0.622174
O O6 0.121313 0.673213 0.648243
O O7 0.079614 0.670101 0.535744
O O8 0.980602 0.637092 0.790154
O O9 0.250000 0.250000 0.500000
O O10 0.129505 0.170075 0.746338
O O11 0.129958 0.291753 0.316813
O O12 0.199768 0.149267 0.127418
O O13 0.256608 0.341655 0.096282
O O14 0.892861 0.500000 0.606704
O O15 0.000000 0.365825 0.500000
O O16 0.001473 0.181186 0.160600
O O17 0.944207 0.000000 0.190187
O O18 0.000000 0.138415 0.000000
O O19 0.658170 0.500000 0.069645
O O20 0.609427 0.297460 0.120929
#
# Coordination Sequence:
#
# PCOD8099891 Si02
#       8
#     8   8   8   8   8   8   8   8
#     4  11  22  37  58  82 113 151 189 231 284 340
#     4  10  21  36  57  83 113 146 186 232 279 336
#     4  11  23  39  57  83 118 153 194 239 288 341
#     4  10  21  36  55  82 113 145 183 229 278 333
#     4  10  20  36  58  82 110 146 183 227 282 338
#     4  10  20  37  58  83 112 147 192 236 285 341
#     4  10  20  35  57  83 112 144 181 228 279 332
#     4  10  20  36  58  86 111 145 184 233 283 335
#
# _framework density 18.849577
#
# number of rings (size 3 to 8) (size 9 to 14) (size 15 to 20)
#    0.000    1.750    1.250    3.375    0.000    1.000 
#    0.000    6.250    0.000    9.000    0.000    0.000 
#    0.000    0.000    0.000    0.000    0.000    0.000 
#
# Total GULP energy -396716.416416 kJ/mol
# GULP energy per Si atom -12397.388013 kJ/mol
# Density = 1.880667 g / cm^3
# Si number density = 18.849577 Si / 1000 Ang^3
#
#
#
# Elastic Constant Matrix: (Units=GPa)
#
#
# Indices 1 2 3 4 5 6 
#
# 1 110.8248 40.9168 35.7585 0.0000 5.7033 0.0000
# 2 40.9168 85.8751 45.6292 0.0000 -1.8627 0.0000
# 3 35.7585 45.6292 99.3261 0.0000 -12.2024 0.0000
# 4 0.0000 0.0000 0.0000 20.6595 0.0000 -2.4761
# 5 5.7033 -1.8627 -12.2024 0.0000 32.9561 0.0000
# 6 0.0000 0.0000 0.0000 -2.4761 0.0000 23.2822
#
#
#
# Elastic Compliance Matrix: (Units=1/GPa)
#
#
# Indices 1 2 3 4 5 6 
#
# 1 0.011588 -0.004186 -0.002644 0.000000 -0.003221 0.000000
# 2 -0.004186 0.017024 -0.006397 0.000000 -0.000682 0.000000
# 3 -0.002644 -0.006397 0.014636 0.000000 0.005515 0.000000
# 4 0.000000 0.000000 0.000000 0.049029 0.000000 0.005214
# 5 -0.003221 -0.000682 0.005515 0.000000 0.032904 0.000000
# 6 0.000000 0.000000 0.000000 0.005214 0.000000 0.043506
#
#
# Mechanical properties :
#
#
# Convention : Reuss Voigt Hill
#
# Bulk Modulus (GPa) = 59.55101 60.07055 59.81078
# Shear Modulus (GPa) = 24.90787 26.96097 25.93442
#
# Velocity S-wave (km/s) = 3.63905 3.78606 3.71329
# Velocity P-wave (km/s) = 7.02270 7.14492 7.08407
#
# Compressibility (1/GPa) = 0.01679233
#
# Stress axis : x y z
#
# Youngs Moduli (GPa) = 86.29816 58.74184 68.32332
#
# Poissons Ratio (x) = 0.24589 0.18068
# Poissons Ratio (y) = 0.36124 0.43708
# Poissons Ratio (z) = 0.22821 0.37579
#
# Static dielectric constant tensor:
#      x y z
#    x 4.067960 0.000000 0.364050 
#    y 0.000000 3.416540 0.000000 
#    z 0.364050 0.000000 3.843250 
# 
# 
# High freq. dielectric constant tensor:
#      x y z
#    x 1.746330 0.000000 0.001100 
#    y 0.000000 1.728660 0.000000 
#    z 0.001100 0.000000 1.732460 
# 
# From -- ./inp_files/245939.got.cif
#   From: 2010.06.25/outbox.cif.g09.slc.cpg/sg12_123_cif.got.tgz:245939.got - 2010.06.28 00:19:55.
