data_PCOD8099385
_publ_section_title
;
Structure prediction by ZEFSAII (Michael W. Deem and Ramdas Pophale) SiO2 
 PCOD8099385
Probable space group: C 2/M
;
_chemical_formula_sum "Si O2"
_cell_formula_units_Z 40
_cell_length_a 26.112149
_cell_length_b 9.492007
_cell_length_c 17.763764
_cell_angle_alpha 90.000000
_cell_angle_beta 27.629006
_cell_angle_gamma 90.000000
_cell_volume 2041.806306
_symmetry_space_group_name_H-M "C 2/M"
_symmetry_group_IT_number 12
_symmetry_cell_setting 'monoclinic'
loop_
_space_group_symop_operation_xyz
x,y,z
-x,y,-z
-x,-y,-z
x,-y,z
1/2+x,1/2+y,z
1/2-x,1/2+y,-z
1/2-x,1/2-y,-z
1/2+x,1/2-y,z
loop_
_atom_site_type_symbol
_atom_site_label
_atom_site_fract_x
_atom_site_fract_y
_atom_site_fract_z
Si Si1 0.520270 0.500000 0.351215
Si Si2 0.721383 0.763140 0.768555
Si Si3 0.354543 0.500000 0.371814
Si Si4 0.318466 0.500000 0.729914
Si Si5 0.115416 0.500000 0.813088
Si Si6 0.434757 0.500000 0.007960
Si Si7 0.594229 0.731166 0.581664
Si Si8 0.382318 0.000000 0.365755
O O1 0.417182 0.500000 0.541605
O O2 0.636397 0.500000 0.243656
O O3 0.510458 0.640661 0.312662
O O4 0.673379 0.857642 0.764014
O O5 0.834326 0.709852 0.582332
O O6 0.745811 0.859471 0.810392
O O7 0.641925 0.637726 0.898365
O O8 0.474046 0.500000 0.176517
O O9 0.338121 0.633984 0.447596
O O10 0.252188 0.500000 0.445318
O O11 0.096561 0.500000 0.749487
O O12 0.000000 0.500000 0.000000
O O13 0.500000 0.500000 0.000000
O O14 0.555830 0.867077 0.677947
#
# Coordination Sequence:
#
# PCOD8099385 Si02
#       8
#     4   8   4   4   4   4   8   4
#     4   8  16  35  60  88 103 140 191 238 288 330
#     4  10  20  38  53  84 110 148 189 231 276 334
#     4  11  22  37  53  77 115 162 187 218 276 342
#     4   8  16  35  65  79 108 145 186 238 284 333
#     4  11  23  33  52  77 115 151 195 224 264 340
#     4  12  25  33  54  82 124 150 184 230 281 329
#     4  10  20  35  56  79 113 143 193 232 270 342
#     4  12  22  33  55  81 115 160 186 228 278 321
#
# _framework density 19.590496999999999
#
# number of rings (size 3 to 8) (size 9 to 14) (size 15 to 20)
#    0.000    1.800    2.000    4.200    5.600    0.000 
#    0.000    1.000    0.000    9.600    0.000    0.000 
#    0.000    0.000    0.000    0.000    0.000    0.200 
#
# Total GULP energy -247864.445172 kJ/mol
# GULP energy per Si atom -12393.222259 kJ/mol
# Density = 1.954591 g / cm^3
# Si number density = 19.590497 Si / 1000 Ang^3
#
#
#
# Elastic Constant Matrix: (Units=GPa)
#
#
# Indices 1 2 3 4 5 6 
#
# 1 140.9608 71.4714 28.5914 0.0000 -6.3532 0.0000
# 2 71.4714 149.2753 35.4467 0.0002 -3.1112 0.0002
# 3 28.5914 35.4467 87.4145 0.0000 5.2681 0.0002
# 4 0.0000 0.0002 0.0000 23.5988 0.0000 -5.0536
# 5 -6.3532 -3.1112 5.2681 0.0000 16.9695 -0.0001
# 6 0.0000 0.0002 0.0002 -5.0536 -0.0001 16.3082
#
#
#
# Elastic Compliance Matrix: (Units=1/GPa)
#
#
# Indices 1 2 3 4 5 6 
#
# 1 0.009707 -0.004176 -0.001686 0.000000 0.003392 0.000000
# 2 -0.004176 0.009302 -0.002460 0.000000 0.000906 0.000000
# 3 -0.001686 -0.002460 0.013303 0.000000 -0.005212 0.000000
# 4 0.000000 0.000000 0.000000 0.045387 0.000000 0.014064
# 5 0.003392 0.000906 -0.005212 0.000000 0.061983 0.000000
# 6 0.000000 0.000000 0.000000 0.014064 0.000000 0.065677
#
#
# Mechanical properties :
#
#
# Convention : Reuss Voigt Hill
#
# Bulk Modulus (GPa) = 63.83178 72.07442 67.95310
# Shear Modulus (GPa) = 22.00458 27.51803 24.76130
#
# Velocity S-wave (km/s) = 3.35509 3.75195 3.55906
# Velocity P-wave (km/s) = 6.90381 7.45921 7.18688
#
# Compressibility (1/GPa) = 0.01566618
#
# Stress axis : x y z
#
# Youngs Moduli (GPa) = 103.02367 107.50627 75.17153
#
# Poissons Ratio (x) = 0.44899 0.12671
# Poissons Ratio (y) = 0.43027 0.18496
# Poissons Ratio (z) = 0.17366 0.26451
#
# Static dielectric constant tensor:
#      x y z
#    x 3.609040 0.000000 0.008580 
#    y 0.000000 3.528140 0.000000 
#    z 0.008580 0.000000 3.419790 
# 
# 
# High freq. dielectric constant tensor:
#      x y z
#    x 1.743000 0.000000 0.011420 
#    y 0.000000 1.766510 0.000000 
#    z 0.011420 0.000000 1.737940 
# 
# From -- ./inp_files/292104.got.cif
#   From: 2010.06.25/outbox.cif.g09.slc.cpg/sg12_147_cif.got.tgz:292104.got - 2010.06.28 00:19:55.
