data_PCOD8099243
_publ_section_title
;
Structure prediction by ZEFSAII (Michael W. Deem and Ramdas Pophale) SiO2 
 PCOD8099243
Probable space group: C 2/M
;
_chemical_formula_sum "Si O2"
_cell_formula_units_Z 56
_cell_length_a 28.231327
_cell_length_b 8.927061
_cell_length_c 10.672542
_cell_angle_alpha 90.000000
_cell_angle_beta 107.078115
_cell_angle_gamma 90.000000
_cell_volume 2571.121014
_symmetry_space_group_name_H-M "C 2/M"
_symmetry_group_IT_number 12
_symmetry_cell_setting 'monoclinic'
loop_
_space_group_symop_operation_xyz
x,y,z
-x,y,-z
-x,-y,-z
x,-y,z
1/2+x,1/2+y,z
1/2-x,1/2+y,-z
1/2-x,1/2-y,-z
1/2+x,1/2-y,z
loop_
_atom_site_type_symbol
_atom_site_label
_atom_site_fract_x
_atom_site_fract_y
_atom_site_fract_z
Si Si1 0.253462 0.667723 0.164804
Si Si2 0.207349 0.334257 0.397384
Si Si3 0.535641 0.176917 0.636853
Si Si4 0.356022 0.174764 0.232301
Si Si5 0.486256 0.822492 0.851211
Si Si6 0.116060 0.829054 0.255471
Si Si7 0.838757 0.830414 0.981868
O O1 0.258613 0.500000 0.111676
O O2 0.221127 0.655281 0.263973
O O3 0.307801 0.733450 0.240450
O O4 0.219452 0.778701 0.052663
O O5 0.200202 0.500000 0.449583
O O6 0.250000 0.250000 0.500000
O O7 0.156822 0.241732 0.379684
O O8 0.500000 0.246027 0.500000
O O9 0.593444 0.216371 0.652481
O O10 0.521617 0.236434 0.765945
O O11 0.528126 0.000000 0.632941
O O12 0.344177 0.000000 0.233955
O O13 0.368099 0.220323 0.098068
O O14 0.432400 0.768718 0.769457
O O15 0.486607 0.000000 0.860229
O O16 0.500000 0.755115 0.000000
O O17 0.136559 0.816039 0.132037
O O18 0.105770 0.000000 0.285992
O O19 0.841287 0.000000 0.032881
#
# Coordination Sequence:
#
# PCOD8099243 Si02
#       7
#     8   8   8   8   8   8   8
#     4  10  21  36  54  80 113 145 181 225 277 337
#     4  10  21  37  57  80 110 147 185 228 277 336
#     4   9  20  38  57  80 111 148 191 235 281 339
#     4  11  21  34  56  81 108 145 187 231 278 332
#     4  10  20  36  60  87 113 145 190 242 293 345
#     4  10  21  36  56  83 113 145 185 234 287 342
#     4  10  20  35  55  81 114 147 181 224 277 338
#
# _framework density 21.780383
#
# number of rings (size 3 to 8) (size 9 to 14) (size 15 to 20)
#    0.000    2.000    0.000    3.429    0.000    6.000 
#    0.000    2.857    0.000    3.000    0.000    0.000 
#    0.000    0.000    0.000    0.000    0.000    0.000 
#
# Total GULP energy -347035.468989 kJ/mol
# GULP energy per Si atom -12394.123892 kJ/mol
# Density = 2.173081 g / cm^3
# Si number density = 21.780383 Si / 1000 Ang^3
#
#
#
# Elastic Constant Matrix: (Units=GPa)
#
#
# Indices 1 2 3 4 5 6 
#
# 1 91.3996 15.1519 22.2650 0.0000 23.3551 0.0000
# 2 15.1519 63.0463 20.9617 0.0000 6.7096 0.0000
# 3 22.2650 20.9617 83.8780 0.0000 30.8312 0.0000
# 4 0.0000 0.0000 0.0000 25.8560 0.0000 7.1513
# 5 23.3551 6.7096 30.8312 0.0000 37.6452 0.0000
# 6 0.0000 0.0000 0.0000 7.1513 0.0000 29.4790
#
#
#
# Elastic Compliance Matrix: (Units=1/GPa)
#
#
# Indices 1 2 3 4 5 6 
#
# 1 0.013341 -0.002347 -0.000095 0.000000 -0.007781 0.000000
# 2 -0.002347 0.017723 -0.004550 0.000000 0.002023 0.000000
# 3 -0.000095 -0.004550 0.018262 0.000000 -0.014087 0.000000
# 4 0.000000 0.000000 0.000000 0.041457 0.000000 -0.010057
# 5 -0.007781 0.002023 -0.014087 0.000000 0.042568 0.000000
# 6 0.000000 0.000000 0.000000 -0.010057 0.000000 0.036362
#
#
# Mechanical properties :
#
#
# Convention : Reuss Voigt Hill
#
# Bulk Modulus (GPa) = 28.29374 39.45344 33.87359
# Shear Modulus (GPa) = 25.57835 30.59237 28.08536
#
# Velocity S-wave (km/s) = 3.43063 3.75184 3.59483
# Velocity P-wave (km/s) = 5.35827 6.07635 5.72857
#
# Compressibility (1/GPa) = 0.03534350
#
# Stress axis : x y z
#
# Youngs Moduli (GPa) = 74.95482 56.42460 54.75766
#
# Poissons Ratio (x) = 0.13241 0.00519
# Poissons Ratio (y) = 0.17590 0.24914
# Poissons Ratio (z) = 0.00711 0.25673
#
# Static dielectric constant tensor:
#      x y z
#    x 4.144260 0.000000 -0.056460 
#    y 0.000000 4.016480 0.000000 
#    z -0.056460 0.000000 4.109490 
# 
# 
# High freq. dielectric constant tensor:
#      x y z
#    x 1.864410 0.000000 0.007580 
#    y 0.000000 1.842410 0.000000 
#    z 0.007580 0.000000 1.850500 
# 
# From -- ./inp_files/187744.got.cif
#   From: 2010.06.25/outbox.cif.g09.slc.cpg/sg12_94_cif.got.tgz:187744.got - 2010.06.28 00:19:55.
