data_PCOD8099195
_publ_section_title
;
Structure prediction by ZEFSAII (Michael W. Deem and Ramdas Pophale) SiO2 
 PCOD8099195
Probable space group: C 2/M
;
_chemical_formula_sum "Si O2"
_cell_formula_units_Z 56
_cell_length_a 17.863429
_cell_length_b 8.855535
_cell_length_c 28.722236
_cell_angle_alpha 90.000000
_cell_angle_beta 39.213755
_cell_angle_gamma 90.000000
_cell_volume 2872.518918
_symmetry_space_group_name_H-M "C 2/M"
_symmetry_group_IT_number 12
_symmetry_cell_setting 'monoclinic'
loop_
_space_group_symop_operation_xyz
x,y,z
-x,y,-z
-x,-y,-z
x,-y,z
1/2+x,1/2+y,z
1/2-x,1/2+y,-z
1/2-x,1/2-y,-z
1/2+x,1/2-y,z
loop_
_atom_site_type_symbol
_atom_site_label
_atom_site_fract_x
_atom_site_fract_y
_atom_site_fract_z
Si Si1 0.204421 0.177725 0.068889
Si Si2 0.984819 0.321321 0.645592
Si Si3 0.868802 0.320315 0.072464
Si Si4 0.066297 0.825267 0.786622
Si Si5 0.231026 0.321921 0.781425
Si Si6 0.851574 0.175760 0.357164
Si Si7 0.915216 0.320573 0.500515
O O1 0.281949 0.241500 0.074271
O O2 0.069535 0.223401 0.143021
O O3 0.220041 0.000000 0.057301
O O4 0.250000 0.250000 0.000000
O O5 0.976191 0.500000 0.649245
O O6 0.854957 0.256177 0.712988
O O7 0.065697 0.270110 0.648943
O O8 0.040554 0.260324 0.570594
O O9 0.871024 0.500000 0.071284
O O10 0.822589 0.260803 0.144295
O O11 0.000000 0.255237 0.000000
O O12 0.141384 0.719226 0.783807
O O13 0.106474 0.793638 0.715065
O O14 0.086295 0.000000 0.790458
O O15 0.250633 0.500000 0.773583
O O16 0.718025 0.236524 0.426797
O O17 0.861920 0.000000 0.365365
O O18 0.918696 0.500000 0.500758
O O19 0.000000 0.253680 0.500000
#
# Coordination Sequence:
#
# PCOD8099195 Si02
#       7
#     8   8   8   8   8   8   8
#     4  10  20  35  55  80 110 143 180 223 274 328
#     4  11  22  36  56  83 115 146 180 226 276 325
#     4   9  18  34  56  80 106 139 180 224 269 320
#     4  10  21  37  57  81 111 146 184 230 279 324
#     4  11  22  37  59  83 108 143 186 228 275 331
#     4  10  20  37  60  82 109 147 188 226 269 325
#     4   9  18  34  57  82 108 144 186 225 271 325
#
# _framework density 19.495085
#
# number of rings (size 3 to 8) (size 9 to 14) (size 15 to 20)
#    0.000    2.000    0.000    3.857    0.000    6.857 
#    0.000    3.571    0.000    6.857    0.000    0.000 
#    0.000    0.000    0.000    0.000    0.000    0.000 
#
# Total GULP energy -347301.691264 kJ/mol
# GULP energy per Si atom -12403.631831 kJ/mol
# Density = 1.945071 g / cm^3
# Si number density = 19.495085 Si / 1000 Ang^3
#
#
#
# Elastic Constant Matrix: (Units=GPa)
#
#
# Indices 1 2 3 4 5 6 
#
# 1 161.3670 38.2045 84.4106 -0.0003 -9.6864 -0.0030
# 2 38.2045 40.8895 39.4867 -0.0007 0.5255 -0.0053
# 3 84.4106 39.4867 194.3977 0.0000 -7.8775 -0.0004
# 4 -0.0003 -0.0007 0.0000 27.9528 0.0001 0.4955
# 5 -9.6864 0.5255 -7.8775 0.0001 39.9257 -0.0005
# 6 -0.0030 -0.0053 -0.0004 0.4955 -0.0005 32.5308
#
#
#
# Elastic Compliance Matrix: (Units=1/GPa)
#
#
# Indices 1 2 3 4 5 6 
#
# 1 0.009112 -0.005952 -0.002676 0.000000 0.001761 0.000000
# 2 -0.005952 0.034417 -0.004520 0.000001 -0.002789 0.000005
# 3 -0.002676 -0.004520 0.007258 0.000000 0.000842 -0.000001
# 4 0.000000 0.000001 0.000000 0.035784 0.000000 -0.000545
# 5 0.001761 -0.002789 0.000842 0.000000 0.025677 0.000000
# 6 0.000000 0.000005 -0.000001 -0.000545 0.000000 0.030748
#
#
# Mechanical properties :
#
#
# Convention : Reuss Voigt Hill
#
# Bulk Modulus (GPa) = 40.82890 80.09530 60.46210
# Shear Modulus (GPa) = 28.17598 35.71869 31.94733
#
# Velocity S-wave (km/s) = 3.80582 4.28505 4.05252
# Velocity P-wave (km/s) = 6.34830 8.10286 7.27864
#
# Compressibility (1/GPa) = 0.02449245
#
# Stress axis : x y z
#
# Youngs Moduli (GPa) = 109.74839 29.05501 137.77292
#
# Poissons Ratio (x) = 0.17293 0.36871
# Poissons Ratio (y) = 0.65319 0.62269
# Poissons Ratio (z) = 0.29371 0.13132
#
# Static dielectric constant tensor:
#      x y z
#    x 3.783990 0.000000 -0.041650 
#    y 0.000000 3.248680 0.000000 
#    z -0.041650 0.000000 3.853430 
# 
# 
# High freq. dielectric constant tensor:
#      x y z
#    x 1.778130 0.000000 -0.001780 
#    y 0.000000 1.725850 0.000000 
#    z -0.001780 0.000000 1.782170 
# 
# From -- ./inp_files/275505.got.cif
#   From: 2010.06.25/outbox.cif.g09.slc.cpg/sg12_138_cif.got.tgz:275505.got - 2010.06.28 00:19:55.
