data_PCOD8099863
_publ_section_title
;
Structure prediction by ZEFSAII (Michael W. Deem and Ramdas Pophale) SiO2 
 PCOD8099863
Probable space group: C 2/M
;
_chemical_formula_sum "Si O2"
_cell_formula_units_Z 56
_cell_length_a 21.095382
_cell_length_b 9.069133
_cell_length_c 29.508311
_cell_angle_alpha 90.000000
_cell_angle_beta 30.310779
_cell_angle_gamma 90.000000
_cell_volume 2849.195535
_symmetry_space_group_name_H-M "C 2/M"
_symmetry_group_IT_number 12
_symmetry_cell_setting 'monoclinic'
loop_
_space_group_symop_operation_xyz
x,y,z
-x,y,-z
-x,-y,-z
x,-y,z
1/2+x,1/2+y,z
1/2-x,1/2+y,-z
1/2-x,1/2-y,-z
1/2+x,1/2-y,z
loop_
_atom_site_type_symbol
_atom_site_label
_atom_site_fract_x
_atom_site_fract_y
_atom_site_fract_z
Si Si1 0.510400 0.175241 0.544554
Si Si2 0.914397 0.673812 0.093882
Si Si3 0.500766 0.168189 0.715236
Si Si4 0.752933 0.824863 0.449546
Si Si5 0.661144 0.168016 0.270306
Si Si6 0.923410 0.332799 0.921468
Si Si7 0.139688 0.832830 0.125460
O O1 0.500000 0.241227 0.500000
O O2 0.638597 0.231103 0.488736
O O3 0.390113 0.225478 0.649211
O O4 0.512619 0.000000 0.541245
O O5 0.902873 0.500000 0.094884
O O6 0.774453 0.737243 0.180284
O O7 0.976807 0.718389 0.102838
O O8 0.000000 0.737802 0.000000
O O9 0.619791 0.270748 0.652926
O O10 0.458682 0.179489 0.688999
O O11 0.387314 0.227811 0.815675
O O12 0.532488 0.000000 0.708360
O O13 0.750000 0.750000 0.500000
O O14 0.751636 0.000000 0.456427
O O15 0.708132 0.000000 0.244804
O O16 0.948814 0.500000 0.889643
O O17 0.937341 0.223697 0.870637
O O18 0.787176 0.320441 0.027463
O O19 0.098133 0.000000 0.161017
#
# Coordination Sequence:
#
# PCOD8099863 Si02
#       7
#     8   8   8   8   8   8   8
#     4   9  19  38  61  85 117 154 192 238 293 349
#     4  10  21  37  57  82 115 153 191 235 291 350
#     4  11  22  37  57  85 118 148 189 242 294 346
#     4  11  21  37  61  87 115 151 193 238 291 348
#     4  10  21  37  57  84 115 151 194 240 290 346
#     4   9  19  36  55  78 115 153 187 236 292 342
#     4  10  20  35  57  83 109 148 196 237 286 347
#
# _framework density 19.654669999999999
#
# number of rings (size 3 to 8) (size 9 to 14) (size 15 to 20)
#    0.000    2.000    1.429    2.143    0.000    4.857 
#    0.000    1.429    0.000    3.000    0.000    0.000 
#    0.000    0.000    0.000    0.000    0.000    0.000 
#
# Total GULP energy -347217.494906 kJ/mol
# GULP energy per Si atom -12400.624818 kJ/mol
# Density = 1.960994 g / cm^3
# Si number density = 19.654670 Si / 1000 Ang^3
#
#
#
# Elastic Constant Matrix: (Units=GPa)
#
#
# Indices 1 2 3 4 5 6 
#
# 1 100.2440 38.2243 48.0097 0.0022 -0.1569 -0.0080
# 2 38.2243 66.1866 27.6869 0.0029 1.1329 -0.0114
# 3 48.0097 27.6869 90.1654 -0.0002 7.6190 0.0002
# 4 0.0022 0.0029 -0.0002 33.5448 0.0005 1.6149
# 5 -0.1569 1.1329 7.6190 0.0005 33.9457 0.0004
# 6 -0.0080 -0.0114 0.0002 1.6149 0.0004 25.6316
#
#
#
# Elastic Compliance Matrix: (Units=1/GPa)
#
#
# Indices 1 2 3 4 5 6 
#
# 1 0.015455 -0.006255 -0.006454 -0.000001 0.001729 0.000002
# 2 -0.006255 0.019880 -0.002768 -0.000002 -0.000071 0.000007
# 3 -0.006454 -0.002768 0.015669 0.000001 -0.003454 -0.000003
# 4 -0.000001 -0.000002 0.000001 0.029902 -0.000001 -0.001884
# 5 0.001729 -0.000071 -0.003454 -0.000001 0.030244 0.000000
# 6 0.000002 0.000007 -0.000003 -0.001884 0.000000 0.039133
#
#
# Mechanical properties :
#
#
# Convention : Reuss Voigt Hill
#
# Bulk Modulus (GPa) = 49.87682 53.82644 51.85163
# Shear Modulus (GPa) = 26.60686 28.13612 27.37149
#
# Velocity S-wave (km/s) = 3.68328 3.78765 3.73583
# Velocity P-wave (km/s) = 6.59700 6.82451 6.71172
#
# Compressibility (1/GPa) = 0.02004939
#
# Stress axis : x y z
#
# Youngs Moduli (GPa) = 64.70527 50.30091 63.81891
#
# Poissons Ratio (x) = 0.31463 0.41191
# Poissons Ratio (y) = 0.40473 0.17665
# Poissons Ratio (z) = 0.41763 0.13923
#
# Static dielectric constant tensor:
#      x y z
#    x 3.706680 0.000000 0.068820 
#    y 0.000000 3.448810 0.000000 
#    z 0.068820 0.000000 3.630520 
# 
# 
# High freq. dielectric constant tensor:
#      x y z
#    x 1.768100 0.000000 0.004890 
#    y 0.000000 1.749290 0.000000 
#    z 0.004890 0.000000 1.770350 
# 
# From -- ./inp_files/329472.got.cif
#   From: 2010.06.25/outbox.cif.g09.slc.cpg/sg12_165_cif.got.tgz:329472.got - 2010.06.28 00:19:55.
