data_PCOD8099704
_publ_section_title
;
Structure prediction by ZEFSAII (Michael W. Deem and Ramdas Pophale) SiO2 
 PCOD8099704
Probable space group: C 2/M
;
_chemical_formula_sum "Si O2"
_cell_formula_units_Z 64
_cell_length_a 28.499942
_cell_length_b 9.158973
_cell_length_c 19.633688
_cell_angle_alpha 90.000000
_cell_angle_beta 140.853153
_cell_angle_gamma 90.000000
_cell_volume 3235.455199
_symmetry_space_group_name_H-M "C 2/M"
_symmetry_group_IT_number 12
_symmetry_cell_setting 'monoclinic'
loop_
_space_group_symop_operation_xyz
x,y,z
-x,y,-z
-x,-y,-z
x,-y,z
1/2+x,1/2+y,z
1/2-x,1/2+y,-z
1/2-x,1/2-y,-z
1/2+x,1/2-y,z
loop_
_atom_site_type_symbol
_atom_site_label
_atom_site_fract_x
_atom_site_fract_y
_atom_site_fract_z
Si Si1 0.684716 0.826919 0.466006
Si Si2 0.473670 0.170580 0.046363
Si Si3 0.458197 0.668941 0.752927
Si Si4 0.452695 0.333713 0.275622
Si Si5 0.285094 0.673202 0.103887
Si Si6 0.957002 0.669527 0.515733
Si Si7 0.697194 0.828537 0.138806
Si Si8 0.291728 0.166990 0.351016
O O1 0.750000 0.750000 0.500000
O O2 0.607709 0.758161 0.355814
O O3 0.700189 0.789304 0.561657
O O4 0.682842 0.000000 0.450641
O O5 0.524446 0.263854 0.154102
O O6 0.484785 0.000000 0.074907
O O7 0.500000 0.208171 0.000000
O O8 0.388545 0.218289 0.962327
O O9 0.434653 0.500000 0.735441
O O10 0.531074 0.683030 0.786772
O O11 0.460382 0.500000 0.307722
O O12 0.370885 0.275746 0.202809
O O13 0.516001 0.244627 0.385289
O O14 0.278207 0.500000 0.086885
O O15 0.242455 0.727879 0.123664
O O16 0.250000 0.750000 0.000000
O O17 0.974524 0.500000 0.544989
O O18 0.870646 0.697810 0.404381
O O19 0.000000 0.737088 0.500000
O O20 0.729652 0.762602 0.244589
O O21 0.705265 0.000000 0.154588
O O22 0.267486 0.000000 0.315738
#
# Coordination Sequence:
#
# PCOD8099704 Si02
#       8
#     8   8   8   8   8   8   8   8
#     4  11  24  42  64  91 123 160 201 250 302 358
#     4  10  23  42  62  87 117 156 202 250 307 362
#     4  11  23  40  63  92 121 156 201 248 302 362
#     4  10  21  36  56  84 118 152 192 242 295 353
#     4  10  21  37  57  85 117 154 201 248 299 356
#     4  10  20  35  56  84 117 155 198 238 287 351
#     4  10  22  39  60  87 120 159 203 249 302 362
#     4  10  22  39  59  88 123 157 196 244 297 353
#
# _framework density 19.780833999999999
#
# number of rings (size 3 to 8) (size 9 to 14) (size 15 to 20)
#    0.000    1.750    1.250    2.250    1.750    4.000 
#    0.000    0.000    0.000    0.000    0.000    0.000 
#    0.000    0.000    0.000    0.000    0.000    0.000 
#
# Total GULP energy -396890.051897 kJ/mol
# GULP energy per Si atom -12402.814122 kJ/mol
# Density = 1.973581 g / cm^3
# Si number density = 19.780834 Si / 1000 Ang^3
#
#
#
# Elastic Constant Matrix: (Units=GPa)
#
#
# Indices 1 2 3 4 5 6 
#
# 1 124.4820 37.7992 41.6180 0.0000 -0.8113 0.0000
# 2 37.7992 65.9177 55.1086 0.0000 -5.4948 0.0000
# 3 41.6180 55.1086 123.6542 0.0000 -7.7562 0.0000
# 4 0.0000 0.0000 0.0000 41.0095 0.0000 -3.0404
# 5 -0.8113 -5.4948 -7.7562 0.0000 28.2465 0.0000
# 6 0.0000 0.0000 0.0000 -3.0404 0.0000 25.9763
#
#
#
# Elastic Compliance Matrix: (Units=1/GPa)
#
#
# Indices 1 2 3 4 5 6 
#
# 1 0.009877 -0.004646 -0.001315 0.000000 -0.000981 0.000000
# 2 -0.004646 0.026453 -0.010085 0.000000 0.002243 0.000000
# 3 -0.001315 -0.010085 0.013125 0.000000 0.001604 0.000000
# 4 0.000000 0.000000 0.000000 0.024598 0.000000 0.002879
# 5 -0.000981 0.002243 0.001604 0.000000 0.036251 0.000000
# 6 0.000000 0.000000 0.000000 0.002879 0.000000 0.038834
#
#
# Mechanical properties :
#
#
# Convention : Reuss Voigt Hill
#
# Bulk Modulus (GPa) = 57.59498 64.78951 61.19225
# Shear Modulus (GPa) = 26.73543 31.01499 28.87521
#
# Velocity S-wave (km/s) = 3.68038 3.96401 3.82482
# Velocity P-wave (km/s) = 6.87314 7.33321 7.10689
#
# Compressibility (1/GPa) = 0.01736262
#
# Stress axis : x y z
#
# Youngs Moduli (GPa) = 101.24039 37.80344 76.19189
#
# Poissons Ratio (x) = 0.17564 0.10022
# Poissons Ratio (y) = 0.47038 0.76836
# Poissons Ratio (z) = 0.13316 0.38123
#
# Static dielectric constant tensor:
#      x y z
#    x 4.537450 0.000000 0.545740 
#    y 0.000000 3.522460 0.000000 
#    z 0.545740 0.000000 3.913580 
# 
# 
# High freq. dielectric constant tensor:
#      x y z
#    x 1.787840 0.000000 0.000190 
#    y 0.000000 1.765600 0.000000 
#    z 0.000190 0.000000 1.773630 
# 
# From -- ./inp_files/295777.got.cif
#   From: 2010.06.25/outbox.cif.g09.slc.cpg/sg12_148_cif.got.tgz:295777.got - 2010.06.28 00:19:55.
