data_PCOD8099127
_publ_section_title
;
Structure prediction by ZEFSAII (Michael W. Deem and Ramdas Pophale) SiO2 
 PCOD8099127
Probable space group: C 2/M
;
_chemical_formula_sum "Si O2"
_cell_formula_units_Z 64
_cell_length_a 30.083627
_cell_length_b 9.325389
_cell_length_c 17.119075
_cell_angle_alpha 90.000000
_cell_angle_beta 43.317509
_cell_angle_gamma 90.000000
_cell_volume 3294.786983
_symmetry_space_group_name_H-M "C 2/M"
_symmetry_group_IT_number 12
_symmetry_cell_setting 'monoclinic'
loop_
_space_group_symop_operation_xyz
x,y,z
-x,y,-z
-x,-y,-z
x,-y,z
1/2+x,1/2+y,z
1/2-x,1/2+y,-z
1/2-x,1/2-y,-z
1/2+x,1/2-y,z
loop_
_atom_site_type_symbol
_atom_site_label
_atom_site_fract_x
_atom_site_fract_y
_atom_site_fract_z
Si Si1 0.791532 0.333007 0.302951
Si Si2 0.659007 0.830575 0.451282
Si Si3 0.007745 0.836370 0.900002
Si Si4 0.075023 0.668661 0.407480
Si Si5 0.784825 0.841223 0.046675
Si Si6 0.880728 0.665753 0.326615
Si Si7 0.339047 0.664075 0.819011
Si Si8 0.367778 0.340151 0.088933
O O1 0.779647 0.500000 0.301416
O O2 0.727875 0.247739 0.357920
O O3 0.813615 0.306094 0.364666
O O4 0.852494 0.275823 0.175019
O O5 0.611073 0.783309 0.441819
O O6 0.627273 0.782976 0.573818
O O7 0.672319 0.000000 0.431615
O O8 0.058432 0.744449 0.787736
O O9 0.030394 0.000000 0.862801
O O10 0.000000 0.790539 0.000000
O O11 0.935695 0.808622 0.958180
O O12 0.082382 0.500000 0.387455
O O13 0.106407 0.742984 0.292360
O O14 0.000000 0.715247 0.500000
O O15 0.732165 0.717001 0.113143
O O16 0.811885 0.833782 0.097831
O O17 0.753924 0.000000 0.071428
O O18 0.841819 0.816640 0.909585
O O19 0.898439 0.500000 0.300984
O O20 0.347658 0.500000 0.781619
O O21 0.371291 0.500000 0.122766
#
# Coordination Sequence:
#
# PCOD8099127 Si02
#       8
#     8   8   8   8   8   8   8   8
#     4  11  22  35  55  84 114 143 182 230 275 317
#     4  10  22  40  59  80 108 145 186 225 272 329
#     4  10  20  35  55  79 107 143 183 219 261 317
#     4  10  22  40  60  80 107 145 185 224 272 332
#     4   9  19  35  55  80 110 145 180 218 269 328
#     4  10  22  38  56  80 112 148 184 226 273 320
#     4  10  20  35  56  82 111 139 176 227 276 320
#     4  10  20  35  55  79 110 148 185 218 264 325
#
# _framework density 19.424626
#
# number of rings (size 3 to 8) (size 9 to 14) (size 15 to 20)
#    0.000    2.000    1.250    1.875    0.000    7.500 
#    0.000    0.000    0.000    0.000    0.000    0.000 
#    0.000    0.000    0.000    0.000    0.000    0.000 
#
# Total GULP energy -396657.107263 kJ/mol
# GULP energy per Si atom -12395.534602 kJ/mol
# Density = 1.938041 g / cm^3
# Si number density = 19.424626 Si / 1000 Ang^3
#
#
#
# Elastic Constant Matrix: (Units=GPa)
#
#
# Indices 1 2 3 4 5 6 
#
# 1 67.1910 28.0128 36.1407 -0.0005 -4.0267 -0.0003
# 2 28.0128 52.2202 45.9444 -0.0117 1.2279 0.0014
# 3 36.1407 45.9444 120.5058 -0.0065 -3.3830 0.0012
# 4 -0.0005 -0.0117 -0.0065 36.3430 0.0023 -2.8577
# 5 -4.0267 1.2279 -3.3830 0.0023 22.8199 0.0000
# 6 -0.0003 0.0014 0.0012 -2.8577 0.0000 21.1242
#
#
#
# Elastic Compliance Matrix: (Units=1/GPa)
#
#
# Indices 1 2 3 4 5 6 
#
# 1 0.020085 -0.008499 -0.002682 -0.000003 0.003604 0.000001
# 2 -0.008499 0.032646 -0.010031 0.000009 -0.004743 0.000000
# 3 -0.002682 -0.010031 0.012983 -0.000001 0.001991 0.000000
# 4 -0.000003 0.000009 -0.000001 0.027811 -0.000004 0.003762
# 5 0.003604 -0.004743 0.001991 -0.000004 0.045008 0.000000
# 6 0.000001 0.000000 0.000000 0.003762 0.000000 0.047848
#
#
# Mechanical properties :
#
#
# Convention : Reuss Voigt Hill
#
# Bulk Modulus (GPa) = 42.93772 51.12363 47.03068
# Shear Modulus (GPa) = 21.13550 24.71201 22.92376
#
# Velocity S-wave (km/s) = 3.30218 3.57066 3.43904
# Velocity P-wave (km/s) = 6.05739 6.58602 6.32723
#
# Compressibility (1/GPa) = 0.02328955
#
# Stress axis : x y z
#
# Youngs Moduli (GPa) = 49.78834 30.63169 77.02391
#
# Poissons Ratio (x) = 0.26035 0.20658
# Poissons Ratio (y) = 0.42317 0.77261
# Poissons Ratio (z) = 0.13353 0.30726
#
# Static dielectric constant tensor:
#      x y z
#    x 3.718740 -0.000020 0.068780 
#    y -0.000020 3.565670 0.000020 
#    z 0.068780 0.000020 3.619160 
# 
# 
# High freq. dielectric constant tensor:
#      x y z
#    x 1.757190 0.000000 0.003050 
#    y 0.000000 1.751980 0.000000 
#    z 0.003050 0.000000 1.757150 
# 
# From -- ./inp_files/295631.got.cif
#   From: 2010.06.25/outbox.cif.g09.slc.cpg/sg12_148_cif.got.tgz:295631.got - 2010.06.28 00:19:55.
