data_PCOD8099605
_publ_section_title
;
Structure prediction by ZEFSAII (Michael W. Deem and Ramdas Pophale) SiO2 
 PCOD8099605
Probable space group: C 2/M
;
_chemical_formula_sum "Si O2"
_cell_formula_units_Z 56
_cell_length_a 17.801886
_cell_length_b 8.627009
_cell_length_c 28.767303
_cell_angle_alpha 90.000000
_cell_angle_beta 38.941758
_cell_angle_gamma 90.000000
_cell_volume 2776.844019
_symmetry_space_group_name_H-M "C 2/M"
_symmetry_group_IT_number 12
_symmetry_cell_setting 'monoclinic'
loop_
_space_group_symop_operation_xyz
x,y,z
-x,y,-z
-x,-y,-z
x,-y,z
1/2+x,1/2+y,z
1/2-x,1/2+y,-z
1/2-x,1/2-y,-z
1/2+x,1/2-y,z
loop_
_atom_site_type_symbol
_atom_site_label
_atom_site_fract_x
_atom_site_fract_y
_atom_site_fract_z
Si Si1 0.749051 0.320050 0.140586
Si Si2 0.912270 0.179974 0.139103
Si Si3 0.550392 0.315746 0.427353
Si Si4 0.620623 0.683132 0.571070
Si Si5 0.317501 0.181380 0.278325
Si Si6 0.332114 0.181481 0.000203
Si Si7 0.969351 0.179459 0.285075
O O1 0.783319 0.500000 0.131043
O O2 0.815481 0.218629 0.146802
O O3 0.788639 0.257340 0.071181
O O4 0.609456 0.292670 0.213836
O O5 0.859772 0.220696 0.214271
O O6 0.945103 0.000000 0.121732
O O7 0.030972 0.276946 0.073075
O O8 0.500000 0.247514 0.500000
O O9 0.545618 0.500000 0.430572
O O10 0.469783 0.250107 0.424185
O O11 0.685809 0.259456 0.355358
O O12 0.626579 0.500000 0.564510
O O13 0.750000 0.750000 0.500000
O O14 0.573220 0.735667 0.643964
O O15 0.405089 0.212035 0.278901
O O16 0.318146 0.000000 0.265310
O O17 0.315264 0.000000 0.006255
O O18 0.250000 0.250000 0.000000
O O19 0.936837 0.000000 0.291598
#
# Coordination Sequence:
#
# PCOD8099605 Si02
#       7
#     8   8   8   8   8   8   8
#     4  10  22  41  63  86 115 153 195 240 292 348
#     4  12  25  40  60  87 121 157 195 242 292 346
#     4   9  18  34  57  84 113 148 191 238 290 350
#     4  10  20  35  56  82 115 153 192 238 292 350
#     4  11  22  38  62  87 114 152 198 244 293 354
#     4  11  23  40  64  92 122 156 196 242 293 350
#     4  10  21  38  59  85 119 154 191 242 301 352
#
# _framework density 20.166778999999998
#
# number of rings (size 3 to 8) (size 9 to 14) (size 15 to 20)
#    0.000    1.571    0.000    5.143    0.000    8.571 
#    0.000    2.857    0.000    3.857    0.000    0.000 
#    0.000    0.000    0.000    0.000    0.000    0.000 
#
# Total GULP energy -347354.320032 kJ/mol
# GULP energy per Si atom -12405.511430 kJ/mol
# Density = 2.012088 g / cm^3
# Si number density = 20.166779 Si / 1000 Ang^3
#
#
#
# Elastic Constant Matrix: (Units=GPa)
#
#
# Indices 1 2 3 4 5 6 
#
# 1 145.1396 22.1643 60.4311 0.0001 14.4797 -0.0042
# 2 22.1643 27.5081 10.4130 0.0006 7.0368 -0.0048
# 3 60.4311 10.4130 160.1753 -0.0001 12.4920 -0.0008
# 4 0.0001 0.0006 -0.0001 23.9119 0.0002 0.0457
# 5 14.4797 7.0368 12.4920 0.0002 42.8096 -0.0001
# 6 -0.0042 -0.0048 -0.0008 0.0457 -0.0001 34.0703
#
#
#
# Elastic Compliance Matrix: (Units=1/GPa)
#
#
# Indices 1 2 3 4 5 6 
#
# 1 0.009159 -0.005933 -0.002972 0.000000 -0.001255 0.000000
# 2 -0.005933 0.042447 -0.000136 -0.000001 -0.004930 0.000005
# 3 -0.002972 -0.000136 0.007463 0.000000 -0.001150 0.000000
# 4 0.000000 -0.000001 0.000000 0.041820 0.000000 -0.000056
# 5 -0.001255 -0.004930 -0.001150 0.000000 0.024930 -0.000001
# 6 0.000000 0.000005 0.000000 -0.000056 -0.000001 0.029351
#
#
# Mechanical properties :
#
#
# Convention : Reuss Voigt Hill
#
# Bulk Modulus (GPa) = 24.39913 57.64887 41.02400
# Shear Modulus (GPa) = 26.75028 36.14600 31.44814
#
# Velocity S-wave (km/s) = 3.64600 4.23821 3.95321
# Velocity P-wave (km/s) = 5.46346 7.25245 6.42057
#
# Compressibility (1/GPa) = 0.04098507
#
# Stress axis : x y z
#
# Youngs Moduli (GPa) = 109.18742 23.55904 133.99613
#
# Poissons Ratio (x) = 0.13978 0.39820
# Poissons Ratio (y) = 0.64785 0.01827
# Poissons Ratio (z) = 0.32448 0.00321
#
# Static dielectric constant tensor:
#      x y z
#    x 3.860100 0.000020 0.163820 
#    y 0.000020 3.638070 0.000030 
#    z 0.163820 0.000030 4.022930 
# 
# 
# High freq. dielectric constant tensor:
#      x y z
#    x 1.805600 0.000000 0.001890 
#    y 0.000000 1.767880 0.000000 
#    z 0.001890 0.000000 1.809220 
# 
# From -- ./inp_files/362905.got.cif
#   From: 2010.06.25/outbox.cif.g09.slc.cpg/sg12_182_cif.got.tgz:362905.got - 2010.06.28 00:19:55.
