data_PCOD8099087
_publ_section_title
;
Structure prediction by ZEFSAII (Michael W. Deem and Ramdas Pophale) SiO2 
 PCOD8099087
Probable space group: C 2/M
;
_chemical_formula_sum "Si O2"
_cell_formula_units_Z 64
_cell_length_a 18.087082
_cell_length_b 8.854120
_cell_length_c 30.594694
_cell_angle_alpha 90.000000
_cell_angle_beta 42.481226
_cell_angle_gamma 90.000000
_cell_volume 3308.933369
_symmetry_space_group_name_H-M "C 2/M"
_symmetry_group_IT_number 12
_symmetry_cell_setting 'monoclinic'
loop_
_space_group_symop_operation_xyz
x,y,z
-x,y,-z
-x,-y,-z
x,-y,z
1/2+x,1/2+y,z
1/2-x,1/2+y,-z
1/2-x,1/2-y,-z
1/2+x,1/2-y,z
loop_
_atom_site_type_symbol
_atom_site_label
_atom_site_fract_x
_atom_site_fract_y
_atom_site_fract_z
Si Si1 0.925759 0.321068 0.694592
Si Si2 0.782892 0.177404 0.940403
Si Si3 0.827231 0.320527 0.572112
Si Si4 0.120420 0.320316 0.937116
Si Si5 0.194058 0.678116 0.810160
Si Si6 0.532060 0.674894 0.815043
Si Si7 0.994021 0.320673 0.571097
Si Si8 0.414512 0.676334 0.307871
O O1 0.922426 0.500000 0.696864
O O2 0.803249 0.261224 0.747994
O O3 0.983827 0.260050 0.624910
O O4 0.991158 0.262764 0.707696
O O5 0.704096 0.242277 0.936937
O O6 0.905724 0.220625 0.873985
O O7 0.767298 0.000000 0.951616
O O8 0.750000 0.250000 0.000000
O O9 0.822315 0.500000 0.577005
O O10 0.893143 0.258942 0.585695
O O11 0.703583 0.257770 0.625871
O O12 0.890630 0.266963 0.500498
O O13 0.118309 0.500000 0.938397
O O14 0.159203 0.262035 0.873045
O O15 0.000000 0.255106 0.000000
O O16 0.214569 0.500000 0.801352
O O17 0.098184 0.718340 0.818590
O O18 0.551438 0.500000 0.818896
O O19 0.571909 0.708856 0.748988
O O20 0.989387 0.500000 0.572430
O O21 0.426847 0.500000 0.312978
#
# Coordination Sequence:
#
# PCOD8099087 Si02
#       8
#     8   8   8   8   8   8   8   8
#     4  11  22  35  52  77 111 144 175 217 268 317
#     4  10  20  35  55  79 109 142 176 216 263 314
#     4   8  14  28  52  77 100 132 178 222 259 311
#     4   9  18  34  56  80 106 137 173 214 260 310
#     4  11  22  37  59  82 104 136 180 223 266 321
#     4  10  21  37  56  79 109 142 177 222 273 318
#     4   8  15  29  50  76 103 135 175 218 265 313
#     4  10  20  35  55  78 106 142 181 219 263 315
#
# _framework density 19.34158
#
# number of rings (size 3 to 8) (size 9 to 14) (size 15 to 20)
#    0.000    2.375    0.000    3.750    0.000    6.500 
#    0.000    2.500    0.000    4.125    0.000    5.250 
#    0.000    0.000    0.000    0.000    0.000    0.000 
#
# Total GULP energy -396804.822543 kJ/mol
# GULP energy per Si atom -12400.150704 kJ/mol
# Density = 1.929756 g / cm^3
# Si number density = 19.341580 Si / 1000 Ang^3
#
#
#
# Elastic Constant Matrix: (Units=GPa)
#
#
# Indices 1 2 3 4 5 6 
#
# 1 135.1214 32.0643 68.0832 0.0001 -2.5033 -0.0008
# 2 32.0643 34.4548 32.3813 0.0002 3.0961 -0.0005
# 3 68.0832 32.3813 153.2296 0.0004 -1.0693 0.0012
# 4 0.0001 0.0002 0.0004 23.0944 0.0001 -0.0884
# 5 -2.5033 3.0961 -1.0693 0.0001 38.5340 -0.0004
# 6 -0.0008 -0.0005 0.0012 -0.0884 -0.0004 27.7648
#
#
#
# Elastic Compliance Matrix: (Units=1/GPa)
#
#
# Indices 1 2 3 4 5 6 
#
# 1 0.010741 -0.007017 -0.003281 0.000000 0.001170 0.000000
# 2 -0.007017 0.041180 -0.005612 0.000000 -0.003920 0.000001
# 3 -0.003281 -0.005612 0.009174 0.000000 0.000492 -0.000001
# 4 0.000000 0.000000 0.000000 0.043301 0.000000 0.000138
# 5 0.001170 -0.003920 0.000492 0.000000 0.026356 0.000000
# 6 0.000000 0.000001 -0.000001 0.000138 0.000000 0.036017
#
#
# Mechanical properties :
#
#
# Convention : Reuss Voigt Hill
#
# Bulk Modulus (GPa) = 34.16001 65.31815 49.73908
# Shear Modulus (GPa) = 23.99834 30.56377 27.28105
#
# Velocity S-wave (km/s) = 3.52627 3.97950 3.75972
# Velocity P-wave (km/s) = 5.85485 7.41346 6.67977
#
# Compressibility (1/GPa) = 0.02927399
#
# Stress axis : x y z
#
# Youngs Moduli (GPa) = 93.10154 24.28347 109.00910
#
# Poissons Ratio (x) = 0.17040 0.35770
# Poissons Ratio (y) = 0.65329 0.61176
# Poissons Ratio (z) = 0.30550 0.13628
#
# Static dielectric constant tensor:
#      x y z
#    x 3.659160 0.000000 -0.001350 
#    y 0.000000 3.109310 -0.000010 
#    z -0.001350 -0.000010 3.790260 
# 
# 
# High freq. dielectric constant tensor:
#      x y z
#    x 1.761640 0.000000 -0.001100 
#    y 0.000000 1.709110 0.000000 
#    z -0.001100 0.000000 1.774030 
# 
# From -- ./inp_files/377988.got.cif
#   From: 2010.06.25/outbox.cif.g09.slc.cpg/sg12_189_cif.got.tgz:377988.got - 2010.06.28 00:19:55.
