data_PCOD8099748
_publ_section_title
;
Structure prediction by ZEFSAII (Michael W. Deem and Ramdas Pophale) SiO2 
 PCOD8099748
Probable space group: C 2/M
;
_chemical_formula_sum "Si O2"
_cell_formula_units_Z 64
_cell_length_a 28.573859
_cell_length_b 9.006167
_cell_length_c 18.713026
_cell_angle_alpha 90.000000
_cell_angle_beta 41.783002
_cell_angle_gamma 90.000000
_cell_volume 3208.707131
_symmetry_space_group_name_H-M "C 2/M"
_symmetry_group_IT_number 12
_symmetry_cell_setting 'monoclinic'
loop_
_space_group_symop_operation_xyz
x,y,z
-x,y,-z
-x,-y,-z
x,-y,z
1/2+x,1/2+y,z
1/2-x,1/2+y,-z
1/2-x,1/2-y,-z
1/2+x,1/2-y,z
loop_
_atom_site_type_symbol
_atom_site_label
_atom_site_fract_x
_atom_site_fract_y
_atom_site_fract_z
Si Si1 0.546670 0.824143 0.610948
Si Si2 0.801281 0.672635 0.183486
Si Si3 0.083027 0.171559 0.318320
Si Si4 0.146153 0.171873 0.396001
Si Si5 0.815319 0.332847 0.893402
Si Si6 0.572296 0.329094 0.883181
Si Si7 0.025060 0.830983 0.782992
Si Si8 0.390142 0.164257 0.952284
O O1 0.482900 0.758526 0.637693
O O2 0.619115 0.768551 0.493278
O O3 0.547277 0.774140 0.692626
O O4 0.541624 0.000000 0.613957
O O5 0.801338 0.500000 0.200816
O O6 0.723015 0.734656 0.286962
O O7 0.859130 0.745893 0.167807
O O8 0.821249 0.704196 0.077741
O O9 0.089787 0.188735 0.395866
O O10 0.155252 0.238816 0.205806
O O11 0.076576 0.000000 0.303082
O O12 0.150286 0.000000 0.414271
O O13 0.795406 0.500000 0.891838
O O14 0.874875 0.337589 0.885901
O O15 0.750000 0.250000 0.000000
O O16 0.577938 0.500000 0.899718
O O17 0.575642 0.311153 0.793383
O O18 0.500000 0.263301 0.000000
O O19 0.948435 0.787836 0.900275
O O20 0.023740 0.000000 0.757048
O O21 0.417520 0.000000 0.943841
#
# Coordination Sequence:
#
# PCOD8099748 Si02
#       8
#     8   8   8   8   8   8   8   8
#     4  12  25  41  62  90 122 157 205 257 299 355
#     4  10  21  38  62  90 122 159 199 246 301 360
#     4  11  22  39  63  88 119 159 204 251 300 357
#     4  10  23  43  63  87 120 161 206 250 300 360
#     4  11  22  35  53  82 122 163 203 248 298 356
#     4  10  21  38  60  91 125 155 196 246 297 361
#     4  11  22  38  62  88 118 157 197 242 298 357
#     4  10  20  35  56  85 121 156 194 243 295 352
#
# _framework density 19.945727999999999
#
# number of rings (size 3 to 8) (size 9 to 14) (size 15 to 20)
#    0.000    1.375    2.500    3.375    0.000    6.750 
#    0.000    1.875    0.000    0.000    0.000    0.000 
#    0.000    0.000    0.000    0.000    0.000    0.000 
#
# Total GULP energy -396823.710484 kJ/mol
# GULP energy per Si atom -12400.740953 kJ/mol
# Density = 1.990033 g / cm^3
# Si number density = 19.945728 Si / 1000 Ang^3
#
#
#
# Elastic Constant Matrix: (Units=GPa)
#
#
# Indices 1 2 3 4 5 6 
#
# 1 67.1264 27.9392 27.7677 0.0076 1.5678 -0.0121
# 2 27.9392 109.3242 51.2498 -0.0012 4.3797 0.0072
# 3 27.7677 51.2498 119.9492 -0.0068 1.4838 0.0010
# 4 0.0076 -0.0012 -0.0068 35.4050 -0.0041 -2.6386
# 5 1.5678 4.3797 1.4838 -0.0041 23.9406 0.0064
# 6 -0.0121 0.0072 0.0010 -2.6386 0.0064 29.6571
#
#
#
# Elastic Compliance Matrix: (Units=1/GPa)
#
#
# Indices 1 2 3 4 5 6 
#
# 1 0.017322 -0.003168 -0.002651 -0.000004 -0.000390 0.000008
# 2 -0.003168 0.012095 -0.004413 0.000000 -0.001732 -0.000004
# 3 -0.002651 -0.004413 0.010832 0.000003 0.000310 0.000000
# 4 -0.000004 0.000000 0.000003 0.028433 0.000004 0.002530
# 5 -0.000390 -0.001732 0.000310 0.000004 0.042093 -0.000008
# 6 0.000008 -0.000004 0.000000 0.002530 -0.000008 0.033944
#
#
# Mechanical properties :
#
#
# Convention : Reuss Voigt Hill
#
# Bulk Modulus (GPa) = 50.54591 56.70147 53.62369
# Shear Modulus (GPa) = 29.10721 30.43008 29.76865
#
# Velocity S-wave (km/s) = 3.82425 3.91019 3.86746
# Velocity P-wave (km/s) = 6.70049 6.99111 6.84734
#
# Compressibility (1/GPa) = 0.01978399
#
# Stress axis : x y z
#
# Youngs Moduli (GPa) = 57.73055 82.67994 92.31675
#
# Poissons Ratio (x) = 0.26195 0.24477
# Poissons Ratio (y) = 0.18290 0.40738
# Poissons Ratio (z) = 0.15307 0.36485
#
# Static dielectric constant tensor:
#      x y z
#    x 3.523440 -0.000020 0.016510 
#    y -0.000020 3.683240 0.000130 
#    z 0.016510 0.000130 3.432920 
# 
# 
# High freq. dielectric constant tensor:
#      x y z
#    x 1.765480 0.000000 0.007150 
#    y 0.000000 1.779270 0.000000 
#    z 0.007150 0.000000 1.782940 
# 
# From -- ./inp_files/295650.got.cif
#   From: 2010.06.25/outbox.cif.g09.slc.cpg/sg12_148_cif.got.tgz:295650.got - 2010.06.28 00:19:55.
