data_PCOD8099889
_publ_section_title
;
Structure prediction by ZEFSAII (Michael W. Deem and Ramdas Pophale) SiO2 
 PCOD8099889
Probable space group: C 2/M
;
_chemical_formula_sum "Si O2"
_cell_formula_units_Z 56
_cell_length_a 22.687538
_cell_length_b 8.895351
_cell_length_c 14.116345
_cell_angle_alpha 90.000000
_cell_angle_beta 82.922195
_cell_angle_gamma 90.000000
_cell_volume 2827.161474
_symmetry_space_group_name_H-M "C 2/M"
_symmetry_group_IT_number 12
_symmetry_cell_setting 'monoclinic'
loop_
_space_group_symop_operation_xyz
x,y,z
-x,y,-z
-x,-y,-z
x,-y,z
1/2+x,1/2+y,z
1/2-x,1/2+y,-z
1/2-x,1/2-y,-z
1/2+x,1/2-y,z
loop_
_atom_site_type_symbol
_atom_site_label
_atom_site_fract_x
_atom_site_fract_y
_atom_site_fract_z
Si Si1 0.941350 0.678208 0.957007
Si Si2 0.497903 0.326489 0.609406
Si Si3 0.229231 0.177351 0.230536
Si Si4 0.596813 0.672927 0.220932
Si Si5 0.894261 0.322382 0.317192
Si Si6 0.850202 0.676086 0.124189
Si Si7 0.719789 0.322090 0.595084
O O1 0.941720 0.500000 0.949996
O O2 0.940431 0.739400 0.850757
O O3 0.883436 0.742555 0.025292
O O4 0.000000 0.735261 0.000000
O O5 0.500000 0.272063 0.500000
O O6 0.518014 0.500000 0.611779
O O7 0.432772 0.303720 0.669276
O O8 0.540645 0.222728 0.662765
O O9 0.164773 0.231222 0.208267
O O10 0.279777 0.216241 0.141395
O O11 0.244174 0.269576 0.320663
O O12 0.230023 0.000000 0.254597
O O13 0.595575 0.500000 0.191932
O O14 0.884644 0.500000 0.328326
O O15 0.883361 0.265592 0.212058
O O16 0.847497 0.237024 0.392664
O O17 0.859462 0.500000 0.118536
O O18 0.720422 0.500000 0.587713
O O19 0.750000 0.250000 0.500000
#
# Coordination Sequence:
#
# PCOD8099889 Si02
#       7
#     8   8   8   8   8   8   8
#     4  10  20  35  57  83 111 149 193 240 291 346
#     4  10  22  38  55  78 110 151 191 235 294 353
#     4   9  19  37  57  80 114 154 192 235 288 347
#     4  10  22  38  56  82 116 151 189 240 296 345
#     4  10  20  37  59  84 111 145 189 238 287 343
#     4   8  16  33  56  80 110 145 185 231 286 344
#     4  11  22  36  57  85 115 150 192 239 286 339
#
# _framework density 19.807855
#
# number of rings (size 3 to 8) (size 9 to 14) (size 15 to 20)
#    0.000    2.286    0.000    3.429    2.000    3.429 
#    0.000    3.571    0.000    0.000    0.000    0.000 
#    0.000    0.000    0.000    0.000    0.000    0.000 
#
# Total GULP energy -347138.229592 kJ/mol
# GULP energy per Si atom -12397.793914 kJ/mol
# Density = 1.976277 g / cm^3
# Si number density = 19.807855 Si / 1000 Ang^3
#
#
#
# Elastic Constant Matrix: (Units=GPa)
#
#
# Indices 1 2 3 4 5 6 
#
# 1 130.9550 28.2775 50.8605 0.0000 -3.6488 0.0000
# 2 28.2775 62.6507 23.3530 0.0000 -1.3272 0.0000
# 3 50.8605 23.3530 104.5966 0.0000 -20.4487 0.0000
# 4 0.0000 0.0000 0.0000 27.1705 0.0000 3.3649
# 5 -3.6488 -1.3272 -20.4487 0.0000 32.4380 0.0000
# 6 0.0000 0.0000 0.0000 3.3649 0.0000 28.0894
#
#
#
# Elastic Compliance Matrix: (Units=1/GPa)
#
#
# Indices 1 2 3 4 5 6 
#
# 1 0.009977 -0.002833 -0.004588 0.000000 -0.001886 0.000000
# 2 -0.002833 0.018327 -0.003000 0.000000 -0.001460 0.000000
# 3 -0.004588 -0.003000 0.014070 0.000000 0.008231 0.000000
# 4 0.000000 0.000000 0.000000 0.037359 0.000000 -0.004475
# 5 -0.001886 -0.001460 0.008231 0.000000 0.035745 0.000000
# 6 0.000000 0.000000 0.000000 -0.004475 0.000000 0.036137
#
#
# Mechanical properties :
#
#
# Convention : Reuss Voigt Hill
#
# Bulk Modulus (GPa) = 46.43809 55.90937 51.17373
# Shear Modulus (GPa) = 27.83437 30.58700 29.21068
#
# Velocity S-wave (km/s) = 3.75269 3.93388 3.84435
# Velocity P-wave (km/s) = 6.50170 6.99435 6.75252
#
# Compressibility (1/GPa) = 0.02153405
#
# Stress axis : x y z
#
# Youngs Moduli (GPa) = 100.22905 54.56293 71.07263
#
# Poissons Ratio (x) = 0.15459 0.32605
# Poissons Ratio (y) = 0.28397 0.21319
# Poissons Ratio (z) = 0.45980 0.16367
#
# Static dielectric constant tensor:
#      x y z
#    x 2.267090 0.000000 -0.693890 
#    y 0.000000 3.361570 0.000000 
#    z -0.693890 0.000000 3.468260 
# 
# 
# High freq. dielectric constant tensor:
#      x y z
#    x 1.781930 0.000000 -0.015190 
#    y 0.000000 1.751150 0.000000 
#    z -0.015190 0.000000 1.771550 
# 
# From -- ./inp_files/230929.got.cif
#   From: 2010.06.25/outbox.cif.g09.slc.cpg/sg12_116_cif.got.tgz:230929.got - 2010.06.28 00:19:55.
