data_PCOD8099054
_publ_section_title
;
Structure prediction by ZEFSAII (Michael W. Deem and Ramdas Pophale) SiO2 
 PCOD8099054
Probable space group: C 2/M
;
_chemical_formula_sum "Si O2"
_cell_formula_units_Z 32
_cell_length_a 19.966612
_cell_length_b 13.098277
_cell_length_c 7.605482
_cell_angle_alpha 90.000000
_cell_angle_beta 53.253506
_cell_angle_gamma 90.000000
_cell_volume 1593.805218
_symmetry_space_group_name_H-M "C 2/M"
_symmetry_group_IT_number 12
_symmetry_cell_setting 'monoclinic'
loop_
_space_group_symop_operation_xyz
x,y,z
-x,y,-z
-x,-y,-z
x,-y,z
1/2+x,1/2+y,z
1/2-x,1/2+y,-z
1/2-x,1/2-y,-z
1/2+x,1/2-y,z
loop_
_atom_site_type_symbol
_atom_site_label
_atom_site_fract_x
_atom_site_fract_y
_atom_site_fract_z
Si Si1 0.845798 0.771794 0.877150
Si Si2 0.302403 0.618387 0.269288
Si Si3 0.977662 0.613423 0.738307
Si Si4 0.131454 0.257852 0.541225
O O1 0.890303 0.673521 0.896558
O O2 0.885845 0.795071 0.622912
O O3 0.750000 0.750000 0.000000
O O4 0.851491 0.865001 0.007131
O O5 0.292496 0.500000 0.324072
O O6 0.210992 0.668030 0.406429
O O7 0.357003 0.667871 0.338145
O O8 0.967603 0.500000 0.836291
O O9 0.000000 0.603358 0.500000
O O10 0.051528 0.674363 0.722336
#
# Coordination Sequence:
#
# PCOD8099054 Si02
#       4
#     8   8   8   8
#     4   9  19  34  52  78 109 135 169 215 261 314
#     4  10  20  35  55  77 106 143 176 212 263 316
#     4   9  17  33  58  81 104 137 175 220 268 306
#     4   9  19  36  55  80 107 134 177 224 259 306
#
# _framework density 20.077735000000001
#
# number of rings (size 3 to 8) (size 9 to 14) (size 15 to 20)
#    0.000    2.750    0.000    0.750    0.000    8.000 
#    0.000   15.000    0.000    4.500    0.000    0.000 
#    0.000    0.000    0.000    0.000    0.000    0.000 
#
# Total GULP energy -198305.953577 kJ/mol
# GULP energy per Si atom -12394.122099 kJ/mol
# Density = 2.003204 g / cm^3
# Si number density = 20.077735 Si / 1000 Ang^3
#
#
#
# Elastic Constant Matrix: (Units=GPa)
#
#
# Indices 1 2 3 4 5 6 
#
# 1 110.4276 60.0062 42.7716 0.0000 2.2154 0.0000
# 2 60.0062 131.0978 42.3184 0.0000 9.8513 0.0000
# 3 42.7716 42.3184 47.6804 0.0000 2.0250 0.0000
# 4 0.0000 0.0000 0.0000 29.3857 0.0000 -0.3439
# 5 2.2154 9.8513 2.0250 0.0000 37.8906 0.0000
# 6 0.0000 0.0000 0.0000 -0.3439 0.0000 23.8218
#
#
#
# Elastic Compliance Matrix: (Units=1/GPa)
#
#
# Indices 1 2 3 4 5 6 
#
# 1 0.014969 -0.003580 -0.010277 0.000000 0.000605 0.000000
# 2 -0.003580 0.011747 -0.007110 0.000000 -0.002465 0.000000
# 3 -0.010277 -0.007110 0.036480 0.000000 0.000500 0.000000
# 4 0.000000 0.000000 0.000000 0.034036 0.000000 0.000491
# 5 0.000605 -0.002465 0.000500 0.000000 0.026971 0.000000
# 6 0.000000 0.000000 0.000000 0.000491 0.000000 0.041985
#
#
# Mechanical properties :
#
#
# Convention : Reuss Voigt Hill
#
# Bulk Modulus (GPa) = 47.02741 64.37759 55.70250
# Shear Modulus (GPa) = 23.23328 27.82694 25.53011
#
# Velocity S-wave (km/s) = 3.40541 3.72689 3.56977
# Velocity P-wave (km/s) = 6.23986 7.11712 6.69288
#
# Compressibility (1/GPa) = 0.02126419
#
# Stress axis : x y z
#
# Youngs Moduli (GPa) = 66.80347 85.13018 27.41198
#
# Poissons Ratio (x) = 0.30476 0.28170
# Poissons Ratio (y) = 0.23915 0.19489
# Poissons Ratio (z) = 0.68651 0.60525
#
# Static dielectric constant tensor:
#      x y z
#    x 3.891490 0.000000 0.213260 
#    y 0.000000 3.544590 0.000000 
#    z 0.213260 0.000000 3.842510 
# 
# 
# High freq. dielectric constant tensor:
#      x y z
#    x 1.796590 0.000000 0.005760 
#    y 0.000000 1.756910 0.000000 
#    z 0.005760 0.000000 1.771600 
# 
# From -- ./inp_files/56770.got.cif
#   From: 2010.06.25/outbox.cif.g09.slc.cpg/sg12_29_cif.got.tgz:56770.got - 2010.06.28 00:19:55.
