data_PCOD8099709
_publ_section_title
;
Structure prediction by ZEFSAII (Michael W. Deem and Ramdas Pophale) SiO2 
 PCOD8099709
Probable space group: C 2/M
;
_chemical_formula_sum "Si O2"
_cell_formula_units_Z 56
_cell_length_a 20.853079
_cell_length_b 8.733081
_cell_length_c 29.407152
_cell_angle_alpha 90.000000
_cell_angle_beta 30.704199
_cell_angle_gamma 90.000000
_cell_volume 2734.491005
_symmetry_space_group_name_H-M "C 2/M"
_symmetry_group_IT_number 12
_symmetry_cell_setting 'monoclinic'
loop_
_space_group_symop_operation_xyz
x,y,z
-x,y,-z
-x,-y,-z
x,-y,z
1/2+x,1/2+y,z
1/2-x,1/2+y,-z
1/2-x,1/2-y,-z
1/2+x,1/2-y,z
loop_
_atom_site_type_symbol
_atom_site_label
_atom_site_fract_x
_atom_site_fract_y
_atom_site_fract_z
Si Si1 0.088511 0.679373 0.904764
Si Si2 0.150047 0.679050 0.278909
Si Si3 0.503044 0.673323 0.293163
Si Si4 0.274923 0.174836 0.532960
Si Si5 0.498126 0.680682 0.553320
Si Si6 0.663989 0.322885 0.110227
Si Si7 0.578725 0.675123 0.064674
O O1 0.106943 0.500000 0.899275
O O2 0.226508 0.752806 0.820609
O O3 0.024315 0.717820 0.895892
O O4 0.000000 0.742213 0.000000
O O5 0.168397 0.500000 0.272677
O O6 0.029848 0.718946 0.320414
O O7 0.119882 0.745900 0.347496
O O8 0.535365 0.500000 0.288546
O O9 0.361682 0.682053 0.360310
O O10 0.588545 0.729157 0.199970
O O11 0.250000 0.250000 0.500000
O O12 0.370509 0.271688 0.504541
O O13 0.323664 0.000000 0.498712
O O14 0.500000 0.738407 0.500000
O O15 0.482593 0.500000 0.565364
O O16 0.707475 0.500000 0.085433
O O17 0.575360 0.294656 0.120650
O O18 0.783743 0.214424 0.037361
O O19 0.547523 0.500000 0.071638
#
# Coordination Sequence:
#
# PCOD8099709 Si02
#       7
#     8   8   8   8   8   8   8
#     4  11  24  41  61  85 120 165 206 249 307 373
#     4  12  25  40  63  92 123 160 205 261 315 374
#     4  10  21  38  61  87 119 157 200 247 301 368
#     4  11  22  38  64  93 124 162 204 256 311 370
#     4  11  25  45  67  93 129 171 214 265 322 383
#     4   9  19  36  57  83 116 157 197 241 300 362
#     4  10  20  35  56  84 118 153 197 251 301 355
#
# _framework density 20.479130999999999
#
# number of rings (size 3 to 8) (size 9 to 14) (size 15 to 20)
#    0.000    1.429    1.429    3.857    0.000    8.571 
#    0.000    1.429    0.000    0.000    0.000    0.000 
#    0.000    0.000    0.000    0.000    0.000    0.000 
#
# Total GULP energy -347252.724772 kJ/mol
# GULP energy per Si atom -12401.883028 kJ/mol
# Density = 2.043252 g / cm^3
# Si number density = 20.479131 Si / 1000 Ang^3
#
#
#
# Elastic Constant Matrix: (Units=GPa)
#
#
# Indices 1 2 3 4 5 6 
#
# 1 99.8373 27.5674 40.6054 0.0154 1.7454 -0.0523
# 2 27.5674 84.0614 40.5229 -0.0065 6.3477 -0.0460
# 3 40.6054 40.5229 102.0683 0.0126 15.0221 -0.0198
# 4 0.0154 -0.0065 0.0126 31.4839 -0.0134 -5.7018
# 5 1.7454 6.3477 15.0221 -0.0134 33.6099 0.0264
# 6 -0.0523 -0.0460 -0.0198 -5.7018 0.0264 31.8768
#
#
#
# Elastic Compliance Matrix: (Units=1/GPa)
#
#
# Indices 1 2 3 4 5 6 
#
# 1 0.012320 -0.002084 -0.004322 -0.000002 0.001685 0.000013
# 2 -0.002084 0.015065 -0.005084 0.000009 -0.000465 0.000017
# 3 -0.004322 -0.005084 0.014301 -0.000007 -0.005208 -0.000003
# 4 -0.000002 0.000009 -0.000007 0.032826 0.000010 0.005871
# 5 0.001685 -0.000465 -0.005208 0.000010 0.032081 -0.000026
# 6 0.000013 0.000017 -0.000003 0.005871 -0.000026 0.032421
#
#
# Mechanical properties :
#
#
# Convention : Reuss Voigt Hill
#
# Bulk Modulus (GPa) = 53.45443 55.92871 54.69157
# Shear Modulus (GPa) = 29.72128 31.21220 30.46674
#
# Velocity S-wave (km/s) = 3.81372 3.90820 3.86125
# Velocity P-wave (km/s) = 6.74916 6.90904 6.82957
#
# Compressibility (1/GPa) = 0.01870752
#
# Stress axis : x y z
#
# Youngs Moduli (GPa) = 81.16826 66.37771 69.92307
#
# Poissons Ratio (x) = 0.13834 0.30220
# Poissons Ratio (y) = 0.16917 0.35546
# Poissons Ratio (z) = 0.35080 0.33744
#
# Static dielectric constant tensor:
#      x y z
#    x 3.631480 -0.000030 0.053610 
#    y -0.000030 3.684270 0.000020 
#    z 0.053610 0.000020 3.954700 
# 
# 
# High freq. dielectric constant tensor:
#      x y z
#    x 1.799140 0.000000 0.001350 
#    y 0.000000 1.802130 0.000000 
#    z 0.001350 0.000000 1.809300 
# 
# From -- ./inp_files/380666.got.cif
#   From: 2010.06.25/outbox.cif.g09.slc.cpg/sg12_191_cif.got.tgz:380666.got - 2010.06.28 00:19:55.
