data_PCOD8099258
_publ_section_title
;
Structure prediction by ZEFSAII (Michael W. Deem and Ramdas Pophale) SiO2 
 PCOD8099258
Probable space group: C 2/M
;
_chemical_formula_sum "Si O2"
_cell_formula_units_Z 56
_cell_length_a 19.901001
_cell_length_b 8.814026
_cell_length_c 24.237943
_cell_angle_alpha 90.000000
_cell_angle_beta 135.371666
_cell_angle_gamma 90.000000
_cell_volume 2986.719774
_symmetry_space_group_name_H-M "C 2/M"
_symmetry_group_IT_number 12
_symmetry_cell_setting 'monoclinic'
loop_
_space_group_symop_operation_xyz
x,y,z
-x,y,-z
-x,-y,-z
x,-y,z
1/2+x,1/2+y,z
1/2-x,1/2+y,-z
1/2-x,1/2-y,-z
1/2+x,1/2-y,z
loop_
_atom_site_type_symbol
_atom_site_label
_atom_site_fract_x
_atom_site_fract_y
_atom_site_fract_z
Si Si1 0.825895 0.675592 0.298762
Si Si2 0.476076 0.821951 0.545208
Si Si3 0.670414 0.320021 0.994033
Si Si4 0.805805 0.676252 0.693466
Si Si5 0.827824 0.823104 0.878592
Si Si6 0.270904 0.179316 0.454649
Si Si7 0.466284 0.178468 0.873821
O O1 0.809233 0.500000 0.305084
O O2 0.786156 0.776351 0.325068
O O3 0.772290 0.715002 0.210433
O O4 0.939147 0.712315 0.360838
O O5 0.500000 0.749645 0.500000
O O6 0.375971 0.751876 0.504721
O O7 0.461340 0.000000 0.529977
O O8 0.674363 0.500000 0.989656
O O9 0.565538 0.259952 0.917684
O O10 0.750000 0.250000 0.000000
O O11 0.688319 0.269810 0.068012
O O12 0.801630 0.500000 0.677896
O O13 0.805412 0.765403 0.635548
O O14 0.900329 0.718954 0.783059
O O15 0.916607 0.737589 0.901287
O O16 0.853267 0.000000 0.890686
O O17 0.250000 0.250000 0.500000
O O18 0.267140 0.000000 0.455410
O O19 0.482924 0.000000 0.890234
#
# Coordination Sequence:
#
# PCOD8099258 Si02
#       7
#     8   8   8   8   8   8   8
#     4   9  16  32  57  82 107 139 181 227 275 324
#     4   9  16  30  55  82 104 138 184 222 263 324
#     4  11  23  39  57  82 116 150 187 228 279 340
#     4  10  20  35  55  82 112 142 182 229 278 329
#     4   9  19  35  58  85 111 143 185 229 275 335
#     4  11  22  37  55  78 112 149 190 230 276 331
#     4  10  21  37  60  86 110 143 187 232 281 335
#
# _framework density 18.749668
#
# number of rings (size 3 to 8) (size 9 to 14) (size 15 to 20)
#    0.000    2.143    1.429    2.143    0.000    4.571 
#    2.571    2.143    0.000    0.000    0.000    0.000 
#    0.000    0.000    0.000    0.000    0.000    0.000 
#
# Total GULP energy -347107.128978 kJ/mol
# GULP energy per Si atom -12396.683178 kJ/mol
# Density = 1.870699 g / cm^3
# Si number density = 18.749668 Si / 1000 Ang^3
#
#
#
# Elastic Constant Matrix: (Units=GPa)
#
#
# Indices 1 2 3 4 5 6 
#
# 1 147.4729 51.5152 80.7501 0.0000 -4.8301 0.0000
# 2 51.5152 69.9907 48.7552 0.0000 -4.3926 0.0000
# 3 80.7501 48.7552 130.3824 0.0000 -4.6140 0.0000
# 4 0.0000 0.0000 0.0000 26.6282 0.0000 -2.5654
# 5 -4.8301 -4.3926 -4.6140 0.0000 31.9262 0.0000
# 6 0.0000 0.0000 0.0000 -2.5654 0.0000 30.3438
#
#
#
# Elastic Compliance Matrix: (Units=1/GPa)
#
#
# Indices 1 2 3 4 5 6 
#
# 1 0.011280 -0.004630 -0.005243 0.000000 0.000312 0.000000
# 2 -0.004630 0.021305 -0.005046 0.000000 0.001501 0.000000
# 3 -0.005243 -0.005046 0.012817 0.000000 0.000365 0.000000
# 4 0.000000 0.000000 0.000000 0.037862 0.000000 0.003201
# 5 0.000312 0.001501 0.000365 0.000000 0.031629 0.000000
# 6 0.000000 0.000000 0.000000 0.003201 0.000000 0.033226
#
#
# Mechanical properties :
#
#
# Convention : Reuss Voigt Hill
#
# Bulk Modulus (GPa) = 64.25771 78.87635 71.56703
# Shear Modulus (GPa) = 27.30076 28.90134 28.10105
#
# Velocity S-wave (km/s) = 3.81998 3.93037 3.87557
# Velocity P-wave (km/s) = 7.33500 7.92190 7.63409
#
# Compressibility (1/GPa) = 0.01556233
#
# Stress axis : x y z
#
# Youngs Moduli (GPa) = 88.65616 46.93806 78.02130
#
# Poissons Ratio (x) = 0.21732 0.40910
# Poissons Ratio (y) = 0.41047 0.39370
# Poissons Ratio (z) = 0.46486 0.23685
#
# Static dielectric constant tensor:
#      x y z
#    x 3.305190 0.000000 -0.033470 
#    y 0.000000 3.365660 0.000000 
#    z -0.033470 0.000000 3.650920 
# 
# 
# High freq. dielectric constant tensor:
#      x y z
#    x 1.709680 0.000000 0.003550 
#    y 0.000000 1.719090 0.000000 
#    z 0.003550 0.000000 1.746000 
# 
# From -- ./inp_files/342616.got.cif
#   From: 2010.06.25/outbox.cif.g09.slc.cpg/sg12_172_cif.got.tgz:342616.got - 2010.06.28 00:19:55.
