data_PCOD8099566
_publ_section_title
;
Structure prediction by ZEFSAII (Michael W. Deem and Ramdas Pophale) SiO2 
 PCOD8099566
Probable space group: C 2/M
;
_chemical_formula_sum "Si O2"
_cell_formula_units_Z 64
_cell_length_a 19.638886
_cell_length_b 8.906921
_cell_length_c 21.256657
_cell_angle_alpha 90.000000
_cell_angle_beta 61.655089
_cell_angle_gamma 90.000000
_cell_volume 3272.458406
_symmetry_space_group_name_H-M "C 2/M"
_symmetry_group_IT_number 12
_symmetry_cell_setting 'monoclinic'
loop_
_space_group_symop_operation_xyz
x,y,z
-x,y,-z
-x,-y,-z
x,-y,z
1/2+x,1/2+y,z
1/2-x,1/2+y,-z
1/2-x,1/2-y,-z
1/2+x,1/2-y,z
loop_
_atom_site_type_symbol
_atom_site_label
_atom_site_fract_x
_atom_site_fract_y
_atom_site_fract_z
Si Si1 0.274429 0.166689 0.389613
Si Si2 0.499402 0.332991 0.574112
Si Si3 0.443240 0.323465 0.812146
Si Si4 0.289800 0.179798 0.922499
Si Si5 0.880885 0.178015 0.241211
Si Si6 0.896904 0.672599 0.707664
Si Si7 0.772371 0.827671 0.181197
Si Si8 0.849640 0.665341 0.490431
O O1 0.339399 0.244862 0.318472
O O2 0.195999 0.264751 0.429296
O O3 0.299080 0.149406 0.450649
O O4 0.256718 0.000000 0.369974
O O5 0.500000 0.332207 0.500000
O O6 0.488350 0.500000 0.606361
O O7 0.430046 0.225840 0.626736
O O8 0.580325 0.269537 0.562449
O O9 0.427776 0.500000 0.825056
O O10 0.378516 0.235382 0.880737
O O11 0.528441 0.280788 0.800515
O O12 0.438183 0.273683 0.742211
O O13 0.241709 0.241032 0.882442
O O14 0.290125 0.000000 0.925334
O O15 0.250000 0.250000 0.000000
O O16 0.842675 0.239457 0.192232
O O17 0.868142 0.000000 0.253606
O O18 0.916909 0.500000 0.713388
O O19 0.805255 0.697524 0.744498
O O20 0.790858 0.000000 0.161714
O O21 0.878253 0.500000 0.499313
#
# Coordination Sequence:
#
# PCOD8099566 Si02
#       8
#     8   8   8   8   8   8   8   8
#     4  10  21  35  53  77 105 138 178 230 286 335
#     4  11  24  37  50  73 106 138 180 239 294 337
#     4  10  20  35  59  88 116 147 185 228 274 326
#     4  10  20  38  64  89 117 151 188 226 268 325
#     4  10  20  35  56  82 111 145 186 228 275 330
#     4  10  20  36  57  78 106 146 192 235 279 339
#     4   8  18  36  57  83 111 144 186 228 269 325
#     4  10  21  37  54  72  98 138 187 230 280 347
#
# _framework density 19.557162000000002
#
# number of rings (size 3 to 8) (size 9 to 14) (size 15 to 20)
#    0.000    2.125    0.000    3.750    1.750    5.500 
#    0.000    3.750    0.000    3.750    0.000    0.000 
#    0.000    0.000    0.000    0.000    0.000    0.000 
#
# Total GULP energy -396661.207502 kJ/mol
# GULP energy per Si atom -12395.662734 kJ/mol
# Density = 1.951265 g / cm^3
# Si number density = 19.557162 Si / 1000 Ang^3
#
#
#
# Elastic Constant Matrix: (Units=GPa)
#
#
# Indices 1 2 3 4 5 6 
#
# 1 103.0194 40.0182 40.5644 0.0001 -2.8226 0.0002
# 2 40.0182 83.9249 49.2866 0.0003 -5.0150 0.0001
# 3 40.5644 49.2866 112.7426 0.0000 -15.1774 0.0002
# 4 0.0001 0.0003 0.0000 33.1866 0.0000 -3.6033
# 5 -2.8226 -5.0150 -15.1774 0.0000 15.8835 0.0001
# 6 0.0002 0.0001 0.0002 -3.6033 0.0001 19.8649
#
#
#
# Elastic Compliance Matrix: (Units=1/GPa)
#
#
# Indices 1 2 3 4 5 6 
#
# 1 0.012476 -0.004409 -0.002812 0.000000 -0.001862 0.000000
# 2 -0.004409 0.017638 -0.006289 0.000000 -0.001224 0.000000
# 3 -0.002812 -0.006289 0.014112 0.000000 0.010999 0.000000
# 4 0.000000 0.000000 0.000000 0.030738 0.000000 0.005576
# 5 -0.001862 -0.001224 0.010999 0.000000 0.072751 0.000000
# 6 0.000000 0.000000 0.000000 0.005576 0.000000 0.051351
#
#
# Mechanical properties :
#
#
# Convention : Reuss Voigt Hill
#
# Bulk Modulus (GPa) = 58.12134 62.15836 60.13985
# Shear Modulus (GPa) = 21.56840 25.10817 23.33828
#
# Velocity S-wave (km/s) = 3.32450 3.58695 3.45822
# Velocity P-wave (km/s) = 6.67231 7.00049 6.83837
#
# Compressibility (1/GPa) = 0.01720538
#
# Stress axis : x y z
#
# Youngs Moduli (GPa) = 80.15564 56.69619 70.86377
#
# Poissons Ratio (x) = 0.24995 0.19928
# Poissons Ratio (y) = 0.35338 0.44567
# Poissons Ratio (z) = 0.22541 0.35657
#
# Static dielectric constant tensor:
#      x y z
#    x 4.123880 0.000000 -0.037490 
#    y 0.000000 3.802790 0.000000 
#    z -0.037490 0.000000 3.472630 
# 
# 
# High freq. dielectric constant tensor:
#      x y z
#    x 1.758940 0.000000 -0.003530 
#    y 0.000000 1.763230 0.000000 
#    z -0.003530 0.000000 1.748130 
# 
# From -- ./inp_files/319939.got.cif
#   From: 2010.06.25/outbox.cif.g09.slc.cpg/sg12_160_cif.got.tgz:319939.got - 2010.06.28 00:19:55.
