data_PCOD8099957
_publ_section_title
;
Structure prediction by ZEFSAII (Michael W. Deem and Ramdas Pophale) SiO2 
 PCOD8099957
Probable space group: C 2/M
;
_chemical_formula_sum "Si O2"
_cell_formula_units_Z 64
_cell_length_a 28.026894
_cell_length_b 8.979100
_cell_length_c 12.786543
_cell_angle_alpha 90.000000
_cell_angle_beta 89.311521
_cell_angle_gamma 90.000000
_cell_volume 3217.581589
_symmetry_space_group_name_H-M "C 2/M"
_symmetry_group_IT_number 12
_symmetry_cell_setting 'monoclinic'
loop_
_space_group_symop_operation_xyz
x,y,z
-x,y,-z
-x,-y,-z
x,-y,z
1/2+x,1/2+y,z
1/2-x,1/2+y,-z
1/2-x,1/2-y,-z
1/2+x,1/2-y,z
loop_
_atom_site_type_symbol
_atom_site_label
_atom_site_fract_x
_atom_site_fract_y
_atom_site_fract_z
Si Si1 0.051733 0.327024 0.595956
Si Si2 0.303398 0.670463 0.276080
Si Si3 0.548607 0.323655 0.387607
Si Si4 0.390445 0.170523 0.198603
Si Si5 0.306331 0.824293 0.711648
Si Si6 0.800067 0.171694 0.508516
Si Si7 0.888345 0.825555 0.813032
Si Si8 0.053905 0.176349 0.985776
O O1 0.040394 0.500000 0.575603
O O2 0.072342 0.251627 0.489589
O O3 0.089983 0.306955 0.685637
O O4 0.003708 0.242267 0.629912
O O5 0.306693 0.500000 0.239669
O O6 0.336413 0.766776 0.197990
O O7 0.248538 0.725094 0.268490
O O8 0.324172 0.688005 0.393941
O O9 0.545561 0.500000 0.405080
O O10 0.579035 0.282220 0.285737
O O11 0.389213 0.000000 0.163768
O O12 0.424195 0.258316 0.119553
O O13 0.327496 0.751758 0.603518
O O14 0.338349 0.763066 0.806015
O O15 0.310526 0.000000 0.701496
O O16 0.750000 0.250000 0.500000
O O17 0.793438 0.000000 0.538933
O O18 0.914954 0.770650 0.916384
O O19 0.877305 0.000000 0.817312
O O20 0.053725 0.000000 0.975786
O O21 0.000000 0.236313 0.000000
#
# Coordination Sequence:
#
# PCOD8099957 Si02
#       8
#     8   8   8   8   8   8   8   8
#     4  10  21  36  53  81 119 152 184 231 291 350
#     4   9  20  37  56  81 115 156 200 241 284 341
#     4  10  20  35  57  84 113 149 191 233 284 350
#     4  11  24  38  58  88 118 151 194 242 295 350
#     4  10  21  36  56  84 118 158 199 241 292 348
#     4   9  17  31  52  80 114 154 197 240 286 339
#     4  10  22  38  59  88 116 148 195 244 293 348
#     4  10  22  43  68  89 114 150 195 245 295 352
#
# _framework density 19.890715
#
# number of rings (size 3 to 8) (size 9 to 14) (size 15 to 20)
#    0.000    2.125    0.000    4.125    1.750    7.750 
#    0.000    0.625    0.000    0.000    0.000    0.000 
#    0.000    0.000    0.000    0.000    0.000    0.000 
#
# Total GULP energy -396764.719810 kJ/mol
# GULP energy per Si atom -12398.897494 kJ/mol
# Density = 1.984544 g / cm^3
# Si number density = 19.890715 Si / 1000 Ang^3
#
#
#
# Elastic Constant Matrix: (Units=GPa)
#
#
# Indices 1 2 3 4 5 6 
#
# 1 94.5841 39.1696 41.6742 0.0000 3.9501 0.0000
# 2 39.1696 69.7419 38.6233 0.0000 2.8207 0.0000
# 3 41.6742 38.6233 68.8190 0.0000 5.7419 0.0000
# 4 0.0000 0.0000 0.0000 28.8177 0.0000 5.1412
# 5 3.9501 2.8207 5.7419 0.0000 32.3152 0.0000
# 6 0.0000 0.0000 0.0000 5.1412 0.0000 21.9186
#
#
#
# Elastic Compliance Matrix: (Units=1/GPa)
#
#
# Indices 1 2 3 4 5 6 
#
# 1 0.015587 -0.005120 -0.006541 0.000000 -0.000296 0.000000
# 2 -0.005120 0.022489 -0.009551 0.000000 0.000360 0.000000
# 3 -0.006541 -0.009551 0.024073 0.000000 -0.002644 0.000000
# 4 0.000000 0.000000 0.000000 0.036216 0.000000 -0.008495
# 5 -0.000296 0.000360 -0.002644 0.000000 0.031420 0.000000
# 6 0.000000 0.000000 0.000000 -0.008495 0.000000 0.047616
#
#
# Mechanical properties :
#
#
# Convention : Reuss Voigt Hill
#
# Bulk Modulus (GPa) = 50.69669 52.45324 51.57497
# Shear Modulus (GPa) = 22.08481 24.18883 23.13682
#
# Velocity S-wave (km/s) = 3.33574 3.49103 3.41427
# Velocity P-wave (km/s) = 6.35446 6.53281 6.44425
#
# Compressibility (1/GPa) = 0.01972515
#
# Stress axis : x y z
#
# Youngs Moduli (GPa) = 64.15519 44.46609 41.54085
#
# Poissons Ratio (x) = 0.22767 0.27171
# Poissons Ratio (y) = 0.32848 0.39676
# Poissons Ratio (z) = 0.41963 0.42470
#
# Static dielectric constant tensor:
#      x y z
#    x 3.585340 0.000000 0.118340 
#    y 0.000000 3.643610 0.000000 
#    z 0.118340 0.000000 3.682260 
# 
# 
# High freq. dielectric constant tensor:
#      x y z
#    x 1.777220 0.000000 0.003760 
#    y 0.000000 1.778610 0.000000 
#    z 0.003760 0.000000 1.763560 
# 
# From -- ./inp_files/187630.got.cif
#   From: 2010.06.25/outbox.cif.g09.slc.cpg/sg12_94_cif.got.tgz:187630.got - 2010.06.28 00:19:55.
