data_PCOD8099944
_publ_section_title
;
Structure prediction by ZEFSAII (Michael W. Deem and Ramdas Pophale) SiO2 
 PCOD8099944
Probable space group: C 2/M
;
_chemical_formula_sum "Si O2"
_cell_formula_units_Z 56
_cell_length_a 8.871032
_cell_length_b 18.133349
_cell_length_c 22.457931
_cell_angle_alpha 90.000000
_cell_angle_beta 126.335318
_cell_angle_gamma 90.000000
_cell_volume 2910.191241
_symmetry_space_group_name_H-M "C 2/M"
_symmetry_group_IT_number 12
_symmetry_cell_setting 'monoclinic'
loop_
_space_group_symop_operation_xyz
x,y,z
-x,y,-z
-x,-y,-z
x,-y,z
1/2+x,1/2+y,z
1/2-x,1/2+y,-z
1/2-x,1/2-y,-z
1/2+x,1/2-y,z
loop_
_atom_site_type_symbol
_atom_site_label
_atom_site_fract_x
_atom_site_fract_y
_atom_site_fract_z
Si Si1 0.949300 0.587536 0.851548
Si Si2 0.756838 0.170513 0.718860
Si Si3 0.100258 0.329487 0.281140
Si Si4 0.540655 0.083906 0.575250
Si Si5 0.829617 0.087749 0.000000
Si Si6 0.394657 0.412464 0.148452
Si Si7 0.814906 0.083906 0.424750
O O1 0.952970 0.500000 0.847731
O O2 0.947141 0.618992 0.785145
O O3 0.769233 0.615166 0.846155
O O4 0.134281 0.617315 0.928024
O O5 0.841233 0.250000 0.727489
O O6 0.581190 0.176994 0.720793
O O7 0.699208 0.134068 0.642566
O O8 0.908295 0.118992 0.785145
O O9 0.271511 0.365931 0.357434
O O10 0.500000 0.115044 0.500000
O O11 0.350621 0.087969 0.567080
O O12 0.616089 0.000000 0.589689
O O13 0.850211 0.117315 0.071977
O O14 0.830860 0.000000 0.000000
O O15 0.000000 0.118705 0.000000
O O16 0.409775 0.500000 0.152268
O O17 0.000000 0.115044 0.500000
O O18 0.847021 0.000000 0.410311
#
# Coordination Sequence:
#
# PCOD8099944 Si02
#       7
#     8   8   8   8   8   8   8
#     4  10  20  35  57  84 112 143 182 227 273 323
#     4  11  23  38  55  78 111 148 186 226 272 326
#     4  11  23  38  55  78 111 148 186 226 272 326
#     4   9  19  36  58  82 107 138 178 224 272 323
#     4   9  17  31  54  83 112 143 180 223 271 321
#     4  10  20  35  57  84 112 143 182 227 273 323
#     4   9  19  36  58  82 107 138 178 224 272 323
#
# _framework density 19.242723000000002
#
# number of rings (size 3 to 8) (size 9 to 14) (size 15 to 20)
#    0.000    2.143    0.000    3.000    0.000    7.429 
#    0.000    6.429    0.000    0.000    0.000    0.000 
#    0.000    0.000    0.000    0.000    0.000    0.000 
#
# Total GULP energy -347288.725981 kJ/mol
# GULP energy per Si atom -12403.168785 kJ/mol
# Density = 1.919893 g / cm^3
# Si number density = 19.242723 Si / 1000 Ang^3
#
#
#
# Elastic Constant Matrix: (Units=GPa)
#
#
# Indices 1 2 3 4 5 6 
#
# 1 80.8103 25.1643 51.1445 0.0001 0.0022 0.0000
# 2 25.1643 30.7154 28.4253 0.0000 0.0001 0.0000
# 3 51.1445 28.4253 160.5951 0.0000 0.0012 0.0000
# 4 0.0001 0.0000 0.0000 -1.5881 0.0000 -0.0012
# 5 0.0022 0.0001 0.0012 0.0000 40.2470 0.0000
# 6 0.0000 0.0000 0.0000 -0.0012 0.0000 26.2603
#
#
#
# Elastic Compliance Matrix: (Units=1/GPa)
#
#
# Indices 1 2 3 4 5 6 
#
# 1 0.018377 -0.011528 -0.003812 0.000000 -0.000001 0.000000
# 2 -0.011528 0.046166 -0.004500 0.000000 0.000001 0.000000
# 3 -0.003812 -0.004500 0.008237 0.000000 0.000000 0.000000
# 4 0.000000 0.000000 0.000000 -0.629695 0.000001 -0.000029
# 5 -0.000001 0.000001 0.000000 0.000001 0.024847 0.000000
# 6 0.000000 0.000000 0.000000 -0.000029 0.000000 0.038080
#
#
# Mechanical properties :
#
#
# Convention : Reuss Voigt Hill
#
# Bulk Modulus (GPa) = 30.21128 53.50991 41.86059
# Shear Modulus (GPa) = -11.27971 24.14296 6.43163
#
# Velocity S-wave (km/s) = -2.42374 3.54595 1.83020
# Velocity P-wave (km/s) = 2.81096 6.68081 5.12517
#
# Compressibility (1/GPa) = 0.03310022
#
# Stress axis : x y z
#
# Youngs Moduli (GPa) = 54.41539 21.66092 121.39780
#
# Poissons Ratio (x) = 0.24971 0.46278
# Poissons Ratio (y) = 0.62730 0.54630
# Poissons Ratio (z) = 0.20744 0.09748
#
# Static dielectric constant tensor:
#      x y z
#    x 3.624980 0.000000 0.000010 
#    y 0.000000 3.304740 0.000000 
#    z 0.000010 0.000000 3.753440 
# 
# 
# High freq. dielectric constant tensor:
#      x y z
#    x 1.757370 0.000000 0.000000 
#    y 0.000000 1.724280 0.000000 
#    z 0.000000 0.000000 1.766510 
# 
# From -- ./inp_files/275258.got.cif
#   From: 2010.06.25/outbox.cif.g09.slc.cpg/sg12_138_cif.got.tgz:275258.got - 2010.06.28 00:19:55.
