data_PCOD8099361
_publ_section_title
;
Structure prediction by ZEFSAII (Michael W. Deem and Ramdas Pophale) SiO2 
 PCOD8099361
Probable space group: C 2/M
;
_chemical_formula_sum "Si O2"
_cell_formula_units_Z 56
_cell_length_a 19.600635
_cell_length_b 8.899727
_cell_length_c 30.589668
_cell_angle_alpha 90.000000
_cell_angle_beta 35.130636
_cell_angle_gamma 90.000000
_cell_volume 3070.602680
_symmetry_space_group_name_H-M "C 2/M"
_symmetry_group_IT_number 12
_symmetry_cell_setting 'monoclinic'
loop_
_space_group_symop_operation_xyz
x,y,z
-x,y,-z
-x,-y,-z
x,-y,z
1/2+x,1/2+y,z
1/2-x,1/2+y,-z
1/2-x,1/2-y,-z
1/2+x,1/2-y,z
loop_
_atom_site_type_symbol
_atom_site_label
_atom_site_fract_x
_atom_site_fract_y
_atom_site_fract_z
Si Si1 0.592836 0.334908 0.490163
Si Si2 0.736797 0.173958 0.053235
Si Si3 0.361692 0.173618 0.066171
Si Si4 0.673221 0.824223 0.222105
Si Si5 0.991899 0.670655 0.771955
Si Si6 0.382052 0.678167 0.657130
Si Si7 0.734695 0.675330 0.658322
O O1 0.500000 0.348437 0.500000
O O2 0.648639 0.500000 0.469884
O O3 0.516686 0.278743 0.571861
O O4 0.697180 0.220921 0.422244
O O5 0.828246 0.251245 0.038028
O O6 0.602621 0.194751 0.139979
O O7 0.770903 0.000000 0.032243
O O8 0.750000 0.250000 0.000000
O O9 0.295031 0.251704 0.141477
O O10 0.324961 0.000000 0.084241
O O11 0.500000 0.196547 0.000000
O O12 0.568472 0.792091 0.242707
O O13 0.637440 0.751699 0.286218
O O14 0.695479 0.000000 0.216470
O O15 0.040175 0.500000 0.747081
O O16 0.097386 0.786226 0.724626
O O17 0.366416 0.500000 0.668060
O O18 0.285477 0.738150 0.673504
O O19 0.750846 0.500000 0.657740
#
# Coordination Sequence:
#
# PCOD8099361 Si02
#       7
#     8   8   8   8   8   8   8
#     4   8  16  32  52  74 103 139 174 213 264 313
#     4  10  21  37  58  81 106 139 177 220 266 311
#     4  10  21  37  57  80 108 142 176 213 261 316
#     4  10  21  37  57  80 107 139 175 219 266 310
#     4   9  20  38  55  74 106 143 174 211 264 317
#     4  10  20  35  56  79 106 141 177 215 262 315
#     4  11  21  32  53  82 107 136 177 222 262 306
#
# _framework density 18.237462000000001
#
# number of rings (size 3 to 8) (size 9 to 14) (size 15 to 20)
#    0.000    2.286    0.000    4.714    0.000    8.857 
#    0.000    2.143    0.000    0.000    0.000    0.000 
#    0.000    0.000    0.000    0.000    0.000    0.000 
#
# Total GULP energy -347211.198486 kJ/mol
# GULP energy per Si atom -12400.399946 kJ/mol
# Density = 1.819595 g / cm^3
# Si number density = 18.237462 Si / 1000 Ang^3
#
#
#
# Elastic Constant Matrix: (Units=GPa)
#
#
# Indices 1 2 3 4 5 6 
#
# 1 74.1062 57.0467 71.2268 0.0003 10.9571 0.0085
# 2 57.0467 131.1030 74.0847 0.0020 5.0119 0.0125
# 3 71.2268 74.0847 129.8752 -0.0018 22.2837 0.0026
# 4 0.0003 0.0020 -0.0018 33.3942 -0.0002 3.0509
# 5 10.9571 5.0119 22.2837 -0.0002 33.3883 0.0004
# 6 0.0085 0.0125 0.0026 3.0509 0.0004 32.3212
#
#
#
# Elastic Compliance Matrix: (Units=1/GPa)
#
#
# Indices 1 2 3 4 5 6 
#
# 1 0.031241 -0.005788 -0.013802 0.000000 -0.000172 -0.000005
# 2 -0.005788 0.012588 -0.004526 -0.000001 0.003031 -0.000003
# 3 -0.013802 -0.004526 0.019150 0.000001 -0.007572 0.000004
# 4 0.000000 -0.000001 0.000001 0.030206 0.000000 -0.002851
# 5 -0.000172 0.003031 -0.007572 0.000000 0.034606 -0.000001
# 6 -0.000005 -0.000003 0.000004 -0.002851 -0.000001 0.031209
#
#
# Mechanical properties :
#
#
# Convention : Reuss Voigt Hill
#
# Bulk Modulus (GPa) = 67.81315 82.20008 75.00662
# Shear Modulus (GPa) = 23.56843 28.66916 26.11880
#
# Velocity S-wave (km/s) = 3.59877 3.96914 3.78848
# Velocity P-wave (km/s) = 7.38460 8.13482 7.76877
#
# Compressibility (1/GPa) = 0.01474640
#
# Stress axis : x y z
#
# Youngs Moduli (GPa) = 32.00922 79.44095 52.21799
#
# Poissons Ratio (x) = 0.45978 0.72073
# Poissons Ratio (y) = 0.18526 0.23636
# Poissons Ratio (z) = 0.44180 0.35958
#
# Static dielectric constant tensor:
#      x y z
#    x 3.150510 -0.000010 0.119410 
#    y -0.000010 3.479400 0.000000 
#    z 0.119410 0.000000 3.649980 
# 
# 
# High freq. dielectric constant tensor:
#      x y z
#    x 1.687300 0.000000 0.003490 
#    y 0.000000 1.718950 0.000000 
#    z 0.003490 0.000000 1.717610 
# 
# From -- ./inp_files/275028.got.cif
#   From: 2010.06.25/outbox.cif.g09.slc.cpg/sg12_138_cif.got.tgz:275028.got - 2010.06.28 00:19:55.
