data_PCOD8099698
_publ_section_title
;
Structure prediction by ZEFSAII (Michael W. Deem and Ramdas Pophale) SiO2 
 PCOD8099698
Probable space group: C 2/M
;
_chemical_formula_sum "Si O2"
_cell_formula_units_Z 64
_cell_length_a 32.476465
_cell_length_b 9.059306
_cell_length_c 24.930370
_cell_angle_alpha 90.000000
_cell_angle_beta 153.619398
_cell_angle_gamma 90.000000
_cell_volume 3259.116616
_symmetry_space_group_name_H-M "C 2/M"
_symmetry_group_IT_number 12
_symmetry_cell_setting 'monoclinic'
loop_
_space_group_symop_operation_xyz
x,y,z
-x,y,-z
-x,-y,-z
x,-y,z
1/2+x,1/2+y,z
1/2-x,1/2+y,-z
1/2-x,1/2-y,-z
1/2+x,1/2-y,z
loop_
_atom_site_type_symbol
_atom_site_label
_atom_site_fract_x
_atom_site_fract_y
_atom_site_fract_z
Si Si1 0.655781 0.326630 0.406853
Si Si2 0.805659 0.829490 0.735488
Si Si3 0.545984 0.674116 0.176508
Si Si4 0.149561 0.170231 0.091173
Si Si5 0.831351 0.332172 0.067412
Si Si6 0.560257 0.173880 0.708044
Si Si7 0.268294 0.672988 0.150282
Si Si8 0.623920 0.674457 0.491166
O O1 0.673899 0.500000 0.425247
O O2 0.750000 0.250000 0.500000
O O3 0.574018 0.280774 0.269930
O O4 0.627003 0.276034 0.432552
O O5 0.876200 0.765271 0.773479
O O6 0.854094 0.811560 0.849373
O O7 0.714053 0.731057 0.627046
O O8 0.779590 0.000000 0.693545
O O9 0.540997 0.500000 0.162880
O O10 0.445525 0.738953 0.043922
O O11 0.238117 0.259756 0.171944
O O12 0.161708 0.000000 0.088552
O O13 0.806993 0.500000 0.048905
O O14 0.924142 0.293590 0.209335
O O15 0.750000 0.250000 0.000000
O O16 0.823340 0.296926 0.994674
O O17 0.640625 0.245589 0.765599
O O18 0.463167 0.249967 0.580946
O O19 0.555758 0.000000 0.690208
O O20 0.290864 0.500000 0.182140
O O21 0.615378 0.500000 0.487309
#
# Coordination Sequence:
#
# PCOD8099698 Si02
#       8
#     8   8   8   8   8   8   8   8
#     4  10  20  35  56  84 117 151 187 230 283 338
#     4  10  20  38  61  82 110 151 196 238 280 335
#     4   9  18  35  59  85 113 146 187 236 283 329
#     4  10  21  36  59  87 111 146 196 241 281 333
#     4   8  16  30  49  74 104 140 178 217 269 326
#     4  10  20  36  58  82 111 151 194 235 277 335
#     4  10  20  36  55  81 117 151 185 233 288 339
#     4  11  23  36  55  86 119 152 189 233 287 344
#
# _framework density 19.637225000000001
#
# number of rings (size 3 to 8) (size 9 to 14) (size 15 to 20)
#    0.000    2.250    1.250    1.500    1.750    3.500 
#    0.000    1.875    0.000    5.250    0.000    0.000 
#    0.000    0.000    0.000    0.000    0.000    0.000 
#
# Total GULP energy -396605.524925 kJ/mol
# GULP energy per Si atom -12393.922654 kJ/mol
# Density = 1.959253 g / cm^3
# Si number density = 19.637225 Si / 1000 Ang^3
#
#
#
# Elastic Constant Matrix: (Units=GPa)
#
#
# Indices 1 2 3 4 5 6 
#
# 1 64.5060 24.4178 32.4985 0.0000 8.3725 0.0000
# 2 24.4178 61.6421 34.0216 0.0000 8.7563 0.0000
# 3 32.4985 34.0216 111.3696 0.0000 10.6772 0.0000
# 4 0.0000 0.0000 0.0000 26.9537 0.0000 1.6755
# 5 8.3725 8.7563 10.6772 0.0000 30.9580 0.0000
# 6 0.0000 0.0000 0.0000 1.6755 0.0000 26.0337
#
#
#
# Elastic Compliance Matrix: (Units=1/GPa)
#
#
# Indices 1 2 3 4 5 6 
#
# 1 0.019818 -0.005335 -0.003914 0.000000 -0.002501 0.000000
# 2 -0.005335 0.021341 -0.004677 0.000000 -0.002980 0.000000
# 3 -0.003914 -0.004677 0.011709 0.000000 -0.001657 0.000000
# 4 0.000000 0.000000 0.000000 0.037250 0.000000 -0.002397
# 5 -0.002501 -0.002980 -0.001657 0.000000 0.034393 0.000000
# 6 0.000000 0.000000 0.000000 -0.002397 0.000000 0.038566
#
#
# Mechanical properties :
#
#
# Convention : Reuss Voigt Hill
#
# Bulk Modulus (GPa) = 39.97328 46.59928 43.28628
# Shear Modulus (GPa) = 25.09214 26.56105 25.82660
#
# Velocity S-wave (km/s) = 3.57849 3.68174 3.63048
# Velocity P-wave (km/s) = 6.12162 6.46956 6.29799
#
# Compressibility (1/GPa) = 0.02501671
#
# Stress axis : x y z
#
# Youngs Moduli (GPa) = 50.45844 46.85910 85.40725
#
# Poissons Ratio (x) = 0.25000 0.33424
# Poissons Ratio (y) = 0.26921 0.39942
# Poissons Ratio (z) = 0.19747 0.21914
#
# Static dielectric constant tensor:
#      x y z
#    x 3.461820 0.000000 -0.097330 
#    y 0.000000 3.378620 0.000000 
#    z -0.097330 0.000000 3.624700 
# 
# 
# High freq. dielectric constant tensor:
#      x y z
#    x 1.758150 0.000000 -0.001050 
#    y 0.000000 1.752240 0.000000 
#    z -0.001050 0.000000 1.764320 
# 
# From -- ./inp_files/353475.got.cif
#   From: 2010.06.25/outbox.cif.g09.slc.cpg/sg12_177_cif.got.tgz:353475.got - 2010.06.28 00:19:55.
