data_PCOD8099772
_publ_section_title
;
Structure prediction by ZEFSAII (Michael W. Deem and Ramdas Pophale) SiO2 
 PCOD8099772
Probable space group: C 2/M
;
_chemical_formula_sum "Si O2"
_cell_formula_units_Z 56
_cell_length_a 26.762914
_cell_length_b 8.772794
_cell_length_c 11.021484
_cell_angle_alpha 90.000000
_cell_angle_beta 105.305922
_cell_angle_gamma 90.000000
_cell_volume 2495.900153
_symmetry_space_group_name_H-M "C 2/M"
_symmetry_group_IT_number 12
_symmetry_cell_setting 'monoclinic'
loop_
_space_group_symop_operation_xyz
x,y,z
-x,y,-z
-x,-y,-z
x,-y,z
1/2+x,1/2+y,z
1/2-x,1/2+y,-z
1/2-x,1/2-y,-z
1/2+x,1/2-y,z
loop_
_atom_site_type_symbol
_atom_site_label
_atom_site_fract_x
_atom_site_fract_y
_atom_site_fract_z
Si Si1 0.364092 0.176934 0.899229
Si Si2 0.305482 0.677618 0.064129
Si Si3 0.628476 0.827339 0.714985
Si Si4 0.034363 0.180608 0.138246
Si Si5 0.820371 0.668275 0.485837
Si Si6 0.290151 0.330084 0.689768
Si Si7 0.011817 0.679847 0.646018
O O1 0.407604 0.265280 0.852090
O O2 0.308320 0.208129 0.800892
O O3 0.377945 0.000000 0.914841
O O4 0.354627 0.245617 0.025853
O O5 0.301402 0.500000 0.034058
O O6 0.325718 0.713632 0.211873
O O7 0.250000 0.750000 0.000000
O O8 0.629786 0.818822 0.568573
O O9 0.571038 0.778763 0.716200
O O10 0.641100 0.000000 0.765814
O O11 0.019564 0.245878 0.261811
O O12 0.031720 0.000000 0.145799
O O13 0.000000 0.237725 0.000000
O O14 0.818298 0.500000 0.546396
O O15 0.770280 0.691178 0.369041
O O16 0.822418 0.798279 0.587660
O O17 0.303580 0.500000 0.743610
O O18 0.001140 0.500000 0.642670
O O19 0.000000 0.740080 0.500000
#
# Coordination Sequence:
#
# PCOD8099772 Si02
#       7
#     8   8   8   8   8   8   8
#     4  12  25  41  65  92 124 165 212 263 322 384
#     4  12  25  42  65  96 133 171 217 267 326 395
#     4  10  21  39  63  90 127 171 217 265 322 386
#     4  11  25  45  68  96 131 172 222 283 344 404
#     4   9  19  35  57  85 121 165 206 250 303 370
#     4  10  20  35  56  87 124 160 204 254 307 371
#     4  10  23  42  66  99 136 178 229 283 340 405
#
# _framework density 22.436793999999999
#
# number of rings (size 3 to 8) (size 9 to 14) (size 15 to 20)
#    0.000    1.429    0.000    5.143    2.000    6.571 
#    0.000    0.000    0.000    0.000    0.000    0.000 
#    0.000    0.000    0.000    0.000    0.000    0.000 
#
# Total GULP energy -347016.675866 kJ/mol
# GULP energy per Si atom -12393.452710 kJ/mol
# Density = 2.238573 g / cm^3
# Si number density = 22.436794 Si / 1000 Ang^3
#
#
#
# Elastic Constant Matrix: (Units=GPa)
#
#
# Indices 1 2 3 4 5 6 
#
# 1 86.4359 31.2544 14.9438 0.0000 -23.1918 0.0000
# 2 31.2544 85.1893 36.6734 0.0000 -1.4649 0.0000
# 3 14.9438 36.6734 90.9529 0.0000 -12.6207 0.0000
# 4 0.0000 0.0000 0.0000 36.9255 0.0000 -2.9370
# 5 -23.1918 -1.4649 -12.6207 0.0000 36.0771 0.0000
# 6 0.0000 0.0000 0.0000 -2.9370 0.0000 29.2593
#
#
#
# Elastic Compliance Matrix: (Units=1/GPa)
#
#
# Indices 1 2 3 4 5 6 
#
# 1 0.016606 -0.006512 0.001410 0.000000 0.010904 0.000000
# 2 -0.006512 0.016835 -0.006521 0.000000 -0.005784 0.000000
# 3 0.001410 -0.006521 0.014169 0.000000 0.005599 0.000000
# 4 0.000000 0.000000 0.000000 0.027300 0.000000 0.002740
# 5 0.010904 -0.005784 0.005599 0.000000 0.036451 0.000000
# 6 0.000000 0.000000 0.000000 0.002740 0.000000 0.034452
#
#
# Mechanical properties :
#
#
# Convention : Reuss Voigt Hill
#
# Bulk Modulus (GPa) = 41.04197 47.59125 44.31661
# Shear Modulus (GPa) = 28.21984 32.43282 30.32633
#
# Velocity S-wave (km/s) = 3.55032 3.80612 3.68045
# Velocity P-wave (km/s) = 5.92776 6.36967 6.15269
#
# Compressibility (1/GPa) = 0.02436530
#
# Stress axis : x y z
#
# Youngs Moduli (GPa) = 60.22015 59.39857 70.57596
#
# Poissons Ratio (x) = 0.38680 -0.09954
# Poissons Ratio (y) = 0.39215 0.46022
# Poissons Ratio (z) = -0.08493 0.38733
#
# Static dielectric constant tensor:
#      x y z
#    x 4.036810 0.000000 -0.131570 
#    y 0.000000 3.882070 0.000000 
#    z -0.131570 0.000000 4.216600 
# 
# 
# High freq. dielectric constant tensor:
#      x y z
#    x 1.890840 0.000000 -0.011310 
#    y 0.000000 1.870180 0.000000 
#    z -0.011310 0.000000 1.893730 
# 
# From -- ./inp_files/181148.got.cif
#   From: 2010.06.25/outbox.cif.g09.slc.cpg/sg12_91_cif.got.tgz:181148.got - 2010.06.28 00:19:55.
