data_PCOD8099288
_publ_section_title
;
Structure prediction by ZEFSAII (Michael W. Deem and Ramdas Pophale) SiO2 
 PCOD8099288
Probable space group: C 2/M
;
_chemical_formula_sum "Si O2"
_cell_formula_units_Z 64
_cell_length_a 26.669213
_cell_length_b 14.159585
_cell_length_c 8.999939
_cell_angle_alpha 90.000000
_cell_angle_beta 82.338959
_cell_angle_gamma 90.000000
_cell_volume 3368.266199
_symmetry_space_group_name_H-M "C 2/M"
_symmetry_group_IT_number 12
_symmetry_cell_setting 'monoclinic'
loop_
_space_group_symop_operation_xyz
x,y,z
-x,y,-z
-x,-y,-z
x,-y,z
1/2+x,1/2+y,z
1/2-x,1/2+y,-z
1/2-x,1/2-y,-z
1/2+x,1/2-y,z
loop_
_atom_site_type_symbol
_atom_site_label
_atom_site_fract_x
_atom_site_fract_y
_atom_site_fract_z
Si Si1 0.231617 0.651158 0.569781
Si Si2 0.221920 0.610597 0.916450
Si Si3 0.633080 0.781884 0.114725
Si Si4 0.171998 0.101878 0.608111
Si Si5 0.637833 0.785665 0.459838
Si Si6 0.324189 0.390649 0.048034
Si Si7 0.470230 0.106392 0.862655
Si Si8 0.043664 0.602571 0.594602
O O1 0.250000 0.750000 0.500000
O O2 0.230715 0.649905 0.747814
O O3 0.272833 0.579872 0.486641
O O4 0.175497 0.638550 0.523684
O O5 0.212083 0.500000 0.910470
O O6 0.172590 0.656384 0.006745
O O7 0.269864 0.635421 0.999594
O O8 0.648799 0.780237 0.280808
O O9 0.577649 0.824760 0.113479
O O10 0.634002 0.675108 0.049008
O O11 0.141748 0.181140 0.529170
O O12 0.177898 0.133697 0.776751
O O13 0.143469 0.000000 0.611076
O O14 0.582094 0.823054 0.510587
O O15 0.338127 0.500000 0.013033
O O16 0.514485 0.150236 0.743193
O O17 0.453218 0.000000 0.817657
O O18 0.500000 0.098420 0.000000
O O19 0.069083 0.500000 0.625505
O O20 0.000000 0.579365 0.500000
#
# Coordination Sequence:
#
# PCOD8099288 Si02
#       8
#     8   8   8   8   8   8   8   8
#     4  10  20  35  55  83 115 150 190 230 275 331
#     4  11  23  37  56  85 120 155 192 235 283 340
#     4  12  22  37  60  85 116 152 190 234 284 343
#     4  10  21  39  59  82 115 151 190 236 283 335
#     4  11  23  36  59  87 114 151 192 233 283 339
#     4  10  22  39  59  83 115 153 192 236 285 336
#     4  10  23  40  60  86 115 148 185 231 285 339
#     4  10  21  40  60  83 115 148 185 229 281 338
#
# _framework density 19.000874
#
# number of rings (size 3 to 8) (size 9 to 14) (size 15 to 20)
#    0.000    1.500    1.250    4.875    3.500    3.000 
#    0.000    0.000    0.000    1.500    0.000    0.000 
#    0.000    0.000    0.000    0.000    0.000    0.000 
#
# Total GULP energy -396544.225638 kJ/mol
# GULP energy per Si atom -12392.007051 kJ/mol
# Density = 1.895763 g / cm^3
# Si number density = 19.000874 Si / 1000 Ang^3
#
#
#
# Elastic Constant Matrix: (Units=GPa)
#
#
# Indices 1 2 3 4 5 6 
#
# 1 71.8080 43.3194 45.0000 0.0000 -2.8271 0.0000
# 2 43.3194 104.7806 48.3225 0.0000 -8.2032 0.0000
# 3 45.0000 48.3225 163.2599 0.0000 -5.7467 0.0000
# 4 0.0000 0.0000 0.0000 23.1642 0.0000 2.8795
# 5 -2.8271 -8.2032 -5.7467 0.0000 31.4740 0.0000
# 6 0.0000 0.0000 0.0000 2.8795 0.0000 23.7891
#
#
#
# Elastic Compliance Matrix: (Units=1/GPa)
#
#
# Indices 1 2 3 4 5 6 
#
# 1 0.020231 -0.006751 -0.003599 0.000000 -0.000599 0.000000
# 2 -0.006751 0.013473 -0.002038 0.000000 0.002533 0.000000
# 3 -0.003599 -0.002038 0.007740 0.000000 0.000559 0.000000
# 4 0.000000 0.000000 0.000000 0.043830 0.000000 -0.005305
# 5 -0.000599 0.002533 0.000559 0.000000 0.032481 0.000000
# 6 0.000000 0.000000 0.000000 -0.005305 0.000000 0.042678
#
#
# Mechanical properties :
#
#
# Convention : Reuss Voigt Hill
#
# Bulk Modulus (GPa) = 59.99648 68.12581 64.06115
# Shear Modulus (GPa) = 26.21042 29.23256 27.72149
#
# Velocity S-wave (km/s) = 3.71810 3.92661 3.82378
# Velocity P-wave (km/s) = 7.07648 7.51595 7.29952
#
# Compressibility (1/GPa) = 0.01666764
#
# Stress axis : x y z
#
# Youngs Moduli (GPa) = 49.43021 74.22289 129.19760
#
# Poissons Ratio (x) = 0.50108 0.46500
# Poissons Ratio (y) = 0.33370 0.26328
# Poissons Ratio (z) = 0.17791 0.15125
#
# Static dielectric constant tensor:
#      x y z
#    x 3.293280 0.000000 0.147240 
#    y 0.000000 3.752520 0.000000 
#    z 0.147240 0.000000 3.608490 
# 
# 
# High freq. dielectric constant tensor:
#      x y z
#    x 1.715340 0.000000 0.004940 
#    y 0.000000 1.740490 0.000000 
#    z 0.004940 0.000000 1.763040 
# 
# From -- ./inp_files/104490.got.cif
#   From: 2010.06.25/outbox.cif.g09.slc.cpg/sg12_53_cif.got.tgz:104490.got - 2010.06.28 00:19:55.
