data_PCOD8099383
_publ_section_title
;
Structure prediction by ZEFSAII (Michael W. Deem and Ramdas Pophale) SiO2 
 PCOD8099383
Probable space group: C 2/M
;
_chemical_formula_sum "Si O2"
_cell_formula_units_Z 64
_cell_length_a 22.007901
_cell_length_b 22.382145
_cell_length_c 9.706192
_cell_angle_alpha 90.000000
_cell_angle_beta 136.615184
_cell_angle_gamma 90.000000
_cell_volume 3284.123811
_symmetry_space_group_name_H-M "C 2/M"
_symmetry_group_IT_number 12
_symmetry_cell_setting 'monoclinic'
loop_
_space_group_symop_operation_xyz
x,y,z
-x,y,-z
-x,-y,-z
x,-y,z
1/2+x,1/2+y,z
1/2-x,1/2+y,-z
1/2-x,1/2-y,-z
1/2+x,1/2-y,z
loop_
_atom_site_type_symbol
_atom_site_label
_atom_site_fract_x
_atom_site_fract_y
_atom_site_fract_z
Si Si1 0.633121 0.806116 0.393081
Si Si2 0.535565 0.275393 0.419928
Si Si3 0.592236 0.067492 0.230483
Si Si4 0.703966 0.342370 0.784825
Si Si5 0.881070 0.152284 0.074320
Si Si6 0.279780 0.566559 0.415160
Si Si7 0.305890 0.245035 0.792176
Si Si8 0.100531 0.929644 0.139847
O O1 0.547123 0.772029 0.314216
O O2 0.611057 0.877665 0.367761
O O3 0.648746 0.787711 0.261194
O O4 0.721979 0.787473 0.619393
O O5 0.500000 0.242450 0.500000
O O6 0.632076 0.298198 0.607836
O O7 0.477435 0.335679 0.298163
O O8 0.674545 0.068995 0.261165
O O9 0.590053 0.000000 0.295497
O O10 0.500000 0.079095 0.000000
O O11 0.694802 0.353275 0.933224
O O12 0.697274 0.404351 0.692659
O O13 0.791639 0.306237 0.885066
O O14 0.875957 0.211000 0.973017
O O15 0.872511 0.093986 0.966161
O O16 0.316347 0.500000 0.463241
O O17 0.333950 0.596813 0.633173
O O18 0.110972 0.000000 0.149658
O O19 0.000000 0.909149 0.000000
#
# Coordination Sequence:
#
# PCOD8099383 Si02
#       8
#     8   8   8   8   8   8   8   8
#     4  10  20  35  56  79 110 145 185 234 288 339
#     4   9  21  35  50  80 117 148 178 225 285 345
#     4  10  21  36  55  83 111 142 193 245 283 330
#     4  10  20  38  52  79 117 145 180 228 284 341
#     4  11  22  33  56  81 112 148 181 227 284 340
#     4  10  20  37  59  79 110 152 189 236 287 333
#     4  10  21  33  54  83 109 139 187 233 278 341
#     4  10  22  37  55  83 115 148 195 241 276 332
#
# _framework density 19.487694999999999
#
# number of rings (size 3 to 8) (size 9 to 14) (size 15 to 20)
#    0.000    2.000    1.250    1.875    7.000    0.500 
#    0.000    0.000    0.000    4.875    0.000    0.000 
#    0.000    0.000    0.000    0.000    0.000    0.000 
#
# Total GULP energy -396447.075555 kJ/mol
# GULP energy per Si atom -12388.971111 kJ/mol
# Density = 1.944334 g / cm^3
# Si number density = 19.487695 Si / 1000 Ang^3
#
#
#
# Elastic Constant Matrix: (Units=GPa)
#
#
# Indices 1 2 3 4 5 6 
#
# 1 85.3793 36.7568 23.3565 0.0000 -0.7507 0.0000
# 2 36.7568 89.1556 20.1802 0.0000 -8.7800 0.0000
# 3 23.3565 20.1802 57.9442 0.0000 0.2760 0.0000
# 4 0.0000 0.0000 0.0000 31.3896 0.0000 17.3256
# 5 -0.7507 -8.7800 0.2760 0.0000 20.9893 0.0000
# 6 0.0000 0.0000 0.0000 17.3256 0.0000 80.2447
#
#
#
# Elastic Compliance Matrix: (Units=1/GPa)
#
#
# Indices 1 2 3 4 5 6 
#
# 1 0.015211 -0.005484 -0.004213 0.000000 -0.001695 0.000000
# 2 -0.005484 0.014737 -0.002950 0.000000 0.006007 0.000000
# 3 -0.004213 -0.002950 0.019992 0.000000 -0.001648 0.000000
# 4 0.000000 0.000000 0.000000 0.036168 0.000000 -0.007809
# 5 -0.001695 0.006007 -0.001648 0.000000 0.050117 0.000000
# 6 0.000000 0.000000 0.000000 -0.007809 0.000000 0.014148
#
#
# Mechanical properties :
#
#
# Convention : Reuss Voigt Hill
#
# Bulk Modulus (GPa) = 40.57844 43.67400 42.12622
# Shear Modulus (GPa) = 27.19114 36.67044 31.93079
#
# Velocity S-wave (km/s) = 3.73942 4.34259 4.05224
# Velocity P-wave (km/s) = 6.28587 6.89955 6.59985
#
# Compressibility (1/GPa) = 0.02464363
#
# Stress axis : x y z
#
# Youngs Moduli (GPa) = 65.74082 67.85713 50.02090
#
# Poissons Ratio (x) = 0.37216 0.21075
# Poissons Ratio (y) = 0.36055 0.14758
# Poissons Ratio (z) = 0.27698 0.20020
#
# Static dielectric constant tensor:
#      x y z
#    x 3.506800 0.000000 0.164380 
#    y 0.000000 3.626790 0.000000 
#    z 0.164380 0.000000 3.467420 
# 
# 
# High freq. dielectric constant tensor:
#      x y z
#    x 1.756880 0.000000 0.009340 
#    y 0.000000 1.755110 0.000000 
#    z 0.009340 0.000000 1.745630 
# 
# From -- ./inp_files/90651.got.cif
#   From: 2010.06.25/outbox.cif.g09.slc.cpg/sg12_46_cif.got.tgz:90651.got - 2010.06.28 00:19:55.
