data_PCOD8099618
_publ_section_title
;
Structure prediction by ZEFSAII (Michael W. Deem and Ramdas Pophale) SiO2 
 PCOD8099618
Probable space group: C 2/M
;
_chemical_formula_sum "Si O2"
_cell_formula_units_Z 64
_cell_length_a 22.526135
_cell_length_b 9.029659
_cell_length_c 16.118160
_cell_angle_alpha 90.000000
_cell_angle_beta 92.382465
_cell_angle_gamma 90.000000
_cell_volume 3275.653291
_symmetry_space_group_name_H-M "C 2/M"
_symmetry_group_IT_number 12
_symmetry_cell_setting 'monoclinic'
loop_
_space_group_symop_operation_xyz
x,y,z
-x,y,-z
-x,-y,-z
x,-y,z
1/2+x,1/2+y,z
1/2-x,1/2+y,-z
1/2-x,1/2-y,-z
1/2+x,1/2-y,z
loop_
_atom_site_type_symbol
_atom_site_label
_atom_site_fract_x
_atom_site_fract_y
_atom_site_fract_z
Si Si1 0.358681 0.173308 0.339342
Si Si2 0.659672 0.172023 0.266857
Si Si3 0.073168 0.328431 0.821755
Si Si4 0.787033 0.827380 0.882256
Si Si5 0.965546 0.830003 0.745765
Si Si6 0.535205 0.330316 0.582219
Si Si7 0.750583 0.672325 0.588868
Si Si8 0.834742 0.329158 0.036256
O O1 0.381310 0.215618 0.248932
O O2 0.407984 0.224481 0.408380
O O3 0.298650 0.260615 0.353227
O O4 0.346380 0.000000 0.348961
O O5 0.704252 0.244187 0.203490
O O6 0.595744 0.244314 0.253799
O O7 0.686389 0.196893 0.360833
O O8 0.653767 0.000000 0.246069
O O9 0.056190 0.500000 0.811878
O O10 0.104800 0.294041 0.910840
O O11 0.012610 0.234942 0.814569
O O12 0.720578 0.790601 0.907767
O O13 0.797544 0.000000 0.868497
O O14 0.833929 0.770406 0.953880
O O15 0.991309 0.808621 0.656104
O O16 0.953865 0.000000 0.767599
O O17 0.500000 0.277473 0.500000
O O18 0.556886 0.500000 0.576135
O O19 0.737525 0.500000 0.574127
O O20 0.750000 0.750000 0.500000
O O21 0.831744 0.500000 0.008978
#
# Coordination Sequence:
#
# PCOD8099618 Si02
#       8
#     8   8   8   8   8   8   8   8
#     4  10  20  35  56  83 112 144 184 229 278 333
#     4  11  24  41  59  80 113 152 190 231 282 342
#     4   9  18  35  58  83 114 151 188 230 279 333
#     4  10  20  35  58  89 119 151 188 229 280 334
#     4  10  21  36  56  82 111 148 190 235 285 336
#     4   9  19  35  55  80 108 143 186 233 284 332
#     4  11  25  41  58  82 111 147 188 233 284 338
#     4   9  18  34  58  87 119 151 187 230 279 333
#
# _framework density 19.538087000000001
#
# number of rings (size 3 to 8) (size 9 to 14) (size 15 to 20)
#    0.000    2.125    0.000    2.625    1.750    5.250 
#    0.000    0.625    0.000    3.750    0.000    0.000 
#    0.000    0.000    0.000    0.000    0.000    0.000 
#
# Total GULP energy -396896.753199 kJ/mol
# GULP energy per Si atom -12403.023537 kJ/mol
# Density = 1.949362 g / cm^3
# Si number density = 19.538087 Si / 1000 Ang^3
#
#
#
# Elastic Constant Matrix: (Units=GPa)
#
#
# Indices 1 2 3 4 5 6 
#
# 1 84.7714 50.8393 32.6370 0.0000 11.7152 0.0000
# 2 50.8393 113.4888 45.1339 0.0000 7.0902 0.0000
# 3 32.6370 45.1339 78.1059 0.0000 19.3086 0.0000
# 4 0.0000 0.0000 0.0000 33.0336 0.0000 0.3368
# 5 11.7152 7.0902 19.3086 0.0000 25.6684 0.0000
# 6 0.0000 0.0000 0.0000 0.3368 0.0000 35.9725
#
#
#
# Elastic Compliance Matrix: (Units=1/GPa)
#
#
# Indices 1 2 3 4 5 6 
#
# 1 0.017194 -0.006489 -0.002381 0.000000 -0.004264 0.000000
# 2 -0.006489 0.013994 -0.006329 0.000000 0.003857 0.000000
# 3 -0.002381 -0.006329 0.020581 0.000000 -0.012647 0.000000
# 4 0.000000 0.000000 0.000000 0.030275 0.000000 -0.000283
# 5 -0.004264 0.003857 -0.012647 0.000000 0.049353 0.000000
# 6 0.000000 0.000000 0.000000 -0.000283 0.000000 0.027802
#
#
# Mechanical properties :
#
#
# Convention : Reuss Voigt Hill
#
# Bulk Modulus (GPa) = 46.78813 59.28741 53.03777
# Shear Modulus (GPa) = 25.41677 28.78529 27.10103
#
# Velocity S-wave (km/s) = 3.61069 3.84251 3.72840
# Velocity P-wave (km/s) = 6.43288 7.07792 6.76309
#
# Compressibility (1/GPa) = 0.02137294
#
# Stress axis : x y z
#
# Youngs Moduli (GPa) = 58.15993 71.45784 48.58746
#
# Poissons Ratio (x) = 0.46370 0.11567
# Poissons Ratio (y) = 0.37741 0.30749
# Poissons Ratio (z) = 0.13846 0.45222
#
# Static dielectric constant tensor:
#      x y z
#    x 3.505440 0.000000 0.154010 
#    y 0.000000 3.633150 0.000000 
#    z 0.154010 0.000000 3.565790 
# 
# 
# High freq. dielectric constant tensor:
#      x y z
#    x 1.758060 0.000000 0.014100 
#    y 0.000000 1.767520 0.000000 
#    z 0.014100 0.000000 1.757860 
# 
# From -- ./inp_files/281276.got.cif
#   From: 2010.06.25/outbox.cif.g09.slc.cpg/sg12_141_cif.got.tgz:281276.got - 2010.06.28 00:19:55.
