data_PCOD8099246
_publ_section_title
;
Structure prediction by ZEFSAII (Michael W. Deem and Ramdas Pophale) SiO2 
 PCOD8099246
Probable space group: C 2/M
;
_chemical_formula_sum "Si O2"
_cell_formula_units_Z 64
_cell_length_a 24.965498
_cell_length_b 9.231096
_cell_length_c 29.897139
_cell_angle_alpha 90.000000
_cell_angle_beta 151.399876
_cell_angle_gamma 90.000000
_cell_volume 3298.229686
_symmetry_space_group_name_H-M "C 2/M"
_symmetry_group_IT_number 12
_symmetry_cell_setting 'monoclinic'
loop_
_space_group_symop_operation_xyz
x,y,z
-x,y,-z
-x,-y,-z
x,-y,z
1/2+x,1/2+y,z
1/2-x,1/2+y,-z
1/2-x,1/2-y,-z
1/2+x,1/2-y,z
loop_
_atom_site_type_symbol
_atom_site_label
_atom_site_fract_x
_atom_site_fract_y
_atom_site_fract_z
Si Si1 0.735884 0.830874 0.035940
Si Si2 0.118435 0.672453 0.602759
Si Si3 0.913428 0.834571 0.900475
Si Si4 0.980870 0.669427 0.864031
Si Si5 0.671676 0.668283 0.407848
Si Si6 0.163006 0.664962 0.734510
Si Si7 0.580876 0.670663 0.758627
Si Si8 0.318142 0.670099 0.686321
O O1 0.827879 0.771929 0.138630
O O2 0.753963 0.000000 0.040109
O O3 0.750000 0.750000 0.000000
O O4 0.612688 0.798532 0.964902
O O5 0.120451 0.500000 0.603272
O O6 0.136359 0.728870 0.666045
O O7 0.215578 0.728964 0.641102
O O8 0.000000 0.735132 0.500000
O O9 0.795245 0.824902 0.838528
O O10 0.916772 0.735473 0.859394
O O11 0.939952 0.000000 0.905513
O O12 0.000000 0.774049 0.000000
O O13 0.955837 0.500000 0.843207
O O14 0.930808 0.745219 0.783005
O O15 0.683260 0.500000 0.427437
O O16 0.750000 0.750000 0.500000
O O17 0.542657 0.717492 0.316622
O O18 0.711854 0.703665 0.387076
O O19 0.120301 0.500000 0.707663
O O20 0.100307 0.760071 0.724766
O O21 0.593312 0.500000 0.762589
O O22 0.340769 0.500000 0.709962
#
# Coordination Sequence:
#
# PCOD8099246 Si02
#       8
#     8   8   8   8   8   8   8   8
#     4  10  22  39  59  84 114 151 195 238 283 340
#     4   9  18  33  57  86 111 140 190 246 285 329
#     4  10  20  35  55  81 114 152 195 234 273 335
#     4  11  22  35  56  87 119 149 185 236 293 342
#     4  10  23  40  62  87 113 152 195 238 292 345
#     4  10  20  35  57  86 114 147 194 239 278 332
#     4  10  22  40  57  82 120 155 189 233 289 350
#     4  10  20  39  63  84 113 155 196 238 288 343
#
# _framework density 19.404347999999999
#
# number of rings (size 3 to 8) (size 9 to 14) (size 15 to 20)
#    0.000    2.000    1.250    1.875    1.750    4.250 
#    0.000    0.000    0.000    0.750    0.000    0.000 
#    0.000    0.000    0.000    0.000    0.000    0.000 
#
# Total GULP energy -396885.487212 kJ/mol
# GULP energy per Si atom -12402.671475 kJ/mol
# Density = 1.936018 g / cm^3
# Si number density = 19.404348 Si / 1000 Ang^3
#
#
#
# Elastic Constant Matrix: (Units=GPa)
#
#
# Indices 1 2 3 4 5 6 
#
# 1 133.6633 40.5043 57.2776 -0.0007 -10.2629 0.0000
# 2 40.5043 48.8659 38.6298 -0.0008 -2.8719 0.0005
# 3 57.2776 38.6298 151.0924 -0.0039 -10.7689 -0.0009
# 4 -0.0007 -0.0008 -0.0039 28.8448 -0.0004 -3.8661
# 5 -10.2629 -2.8719 -10.7689 -0.0004 31.5320 0.0002
# 6 0.0000 0.0005 -0.0009 -3.8661 0.0002 31.7134
#
#
#
# Elastic Compliance Matrix: (Units=1/GPa)
#
#
# Indices 1 2 3 4 5 6 
#
# 1 0.010685 -0.007081 -0.002089 0.000000 0.002119 0.000000
# 2 -0.007081 0.030340 -0.005166 0.000000 -0.001306 -0.000001
# 3 -0.002089 -0.005166 0.008865 0.000001 0.001877 0.000000
# 4 0.000000 0.000000 0.000001 0.035244 0.000001 0.004297
# 5 0.002119 -0.001306 0.001877 0.000001 0.032926 0.000000
# 6 0.000000 -0.000001 0.000000 0.004297 0.000000 0.032056
#
#
# Mechanical properties :
#
#
# Convention : Reuss Voigt Hill
#
# Bulk Modulus (GPa) = 47.12801 67.38279 57.25540
# Shear Modulus (GPa) = 26.90177 31.56536 29.23357
#
# Velocity S-wave (km/s) = 3.72745 4.03763 3.88564
# Velocity P-wave (km/s) = 6.54716 7.51915 7.04992
#
# Compressibility (1/GPa) = 0.02121880
#
# Stress axis : x y z
#
# Youngs Moduli (GPa) = 93.58769 32.95946 112.80231
#
# Poissons Ratio (x) = 0.23337 0.23568
# Poissons Ratio (y) = 0.66266 0.58273
# Poissons Ratio (z) = 0.19553 0.17027
#
# Static dielectric constant tensor:
#      x y z
#    x 3.604890 0.000000 0.039990 
#    y 0.000000 3.302600 0.000000 
#    z 0.039990 0.000000 3.794330 
# 
# 
# High freq. dielectric constant tensor:
#      x y z
#    x 1.761930 0.000000 -0.001570 
#    y 0.000000 1.729290 0.000000 
#    z -0.001570 0.000000 1.769590 
# 
# From -- ./inp_files/382211.got.cif
#   From: 2010.06.25/outbox.cif.g09.slc.cpg/sg12_192_cif.got.tgz:382211.got - 2010.06.28 00:19:55.
