data_PCOD8099731
_publ_section_title
;
Structure prediction by ZEFSAII (Michael W. Deem and Ramdas Pophale) SiO2 
 PCOD8099731
Probable space group: C 2/M
;
_chemical_formula_sum "Si O2"
_cell_formula_units_Z 56
_cell_length_a 27.486318
_cell_length_b 8.809848
_cell_length_c 16.830092
_cell_angle_alpha 90.000000
_cell_angle_beta 41.775167
_cell_angle_gamma 90.000000
_cell_volume 2715.077098
_symmetry_space_group_name_H-M "C 2/M"
_symmetry_group_IT_number 12
_symmetry_cell_setting 'monoclinic'
loop_
_space_group_symop_operation_xyz
x,y,z
-x,y,-z
-x,-y,-z
x,-y,z
1/2+x,1/2+y,z
1/2-x,1/2+y,-z
1/2-x,1/2-y,-z
1/2+x,1/2-y,z
loop_
_atom_site_type_symbol
_atom_site_label
_atom_site_fract_x
_atom_site_fract_y
_atom_site_fract_z
Si Si1 0.671257 0.820161 0.110387
Si Si2 0.844543 0.323191 0.690974
Si Si3 0.758841 0.821811 0.574199
Si Si4 0.543090 0.820235 0.025890
Si Si5 0.535206 0.680796 0.197586
Si Si6 0.087972 0.823749 0.533583
Si Si7 0.692868 0.679663 0.800486
O O1 0.643336 0.777204 0.232618
O O2 0.615532 0.746329 0.116244
O O3 0.675264 0.000000 0.093189
O O4 0.750000 0.750000 0.000000
O O5 0.851100 0.500000 0.669240
O O6 0.907314 0.249105 0.559795
O O7 0.764026 0.268389 0.763082
O O8 0.750000 0.750000 0.500000
O O9 0.839899 0.784285 0.504810
O O10 0.700005 0.739666 0.702004
O O11 0.742251 0.000000 0.592678
O O12 0.506293 0.745785 0.148699
O O13 0.540984 0.000000 0.036636
O O14 0.500000 0.765154 0.000000
O O15 0.625564 0.762059 0.923320
O O16 0.537693 0.500000 0.189981
O O17 0.480666 0.739480 0.333008
O O18 0.078559 0.000000 0.531318
O O19 0.680651 0.500000 0.816442
#
# Coordination Sequence:
#
# PCOD8099731 Si02
#       7
#     8   8   8   8   8   8   8
#     4  11  23  40  64  94 125 161 205 254 305 363
#     4   9  20  38  61  89 120 155 198 245 301 360
#     4  10  20  35  56  85 116 154 201 252 303 360
#     4  11  25  42  60  87 119 157 203 253 310 369
#     4  11  24  42  62  89 123 162 205 251 303 366
#     4   9  21  39  59  85 120 159 202 247 300 361
#     4  10  20  37  60  86 115 153 197 246 302 364
#
# _framework density 20.625565000000002
#
# number of rings (size 3 to 8) (size 9 to 14) (size 15 to 20)
#    0.000    1.857    0.000    3.000    2.000    6.286 
#    0.000    2.857    0.000    0.000    0.000    0.000 
#    0.000    0.000    0.000    0.000    0.000    0.000 
#
# Total GULP energy -347305.496368 kJ/mol
# GULP energy per Si atom -12403.767727 kJ/mol
# Density = 2.057862 g / cm^3
# Si number density = 20.625565 Si / 1000 Ang^3
#
#
#
# Elastic Constant Matrix: (Units=GPa)
#
#
# Indices 1 2 3 4 5 6 
#
# 1 85.8378 39.2581 40.1768 0.0102 18.2694 -0.0002
# 2 39.2581 72.4921 42.7752 0.0067 7.6471 -0.0101
# 3 40.1768 42.7752 128.7066 -0.0029 8.8945 -0.0091
# 4 0.0102 0.0067 -0.0029 39.1846 -0.0068 6.1770
# 5 18.2694 7.6471 8.8945 -0.0068 33.3240 0.0032
# 6 -0.0002 -0.0101 -0.0091 6.1770 0.0032 27.7458
#
#
#
# Elastic Compliance Matrix: (Units=1/GPa)
#
#
# Indices 1 2 3 4 5 6 
#
# 1 0.017787 -0.007313 -0.002612 -0.000005 -0.007376 -0.000002
# 2 -0.007313 0.020367 -0.004524 -0.000003 0.000543 0.000006
# 3 -0.002612 -0.004524 0.010104 0.000002 -0.000227 0.000001
# 4 -0.000005 -0.000003 0.000002 0.026448 0.000009 -0.005888
# 5 -0.007376 0.000543 -0.000227 0.000009 0.033988 -0.000006
# 6 -0.000002 0.000006 0.000001 -0.005888 -0.000006 0.037352
#
#
# Mechanical properties :
#
#
# Convention : Reuss Voigt Hill
#
# Bulk Modulus (GPa) = 51.65179 59.05074 55.35126
# Shear Modulus (GPa) = 27.56366 31.03932 29.30149
#
# Velocity S-wave (km/s) = 3.65962 3.88351 3.77323
# Velocity P-wave (km/s) = 6.55394 6.98576 6.77329
#
# Compressibility (1/GPa) = 0.01936041
#
# Stress axis : x y z
#
# Youngs Moduli (GPa) = 56.22047 49.09913 98.97006
#
# Poissons Ratio (x) = 0.35907 0.25852
# Poissons Ratio (y) = 0.41115 0.44770
# Poissons Ratio (z) = 0.14686 0.22210
#
# Static dielectric constant tensor:
#      x y z
#    x 3.770960 -0.000010 0.148810 
#    y -0.000010 3.724820 0.000030 
#    z 0.148810 0.000030 4.145080 
# 
# 
# High freq. dielectric constant tensor:
#      x y z
#    x 1.804870 0.000000 0.011770 
#    y 0.000000 1.809140 0.000000 
#    z 0.011770 0.000000 1.819470 
# 
# From -- ./inp_files/295106.got.cif
#   From: 2010.06.25/outbox.cif.g09.slc.cpg/sg12_148_cif.got.tgz:295106.got - 2010.06.28 00:19:55.
