data_PCOD8099581
_publ_section_title
;
Structure prediction by ZEFSAII (Michael W. Deem and Ramdas Pophale) SiO2 
 PCOD8099581
Probable space group: C 2/M
;
_chemical_formula_sum "Si O2"
_cell_formula_units_Z 64
_cell_length_a 30.781336
_cell_length_b 9.293207
_cell_length_c 17.332735
_cell_angle_alpha 90.000000
_cell_angle_beta 38.461115
_cell_angle_gamma 90.000000
_cell_volume 3083.890431
_symmetry_space_group_name_H-M "C 2/M"
_symmetry_group_IT_number 12
_symmetry_cell_setting 'monoclinic'
loop_
_space_group_symop_operation_xyz
x,y,z
-x,y,-z
-x,-y,-z
x,-y,z
1/2+x,1/2+y,z
1/2-x,1/2+y,-z
1/2-x,1/2-y,-z
1/2+x,1/2-y,z
loop_
_atom_site_type_symbol
_atom_site_label
_atom_site_fract_x
_atom_site_fract_y
_atom_site_fract_z
Si Si1 0.455144 0.337048 0.491676
Si Si2 0.774488 0.837917 0.179732
Si Si3 0.347942 0.837121 0.546008
Si Si4 0.086818 0.160218 0.216904
Si Si5 0.035260 0.330892 0.870488
Si Si6 0.323776 0.829928 0.407982
Si Si7 0.576455 0.668025 0.064899
Si Si8 0.217217 0.830533 0.117551
O O1 0.500000 0.268946 0.500000
O O2 0.431968 0.500000 0.546433
O O3 0.388252 0.250181 0.556513
O O4 0.505436 0.334112 0.348178
O O5 0.733766 0.823973 0.317247
O O6 0.743076 0.727906 0.162409
O O7 0.767645 0.000000 0.155626
O O8 0.856148 0.804362 0.083372
O O9 0.355031 0.781860 0.448201
O O10 0.375351 0.000000 0.513245
O O11 0.098010 0.235938 0.118551
O O12 0.134573 0.211684 0.222741
O O13 0.113498 0.000000 0.164126
O O14 0.025302 0.500000 0.875968
O O15 0.117612 0.291872 0.739623
O O16 0.991080 0.254107 0.866488
O O17 0.000000 0.277574 0.000000
O O18 0.250000 0.750000 0.500000
O O19 0.308116 0.000000 0.429868
O O20 0.555773 0.500000 0.097047
O O21 0.233361 0.000000 0.092848
O O22 0.250000 0.750000 0.000000
#
# Coordination Sequence:
#
# PCOD8099581 Si02
#       8
#     8   8   8   8   8   8   8   8
#     4  10  20  35  56  82 112 150 196 243 288 345
#     4  10  21  37  55  81 118 156 196 246 294 345
#     4  10  22  39  59  84 119 157 197 247 302 359
#     4   9  18  33  53  76 109 146 185 235 285 333
#     4  10  23  42  62  89 124 152 186 245 306 363
#     4  10  23  43  66  92 123 160 200 249 310 371
#     4  10  20  36  58  83 112 151 196 240 286 347
#     4  11  20  34  54  80 116 156 197 244 295 349
#
# _framework density 20.753005999999999
#
# number of rings (size 3 to 8) (size 9 to 14) (size 15 to 20)
#    0.000    2.000    1.250    1.875    1.750    3.500 
#    0.000    1.250    0.000    0.000    0.000    0.000 
#    0.000    0.000    0.000    0.000    0.000    0.000 
#
# Total GULP energy -396437.295362 kJ/mol
# GULP energy per Si atom -12388.665480 kJ/mol
# Density = 2.070577 g / cm^3
# Si number density = 20.753006 Si / 1000 Ang^3
#
#
#
# Elastic Constant Matrix: (Units=GPa)
#
#
# Indices 1 2 3 4 5 6 
#
# 1 97.9263 34.0538 38.5010 0.0015 -9.2077 -0.0001
# 2 34.0538 55.4200 29.9405 -0.0005 -6.6034 -0.0018
# 3 38.5010 29.9405 116.0803 0.0007 -6.4736 0.0002
# 4 0.0015 -0.0005 0.0007 23.1545 -0.0007 -4.0952
# 5 -9.2077 -6.6034 -6.4736 -0.0007 34.8344 0.0000
# 6 -0.0001 -0.0018 0.0002 -4.0952 0.0000 34.3550
#
#
#
# Elastic Compliance Matrix: (Units=1/GPa)
#
#
# Indices 1 2 3 4 5 6 
#
# 1 0.013823 -0.006799 -0.002728 -0.000001 0.001858 0.000000
# 2 -0.006799 0.024625 -0.003977 0.000001 0.002132 0.000001
# 3 -0.002728 -0.003977 0.010573 0.000000 0.000490 0.000000
# 4 -0.000001 0.000001 0.000000 0.044118 0.000001 0.005259
# 5 0.001858 0.002132 0.000490 0.000001 0.029694 0.000000
# 6 0.000000 0.000001 0.000000 0.005259 0.000000 0.029735
#
#
# Mechanical properties :
#
#
# Convention : Reuss Voigt Hill
#
# Bulk Modulus (GPa) = 45.42889 52.71304 49.07096
# Shear Modulus (GPa) = 26.75050 29.59752 28.17401
#
# Velocity S-wave (km/s) = 3.59415 3.78058 3.68854
# Velocity P-wave (km/s) = 6.25793 6.67176 6.46815
#
# Compressibility (1/GPa) = 0.02201243
#
# Stress axis : x y z
#
# Youngs Moduli (GPa) = 72.34224 40.60980 94.58399
#
# Poissons Ratio (x) = 0.27610 0.25798
# Poissons Ratio (y) = 0.49185 0.37621
# Poissons Ratio (z) = 0.19732 0.16152
#
# Static dielectric constant tensor:
#      x y z
#    x 3.790600 0.000000 -0.054500 
#    y 0.000000 3.555180 0.000000 
#    z -0.054500 0.000000 4.075540 
# 
# 
# High freq. dielectric constant tensor:
#      x y z
#    x 1.802430 0.000000 -0.000480 
#    y 0.000000 1.784520 0.000000 
#    z -0.000480 0.000000 1.833940 
# 
# From -- ./inp_files/295556.got.cif
#   From: 2010.06.25/outbox.cif.g09.slc.cpg/sg12_148_cif.got.tgz:295556.got - 2010.06.28 00:19:55.
