data_PCOD8099424
_publ_section_title
;
Structure prediction by ZEFSAII (Michael W. Deem and Ramdas Pophale) SiO2 
 PCOD8099424
Probable space group: C 2/M
;
_chemical_formula_sum "Si O2"
_cell_formula_units_Z 40
_cell_length_a 24.238143
_cell_length_b 8.820641
_cell_length_c 9.658955
_cell_angle_alpha 90.000000
_cell_angle_beta 85.616662
_cell_angle_gamma 90.000000
_cell_volume 2059.005321
_symmetry_space_group_name_H-M "C 2/M"
_symmetry_group_IT_number 12
_symmetry_cell_setting 'monoclinic'
loop_
_space_group_symop_operation_xyz
x,y,z
-x,y,-z
-x,-y,-z
x,-y,z
1/2+x,1/2+y,z
1/2-x,1/2+y,-z
1/2-x,1/2-y,-z
1/2+x,1/2-y,z
loop_
_atom_site_type_symbol
_atom_site_label
_atom_site_fract_x
_atom_site_fract_y
_atom_site_fract_z
Si Si1 0.673595 0.322779 0.415380
Si Si2 0.022235 0.333484 0.841633
Si Si3 0.904377 0.679697 0.789856
Si Si4 0.796772 0.676938 0.308634
Si Si5 0.126113 0.821962 0.915122
O O1 0.662837 0.500000 0.436185
O O2 0.624817 0.249265 0.337193
O O3 0.731515 0.290421 0.327999
O O4 0.672323 0.246180 0.565194
O O5 0.042837 0.500000 0.788095
O O6 0.073489 0.217746 0.826792
O O7 0.969669 0.277941 0.761165
O O8 0.000000 0.347569 0.000000
O O9 0.896166 0.500000 0.797450
O O10 0.878420 0.748599 0.933573
O O11 0.810000 0.500000 0.299331
O O12 0.818588 0.758417 0.166520
O O13 0.130717 0.000000 0.932315
#
# Coordination Sequence:
#
# PCOD8099424 Si02
#       5
#     8   8   8   8   8
#     4  10  21  37  57  80 105 136 176 220 264 311
#     4   8  16  32  52  75 105 140 174 209 259 318
#     4  10  20  35  56  80 108 142 176 213 261 316
#     4  10  21  38  57  76 105 143 176 212 264 321
#     4  11  21  33  54  82 109 138 176 222 262 302
#
# _framework density 19.426856000000001
#
# number of rings (size 3 to 8) (size 9 to 14) (size 15 to 20)
#    0.000    2.200    0.000    4.800    0.000    7.600 
#    0.000    1.000    0.000    6.000    0.000    0.000 
#    0.000    0.000    0.000    0.000    0.000    0.000 
#
# Total GULP energy -247999.187398 kJ/mol
# GULP energy per Si atom -12399.959370 kJ/mol
# Density = 1.938264 g / cm^3
# Si number density = 19.426856 Si / 1000 Ang^3
#
#
#
# Elastic Constant Matrix: (Units=GPa)
#
#
# Indices 1 2 3 4 5 6 
#
# 1 36.4243 7.4940 -1.4289 0.0000 20.1019 0.0000
# 2 7.4940 102.2403 10.7554 0.0000 5.7218 0.0000
# 3 -1.4289 10.7554 25.6401 0.0000 12.0245 0.0000
# 4 0.0000 0.0000 0.0000 32.5431 0.0000 1.8734
# 5 20.1019 5.7218 12.0245 0.0000 38.4373 0.0000
# 6 0.0000 0.0000 0.0000 1.8734 0.0000 30.5188
#
#
#
# Elastic Compliance Matrix: (Units=1/GPa)
#
#
# Indices 1 2 3 4 5 6 
#
# 1 0.044271 -0.003472 0.017040 0.000000 -0.027967 0.000000
# 2 -0.003472 0.010506 -0.005530 0.000000 0.001982 0.000000
# 3 0.017040 -0.005530 0.053984 0.000000 -0.024976 0.000000
# 4 0.000000 0.000000 0.000000 0.030837 0.000000 -0.001893
# 5 -0.027967 0.001982 -0.024976 0.000000 0.048161 0.000000
# 6 0.000000 0.000000 0.000000 -0.001893 0.000000 0.032883
#
#
# Mechanical properties :
#
#
# Convention : Reuss Voigt Hill
#
# Bulk Modulus (GPa) = 8.01053 21.99396 15.00224
# Shear Modulus (GPa) = 20.31029 30.13213 25.22121
#
# Velocity S-wave (km/s) = 3.23689 3.94262 3.60705
# Velocity P-wave (km/s) = 4.25468 5.66318 5.00869
#
# Compressibility (1/GPa) = 0.12483564
#
# Stress axis : x y z
#
# Youngs Moduli (GPa) = 22.58793 95.18159 18.52401
#
# Poissons Ratio (x) = 0.33051 -0.31564
# Poissons Ratio (y) = 0.07843 0.10244
# Poissons Ratio (z) = -0.38489 0.52637
#
# Static dielectric constant tensor:
#      x y z
#    x 3.870570 0.000000 0.138120 
#    y 0.000000 3.602210 0.000000 
#    z 0.138120 0.000000 3.314480 
# 
# 
# High freq. dielectric constant tensor:
#      x y z
#    x 1.760080 0.000000 0.006180 
#    y 0.000000 1.766050 0.000000 
#    z 0.006180 0.000000 1.735030 
# 
# From -- ./inp_files/92922.got.cif
#   From: 2010.06.25/outbox.cif.g09.slc.cpg/sg12_47_cif.got.tgz:92922.got - 2010.06.28 00:19:55.
