data_PCOD8099077
_publ_section_title
;
Structure prediction by ZEFSAII (Michael W. Deem and Ramdas Pophale) SiO2 
 PCOD8099077
Probable space group: C 2/M
;
_chemical_formula_sum "Si O2"
_cell_formula_units_Z 48
_cell_length_a 20.058026
_cell_length_b 9.030510
_cell_length_c 15.585105
_cell_angle_alpha 90.000000
_cell_angle_beta 108.741665
_cell_angle_gamma 90.000000
_cell_volume 2673.311561
_symmetry_space_group_name_H-M "C 2/M"
_symmetry_group_IT_number 12
_symmetry_cell_setting 'monoclinic'
loop_
_space_group_symop_operation_xyz
x,y,z
-x,y,-z
-x,-y,-z
x,-y,z
1/2+x,1/2+y,z
1/2-x,1/2+y,-z
1/2-x,1/2-y,-z
1/2+x,1/2-y,z
loop_
_atom_site_type_symbol
_atom_site_label
_atom_site_fract_x
_atom_site_fract_y
_atom_site_fract_z
Si Si1 0.007787 0.673959 0.763807
Si Si2 0.160188 0.669833 0.896444
Si Si3 0.968918 0.827109 0.577765
Si Si4 0.872659 0.824635 0.773244
Si Si5 0.684490 0.670737 0.431561
Si Si6 0.294031 0.828957 0.893965
O O1 0.992994 0.500000 0.756749
O O2 0.082261 0.713605 0.836299
O O3 0.007968 0.734308 0.667080
O O4 0.949469 0.752207 0.798412
O O5 0.178077 0.500000 0.881059
O O6 0.213823 0.773960 0.867130
O O7 0.165995 0.697123 0.000231
O O8 0.885706 0.792837 0.543296
O O9 0.000000 0.775935 0.500000
O O10 0.982746 0.000000 0.601666
O O11 0.826893 0.777811 0.671262
O O12 0.834341 0.767504 0.841236
O O13 0.882552 0.000000 0.781425
O O14 0.702750 0.500000 0.442362
O O15 0.750000 0.750000 0.500000
O O16 0.294126 0.000000 0.866363
#
# Coordination Sequence:
#
# PCOD8099077 Si02
#       6
#     8   8   8   8   8   8
#     4  10  20  35  55  78 105 137 175 217 259 306
#     4   9  20  37  54  77 109 138 169 216 264 303
#     4   9  19  36  54  74 103 136 171 213 259 305
#     4  10  21  37  54  76 108 139 171 215 263 307
#     4   9  19  34  52  74 101 133 167 209 256 302
#     4  10  20  35  56  79 104 138 177 213 255 310
#
# _framework density 17.955258000000001
#
# number of rings (size 3 to 8) (size 9 to 14) (size 15 to 20)
#    0.000    2.500    0.000    2.500    0.000    7.667 
#    0.000    6.667    0.000    0.000    0.000    0.000 
#    0.000    0.000    0.000    0.000    0.000    0.000 
#
# Total GULP energy -297659.029879 kJ/mol
# GULP energy per Si atom -12402.459578 kJ/mol
# Density = 1.791439 g / cm^3
# Si number density = 17.955258 Si / 1000 Ang^3
#
#
#
# Elastic Constant Matrix: (Units=GPa)
#
#
# Indices 1 2 3 4 5 6 
#
# 1 125.7074 57.3474 83.8645 0.0000 4.5897 0.0000
# 2 57.3474 74.2039 46.5287 0.0000 5.8265 0.0000
# 3 83.8645 46.5287 91.5746 0.0000 5.0785 0.0000
# 4 0.0000 0.0000 0.0000 33.1439 0.0000 -1.8064
# 5 4.5897 5.8265 5.0785 0.0000 39.3355 0.0000
# 6 0.0000 0.0000 0.0000 -1.8064 0.0000 34.8446
#
#
#
# Elastic Compliance Matrix: (Units=1/GPa)
#
#
# Indices 1 2 3 4 5 6 
#
# 1 0.022430 -0.006574 -0.017233 0.000000 0.000582 0.000000
# 2 -0.006574 0.021810 -0.004960 0.000000 -0.001823 0.000000
# 3 -0.017233 -0.004960 0.029280 0.000000 -0.001035 0.000000
# 4 0.000000 0.000000 0.000000 0.030257 0.000000 0.001569
# 5 0.000582 -0.001823 -0.001035 0.000000 0.025758 0.000000
# 6 0.000000 0.000000 0.000000 0.001569 0.000000 0.028780
#
#
# Mechanical properties :
#
#
# Convention : Reuss Voigt Hill
#
# Bulk Modulus (GPa) = 62.55777 74.10744 68.33261
# Shear Modulus (GPa) = 22.60608 28.38117 25.49362
#
# Velocity S-wave (km/s) = 3.55212 3.98007 3.77217
# Velocity P-wave (km/s) = 7.19305 7.90470 7.55725
#
# Compressibility (1/GPa) = 0.01598522
#
# Stress axis : x y z
#
# Youngs Moduli (GPa) = 44.58291 45.84957 34.15303
#
# Poissons Ratio (x) = 0.30143 0.58857
# Poissons Ratio (y) = 0.29311 0.16939
# Poissons Ratio (z) = 0.76832 0.22740
#
# Static dielectric constant tensor:
#      x y z
#    x 3.374020 0.000000 -0.063860 
#    y 0.000000 3.370010 0.000000 
#    z -0.063860 0.000000 3.394180 
# 
# 
# High freq. dielectric constant tensor:
#      x y z
#    x 1.699860 0.000000 -0.001430 
#    y 0.000000 1.702410 0.000000 
#    z -0.001430 0.000000 1.694490 
# 
# From -- ./inp_files/230334.got.cif
#   From: 2010.06.25/outbox.cif.g09.slc.cpg/sg12_116_cif.got.tgz:230334.got - 2010.06.28 00:19:55.
