data_PCOD8099763
_publ_section_title
;
Structure prediction by ZEFSAII (Michael W. Deem and Ramdas Pophale) SiO2 
 PCOD8099763
Probable space group: C 2/M
;
_chemical_formula_sum "Si O2"
_cell_formula_units_Z 48
_cell_length_a 14.640959
_cell_length_b 23.143287
_cell_length_c 14.486210
_cell_angle_alpha 90.000000
_cell_angle_beta 29.956417
_cell_angle_gamma 90.000000
_cell_volume 2451.018869
_symmetry_space_group_name_H-M "C 2/M"
_symmetry_group_IT_number 12
_symmetry_cell_setting 'monoclinic'
loop_
_space_group_symop_operation_xyz
x,y,z
-x,y,-z
-x,-y,-z
x,-y,z
1/2+x,1/2+y,z
1/2-x,1/2+y,-z
1/2-x,1/2-y,-z
1/2+x,1/2-y,z
loop_
_atom_site_type_symbol
_atom_site_label
_atom_site_fract_x
_atom_site_fract_y
_atom_site_fract_z
Si Si1 0.552817 0.563988 0.348594
Si Si2 0.367514 0.628993 0.360830
Si Si3 0.099716 0.767805 0.204201
Si Si4 0.361575 0.143066 0.039818
Si Si5 0.460136 0.858500 0.739325
Si Si6 0.109611 0.931981 0.997273
O O1 0.500000 0.565979 0.500000
O O2 0.533914 0.500000 0.324308
O O3 0.408873 0.605829 0.426226
O O4 0.763571 0.582226 0.146086
O O5 0.433754 0.696319 0.300307
O O6 0.482234 0.589975 0.190557
O O7 0.153154 0.618312 0.532423
O O8 0.203024 0.808372 0.187329
O O9 0.035958 0.707262 0.303531
O O10 0.250000 0.750000 0.000000
O O11 0.500000 0.157830 0.000000
O O12 0.451622 0.141094 0.858807
O O13 0.300060 0.896552 0.833539
O O14 0.152312 0.000000 0.970391
O O15 0.000000 0.918525 0.000000
#
# Coordination Sequence:
#
# PCOD8099763 Si02
#       6
#     8   8   8   8   8   8
#     4  10  20  35  56  86 125 163 201 242 293 361
#     4  11  21  39  66  88 127 158 203 254 311 363
#     4   9  18  38  60  89 123 165 197 250 302 367
#     4  10  20  35  58  89 125 160 199 245 303 365
#     4  11  22  40  65  91 123 162 205 251 314 368
#     4  11  25  44  65  88 121 163 213 265 309 362
#
# _framework density 19.583691999999999
#
# number of rings (size 3 to 8) (size 9 to 14) (size 15 to 20)
#    0.000    1.667    5.000    2.000    0.000    3.000 
#    0.000    1.667   11.000    0.000    0.000    0.000 
#    0.000    0.000    0.000    0.000    0.000    0.000 
#
# Total GULP energy -297417.847716 kJ/mol
# GULP energy per Si atom -12392.410321 kJ/mol
# Density = 1.953912 g / cm^3
# Si number density = 19.583692 Si / 1000 Ang^3
#
#
#
# Elastic Constant Matrix: (Units=GPa)
#
#
# Indices 1 2 3 4 5 6 
#
# 1 101.5388 47.4873 38.1340 -0.0794 -27.0644 0.0095
# 2 47.4873 127.5986 48.5960 -0.3279 -7.9306 -0.0691
# 3 38.1340 48.5960 112.2566 -0.5211 -32.4061 0.0590
# 4 -0.0794 -0.3279 -0.5211 13.3334 0.0427 -8.2695
# 5 -27.0644 -7.9306 -32.4061 0.0427 27.7257 -0.0629
# 6 0.0095 -0.0691 0.0590 -8.2695 -0.0629 15.7620
#
#
#
# Elastic Compliance Matrix: (Units=1/GPa)
#
#
# Indices 1 2 3 4 5 6 
#
# 1 0.016144 -0.005607 0.001554 -0.000026 0.015971 0.000010
# 2 -0.005607 0.011514 -0.005597 0.000124 -0.008722 0.000105
# 3 0.001554 -0.005597 0.016272 0.000653 0.018934 0.000331
# 4 -0.000026 0.000124 0.000653 0.111216 0.000734 0.058350
# 5 0.015971 -0.008722 0.018934 0.000734 0.071294 0.000551
# 6 0.000010 0.000105 0.000331 0.058350 0.000551 0.094059
#
#
# Mechanical properties :
#
#
# Convention : Reuss Voigt Hill
#
# Bulk Modulus (GPa) = 40.60244 67.75876 54.18060
# Shear Modulus (GPa) = 14.36744 25.17599 19.77171
#
# Velocity S-wave (km/s) = 2.71152 3.58936 3.18087
# Velocity P-wave (km/s) = 5.53000 7.20088 6.42003
#
# Compressibility (1/GPa) = 0.02462906
#
# Stress axis : x y z
#
# Youngs Moduli (GPa) = 61.94074 86.85260 61.45531
#
# Poissons Ratio (x) = 0.48702 -0.09548
# Poissons Ratio (y) = 0.34733 0.34395
# Poissons Ratio (z) = -0.09623 0.48609
#
# Static dielectric constant tensor:
#      x y z
#    x 3.871670 -0.003650 -0.353550 
#    y -0.003650 4.715810 0.003300 
#    z -0.353550 0.003300 3.641590 
# 
# 
# High freq. dielectric constant tensor:
#      x y z
#    x 1.750120 -0.000020 -0.010260 
#    y -0.000020 1.776660 0.000050 
#    z -0.010260 0.000050 1.761250 
# 
# From -- ./inp_files/218435.got.cif
#   From: 2010.06.25/outbox.cif.g09.slc.cpg/sg12_110_cif.got.tgz:218435.got - 2010.06.28 00:19:55.
