data_PCOD8099029
_publ_section_title
;
Structure prediction by ZEFSAII (Michael W. Deem and Ramdas Pophale) SiO2 
 PCOD8099029
Probable space group: C 2/M
;
_chemical_formula_sum "Si O2"
_cell_formula_units_Z 48
_cell_length_a 22.918954
_cell_length_b 13.965035
_cell_length_c 9.845709
_cell_angle_alpha 90.000000
_cell_angle_beta 41.309098
_cell_angle_gamma 90.000000
_cell_volume 2080.210743
_symmetry_space_group_name_H-M "C 2/M"
_symmetry_group_IT_number 12
_symmetry_cell_setting 'monoclinic'
loop_
_space_group_symop_operation_xyz
x,y,z
-x,y,-z
-x,-y,-z
x,-y,z
1/2+x,1/2+y,z
1/2-x,1/2+y,-z
1/2-x,1/2-y,-z
1/2+x,1/2-y,z
loop_
_atom_site_type_symbol
_atom_site_label
_atom_site_fract_x
_atom_site_fract_y
_atom_site_fract_z
Si Si1 0.333280 0.775602 0.765329
Si Si2 0.565223 0.109232 0.191856
Si Si3 0.361381 0.109506 0.473121
Si Si4 0.102946 0.296908 0.858739
Si Si5 0.435794 0.396632 0.989929
Si Si6 0.057238 0.894410 0.531867
O O1 0.408140 0.822217 0.730231
O O2 0.303126 0.848702 0.698837
O O3 0.365219 0.680672 0.630782
O O4 0.250000 0.750000 0.000000
O O5 0.462017 0.123130 0.345370
O O6 0.587447 0.000000 0.193492
O O7 0.618822 0.134401 0.960340
O O8 0.341700 0.165516 0.366818
O O9 0.336691 0.000000 0.490111
O O10 0.132513 0.188065 0.848805
O O11 0.000000 0.295556 0.000000
O O12 0.389124 0.500000 0.036206
O O13 0.493343 0.356845 0.763132
O O14 0.500000 0.417855 0.000000
O O15 0.000000 0.905745 0.500000
O O16 0.096373 0.000000 0.501961
#
# Coordination Sequence:
#
# PCOD8099029 Si02
#       6
#     8   8   8   8   8   8
#     4  12  24  36  52  78 113 153 188 228 276 328
#     4  10  20  36  60  86 111 142 185 235 284 335
#     4  10  20  36  60  87 113 144 185 233 283 333
#     4   9  16  30  56  87 114 137 176 235 288 333
#     4   9  16  27  48  78 109 138 169 215 271 325
#     4  10  20  35  55  76 101 137 181 227 273 323
#
# _framework density 23.074584999999999
#
# number of rings (size 3 to 8) (size 9 to 14) (size 15 to 20)
#    0.000    2.000    0.000    6.500    0.000    4.667 
#    0.000    0.833    0.000    0.000    0.000    7.000 
#    0.000    0.000    0.000    0.000    0.000    0.000 
#
# Total GULP energy -297487.997920 kJ/mol
# GULP energy per Si atom -12395.333247 kJ/mol
# Density = 2.302207 g / cm^3
# Si number density = 23.074585 Si / 1000 Ang^3
#
#
#
# Elastic Constant Matrix: (Units=GPa)
#
#
# Indices 1 2 3 4 5 6 
#
# 1 23.2268 18.7648 23.5305 0.0000 20.8578 0.0000
# 2 18.7648 187.1788 78.9828 0.0000 13.6615 0.0000
# 3 23.5305 78.9828 152.3502 0.0000 43.6520 0.0000
# 4 0.0000 0.0000 0.0000 36.6181 0.0000 18.7953
# 5 20.8578 13.6615 43.6520 0.0000 35.6348 0.0000
# 6 0.0000 0.0000 0.0000 18.7953 0.0000 18.9619
#
#
#
# Elastic Compliance Matrix: (Units=1/GPa)
#
#
# Indices 1 2 3 4 5 6 
#
# 1 0.100386 -0.008467 0.007381 0.000000 -0.064554 0.000000
# 2 -0.008467 0.007719 -0.005033 0.000000 0.008161 0.000000
# 3 0.007381 -0.005033 0.013433 0.000000 -0.018845 0.000000
# 4 0.000000 0.000000 0.000000 0.055593 0.000000 -0.055105
# 5 -0.064554 0.008161 -0.018845 0.000000 0.085804 0.000000
# 6 0.000000 0.000000 0.000000 -0.055105 0.000000 0.107358
#
#
# Mechanical properties :
#
#
# Convention : Reuss Voigt Hill
#
# Bulk Modulus (GPa) = 9.14901 67.25688 38.20295
# Shear Modulus (GPa) = 11.93423 34.34148 23.13786
#
# Velocity S-wave (km/s) = 2.27668 3.86201 3.17005
# Velocity P-wave (km/s) = 3.29918 7.00698 5.47642
#
# Compressibility (1/GPa) = 0.10930140
#
# Stress axis : x y z
#
# Youngs Moduli (GPa) = 9.96152 129.54761 74.44617
#
# Poissons Ratio (x) = 1.09684 -0.54948
# Poissons Ratio (y) = 0.08434 0.37465
# Poissons Ratio (z) = -0.07353 0.65195
#
# Static dielectric constant tensor:
#      x y z
#    x 3.696160 0.000000 0.544780 
#    y 0.000000 4.770150 0.000000 
#    z 0.544780 0.000000 4.108540 
# 
# 
# High freq. dielectric constant tensor:
#      x y z
#    x 1.868370 0.000000 0.049510 
#    y 0.000000 1.936820 0.000000 
#    z 0.049510 0.000000 1.905120 
# 
# From -- ./inp_files/104962.got.cif
#   From: 2010.06.25/outbox.cif.g09.slc.cpg/sg12_53_cif.got.tgz:104962.got - 2010.06.28 00:19:55.
