data_PCOD8099088
_publ_section_title
;
Structure prediction by ZEFSAII (Michael W. Deem and Ramdas Pophale) SiO2 
 PCOD8099088
Probable space group: C 2/M
;
_chemical_formula_sum "Si O2"
_cell_formula_units_Z 64
_cell_length_a 19.419482
_cell_length_b 9.204856
_cell_length_c 20.481753
_cell_angle_alpha 90.000000
_cell_angle_beta 116.090097
_cell_angle_gamma 90.000000
_cell_volume 3288.124117
_symmetry_space_group_name_H-M "C 2/M"
_symmetry_group_IT_number 12
_symmetry_cell_setting 'monoclinic'
loop_
_space_group_symop_operation_xyz
x,y,z
-x,y,-z
-x,-y,-z
x,-y,z
1/2+x,1/2+y,z
1/2-x,1/2+y,-z
1/2-x,1/2-y,-z
1/2+x,1/2-y,z
loop_
_atom_site_type_symbol
_atom_site_label
_atom_site_fract_x
_atom_site_fract_y
_atom_site_fract_z
Si Si1 0.338664 0.836959 0.109407
Si Si2 0.053469 0.165349 0.331061
Si Si3 0.927821 0.339025 0.924280
Si Si4 0.202817 0.330600 0.425404
Si Si5 0.659877 0.661685 0.013027
Si Si6 0.901405 0.834603 0.796203
Si Si7 0.619424 0.668981 0.742183
Si Si8 0.245844 0.666812 0.297884
O O1 0.250542 0.848864 0.053406
O O2 0.352599 0.763217 0.185050
O O3 0.374444 0.000000 0.125066
O O4 0.374493 0.741393 0.065716
O O5 0.115842 0.270442 0.389612
O O6 0.056420 0.182045 0.254598
O O7 0.967298 0.210260 0.315711
O O8 0.072367 0.000000 0.360019
O O9 0.896798 0.500000 0.895605
O O10 0.861010 0.249395 0.930885
O O11 0.951894 0.257137 0.868096
O O12 0.000000 0.346482 0.000000
O O13 0.198715 0.500000 0.439979
O O14 0.250000 0.250000 0.500000
O O15 0.246881 0.300082 0.375723
O O16 0.623767 0.500000 0.998721
O O17 0.815909 0.770041 0.761462
O O18 0.895378 0.000000 0.816500
O O19 0.623115 0.500000 0.764393
O O20 0.672051 0.700653 0.700741
O O21 0.221820 0.500000 0.276167
#
# Coordination Sequence:
#
# PCOD8099088 Si02
#       8
#     8   8   8   8   8   8   8   8
#     4  10  21  35  53  77 105 139 178 226 281 337
#     4   9  20  37  57  84 114 145 183 226 273 328
#     4  11  24  37  50  72 103 139 181 233 287 335
#     4  10  20  37  62  89 116 151 186 222 267 320
#     4  10  21  37  54  73  99 136 185 233 282 338
#     4  10  20  35  55  78 106 142 185 231 278 334
#     4  10  20  35  56  82 111 144 183 228 277 327
#     4   9  19  36  59  85 112 145 186 226 269 325
#
# _framework density 19.463985999999998
#
# number of rings (size 3 to 8) (size 9 to 14) (size 15 to 20)
#    0.000    2.125    0.000    2.625    1.750    6.500 
#    0.000    0.625    0.000    3.750    0.000    0.000 
#    0.000    0.000    0.000    0.000    0.000    0.000 
#
# Total GULP energy -396789.995332 kJ/mol
# GULP energy per Si atom -12399.687354 kJ/mol
# Density = 1.941969 g / cm^3
# Si number density = 19.463986 Si / 1000 Ang^3
#
#
#
# Elastic Constant Matrix: (Units=GPa)
#
#
# Indices 1 2 3 4 5 6 
#
# 1 90.4453 38.4474 27.8408 0.0000 5.6590 0.0000
# 2 38.4474 141.8132 58.4490 0.0000 0.3925 0.0000
# 3 27.8408 58.4490 98.8533 0.0000 -0.0084 0.0000
# 4 0.0000 0.0000 0.0000 36.3380 0.0000 0.1482
# 5 5.6590 0.3925 -0.0084 0.0000 13.9158 0.0000
# 6 0.0000 0.0000 0.0000 0.1482 0.0000 23.2688
#
#
#
# Elastic Compliance Matrix: (Units=1/GPa)
#
#
# Indices 1 2 3 4 5 6 
#
# 1 0.013182 -0.002683 -0.002127 0.000000 -0.005286 0.000000
# 2 -0.002683 0.009871 -0.005081 0.000000 0.000809 0.000000
# 3 -0.002127 -0.005081 0.013719 0.000000 0.001017 0.000000
# 4 0.000000 0.000000 0.000000 0.027520 0.000000 -0.000175
# 5 -0.005286 0.000809 0.001017 0.000000 0.073989 0.000000
# 6 0.000000 0.000000 0.000000 -0.000175 0.000000 0.042977
#
#
# Mechanical properties :
#
#
# Convention : Reuss Voigt Hill
#
# Bulk Modulus (GPa) = 58.85236 64.50960 61.68098
# Shear Modulus (GPa) = 24.18944 28.46282 26.32613
#
# Velocity S-wave (km/s) = 3.52913 3.82819 3.68170
# Velocity P-wave (km/s) = 6.84898 7.26327 7.05917
#
# Compressibility (1/GPa) = 0.01699167
#
# Stress axis : x y z
#
# Youngs Moduli (GPa) = 75.85973 101.31129 72.89110
#
# Poissons Ratio (x) = 0.27178 0.15503
# Poissons Ratio (y) = 0.20350 0.37033
# Poissons Ratio (z) = 0.16135 0.51472
#
# Static dielectric constant tensor:
#      x y z
#    x 3.634360 0.000000 -0.163690 
#    y 0.000000 3.944720 0.000000 
#    z -0.163690 0.000000 3.420900 
# 
# 
# High freq. dielectric constant tensor:
#      x y z
#    x 1.753460 0.000000 -0.002800 
#    y 0.000000 1.770430 0.000000 
#    z -0.002800 0.000000 1.741340 
# 
# From -- ./inp_files/320089.got.cif
#   From: 2010.06.25/outbox.cif.g09.slc.cpg/sg12_161_cif.got.tgz:320089.got - 2010.06.28 00:19:55.
