data_PCOD8099118
_publ_section_title
;
Structure prediction by ZEFSAII (Michael W. Deem and Ramdas Pophale) SiO2 
 PCOD8099118
Probable space group: C 2/M
;
_chemical_formula_sum "Si O2"
_cell_formula_units_Z 48
_cell_length_a 30.305690
_cell_length_b 8.923820
_cell_length_c 9.487969
_cell_angle_alpha 90.000000
_cell_angle_beta 90.055253
_cell_angle_gamma 90.000000
_cell_volume 2565.949077
_symmetry_space_group_name_H-M "C 2/M"
_symmetry_group_IT_number 12
_symmetry_cell_setting 'monoclinic'
loop_
_space_group_symop_operation_xyz
x,y,z
-x,y,-z
-x,-y,-z
x,-y,z
1/2+x,1/2+y,z
1/2-x,1/2+y,-z
1/2-x,1/2-y,-z
1/2+x,1/2-y,z
loop_
_atom_site_type_symbol
_atom_site_label
_atom_site_fract_x
_atom_site_fract_y
_atom_site_fract_z
Si Si1 0.865468 0.676084 0.611135
Si Si2 0.463676 0.329090 0.885160
Si Si3 0.137077 0.174680 0.094992
Si Si4 0.712416 0.824926 0.591200
Si Si5 0.789963 0.678458 0.085647
Si Si6 0.536270 0.175950 0.397854
O O1 0.864826 0.500000 0.647772
O O2 0.850014 0.764346 0.750361
O O3 0.834297 0.715946 0.480009
O O4 0.914265 0.731597 0.565746
O O5 0.466758 0.500000 0.833034
O O6 0.414322 0.296356 0.940841
O O7 0.476209 0.220123 0.759363
O O8 0.500000 0.291557 0.000000
O O9 0.149565 0.000000 0.089700
O O10 0.164100 0.263391 0.976996
O O11 0.750000 0.750000 0.500000
O O12 0.712786 0.767252 0.752014
O O13 0.721272 0.000000 0.587558
O O14 0.787877 0.500000 0.073640
O O15 0.750000 0.750000 0.000000
O O16 0.500000 0.251628 0.500000
O O17 0.533976 0.000000 0.413625
#
# Coordination Sequence:
#
# PCOD8099118 Si02
#       6
#     8   8   8   8   8   8
#     4   9  18  35  55  75 103 137 171 213 264 310
#     4   9  19  35  53  75 106 142 178 216 259 309
#     4  10  20  35  55  79 106 138 177 218 260 308
#     4  10  22  37  54  76 102 133 169 209 253 304
#     4  11  23  38  56  80 108 138 173 213 259 311
#     4   9  18  32  52  78 105 134 171 215 262 312
#
# _framework density 18.706527999999999
#
# number of rings (size 3 to 8) (size 9 to 14) (size 15 to 20)
#    0.000    2.333    0.000    2.000    0.000    7.333 
#    0.000    1.667    0.000    0.000    0.000    0.000 
#    0.000    0.000    0.000    0.000    0.000    0.000 
#
# Total GULP energy -297607.582337 kJ/mol
# GULP energy per Si atom -12400.315931 kJ/mol
# Density = 1.866395 g / cm^3
# Si number density = 18.706528 Si / 1000 Ang^3
#
#
#
# Elastic Constant Matrix: (Units=GPa)
#
#
# Indices 1 2 3 4 5 6 
#
# 1 124.8811 34.7685 92.8471 0.0000 -4.4004 0.0000
# 2 34.7685 37.0279 40.6973 0.0000 -3.2401 0.0000
# 3 92.8471 40.6973 151.6351 0.0000 -4.8148 0.0000
# 4 0.0000 0.0000 0.0000 24.6982 0.0000 0.2993
# 5 -4.4004 -3.2401 -4.8148 0.0000 41.1784 0.0000
# 6 0.0000 0.0000 0.0000 0.2993 0.0000 27.6902
#
#
#
# Elastic Compliance Matrix: (Units=1/GPa)
#
#
# Indices 1 2 3 4 5 6 
#
# 1 0.015552 -0.005847 -0.007944 0.000000 0.000273 0.000000
# 2 -0.005847 0.040641 -0.007273 0.000000 0.001723 0.000000
# 3 -0.007944 -0.007273 0.013416 0.000000 0.000147 0.000000
# 4 0.000000 0.000000 0.000000 0.040494 0.000000 -0.000438
# 5 0.000273 0.001723 0.000147 0.000000 0.024467 0.000000
# 6 0.000000 0.000000 0.000000 -0.000438 0.000000 0.036119
#
#
# Mechanical properties :
#
#
# Convention : Reuss Voigt Hill
#
# Bulk Modulus (GPa) = 36.39000 72.24112 54.31556
# Shear Modulus (GPa) = 22.52489 28.39544 25.46016
#
# Velocity S-wave (km/s) = 3.47381 3.90031 3.69322
# Velocity P-wave (km/s) = 5.96533 7.68018 6.87642
#
# Compressibility (1/GPa) = 0.02748008
#
# Stress axis : x y z
#
# Youngs Moduli (GPa) = 64.30160 24.60555 74.53903
#
# Poissons Ratio (x) = 0.14387 0.59217
# Poissons Ratio (y) = 0.37599 0.54210
# Poissons Ratio (z) = 0.51084 0.17895
#
# Static dielectric constant tensor:
#      x y z
#    x 2.848200 0.000000 -0.956600 
#    y 0.000000 3.407220 0.000000 
#    z -0.956600 0.000000 2.648050 
# 
# 
# High freq. dielectric constant tensor:
#      x y z
#    x 1.740890 0.000000 -0.000810 
#    y 0.000000 1.722680 0.000000 
#    z -0.000810 0.000000 1.723030 
# 
# From -- ./inp_files/108725.got.cif
#   From: 2010.06.25/outbox.cif.g09.slc.cpg/sg12_55_cif.got.tgz:108725.got - 2010.06.28 00:19:55.
