data_PCOD8099045
_publ_section_title
;
Structure prediction by ZEFSAII (Michael W. Deem and Ramdas Pophale) SiO2 
 PCOD8099045
Probable space group: C 2/M
;
_chemical_formula_sum "Si O2"
_cell_formula_units_Z 56
_cell_length_a 14.219895
_cell_length_b 8.971553
_cell_length_c 27.443757
_cell_angle_alpha 90.000000
_cell_angle_beta 121.958934
_cell_angle_gamma 90.000000
_cell_volume 2970.451162
_symmetry_space_group_name_H-M "C 2/M"
_symmetry_group_IT_number 12
_symmetry_cell_setting 'monoclinic'
loop_
_space_group_symop_operation_xyz
x,y,z
-x,y,-z
-x,-y,-z
x,-y,z
1/2+x,1/2+y,z
1/2-x,1/2+y,-z
1/2-x,1/2-y,-z
1/2+x,1/2-y,z
loop_
_atom_site_type_symbol
_atom_site_label
_atom_site_fract_x
_atom_site_fract_y
_atom_site_fract_z
Si Si1 0.917007 0.673808 0.048313
Si Si2 0.755386 0.331005 0.260514
Si Si3 0.503204 0.825632 0.356617
Si Si4 0.069199 0.828062 0.567779
Si Si5 0.778594 0.174251 0.933600
Si Si6 0.703830 0.674234 0.356621
Si Si7 0.161530 0.325281 0.143476
O O1 0.914045 0.500000 0.035193
O O2 0.830963 0.717223 0.066811
O O3 0.035517 0.726368 0.100256
O O4 0.886429 0.758144 0.990027
O O5 0.732948 0.500000 0.237712
O O6 0.886316 0.299204 0.297951
O O7 0.700864 0.300241 0.297914
O O8 0.698554 0.219849 0.207364
O O9 0.501006 0.750778 0.409028
O O10 0.596310 0.750431 0.349414
O O11 0.528285 0.000000 0.370176
O O12 0.186640 0.748739 0.591035
O O13 0.000000 0.811765 0.500000
O O14 0.089350 0.000000 0.587346
O O15 0.762698 0.244679 0.875940
O O16 0.795537 0.000000 0.933049
O O17 0.705866 0.500000 0.370271
O O18 0.175995 0.500000 0.141559
#
# Coordination Sequence:
#
# PCOD8099045 Si02
#       7
#     8   8   8   8   8   8   8
#     4   9  20  37  53  74 105 137 171 212 263 323
#     4   9  21  39  55  77 108 140 180 227 270 318
#     4  10  21  38  60  83 111 149 187 228 278 327
#     4  10  21  37  58  86 118 150 187 230 273 322
#     4  10  20  35  55  77 103 136 173 216 265 318
#     4  10  21  38  60  84 112 148 187 229 277 328
#     4  11  22  35  54  78 105 139 175 216 268 322
#
# _framework density 18.852353999999998
#
# number of rings (size 3 to 8) (size 9 to 14) (size 15 to 20)
#    0.000    2.143    0.000    3.429    0.000    9.714 
#    0.000    4.286    0.000    0.000    0.000    0.000 
#    0.000    0.000    0.000    0.000    0.000    0.000 
#
# Total GULP energy -347321.440845 kJ/mol
# GULP energy per Si atom -12404.337173 kJ/mol
# Density = 1.880945 g / cm^3
# Si number density = 18.852354 Si / 1000 Ang^3
#
#
#
# Elastic Constant Matrix: (Units=GPa)
#
#
# Indices 1 2 3 4 5 6 
#
# 1 120.2110 55.7566 42.1356 0.0000 -7.9037 0.0000
# 2 55.7566 106.2581 53.0282 0.0000 -4.5315 0.0000
# 3 42.1356 53.0282 98.3711 0.0000 -4.3309 0.0000
# 4 0.0000 0.0000 0.0000 37.6580 0.0000 -1.8814
# 5 -7.9037 -4.5315 -4.3309 0.0000 16.4207 0.0000
# 6 0.0000 0.0000 0.0000 -1.8814 0.0000 35.0387
#
#
#
# Elastic Compliance Matrix: (Units=1/GPa)
#
#
# Indices 1 2 3 4 5 6 
#
# 1 0.011562 -0.004815 -0.002196 0.000000 0.003657 0.000000
# 2 -0.004815 0.014929 -0.005975 0.000000 0.000226 0.000000
# 3 -0.002196 -0.005975 0.014375 0.000000 0.001085 0.000000
# 4 0.000000 0.000000 0.000000 0.026626 0.000000 0.001430
# 5 0.003657 0.000226 0.001085 0.000000 0.063008 0.000000
# 6 0.000000 0.000000 0.000000 0.001430 0.000000 0.028617
#
#
# Mechanical properties :
#
#
# Convention : Reuss Voigt Hill
#
# Bulk Modulus (GPa) = 67.14187 69.63126 68.38656
# Shear Modulus (GPa) = 26.30819 29.41813 27.86316
#
# Velocity S-wave (km/s) = 3.73967 3.95454 3.84860
# Velocity P-wave (km/s) = 7.37148 7.60700 7.49016
#
# Compressibility (1/GPa) = 0.01489384
#
# Stress axis : x y z
#
# Youngs Moduli (GPa) = 86.48840 66.98178 69.56518
#
# Poissons Ratio (x) = 0.32254 0.15275
# Poissons Ratio (y) = 0.41647 0.41568
# Poissons Ratio (z) = 0.18991 0.40024
#
# Static dielectric constant tensor:
#      x y z
#    x 3.546690 0.000000 -0.036130 
#    y 0.000000 3.556990 0.000000 
#    z -0.036130 0.000000 3.361310 
# 
# 
# High freq. dielectric constant tensor:
#      x y z
#    x 1.739030 0.000000 -0.005180 
#    y 0.000000 1.744820 0.000000 
#    z -0.005180 0.000000 1.728480 
# 
# From -- ./inp_files/339081.got.cif
#   From: 2010.06.25/outbox.cif.g09.slc.cpg/sg12_170_cif.got.tgz:339081.got - 2010.06.28 00:19:55.
