data_PCOD8099505
_publ_section_title
;
Structure prediction by ZEFSAII (Michael W. Deem and Ramdas Pophale) SiO2 
 PCOD8099505
Probable space group: C 2/M
;
_chemical_formula_sum "Si O2"
_cell_formula_units_Z 40
_cell_length_a 27.240006
_cell_length_b 9.534702
_cell_length_c 21.921881
_cell_angle_alpha 90.000000
_cell_angle_beta 158.986250
_cell_angle_gamma 90.000000
_cell_volume 2041.703692
_symmetry_space_group_name_H-M "C 2/M"
_symmetry_group_IT_number 12
_symmetry_cell_setting 'monoclinic'
loop_
_space_group_symop_operation_xyz
x,y,z
-x,y,-z
-x,-y,-z
x,-y,z
1/2+x,1/2+y,z
1/2-x,1/2+y,-z
1/2-x,1/2-y,-z
1/2+x,1/2-y,z
loop_
_atom_site_type_symbol
_atom_site_label
_atom_site_fract_x
_atom_site_fract_y
_atom_site_fract_z
Si Si1 0.121183 0.661127 0.828624
Si Si2 0.390670 0.164972 0.654617
Si Si3 0.010229 0.664464 0.918385
Si Si4 0.526428 0.160913 0.461974
Si Si5 0.217120 0.334546 0.253856
O O1 0.152959 0.500000 0.882070
O O2 0.978057 0.705324 0.695890
O O3 0.101735 0.680737 0.732971
O O4 0.250000 0.750000 0.000000
O O5 0.250000 0.250000 0.500000
O O6 0.493351 0.208439 0.828778
O O7 0.353605 0.000000 0.613326
O O8 0.004724 0.500000 0.920995
O O9 0.883857 0.722852 0.811042
O O10 0.154706 0.713353 0.115395
O O11 0.500000 0.213301 0.500000
O O12 0.643847 0.256522 0.570970
O O13 0.574526 0.000000 0.518383
O O14 0.244155 0.500000 0.288493
#
# Coordination Sequence:
#
# PCOD8099505 Si02
#       5
#     8   8   8   8   8
#     4  10  23  40  58  82 114 150 188 231 278 330
#     4  10  20  35  56  81 110 143 182 229 279 330
#     4   8  16  31  52  79 109 134 166 224 279 315
#     4  10  22  38  53  74 111 149 179 220 272 321
#     4   9  17  32  55  80 104 136 179 221 266 321
#
# _framework density 19.591481999999999
#
# number of rings (size 3 to 8) (size 9 to 14) (size 15 to 20)
#    0.000    2.600    0.000    2.400    2.800    2.000 
#    0.000    3.000    0.000    0.000    0.000    0.000 
#    0.000    0.000    0.000    0.000    0.000    0.000 
#
# Total GULP energy -247839.482638 kJ/mol
# GULP energy per Si atom -12391.974132 kJ/mol
# Density = 1.954689 g / cm^3
# Si number density = 19.591482 Si / 1000 Ang^3
#
#
#
# Elastic Constant Matrix: (Units=GPa)
#
#
# Indices 1 2 3 4 5 6 
#
# 1 99.1260 27.1435 40.1235 0.0000 -15.8910 0.0000
# 2 27.1435 49.6438 46.0130 0.0000 4.5413 0.0000
# 3 40.1235 46.0130 100.9884 0.0000 -0.5566 0.0000
# 4 0.0000 0.0000 0.0000 36.3180 0.0000 3.6776
# 5 -15.8910 4.5413 -0.5566 0.0000 32.4355 0.0000
# 6 0.0000 0.0000 0.0000 3.6776 0.0000 20.4527
#
#
#
# Elastic Compliance Matrix: (Units=1/GPa)
#
#
# Indices 1 2 3 4 5 6 
#
# 1 0.014056 -0.005618 -0.002983 0.000000 0.007622 0.000000
# 2 -0.005618 0.037998 -0.015127 0.000000 -0.008332 0.000000
# 3 -0.002983 -0.015127 0.017985 0.000000 0.000965 0.000000
# 4 0.000000 0.000000 0.000000 0.028045 0.000000 -0.005043
# 5 0.007622 -0.008332 0.000965 0.000000 0.035748 0.000000
# 6 0.000000 0.000000 0.000000 -0.005043 0.000000 0.049800
#
#
# Mechanical properties :
#
#
# Convention : Reuss Voigt Hill
#
# Bulk Modulus (GPa) = 44.28006 52.92425 48.60215
# Shear Modulus (GPa) = 20.95440 26.93978 23.94709
#
# Velocity S-wave (km/s) = 3.27397 3.71222 3.49996
# Velocity P-wave (km/s) = 6.07804 6.74142 6.41831
#
# Compressibility (1/GPa) = 0.02258353
#
# Stress axis : x y z
#
# Youngs Moduli (GPa) = 71.14573 26.31737 55.60271
#
# Poissons Ratio (x) = 0.14784 0.16586
# Poissons Ratio (y) = 0.39967 0.84109
# Poissons Ratio (z) = 0.21222 0.39810
#
# Static dielectric constant tensor:
#      x y z
#    x 3.845190 0.000000 -0.362380 
#    y 0.000000 3.255440 0.000000 
#    z -0.362380 0.000000 3.613410 
# 
# 
# High freq. dielectric constant tensor:
#      x y z
#    x 1.769400 0.000000 -0.017820 
#    y 0.000000 1.733700 0.000000 
#    z -0.017820 0.000000 1.764420 
# 
# From -- ./inp_files/92814.got.cif
#   From: 2010.06.25/outbox.cif.g09.slc.cpg/sg12_47_cif.got.tgz:92814.got - 2010.06.28 00:19:55.
