data_PCOD8099799
_publ_section_title
;
Structure prediction by ZEFSAII (Michael W. Deem and Ramdas Pophale) SiO2 
 PCOD8099799
Probable space group: C 2/M
;
_chemical_formula_sum "Si O2"
_cell_formula_units_Z 48
_cell_length_a 19.657957
_cell_length_b 9.439662
_cell_length_c 14.669729
_cell_angle_alpha 90.000000
_cell_angle_beta 64.515961
_cell_angle_gamma 90.000000
_cell_volume 2457.326416
_symmetry_space_group_name_H-M "C 2/M"
_symmetry_group_IT_number 12
_symmetry_cell_setting 'monoclinic'
loop_
_space_group_symop_operation_xyz
x,y,z
-x,y,-z
-x,-y,-z
x,-y,z
1/2+x,1/2+y,z
1/2-x,1/2+y,-z
1/2-x,1/2-y,-z
1/2+x,1/2-y,z
loop_
_atom_site_type_symbol
_atom_site_label
_atom_site_fract_x
_atom_site_fract_y
_atom_site_fract_z
Si Si1 0.269750 0.832698 0.645726
Si Si2 0.070881 0.667879 0.523152
Si Si3 0.016434 0.159179 0.893804
Si Si4 0.742785 0.165081 0.145391
Si Si5 0.852561 0.842780 0.927280
Si Si6 0.888874 0.168847 0.326291
O O1 0.350749 0.775871 0.565838
O O2 0.251902 0.770788 0.756351
O O3 0.200159 0.789706 0.619384
O O4 0.273633 0.000000 0.649044
O O5 0.071990 0.500000 0.540286
O O6 0.064622 0.749175 0.622715
O O7 0.000000 0.709294 0.500000
O O8 0.941730 0.160704 0.876711
O O9 0.080534 0.222601 0.790513
O O10 0.042829 0.000000 0.904166
O O11 0.000000 0.239998 0.000000
O O12 0.672294 0.234889 0.135587
O O13 0.725267 0.000000 0.159990
O O14 0.819459 0.199912 0.046014
O O15 0.822784 0.000000 0.919846
O O16 0.901703 0.000000 0.330097
#
# Coordination Sequence:
#
# PCOD8099799 Si02
#       6
#     8   8   8   8   8   8
#     4   9  18  34  55  76 100 135 178 213 253 310
#     4  10  22  38  55  76 105 140 176 215 263 315
#     4   9  17  30  51  77 105 135 168 208 257 308
#     4   9  17  30  50  72  98 135 171 204 249 308
#     4   9  17  29  46  73 104 130 165 211 255 298
#     4  10  20  35  57  81 104 134 176 221 259 302
#
# _framework density 19.533424
#
# number of rings (size 3 to 8) (size 9 to 14) (size 15 to 20)
#    0.000    2.667    0.000    1.500    2.333    4.333 
#    0.000    1.667    0.000    4.000    0.000    0.000 
#    0.000    0.000    0.000    0.000    0.000    0.000 
#
# Total GULP energy -297421.795435 kJ/mol
# GULP energy per Si atom -12392.574810 kJ/mol
# Density = 1.948897 g / cm^3
# Si number density = 19.533424 Si / 1000 Ang^3
#
#
#
# Elastic Constant Matrix: (Units=GPa)
#
#
# Indices 1 2 3 4 5 6 
#
# 1 110.5109 24.4785 55.2476 0.0000 -2.6403 0.0000
# 2 24.4785 27.9488 26.8403 0.0000 6.2486 0.0000
# 3 55.2476 26.8403 116.1133 0.0000 7.8371 0.0000
# 4 0.0000 0.0000 0.0000 21.6003 0.0000 5.7514
# 5 -2.6403 6.2486 7.8371 0.0000 31.9061 0.0000
# 6 0.0000 0.0000 0.0000 5.7514 0.0000 21.9001
#
#
#
# Elastic Compliance Matrix: (Units=1/GPa)
#
#
# Indices 1 2 3 4 5 6 
#
# 1 0.013262 -0.007918 -0.004737 0.000000 0.003812 0.000000
# 2 -0.007918 0.052083 -0.007666 0.000000 -0.008972 0.000000
# 3 -0.004737 -0.007666 0.012775 0.000000 -0.002029 0.000000
# 4 0.000000 0.000000 0.000000 0.049776 0.000000 -0.013072
# 5 0.003812 -0.008972 -0.002029 0.000000 0.033913 0.000000
# 6 0.000000 0.000000 0.000000 -0.013072 0.000000 0.049095
#
#
# Mechanical properties :
#
#
# Convention : Reuss Voigt Hill
#
# Bulk Modulus (GPa) = 26.68295 51.96730 39.32513
# Shear Modulus (GPa) = 18.93654 24.94840 21.94247
#
# Velocity S-wave (km/s) = 3.11697 3.57769 3.35525
# Velocity P-wave (km/s) = 5.16176 6.61276 5.93179
#
# Compressibility (1/GPa) = 0.03747711
#
# Stress axis : x y z
#
# Youngs Moduli (GPa) = 75.40267 19.20014 78.27663
#
# Poissons Ratio (x) = 0.15204 0.37080
# Poissons Ratio (y) = 0.59707 0.60007
# Poissons Ratio (z) = 0.35719 0.14719
#
# Static dielectric constant tensor:
#      x y z
#    x 3.607300 0.000000 -0.086030 
#    y 0.000000 3.132630 0.000000 
#    z -0.086030 0.000000 3.769020 
# 
# 
# High freq. dielectric constant tensor:
#      x y z
#    x 1.767900 0.000000 -0.003990 
#    y 0.000000 1.705840 0.000000 
#    z -0.003990 0.000000 1.770990 
# 
# From -- ./inp_files/154216.got.cif
#   From: 2010.06.25/outbox.cif.g09.slc.cpg/sg12_78_cif.got.tgz:154216.got - 2010.06.28 00:19:55.
