data_PCOD8099173
_publ_section_title
;
Structure prediction by ZEFSAII (Michael W. Deem and Ramdas Pophale) SiO2 
 PCOD8099173
Probable space group: C 2/M
;
_chemical_formula_sum "Si O2"
_cell_formula_units_Z 56
_cell_length_a 21.378384
_cell_length_b 8.883494
_cell_length_c 14.471318
_cell_angle_alpha 90.000000
_cell_angle_beta 79.211189
_cell_angle_gamma 90.000000
_cell_volume 2699.736955
_symmetry_space_group_name_H-M "C 2/M"
_symmetry_group_IT_number 12
_symmetry_cell_setting 'monoclinic'
loop_
_space_group_symop_operation_xyz
x,y,z
-x,y,-z
-x,-y,-z
x,-y,z
1/2+x,1/2+y,z
1/2-x,1/2+y,-z
1/2-x,1/2-y,-z
1/2+x,1/2-y,z
loop_
_atom_site_type_symbol
_atom_site_label
_atom_site_fract_x
_atom_site_fract_y
_atom_site_fract_z
Si Si1 0.884210 0.175584 0.894400
Si Si2 0.404506 0.827408 0.287893
Si Si3 0.198780 0.321423 0.945617
Si Si4 0.852235 0.326003 0.724874
Si Si5 0.787287 0.826630 0.255100
Si Si6 0.503963 0.827541 0.894374
Si Si7 0.485047 0.178989 0.605835
O O1 0.840875 0.229178 0.820874
O O2 0.956260 0.222179 0.848808
O O3 0.874842 0.000000 0.913075
O O4 0.868330 0.266083 0.993242
O O5 0.338311 0.735884 0.315886
O O6 0.427637 0.811680 0.174349
O O7 0.459536 0.762554 0.340374
O O8 0.390224 0.000000 0.317222
O O9 0.204112 0.500000 0.945803
O O10 0.205402 0.265827 0.840354
O O11 0.250000 0.250000 0.000000
O O12 0.862904 0.500000 0.749549
O O13 0.785586 0.307882 0.686587
O O14 0.913856 0.264141 0.652438
O O15 0.802579 0.000000 0.230979
O O16 0.480821 0.000000 0.894524
O O17 0.500000 0.768351 0.000000
O O18 0.500000 0.242759 0.500000
O O19 0.485107 0.000000 0.606780
#
# Coordination Sequence:
#
# PCOD8099173 Si02
#       7
#     8   8   8   8   8   8   8
#     4  12  23  34  54  83 115 155 200 251 297 348
#     4  10  20  36  59  87 120 158 199 254 308 358
#     4  12  23  36  54  80 118 163 210 253 293 351
#     4  10  20  38  61  84 115 154 196 246 299 357
#     4  11  23  37  57  85 122 164 200 246 302 359
#     4  10  20  35  55  79 112 158 202 245 295 351
#     4   9  18  37  67  95 114 147 204 256 305 370
#
# _framework density 20.742761000000002
#
# number of rings (size 3 to 8) (size 9 to 14) (size 15 to 20)
#    0.000    1.429    2.857    3.857    0.000    2.571 
#    0.000    0.714    0.000    1.714    0.000    0.000 
#    0.000    0.000    0.000    0.000    0.000    0.000 
#
# Total GULP energy -347078.779228 kJ/mol
# GULP energy per Si atom -12395.670687 kJ/mol
# Density = 2.069555 g / cm^3
# Si number density = 20.742761 Si / 1000 Ang^3
#
#
#
# Elastic Constant Matrix: (Units=GPa)
#
#
# Indices 1 2 3 4 5 6 
#
# 1 160.4859 47.6726 44.5294 0.0000 -6.3662 0.0000
# 2 47.6726 103.9669 22.0610 0.0000 -2.9138 0.0000
# 3 44.5294 22.0610 88.6311 0.0000 -1.2624 0.0000
# 4 0.0000 0.0000 0.0000 12.0957 0.0000 3.3404
# 5 -6.3662 -2.9138 -1.2624 0.0000 21.8994 0.0000
# 6 0.0000 0.0000 0.0000 3.3404 0.0000 34.2188
#
#
#
# Elastic Compliance Matrix: (Units=1/GPa)
#
#
# Indices 1 2 3 4 5 6 
#
# 1 0.008099 -0.002962 -0.003306 0.000000 0.001770 0.000000
# 2 -0.002962 0.011270 -0.001309 0.000000 0.000563 0.000000
# 3 -0.003306 -0.001309 0.013264 0.000000 -0.000371 0.000000
# 4 0.000000 0.000000 0.000000 0.084964 0.000000 -0.008294
# 5 0.001770 0.000563 -0.000371 0.000000 0.046231 0.000000
# 6 0.000000 0.000000 0.000000 -0.008294 0.000000 0.030033
#
#
# Mechanical properties :
#
#
# Convention : Reuss Voigt Hill
#
# Bulk Modulus (GPa) = 57.21428 64.62332 60.91880
# Shear Modulus (GPa) = 23.27276 29.56418 26.41847
#
# Velocity S-wave (km/s) = 3.35322 3.77938 3.57266
# Velocity P-wave (km/s) = 6.52953 7.08994 6.81550
#
# Compressibility (1/GPa) = 0.01747816
#
# Stress axis : x y z
#
# Youngs Moduli (GPa) = 123.47764 88.72871 75.38993
#
# Poissons Ratio (x) = 0.26285 0.24926
# Poissons Ratio (y) = 0.36578 0.09868
# Poissons Ratio (z) = 0.40825 0.11614
#
# Static dielectric constant tensor:
#      x y z
#    x 4.230830 0.000000 -0.237210 
#    y 0.000000 3.477970 0.000000 
#    z -0.237210 0.000000 3.703840 
# 
# 
# High freq. dielectric constant tensor:
#      x y z
#    x 1.833830 0.000000 -0.009130 
#    y 0.000000 1.786070 0.000000 
#    z -0.009130 0.000000 1.775530 
# 
# From -- ./inp_files/237315.got.cif
#   From: 2010.06.25/outbox.cif.g09.slc.cpg/sg12_119_cif.got.tgz:237315.got - 2010.06.28 00:19:55.
