data_PCOD8099223
_publ_section_title
;
Structure prediction by ZEFSAII (Michael W. Deem and Ramdas Pophale) SiO2 
 PCOD8099223
Probable space group: C 2/M
;
_chemical_formula_sum "Si O2"
_cell_formula_units_Z 48
_cell_length_a 31.084771
_cell_length_b 8.786091
_cell_length_c 17.913092
_cell_angle_alpha 90.000000
_cell_angle_beta 29.697028
_cell_angle_gamma 90.000000
_cell_volume 2423.716725
_symmetry_space_group_name_H-M "C 2/M"
_symmetry_group_IT_number 12
_symmetry_cell_setting 'monoclinic'
loop_
_space_group_symop_operation_xyz
x,y,z
-x,y,-z
-x,-y,-z
x,-y,z
1/2+x,1/2+y,z
1/2-x,1/2+y,-z
1/2-x,1/2-y,-z
1/2+x,1/2-y,z
loop_
_atom_site_type_symbol
_atom_site_label
_atom_site_fract_x
_atom_site_fract_y
_atom_site_fract_z
Si Si1 0.830562 0.679679 0.920876
Si Si2 0.509383 0.175098 0.899249
Si Si3 0.672924 0.823061 0.902168
Si Si4 0.831121 0.821596 0.418995
Si Si5 0.830938 0.679424 0.580920
Si Si6 0.502123 0.818996 0.580699
O O1 0.826246 0.500000 0.918778
O O2 0.919012 0.743557 0.751020
O O3 0.750000 0.750000 0.000000
O O4 0.828509 0.729078 0.009959
O O5 0.581942 0.284120 0.756706
O O6 0.537116 0.000000 0.845043
O O7 0.500000 0.213294 0.000000
O O8 0.420214 0.211581 0.992226
O O9 0.741780 0.720806 0.755430
O O10 0.697694 0.000000 0.856086
O O11 0.750000 0.750000 0.500000
O O12 0.838125 0.759738 0.491348
O O13 0.816789 0.000000 0.443632
O O14 0.835819 0.500000 0.560870
O O15 0.910580 0.739191 0.511202
O O16 0.500000 0.752748 0.500000
O O17 0.500790 0.000000 0.580998
#
# Coordination Sequence:
#
# PCOD8099223 Si02
#       6
#     8   8   8   8   8   8
#     4  10  20  35  55  80 113 152 194 241 293 346
#     4  10  21  39  63  88 116 152 191 233 287 347
#     4  10  21  37  57  84 120 156 191 239 296 348
#     4  12  25  41  62  88 120 154 193 240 290 347
#     4  11  22  38  62  88 116 153 198 243 291 349
#     4   9  18  34  57  84 114 151 194 238 286 344
#
# _framework density 19.804295
#
# number of rings (size 3 to 8) (size 9 to 14) (size 15 to 20)
#    0.000    1.667    0.000    5.000    0.000    7.000 
#    0.000    3.333    0.000    4.500    0.000    0.000 
#    0.000    0.000    0.000    0.000    0.000    0.000 
#
# Total GULP energy -297723.151470 kJ/mol
# GULP energy per Si atom -12405.131311 kJ/mol
# Density = 1.975922 g / cm^3
# Si number density = 19.804295 Si / 1000 Ang^3
#
#
#
# Elastic Constant Matrix: (Units=GPa)
#
#
# Indices 1 2 3 4 5 6 
#
# 1 193.1630 54.9724 73.4541 -0.0014 1.6571 0.0003
# 2 54.9724 78.6192 48.5148 -0.0039 0.5224 0.0019
# 3 73.4541 48.5148 137.2310 -0.0035 3.5198 0.0011
# 4 -0.0014 -0.0039 -0.0035 60.6614 0.0012 1.1492
# 5 1.6571 0.5224 3.5198 0.0012 33.6858 -0.0003
# 6 0.0003 0.0019 0.0011 1.1492 -0.0003 30.4835
#
#
#
# Elastic Compliance Matrix: (Units=1/GPa)
#
#
# Indices 1 2 3 4 5 6 
#
# 1 0.007135 -0.003367 -0.002628 0.000000 -0.000024 0.000000
# 2 -0.003367 0.017862 -0.004522 0.000001 0.000361 -0.000001
# 3 -0.002628 -0.004522 0.010315 0.000000 -0.000878 0.000000
# 4 0.000000 0.000001 0.000000 0.016497 -0.000001 -0.000622
# 5 -0.000024 0.000361 -0.000878 -0.000001 0.029773 0.000000
# 6 0.000000 -0.000001 0.000000 -0.000622 0.000000 0.032828
#
#
# Mechanical properties :
#
#
# Convention : Reuss Voigt Hill
#
# Bulk Modulus (GPa) = 70.03827 84.76620 77.40224
# Shear Modulus (GPa) = 35.66289 40.43759 38.05024
#
# Velocity S-wave (km/s) = 4.24815 4.52360 4.38803
# Velocity P-wave (km/s) = 7.71390 8.37728 8.05242
#
# Compressibility (1/GPa) = 0.01427791
#
# Stress axis : x y z
#
# Youngs Moduli (GPa) = 140.15946 55.98598 96.94899
#
# Poissons Ratio (x) = 0.18850 0.25478
# Poissons Ratio (y) = 0.47190 0.43837
# Poissons Ratio (z) = 0.36834 0.25315
#
# Static dielectric constant tensor:
#      x y z
#    x 3.877460 0.000000 0.028830 
#    y 0.000000 3.418580 0.000000 
#    z 0.028830 0.000000 3.747440 
# 
# 
# High freq. dielectric constant tensor:
#      x y z
#    x 1.796500 0.000000 0.000870 
#    y 0.000000 1.750730 0.000000 
#    z 0.000870 0.000000 1.789500 
# 
# From -- ./inp_files/274610.got.cif
#   From: 2010.06.25/outbox.cif.g09.slc.cpg/sg12_138_cif.got.tgz:274610.got - 2010.06.28 00:19:55.
