data_PCOD8099997
_publ_section_title
;
Structure prediction by ZEFSAII (Michael W. Deem and Ramdas Pophale) SiO2 
 PCOD8099997
Probable space group: C 2/M
;
_chemical_formula_sum "Si O2"
_cell_formula_units_Z 64
_cell_length_a 30.469806
_cell_length_b 9.400888
_cell_length_c 16.073759
_cell_angle_alpha 90.000000
_cell_angle_beta 133.483567
_cell_angle_gamma 90.000000
_cell_volume 3340.691686
_symmetry_space_group_name_H-M "C 2/M"
_symmetry_group_IT_number 12
_symmetry_cell_setting 'monoclinic'
loop_
_space_group_symop_operation_xyz
x,y,z
-x,y,-z
-x,-y,-z
x,-y,z
1/2+x,1/2+y,z
1/2-x,1/2+y,-z
1/2-x,1/2-y,-z
1/2+x,1/2-y,z
loop_
_atom_site_type_symbol
_atom_site_label
_atom_site_fract_x
_atom_site_fract_y
_atom_site_fract_z
Si Si1 0.530681 0.168931 0.457147
Si Si2 0.933383 0.331636 0.197914
Si Si3 0.693264 0.167183 0.886428
Si Si4 0.051599 0.155834 0.944452
Si Si5 0.417655 0.656451 0.837069
Si Si6 0.286237 0.336300 0.423919
Si Si7 0.831826 0.667062 0.338033
Si Si8 0.333825 0.838533 0.627991
O O1 0.500000 0.231412 0.500000
O O2 0.490769 0.225287 0.326955
O O3 0.600482 0.218819 0.548153
O O4 0.528231 0.000000 0.456445
O O5 0.935928 0.500000 0.197481
O O6 0.869218 0.282639 0.152244
O O7 0.938382 0.273917 0.111591
O O8 0.685344 0.203577 0.778928
O O9 0.704421 0.000000 0.914418
O O10 0.750000 0.250000 0.000000
O O11 0.985966 0.155594 0.897897
O O12 0.066246 0.000000 0.925170
O O13 0.093571 0.185875 0.079430
O O14 0.389037 0.500000 0.778581
O O15 0.390674 0.789238 0.753972
O O16 0.304630 0.500000 0.435785
O O17 0.285510 0.256455 0.334459
O O18 0.333683 0.258276 0.545810
O O19 0.222108 0.318160 0.383674
O O20 0.824119 0.500000 0.345144
O O21 0.341535 0.000000 0.608264
#
# Coordination Sequence:
#
# PCOD8099997 Si02
#       8
#     8   8   8   8   8   8   8   8
#     4   9  16  32  58  83 110 141 178 228 280 328
#     4  10  20  35  57  85 112 142 184 234 282 328
#     4  10  22  39  58  81 113 151 189 230 276 329
#     4   9  20  37  55  79 112 148 182 221 276 337
#     4   9  19  37  57  77 109 149 184 224 275 327
#     4  10  22  38  55  80 114 146 179 226 279 329
#     4  10  20  36  59  85 110 143 188 230 276 335
#     4  10  21  37  57  80 108 145 187 228 271 323
#
# _framework density 19.157710000000002
#
# number of rings (size 3 to 8) (size 9 to 14) (size 15 to 20)
#    0.000    2.375    1.250    1.500    1.750    4.500 
#    0.000    6.250    0.000    0.750    0.000    0.000 
#    0.000    0.000    0.000    0.000    0.000    0.000 
#
# Total GULP energy -396624.386792 kJ/mol
# GULP energy per Si atom -12394.512087 kJ/mol
# Density = 1.911411 g / cm^3
# Si number density = 19.157710 Si / 1000 Ang^3
#
#
#
# Elastic Constant Matrix: (Units=GPa)
#
#
# Indices 1 2 3 4 5 6 
#
# 1 63.6362 43.8486 43.3907 0.0000 -23.6095 0.0000
# 2 43.8486 53.8054 30.2111 0.0000 -8.7093 0.0000
# 3 43.3907 30.2111 93.0793 0.0000 -5.5575 0.0000
# 4 0.0000 0.0000 0.0000 31.5277 0.0000 -2.6411
# 5 -23.6095 -8.7093 -5.5575 0.0000 31.5361 0.0000
# 6 0.0000 0.0000 0.0000 -2.6411 0.0000 31.1134
#
#
#
# Elastic Compliance Matrix: (Units=1/GPa)
#
#
# Indices 1 2 3 4 5 6 
#
# 1 0.069439 -0.041060 -0.016793 0.000000 0.037687 0.000000
# 2 -0.041060 0.047824 0.002599 0.000000 -0.017074 0.000000
# 3 -0.016793 0.002599 0.017202 0.000000 -0.008823 0.000000
# 4 0.000000 0.000000 0.000000 0.031945 0.000000 0.002712
# 5 0.037687 -0.017074 -0.008823 0.000000 0.053654 0.000000
# 6 0.000000 0.000000 0.000000 0.002712 0.000000 0.032371
#
#
# Mechanical properties :
#
#
# Convention : Reuss Voigt Hill
#
# Bulk Modulus (GPa) = 41.74208 49.49129 45.61668
# Shear Modulus (GPa) = 13.47965 25.04014 19.25990
#
# Velocity S-wave (km/s) = 2.65545 3.61924 3.17414
# Velocity P-wave (km/s) = 5.58908 6.58444 6.10708
#
# Compressibility (1/GPa) = 0.02395664
#
# Stress axis : x y z
#
# Youngs Moduli (GPa) = 14.40103 20.90991 58.13371
#
# Poissons Ratio (x) = 0.85856 0.97626
# Poissons Ratio (y) = 0.59131 -0.15109
# Poissons Ratio (z) = 0.24184 -0.05434
#
# Static dielectric constant tensor:
#      x y z
#    x 3.478360 0.000000 -0.097470 
#    y 0.000000 3.392040 0.000000 
#    z -0.097470 0.000000 3.700880 
# 
# 
# High freq. dielectric constant tensor:
#      x y z
#    x 1.744330 0.000000 -0.008630 
#    y 0.000000 1.727760 0.000000 
#    z -0.008630 0.000000 1.749720 
# 
# From -- ./inp_files/250044.got.cif
#   From: 2010.06.25/outbox.cif.g09.slc.cpg/sg12_126_cif.got.tgz:250044.got - 2010.06.28 00:19:55.
