data_PCOD8099197
_publ_section_title
;
Structure prediction by ZEFSAII (Michael W. Deem and Ramdas Pophale) SiO2 
 PCOD8099197
Probable space group: C 2/M
;
_chemical_formula_sum "Si O2"
_cell_formula_units_Z 56
_cell_length_a 17.851954
_cell_length_b 8.923384
_cell_length_c 18.582412
_cell_angle_alpha 90.000000
_cell_angle_beta 103.942462
_cell_angle_gamma 90.000000
_cell_volume 2872.963125
_symmetry_space_group_name_H-M "C 2/M"
_symmetry_group_IT_number 12
_symmetry_cell_setting 'monoclinic'
loop_
_space_group_symop_operation_xyz
x,y,z
-x,y,-z
-x,-y,-z
x,-y,z
1/2+x,1/2+y,z
1/2-x,1/2+y,-z
1/2-x,1/2-y,-z
1/2+x,1/2-y,z
loop_
_atom_site_type_symbol
_atom_site_label
_atom_site_fract_x
_atom_site_fract_y
_atom_site_fract_z
Si Si1 0.477755 0.178520 0.573632
Si Si2 0.806974 0.322676 0.569506
Si Si3 0.597554 0.177309 0.718666
Si Si4 0.878007 0.328503 0.865389
Si Si5 0.255274 0.826906 0.714900
Si Si6 0.669834 0.676440 0.002091
Si Si7 0.946746 0.325206 0.132851
O O1 0.500000 0.240189 0.500000
O O2 0.393085 0.237795 0.574769
O O3 0.539010 0.243269 0.645397
O O4 0.479342 0.000000 0.575013
O O5 0.803949 0.500000 0.559986
O O6 0.750000 0.250000 0.500000
O O7 0.781699 0.271508 0.642820
O O8 0.683316 0.231608 0.724103
O O9 0.570703 0.232001 0.790837
O O10 0.596533 0.000000 0.714639
O O11 0.869913 0.500000 0.890140
O O12 0.826235 0.297500 0.784103
O O13 0.851935 0.218389 0.921989
O O14 0.964799 0.291841 0.863441
O O15 0.231033 0.000000 0.708258
O O16 0.678837 0.500000 0.997784
O O17 0.750000 0.750000 0.000000
O O18 0.603538 0.730439 0.933601
O O19 0.926536 0.500000 0.119064
#
# Coordination Sequence:
#
# PCOD8099197 Si02
#       7
#     8   8   8   8   8   8   8
#     4   9  17  31  53  79 106 139 180 224 268 317
#     4  10  20  35  55  80 110 143 181 225 274 328
#     4  10  20  35  57  83 109 143 188 230 269 323
#     4  10  21  39  61  84 114 150 185 226 281 338
#     4  10  21  36  55  81 113 147 181 223 277 331
#     4  12  25  40  59  84 114 148 188 232 279 332
#     4  10  21  38  60  85 113 146 185 230 280 334
#
# _framework density 19.492069999999998
#
# number of rings (size 3 to 8) (size 9 to 14) (size 15 to 20)
#    0.000    1.857    0.000    4.286    0.000   10.857 
#    0.000    0.714    0.000    6.000    0.000    0.000 
#    0.000    0.000    0.000    0.000    0.000    0.000 
#
# Total GULP energy -347318.985633 kJ/mol
# GULP energy per Si atom -12404.249487 kJ/mol
# Density = 1.944770 g / cm^3
# Si number density = 19.492070 Si / 1000 Ang^3
#
#
#
# Elastic Constant Matrix: (Units=GPa)
#
#
# Indices 1 2 3 4 5 6 
#
# 1 150.3030 33.9272 62.0761 0.0000 -2.0527 0.0000
# 2 33.9272 40.9195 37.4875 0.0000 -0.7441 0.0000
# 3 62.0761 37.4875 149.0732 0.0000 -4.4085 0.0000
# 4 0.0000 0.0000 0.0000 14.6978 0.0000 0.9219
# 5 -2.0527 -0.7441 -4.4085 0.0000 45.7064 0.0000
# 6 0.0000 0.0000 0.0000 0.9219 0.0000 30.6074
#
#
#
# Elastic Compliance Matrix: (Units=1/GPa)
#
#
# Indices 1 2 3 4 5 6 
#
# 1 0.008788 -0.005112 -0.002371 0.000000 0.000083 0.000000
# 2 -0.005112 0.034730 -0.006614 0.000000 -0.000302 0.000000
# 3 -0.002371 -0.006614 0.009379 0.000000 0.000690 0.000000
# 4 0.000000 0.000000 0.000000 0.068166 0.000000 -0.002053
# 5 0.000083 -0.000302 0.000690 0.000000 0.021944 0.000000
# 6 0.000000 0.000000 0.000000 -0.002053 0.000000 0.032734
#
#
# Mechanical properties :
#
#
# Convention : Reuss Voigt Hill
#
# Bulk Modulus (GPa) = 40.48141 67.47525 53.97833
# Shear Modulus (GPa) = 23.56603 31.98931 27.77767
#
# Velocity S-wave (km/s) = 3.48085 4.05550 3.77911
# Velocity P-wave (km/s) = 6.08016 7.52472 6.84067
#
# Compressibility (1/GPa) = 0.02470269
#
# Stress axis : x y z
#
# Youngs Moduli (GPa) = 113.79603 28.79322 106.61918
#
# Poissons Ratio (x) = 0.14719 0.25283
# Poissons Ratio (y) = 0.58173 0.70517
# Poissons Ratio (z) = 0.26985 0.19043
#
# Static dielectric constant tensor:
#      x y z
#    x 3.747840 0.000000 -0.024980 
#    y 0.000000 3.362410 0.000000 
#    z -0.024980 0.000000 3.841070 
# 
# 
# High freq. dielectric constant tensor:
#      x y z
#    x 1.778870 0.000000 -0.000010 
#    y 0.000000 1.730480 0.000000 
#    z -0.000010 0.000000 1.780530 
# 
# From -- ./inp_files/275639.got.cif
#   From: 2010.06.25/outbox.cif.g09.slc.cpg/sg12_138_cif.got.tgz:275639.got - 2010.06.28 00:19:55.
