data_PCOD8099659
_publ_section_title
;
Structure prediction by ZEFSAII (Michael W. Deem and Ramdas Pophale) SiO2 
 PCOD8099659
Probable space group: C 2/M
;
_chemical_formula_sum "Si O2"
_cell_formula_units_Z 64
_cell_length_a 20.156644
_cell_length_b 19.961338
_cell_length_c 11.995065
_cell_angle_alpha 90.000000
_cell_angle_beta 139.300795
_cell_angle_gamma 90.000000
_cell_volume 3147.143972
_symmetry_space_group_name_H-M "C 2/M"
_symmetry_group_IT_number 12
_symmetry_cell_setting 'monoclinic'
loop_
_space_group_symop_operation_xyz
x,y,z
-x,y,-z
-x,-y,-z
x,-y,z
1/2+x,1/2+y,z
1/2-x,1/2+y,-z
1/2-x,1/2-y,-z
1/2+x,1/2-y,z
loop_
_atom_site_type_symbol
_atom_site_label
_atom_site_fract_x
_atom_site_fract_y
_atom_site_fract_z
Si Si1 0.688278 0.577252 0.703513
Si Si2 0.606446 0.218778 0.902971
Si Si3 0.113996 0.361992 0.130164
Si Si4 0.291328 0.352417 0.046502
Si Si5 0.315581 0.662623 0.686027
Si Si6 0.405164 0.577066 0.636060
Si Si7 0.380510 0.422789 0.976280
Si Si8 0.882712 0.712889 0.645933
O O1 0.668003 0.500000 0.708695
O O2 0.806341 0.583454 0.814019
O O3 0.663243 0.622643 0.778522
O O4 0.612472 0.606498 0.511270
O O5 0.638431 0.294306 0.916746
O O6 0.489980 0.203137 0.720594
O O7 0.616115 0.202045 0.047597
O O8 0.675252 0.170095 0.914895
O O9 0.146470 0.338258 0.293331
O O10 0.000000 0.392208 0.000000
O O11 0.293753 0.413224 0.960214
O O12 0.313881 0.599219 0.601165
O O13 0.361926 0.633922 0.859344
O O14 0.205333 0.699050 0.559034
O O15 0.387939 0.714181 0.710411
O O16 0.390099 0.500000 0.597720
O O17 0.512979 0.594577 0.828824
O O18 0.378467 0.500000 0.928450
#
# Coordination Sequence:
#
# PCOD8099659 Si02
#       8
#     8   8   8   8   8   8   8   8
#     4  10  20  35  56  83 116 149 188 237 284 336
#     4   9  19  35  59  86 112 150 193 235 285 340
#     4   9  17  33  57  83 114 143 183 233 289 345
#     4  10  20  37  59  82 115 155 196 236 279 336
#     4  11  21  35  59  85 118 145 186 237 296 347
#     4  10  21  37  58  86 117 151 192 241 292 342
#     4  11  23  38  59  85 116 158 199 236 286 347
#     4  10  20  35  57  89 114 145 184 237 294 346
#
# _framework density 20.335898
#
# number of rings (size 3 to 8) (size 9 to 14) (size 15 to 20)
#    0.000    2.000    1.250    2.625    0.000    3.750 
#    0.000    2.500    0.000    3.000    0.000    0.000 
#    0.000    0.000    0.000    0.000    0.000    0.000 
#
# Total GULP energy -396432.567211 kJ/mol
# GULP energy per Si atom -12388.517725 kJ/mol
# Density = 2.028961 g / cm^3
# Si number density = 20.335898 Si / 1000 Ang^3
#
#
#
# Elastic Constant Matrix: (Units=GPa)
#
#
# Indices 1 2 3 4 5 6 
#
# 1 101.7714 42.5787 39.7236 0.0000 2.6960 0.0000
# 2 42.5787 58.5871 61.4047 0.0000 1.2607 0.0000
# 3 39.7236 61.4047 107.2796 0.0000 -3.7090 0.0000
# 4 0.0000 0.0000 0.0000 30.0594 0.0000 -4.3501
# 5 2.6960 1.2607 -3.7090 0.0000 30.7818 0.0000
# 6 0.0000 0.0000 0.0000 -4.3501 0.0000 30.0885
#
#
#
# Elastic Compliance Matrix: (Units=1/GPa)
#
#
# Indices 1 2 3 4 5 6 
#
# 1 0.014241 -0.011973 0.001560 0.000000 -0.000569 0.000000
# 2 -0.011973 0.053418 -0.026291 0.000000 -0.004307 0.000000
# 3 0.001560 -0.026291 0.023924 0.000000 0.003823 0.000000
# 4 0.000000 0.000000 0.000000 0.033978 0.000000 0.004913
# 5 -0.000569 -0.004307 0.003823 0.000000 0.033174 0.000000
# 6 0.000000 0.000000 0.000000 0.004913 0.000000 0.033945
#
#
# Mechanical properties :
#
#
# Convention : Reuss Voigt Hill
#
# Bulk Modulus (GPa) = 55.01710 61.67245 58.34478
# Shear Modulus (GPa) = 18.37240 26.44802 22.41021
#
# Velocity S-wave (km/s) = 3.00900 3.61024 3.32324
# Velocity P-wave (km/s) = 6.25979 6.91167 6.59379
#
# Compressibility (1/GPa) = 0.01817617
#
# Stress axis : x y z
#
# Youngs Moduli (GPa) = 70.21878 18.72026 41.79831
#
# Poissons Ratio (x) = 0.22413 -0.06521
# Poissons Ratio (y) = 0.84071 1.09892
# Poissons Ratio (z) = -0.10954 0.49218
#
# Static dielectric constant tensor:
#      x y z
#    x 3.747630 0.000000 -0.011970 
#    y 0.000000 3.640230 0.000000 
#    z -0.011970 0.000000 3.685820 
# 
# 
# High freq. dielectric constant tensor:
#      x y z
#    x 1.794840 0.000000 -0.002820 
#    y 0.000000 1.786540 0.000000 
#    z -0.002820 0.000000 1.786240 
# 
# From -- ./inp_files/169699.got.cif
#   From: 2010.06.25/outbox.cif.g09.slc.cpg/sg12_85_cif.got.tgz:169699.got - 2010.06.28 00:19:55.
