data_PCOD8099508
_publ_section_title
;
Structure prediction by ZEFSAII (Michael W. Deem and Ramdas Pophale) SiO2 
 PCOD8099508
Probable space group: C 2/M
;
_chemical_formula_sum "Si O2"
_cell_formula_units_Z 48
_cell_length_a 18.140504
_cell_length_b 8.981474
_cell_length_c 31.094142
_cell_angle_alpha 90.000000
_cell_angle_beta 150.258348
_cell_angle_gamma 90.000000
_cell_volume 2513.251890
_symmetry_space_group_name_H-M "C 2/M"
_symmetry_group_IT_number 12
_symmetry_cell_setting 'monoclinic'
loop_
_space_group_symop_operation_xyz
x,y,z
-x,y,-z
-x,-y,-z
x,-y,z
1/2+x,1/2+y,z
1/2-x,1/2+y,-z
1/2-x,1/2-y,-z
1/2+x,1/2-y,z
loop_
_atom_site_type_symbol
_atom_site_label
_atom_site_fract_x
_atom_site_fract_y
_atom_site_fract_z
Si Si1 0.332202 0.327868 0.329431
Si Si2 0.806288 0.824719 0.820568
Si Si3 0.672537 0.324762 0.500816
Si Si4 0.852037 0.823935 0.180269
Si Si5 0.572792 0.836391 0.990513
Si Si6 0.159442 0.672103 0.328812
O O1 0.318511 0.500000 0.308466
O O2 0.242404 0.225829 0.251096
O O3 0.502033 0.274287 0.416430
O O4 0.267768 0.301518 0.343920
O O5 0.697812 0.751602 0.800562
O O6 0.793554 0.000000 0.818629
O O7 0.979047 0.777791 0.914098
O O8 0.685069 0.500000 0.501971
O O9 0.750000 0.250000 0.500000
O O10 0.754371 0.271387 0.585421
O O11 0.741578 0.780912 0.084657
O O12 0.013311 0.769888 0.248192
O O13 0.850370 0.000000 0.187229
O O14 0.571301 0.000000 0.967604
O O15 0.500000 0.849704 0.000000
O O16 0.112961 0.500000 0.309501
#
# Coordination Sequence:
#
# PCOD8099508 Si02
#       6
#     8   8   8   8   8   8
#     4  10  21  38  57  77 109 149 181 217 271 325
#     4  11  21  33  54  83 111 140 182 230 269 315
#     4  10  21  37  58  83 108 139 180 222 266 318
#     4  10  20  35  56  81 110 144 181 222 271 325
#     4   8  16  32  53  77 106 141 180 222 270 321
#     4  10  21  37  57  81 109 142 182 225 267 317
#
# _framework density 19.098763000000002
#
# number of rings (size 3 to 8) (size 9 to 14) (size 15 to 20)
#    0.000    2.167    0.000    4.500    0.000   10.333 
#    0.000    0.833    0.000    3.000    0.000    0.000 
#    0.000    0.000    0.000    0.000    0.000    0.000 
#
# Total GULP energy -297621.529340 kJ/mol
# GULP energy per Si atom -12400.897056 kJ/mol
# Density = 1.905529 g / cm^3
# Si number density = 19.098763 Si / 1000 Ang^3
#
#
#
# Elastic Constant Matrix: (Units=GPa)
#
#
# Indices 1 2 3 4 5 6 
#
# 1 97.8446 43.8209 67.2377 0.0000 3.9505 0.0000
# 2 43.8209 86.9014 64.5346 0.0001 2.0402 -0.0001
# 3 67.2377 64.5346 169.5839 -0.0001 11.6310 0.0000
# 4 0.0000 0.0001 -0.0001 29.0389 0.0000 1.8274
# 5 3.9505 2.0402 11.6310 0.0000 9.5595 0.0001
# 6 0.0000 -0.0001 0.0000 1.8274 0.0001 28.8198
#
#
#
# Elastic Compliance Matrix: (Units=1/GPa)
#
#
# Indices 1 2 3 4 5 6 
#
# 1 0.015185 -0.004444 -0.004325 0.000000 -0.000064 0.000000
# 2 -0.004444 0.017510 -0.005205 0.000000 0.004433 0.000000
# 3 -0.004325 -0.005205 0.010249 0.000000 -0.009572 0.000000
# 4 0.000000 0.000000 0.000000 0.034575 0.000000 -0.002192
# 5 -0.000064 0.004433 -0.009572 0.000000 0.115334 0.000000
# 6 0.000000 0.000000 0.000000 -0.002192 0.000000 0.034837
#
#
# Mechanical properties :
#
#
# Convention : Reuss Voigt Hill
#
# Bulk Modulus (GPa) = 66.68822 78.39071 72.53946
# Shear Modulus (GPa) = 19.18377 25.39944 22.29160
#
# Velocity S-wave (km/s) = 3.17275 3.65074 3.42010
# Velocity P-wave (km/s) = 6.95810 7.67493 7.32529
#
# Compressibility (1/GPa) = 0.01499515
#
# Stress axis : x y z
#
# Youngs Moduli (GPa) = 65.85271 57.11139 97.57003
#
# Poissons Ratio (x) = 0.25379 0.42202
# Poissons Ratio (y) = 0.29264 0.50788
# Poissons Ratio (z) = 0.28483 0.29728
#
# Static dielectric constant tensor:
#      x y z
#    x 3.236700 0.000000 0.090940 
#    y 0.000000 3.470010 0.000000 
#    z 0.090940 0.000000 3.960360 
# 
# 
# High freq. dielectric constant tensor:
#      x y z
#    x 1.723000 0.000000 0.003880 
#    y 0.000000 1.735830 0.000000 
#    z 0.003880 0.000000 1.762830 
# 
# From -- ./inp_files/274034.got.cif
#   From: 2010.06.25/outbox.cif.g09.slc.cpg/sg12_138_cif.got.tgz:274034.got - 2010.06.28 00:19:55.
