data_PCOD8099515
_publ_section_title
;
Structure prediction by ZEFSAII (Michael W. Deem and Ramdas Pophale) SiO2 
 PCOD8099515
Probable space group: C 2/M
;
_chemical_formula_sum "Si O2"
_cell_formula_units_Z 48
_cell_length_a 11.166439
_cell_length_b 12.900283
_cell_length_c 21.439441
_cell_angle_alpha 90.000000
_cell_angle_beta 51.930308
_cell_angle_gamma 90.000000
_cell_volume 2431.343390
_symmetry_space_group_name_H-M "C 2/M"
_symmetry_group_IT_number 12
_symmetry_cell_setting 'monoclinic'
loop_
_space_group_symop_operation_xyz
x,y,z
-x,y,-z
-x,-y,-z
x,-y,z
1/2+x,1/2+y,z
1/2-x,1/2+y,-z
1/2-x,1/2-y,-z
1/2+x,1/2-y,z
loop_
_atom_site_type_symbol
_atom_site_label
_atom_site_fract_x
_atom_site_fract_y
_atom_site_fract_z
Si Si1 0.028987 0.381129 0.180848
Si Si2 0.230541 0.235662 0.695394
Si Si3 0.430243 0.231097 0.954499
Si Si4 0.470284 0.310135 0.443746
Si Si5 0.706807 0.117976 0.450333
Si Si6 0.322883 0.380841 0.162947
O O1 0.983982 0.500000 0.207238
O O2 0.016577 0.357553 0.111077
O O3 0.200996 0.358159 0.147712
O O4 0.917001 0.309266 0.257309
O O5 0.379995 0.307454 0.646990
O O6 0.232517 0.163441 0.634121
O O7 0.238694 0.165982 0.753604
O O8 0.513742 0.337581 0.909854
O O9 0.500000 0.197499 0.000000
O O10 0.250000 0.250000 0.000000
O O11 0.500000 0.366127 0.500000
O O12 0.419149 0.190226 0.475521
O O13 0.350510 0.382590 0.449140
O O14 0.646239 0.000000 0.462642
O O15 0.349657 0.500000 0.166261
#
# Coordination Sequence:
#
# PCOD8099515 Si02
#       6
#     8   8   8   8   8   8
#     4  10  22  39  60  87 119 157 196 238 295 358
#     4  10  20  36  57  82 116 149 192 245 293 344
#     4  11  22  40  65  90 121 156 194 248 292 346
#     4   9  20  36  53  79 113 150 190 243 297 349
#     4  10  20  35  56  81 110 149 197 245 293 347
#     4  10  21  37  60  87 116 155 196 235 294 357
#
# _framework density 19.742173000000001
#
# number of rings (size 3 to 8) (size 9 to 14) (size 15 to 20)
#    0.000    2.000    1.667    1.500    0.000    6.000 
#    0.000   10.000    0.000    0.000    0.000    0.000 
#    0.000    0.000    0.000    0.000    0.000    0.000 
#
# Total GULP energy -297445.995893 kJ/mol
# GULP energy per Si atom -12393.583162 kJ/mol
# Density = 1.969724 g / cm^3
# Si number density = 19.742173 Si / 1000 Ang^3
#
#
#
# Elastic Constant Matrix: (Units=GPa)
#
#
# Indices 1 2 3 4 5 6 
#
# 1 126.3144 28.0948 48.5503 0.0000 -0.0049 0.0000
# 2 28.0948 86.8800 30.4559 0.0000 -1.0178 0.0000
# 3 48.5503 30.4559 109.4836 0.0000 -2.2817 0.0000
# 4 0.0000 0.0000 0.0000 17.8673 0.0000 1.3969
# 5 -0.0049 -1.0178 -2.2817 0.0000 39.3562 0.0000
# 6 0.0000 0.0000 0.0000 1.3969 0.0000 19.2446
#
#
#
# Elastic Compliance Matrix: (Units=1/GPa)
#
#
# Indices 1 2 3 4 5 6 
#
# 1 0.009800 -0.001825 -0.003844 0.000000 -0.000269 0.000000
# 2 -0.001825 0.013094 -0.002830 0.000000 0.000174 0.000000
# 3 -0.003844 -0.002830 0.011638 0.000000 0.000601 0.000000
# 4 0.000000 0.000000 0.000000 0.056288 0.000000 -0.004086
# 5 -0.000269 0.000174 0.000601 0.000000 0.025448 0.000000
# 6 0.000000 0.000000 0.000000 -0.004086 0.000000 0.052259
#
#
# Mechanical properties :
#
#
# Convention : Reuss Voigt Hill
#
# Bulk Modulus (GPa) = 57.02651 59.65334 58.33992
# Shear Modulus (GPa) = 26.12751 29.66541 27.89646
#
# Velocity S-wave (km/s) = 3.64185 3.88060 3.76312
# Velocity P-wave (km/s) = 6.82880 7.09651 6.96394
#
# Compressibility (1/GPa) = 0.01753570
#
# Stress axis : x y z
#
# Youngs Moduli (GPa) = 102.04074 76.36958 85.92549
#
# Poissons Ratio (x) = 0.13936 0.33028
# Poissons Ratio (y) = 0.18620 0.24314
# Poissons Ratio (z) = 0.39222 0.21610
#
# Static dielectric constant tensor:
#      x y z
#    x 4.047080 0.000000 0.128600 
#    y 0.000000 3.334000 0.000000 
#    z 0.128600 0.000000 3.729820 
# 
# 
# High freq. dielectric constant tensor:
#      x y z
#    x 1.788350 0.000000 0.001240 
#    y 0.000000 1.752300 0.000000 
#    z 0.001240 0.000000 1.776130 
# 
# From -- ./inp_files/304391.got.cif
#   From: 2010.06.25/outbox.cif.g09.slc.cpg/sg12_153_cif.got.tgz:304391.got - 2010.06.28 00:19:55.
