data_PCOD8099856
_publ_section_title
;
Structure prediction by ZEFSAII (Michael W. Deem and Ramdas Pophale) SiO2 
 PCOD8099856
Probable space group: C 2/M
;
_chemical_formula_sum "Si O2"
_cell_formula_units_Z 56
_cell_length_a 22.750430
_cell_length_b 8.798431
_cell_length_c 16.293904
_cell_angle_alpha 90.000000
_cell_angle_beta 61.179335
_cell_angle_gamma 90.000000
_cell_volume 2857.524537
_symmetry_space_group_name_H-M "C 2/M"
_symmetry_group_IT_number 12
_symmetry_cell_setting 'monoclinic'
loop_
_space_group_symop_operation_xyz
x,y,z
-x,y,-z
-x,-y,-z
x,-y,z
1/2+x,1/2+y,z
1/2-x,1/2+y,-z
1/2-x,1/2-y,-z
1/2+x,1/2-y,z
loop_
_atom_site_type_symbol
_atom_site_label
_atom_site_fract_x
_atom_site_fract_y
_atom_site_fract_z
Si Si1 0.832354 0.319986 0.770363
Si Si2 0.915457 0.819951 0.383671
Si Si3 0.815209 0.818886 0.139195
Si Si4 0.342929 0.179064 0.578056
Si Si5 0.447747 0.678735 0.964339
Si Si6 0.041208 0.319935 0.216436
Si Si7 0.808085 0.820331 0.326718
O O1 0.829579 0.500000 0.771648
O O2 0.757514 0.259579 0.843806
O O3 0.853062 0.267144 0.665079
O O4 0.886245 0.260788 0.800171
O O5 0.896486 0.770092 0.488086
O O6 0.859394 0.752852 0.358890
O O7 0.986438 0.748136 0.314081
O O8 0.920771 0.000000 0.374565
O O9 0.827252 0.757102 0.223522
O O10 0.817023 0.000000 0.140289
O O11 0.874278 0.759647 0.040302
O O12 0.267971 0.225487 0.599444
O O13 0.355264 0.000000 0.559630
O O14 0.447580 0.500000 0.946757
O O15 0.470943 0.763110 0.867117
O O16 0.500000 0.720572 0.000000
O O17 0.036578 0.500000 0.222488
O O18 0.814409 0.000000 0.320935
#
# Coordination Sequence:
#
# PCOD8099856 Si02
#       7
#     8   8   8   8   8   8   8
#     4   8  17  34  54  75 100 134 176 215 251 300
#     4  11  21  33  50  76 108 139 172 212 262 310
#     4   8  14  29  54  78 100 132 171 208 250 303
#     4   9  17  33  56  78 100 132 174 215 257 305
#     4  10  20  35  57  83 108 134 165 204 256 314
#     4  11  23  37  52  73 103 138 177 217 253 296
#     4   8  15  29  52  79 104 131 167 210 254 307
#
# _framework density 19.597382
#
# number of rings (size 3 to 8) (size 9 to 14) (size 15 to 20)
#    0.000    2.714    0.000    3.857    0.000    3.714 
#    0.000    5.000    0.000    4.286    0.000    0.000 
#    0.000    0.000    0.000    0.000    0.000    0.000 
#
# Total GULP energy -347123.170697 kJ/mol
# GULP energy per Si atom -12397.256096 kJ/mol
# Density = 1.955278 g / cm^3
# Si number density = 19.597382 Si / 1000 Ang^3
#
#
#
# Elastic Constant Matrix: (Units=GPa)
#
#
# Indices 1 2 3 4 5 6 
#
# 1 112.0311 32.3817 46.5807 0.0000 -7.1396 -0.0001
# 2 32.3817 37.3347 23.9471 0.0000 -2.7323 -0.0001
# 3 46.5807 23.9471 102.4122 0.0000 -20.7344 0.0000
# 4 0.0000 0.0000 0.0000 27.9913 0.0000 -1.2818
# 5 -7.1396 -2.7323 -20.7344 0.0000 31.0608 0.0000
# 6 -0.0001 -0.0001 0.0000 -1.2818 0.0000 18.6723
#
#
#
# Elastic Compliance Matrix: (Units=1/GPa)
#
#
# Indices 1 2 3 4 5 6 
#
# 1 0.013112 -0.008851 -0.003980 0.000000 -0.000421 0.000000
# 2 -0.008851 0.037652 -0.005226 0.000000 -0.002211 0.000000
# 3 -0.003980 -0.005226 0.014474 0.000000 0.008288 0.000000
# 4 0.000000 0.000000 0.000000 0.035838 0.000000 0.002460
# 5 -0.000421 -0.002211 0.008288 0.000000 0.037436 0.000000
# 6 0.000000 0.000000 0.000000 0.002460 0.000000 0.053724
#
#
# Mechanical properties :
#
#
# Convention : Reuss Voigt Hill
#
# Bulk Modulus (GPa) = 34.33433 50.84409 42.58921
# Shear Modulus (GPa) = 21.00328 25.46945 23.23637
#
# Velocity S-wave (km/s) = 3.27729 3.60896 3.44712
# Velocity P-wave (km/s) = 5.64613 6.58534 6.13374
#
# Compressibility (1/GPa) = 0.02912537
#
# Stress axis : x y z
#
# Youngs Moduli (GPa) = 76.26506 26.55922 69.08724
#
# Poissons Ratio (x) = 0.23507 0.27493
# Poissons Ratio (y) = 0.67502 0.36105
# Poissons Ratio (z) = 0.30350 0.13880
#
# Static dielectric constant tensor:
#      x y z
#    x 3.995640 0.000000 -0.073550 
#    y 0.000000 3.057050 0.000000 
#    z -0.073550 0.000000 3.642520 
# 
# 
# High freq. dielectric constant tensor:
#      x y z
#    x 1.770460 0.000000 -0.006290 
#    y 0.000000 1.715590 0.000000 
#    z -0.006290 0.000000 1.769480 
# 
# From -- ./inp_files/238363.got.cif
#   From: 2010.06.25/outbox.cif.g09.slc.cpg/sg12_120_cif.got.tgz:238363.got - 2010.06.28 00:19:55.
