data_PCOD8099382
_publ_section_title
;
Structure prediction by ZEFSAII (Michael W. Deem and Ramdas Pophale) SiO2 
 PCOD8099382
Probable space group: C 2/M
;
_chemical_formula_sum "Si O2"
_cell_formula_units_Z 64
_cell_length_a 30.096171
_cell_length_b 9.406526
_cell_length_c 14.396484
_cell_angle_alpha 90.000000
_cell_angle_beta 58.633012
_cell_angle_gamma 90.000000
_cell_volume 3479.997703
_symmetry_space_group_name_H-M "C 2/M"
_symmetry_group_IT_number 12
_symmetry_cell_setting 'monoclinic'
loop_
_space_group_symop_operation_xyz
x,y,z
-x,y,-z
-x,-y,-z
x,-y,z
1/2+x,1/2+y,z
1/2-x,1/2+y,-z
1/2-x,1/2-y,-z
1/2+x,1/2-y,z
loop_
_atom_site_type_symbol
_atom_site_label
_atom_site_fract_x
_atom_site_fract_y
_atom_site_fract_z
Si Si1 0.662280 0.836113 0.835054
Si Si2 0.037507 0.163602 0.541547
Si Si3 0.293578 0.335852 0.898697
Si Si4 0.907488 0.665613 0.260455
Si Si5 0.119888 0.164706 0.051928
Si Si6 0.503255 0.335900 0.211223
Si Si7 0.366710 0.832962 0.506737
Si Si8 0.282494 0.335937 0.699980
O O1 0.627854 0.782708 0.786269
O O2 0.722072 0.811841 0.744205
O O3 0.651112 0.000000 0.869500
O O4 0.648971 0.748415 0.940283
O O5 0.088021 0.262592 0.480814
O O6 0.000000 0.211241 0.500000
O O7 0.006260 0.188935 0.669990
O O8 0.055251 0.000000 0.511350
O O9 0.276590 0.500000 0.920977
O O10 0.349785 0.310469 0.884280
O O11 0.296621 0.285511 0.788844
O O12 0.250000 0.250000 0.000000
O O13 0.920515 0.500000 0.240738
O O14 0.876491 0.702079 0.388164
O O15 0.962085 0.748169 0.195097
O O16 0.061036 0.220529 0.126499
O O17 0.120354 0.000000 0.024187
O O18 0.497006 0.500000 0.190780
O O19 0.312354 0.762663 0.594320
O O20 0.365117 0.000000 0.528193
O O21 0.298451 0.500000 0.667630
#
# Coordination Sequence:
#
# PCOD8099382 Si02
#       8
#     8   8   8   8   8   8   8   8
#     4  10  21  38  58  79 105 142 185 224 267 321
#     4   9  18  33  56  79 104 142 184 221 263 320
#     4  10  20  35  56  79 110 145 177 220 269 318
#     4   9  20  39  58  77 107 142 178 226 274 315
#     4  10  21  35  54  82 113 141 176 223 269 316
#     4   9  19  35  54  79 108 140 178 219 267 319
#     4  10  21  36  54  79 111 142 177 224 274 318
#     4  10  21  36  56  81 109 143 183 220 263 324
#
# _framework density 18.390816000000001
#
# number of rings (size 3 to 8) (size 9 to 14) (size 15 to 20)
#    0.000    2.375    1.250    0.375    1.750    3.750 
#    0.000    2.500    0.000    0.000    0.000    0.000 
#    0.000    0.000    0.000    0.000    0.000    0.000 
#
# Total GULP energy -396905.795069 kJ/mol
# GULP energy per Si atom -12403.306096 kJ/mol
# Density = 1.834896 g / cm^3
# Si number density = 18.390816 Si / 1000 Ang^3
#
#
#
# Elastic Constant Matrix: (Units=GPa)
#
#
# Indices 1 2 3 4 5 6 
#
# 1 110.6659 29.2738 17.5377 0.0000 1.6955 0.0000
# 2 29.2738 49.4888 19.8966 0.0000 -8.0198 0.0000
# 3 17.5377 19.8966 35.9334 0.0000 -12.9071 0.0000
# 4 0.0000 0.0000 0.0000 29.7392 0.0000 -4.6250
# 5 1.6955 -8.0198 -12.9071 0.0000 32.8735 0.0000
# 6 0.0000 0.0000 0.0000 -4.6250 0.0000 30.1429
#
#
#
# Elastic Compliance Matrix: (Units=1/GPa)
#
#
# Indices 1 2 3 4 5 6 
#
# 1 0.011156 -0.005749 -0.003460 0.000000 -0.003336 0.000000
# 2 -0.005749 0.028974 -0.012331 0.000000 0.002523 0.000000
# 3 -0.003460 -0.012331 0.041130 0.000000 0.013319 0.000000
# 4 0.000000 0.000000 0.000000 0.034448 0.000000 0.005286
# 5 -0.003336 0.002523 0.013319 0.000000 0.036437 0.000000
# 6 0.000000 0.000000 0.000000 0.005286 0.000000 0.033986
#
#
# Mechanical properties :
#
#
# Convention : Reuss Voigt Hill
#
# Bulk Modulus (GPa) = 26.19159 36.61160 31.40160
# Shear Modulus (GPa) = 20.66655 27.17645 23.92150
#
# Velocity S-wave (km/s) = 3.35586 3.84828 3.61048
# Velocity P-wave (km/s) = 5.41187 6.30051 5.87302
#
# Compressibility (1/GPa) = 0.03818019
#
# Stress axis : x y z
#
# Youngs Moduli (GPa) = 89.63478 34.51429 24.31322
#
# Poissons Ratio (x) = 0.19841 0.08413
# Poissons Ratio (y) = 0.51529 0.29980
# Poissons Ratio (z) = 0.31017 0.42559
#
# Static dielectric constant tensor:
#      x y z
#    x 3.589690 0.000000 0.005640 
#    y 0.000000 3.342730 0.000000 
#    z 0.005640 0.000000 3.300240 
# 
# 
# High freq. dielectric constant tensor:
#      x y z
#    x 1.723750 0.000000 -0.001670 
#    y 0.000000 1.707140 0.000000 
#    z -0.001670 0.000000 1.708930 
# 
# From -- ./inp_files/249098.got.cif
#   From: 2010.06.25/outbox.cif.g09.slc.cpg/sg12_125_cif.got.tgz:249098.got - 2010.06.28 00:19:55.
