data_PCOD8099741
_publ_section_title
;
Structure prediction by ZEFSAII (Michael W. Deem and Ramdas Pophale) SiO2 
 PCOD8099741
Probable space group: C 2/M
;
_chemical_formula_sum "Si O2"
_cell_formula_units_Z 56
_cell_length_a 13.655039
_cell_length_b 26.846958
_cell_length_c 12.152324
_cell_angle_alpha 90.000000
_cell_angle_beta 40.779105
_cell_angle_gamma 90.000000
_cell_volume 2909.756445
_symmetry_space_group_name_H-M "C 2/M"
_symmetry_group_IT_number 12
_symmetry_cell_setting 'monoclinic'
loop_
_space_group_symop_operation_xyz
x,y,z
-x,y,-z
-x,-y,-z
x,-y,z
1/2+x,1/2+y,z
1/2-x,1/2+y,-z
1/2-x,1/2-y,-z
1/2+x,1/2-y,z
loop_
_atom_site_type_symbol
_atom_site_label
_atom_site_fract_x
_atom_site_fract_y
_atom_site_fract_z
Si Si1 0.560825 0.554748 0.826950
Si Si2 0.687453 0.203207 0.121449
Si Si3 0.604666 0.852434 0.639614
Si Si4 0.597219 0.055463 0.516570
Si Si5 0.614737 0.311197 0.498872
Si Si6 0.224447 0.706477 0.337799
Si Si7 0.990110 0.839837 0.827946
O O1 0.499899 0.500000 0.839135
O O2 0.738152 0.553929 0.673962
O O3 0.514058 0.600962 0.789611
O O4 0.500000 0.566580 0.000000
O O5 0.539873 0.178245 0.191901
O O6 0.649541 0.214553 0.281574
O O7 0.750000 0.250000 0.000000
O O8 0.819991 0.163305 0.011995
O O9 0.572908 0.910903 0.646850
O O10 0.744866 0.849094 0.605057
O O11 0.645961 0.834315 0.481279
O O12 0.500000 0.077470 0.500000
O O13 0.544593 0.000000 0.595493
O O14 0.500000 0.326188 0.500000
O O15 0.700405 0.259062 0.417063
O O16 0.512465 0.310555 0.694394
O O17 0.397846 0.688067 0.181069
#
# Coordination Sequence:
#
# PCOD8099741 Si02
#       7
#     8   8   8   8   8   8   8
#     4  10  20  35  56  85 119 147 178 226 284 341
#     4  12  23  35  54  85 116 149 190 231 279 339
#     4  11  22  36  56  81 111 153 189 231 284 336
#     4  10  20  35  57  86 118 146 180 224 280 346
#     4  11  22  39  56  75 107 151 196 238 284 331
#     4  11  20  36  56  78 113 147 187 229 279 339
#     4  11  22  36  56  83 111 150 188 232 282 339
#
# _framework density 19.245595999999999
#
# number of rings (size 3 to 8) (size 9 to 14) (size 15 to 20)
#    0.000    1.143    2.857    7.714    2.000    0.000 
#    0.000    2.143    0.000    1.714    0.000    0.000 
#    0.000    5.714    0.000    0.000    0.000    0.000 
#
# Total GULP energy -346960.019295 kJ/mol
# GULP energy per Si atom -12391.429261 kJ/mol
# Density = 1.920179 g / cm^3
# Si number density = 19.245596 Si / 1000 Ang^3
#
#
#
# Elastic Constant Matrix: (Units=GPa)
#
#
# Indices 1 2 3 4 5 6 
#
# 1 109.2245 41.3057 19.3761 0.0000 -9.0908 0.0000
# 2 41.3057 117.9548 21.6977 0.0000 0.8064 0.0000
# 3 19.3761 21.6977 61.0172 0.0000 -14.3691 0.0000
# 4 0.0000 0.0000 0.0000 29.3877 0.0000 -1.0632
# 5 -9.0908 0.8064 -14.3691 0.0000 29.8537 0.0000
# 6 0.0000 0.0000 0.0000 -1.0632 0.0000 20.3837
#
#
#
# Elastic Compliance Matrix: (Units=1/GPa)
#
#
# Indices 1 2 3 4 5 6 
#
# 1 0.011016 -0.003583 -0.001592 0.000000 0.002685 0.000000
# 2 -0.003583 0.010347 -0.003230 0.000000 -0.002925 0.000000
# 3 -0.001592 -0.003230 0.020244 0.000000 0.009346 0.000000
# 4 0.000000 0.000000 0.000000 0.034092 0.000000 0.001778
# 5 0.002685 -0.002925 0.009346 0.000000 0.038892 0.000000
# 6 0.000000 0.000000 0.000000 0.001778 0.000000 0.049152
#
#
# Mechanical properties :
#
#
# Convention : Reuss Voigt Hill
#
# Bulk Modulus (GPa) = 40.32825 50.32839 45.32832
# Shear Modulus (GPa) = 26.48035 29.64617 28.06326
#
# Velocity S-wave (km/s) = 3.71336 3.92907 3.82274
# Velocity P-wave (km/s) = 6.27578 6.84038 6.56415
#
# Compressibility (1/GPa) = 0.02479651
#
# Stress axis : x y z
#
# Youngs Moduli (GPa) = 90.77351 96.64753 49.39734
#
# Poissons Ratio (x) = 0.34632 0.07862
# Poissons Ratio (y) = 0.32527 0.15957
# Poissons Ratio (z) = 0.14448 0.31221
#
# Static dielectric constant tensor:
#      x y z
#    x 3.463140 0.000000 -0.276360 
#    y 0.000000 3.772930 0.000000 
#    z -0.276360 0.000000 3.550390 
# 
# 
# High freq. dielectric constant tensor:
#      x y z
#    x 1.730210 0.000000 -0.029490 
#    y 0.000000 1.749440 0.000000 
#    z -0.029490 0.000000 1.743640 
# 
# From -- ./inp_files/149444.got.cif
#   From: 2010.06.25/outbox.cif.g09.slc.cpg/sg12_75_cif.got.tgz:149444.got - 2010.06.28 00:19:55.
