data_PCOD8099517
_publ_section_title
;
Structure prediction by ZEFSAII (Michael W. Deem and Ramdas Pophale) SiO2 
 PCOD8099517
Probable space group: C 2/M
;
_chemical_formula_sum "Si O2"
_cell_formula_units_Z 64
_cell_length_a 20.532995
_cell_length_b 9.468218
_cell_length_c 23.356328
_cell_angle_alpha 90.000000
_cell_angle_beta 50.070575
_cell_angle_gamma 90.000000
_cell_volume 3481.989017
_symmetry_space_group_name_H-M "C 2/M"
_symmetry_group_IT_number 12
_symmetry_cell_setting 'monoclinic'
loop_
_space_group_symop_operation_xyz
x,y,z
-x,y,-z
-x,-y,-z
x,-y,z
1/2+x,1/2+y,z
1/2-x,1/2+y,-z
1/2-x,1/2-y,-z
1/2+x,1/2-y,z
loop_
_atom_site_type_symbol
_atom_site_label
_atom_site_fract_x
_atom_site_fract_y
_atom_site_fract_z
Si Si1 0.771757 0.161365 0.162098
Si Si2 0.512348 0.841297 0.663329
Si Si3 0.187733 0.658223 0.499496
Si Si4 0.291050 0.835282 0.641293
Si Si5 0.385780 0.660651 0.199560
Si Si6 0.482709 0.837691 0.808393
Si Si7 0.712555 0.161906 0.072465
Si Si8 0.133802 0.832081 0.303703
O O1 0.860299 0.186287 0.146684
O O2 0.775448 0.183151 0.091633
O O3 0.706105 0.276526 0.220915
O O4 0.740679 0.000000 0.193102
O O5 0.596499 0.831853 0.579098
O O6 0.527953 0.810730 0.721740
O O7 0.455072 0.717174 0.671389
O O8 0.472390 0.000000 0.680030
O O9 0.223041 0.500000 0.480165
O O10 0.250000 0.750000 0.500000
O O11 0.189817 0.713863 0.433642
O O12 0.194543 0.802000 0.714747
O O13 0.355506 0.739005 0.640581
O O14 0.312307 0.000000 0.639346
O O15 0.413736 0.500000 0.193305
O O16 0.466805 0.753814 0.170888
O O17 0.384096 0.789054 0.859578
O O18 0.488157 0.000000 0.823368
O O19 0.712482 0.000000 0.053425
O O20 0.750000 0.250000 0.000000
O O21 0.137342 0.000000 0.306409
#
# Coordination Sequence:
#
# PCOD8099517 Si02
#       8
#     8   8   8   8   8   8   8   8
#     4   9  18  38  60  79 112 152 183 217 271 335
#     4  10  20  36  55  75 105 147 185 220 275 339
#     4  10  21  35  54  76 103 144 187 230 280 330
#     4   9  19  36  53  74 109 149 185 222 275 336
#     4   9  18  32  56  82 107 144 185 227 267 315
#     4  10  20  35  56  81 111 144 179 225 277 326
#     4  10  21  38  60  84 111 146 181 221 272 327
#     4  11  21  32  53  83 106 136 183 236 278 313
#
# _framework density 18.380299000000001
#
# number of rings (size 3 to 8) (size 9 to 14) (size 15 to 20)
#    0.000    2.250    1.250    2.625    0.000    5.000 
#    0.000    3.125    0.000    3.750    0.000    0.000 
#    0.000    0.000    0.000    0.000    0.000    0.000 
#
# Total GULP energy -396671.996499 kJ/mol
# GULP energy per Si atom -12395.999891 kJ/mol
# Density = 1.833847 g / cm^3
# Si number density = 18.380299 Si / 1000 Ang^3
#
#
#
# Elastic Constant Matrix: (Units=GPa)
#
#
# Indices 1 2 3 4 5 6 
#
# 1 130.6044 64.5783 44.8448 0.0000 20.8709 -0.0002
# 2 64.5783 94.5708 30.8756 -0.0001 11.6023 -0.0005
# 3 44.8448 30.8756 81.1053 0.0000 25.0147 0.0000
# 4 0.0000 -0.0001 0.0000 24.4455 0.0000 0.8023
# 5 20.8709 11.6023 25.0147 0.0000 26.3835 0.0000
# 6 -0.0002 -0.0005 0.0000 0.8023 0.0000 37.5442
#
#
#
# Elastic Compliance Matrix: (Units=1/GPa)
#
#
# Indices 1 2 3 4 5 6 
#
# 1 0.013034 -0.007374 -0.003137 0.000000 -0.004094 0.000000
# 2 -0.007374 0.016281 -0.002419 0.000000 0.000967 0.000000
# 3 -0.003137 -0.002419 0.019633 0.000000 -0.015069 0.000000
# 4 0.000000 0.000000 0.000000 0.040936 0.000000 -0.000875
# 5 -0.004094 0.000967 -0.015069 0.000000 0.055002 0.000000
# 6 0.000000 0.000000 0.000000 -0.000875 0.000000 0.026654
#
#
# Mechanical properties :
#
#
# Convention : Reuss Voigt Hill
#
# Bulk Modulus (GPa) = 43.31368 65.20865 54.26116
# Shear Modulus (GPa) = 24.37889 28.74009 26.55949
#
# Velocity S-wave (km/s) = 3.64587 3.95857 3.80544
# Velocity P-wave (km/s) = 6.42959 7.51320 6.99242
#
# Compressibility (1/GPa) = 0.02308739
#
# Stress axis : x y z
#
# Youngs Moduli (GPa) = 76.72105 61.42292 50.93582
#
# Poissons Ratio (x) = 0.45294 0.15979
# Poissons Ratio (y) = 0.56575 0.12320
# Poissons Ratio (z) = 0.24068 0.14857
#
# Static dielectric constant tensor:
#      x y z
#    x 3.305800 0.000000 0.234830 
#    y 0.000000 3.325960 0.000000 
#    z 0.234830 0.000000 3.160720 
# 
# 
# High freq. dielectric constant tensor:
#      x y z
#    x 1.717460 0.000000 0.014830 
#    y 0.000000 1.707170 0.000000 
#    z 0.014830 0.000000 1.695650 
# 
# From -- ./inp_files/345969.got.cif
#   From: 2010.06.25/outbox.cif.g09.slc.cpg/sg12_173_cif.got.tgz:345969.got - 2010.06.28 00:19:55.
