data_PCOD8099080
_publ_section_title
;
Structure prediction by ZEFSAII (Michael W. Deem and Ramdas Pophale) SiO2 
 PCOD8099080
Probable space group: C 2/M
;
_chemical_formula_sum "Si O2"
_cell_formula_units_Z 48
_cell_length_a 23.048721
_cell_length_b 9.263000
_cell_length_c 12.691374
_cell_angle_alpha 90.000000
_cell_angle_beta 90.645365
_cell_angle_gamma 90.000000
_cell_volume 2709.440305
_symmetry_space_group_name_H-M "C 2/M"
_symmetry_group_IT_number 12
_symmetry_cell_setting 'monoclinic'
loop_
_space_group_symop_operation_xyz
x,y,z
-x,y,-z
-x,-y,-z
x,-y,z
1/2+x,1/2+y,z
1/2-x,1/2+y,-z
1/2-x,1/2-y,-z
1/2+x,1/2-y,z
loop_
_atom_site_type_symbol
_atom_site_label
_atom_site_fract_x
_atom_site_fract_y
_atom_site_fract_z
Si Si1 0.181396 0.333542 0.591496
Si Si2 0.123150 0.665895 0.806075
Si Si3 0.114688 0.169498 0.184002
Si Si4 0.004304 0.332840 0.119613
Si Si5 0.810121 0.170506 0.016471
Si Si6 0.313477 0.669251 0.613570
O O1 0.180183 0.500000 0.558863
O O2 0.137354 0.300266 0.685156
O O3 0.246211 0.287917 0.628274
O O4 0.160624 0.243635 0.490031
O O5 0.139357 0.500000 0.834881
O O6 0.055498 0.695210 0.821286
O O7 0.160548 0.773722 0.876803
O O8 0.148711 0.212578 0.079463
O O9 0.151656 0.225308 0.284210
O O10 0.052836 0.246908 0.184472
O O11 0.103875 0.000000 0.189972
O O12 0.021935 0.500000 0.118521
O O13 0.000000 0.274056 0.000000
O O14 0.799533 0.000000 0.023395
O O15 0.750000 0.250000 0.000000
O O16 0.321319 0.500000 0.599765
#
# Coordination Sequence:
#
# PCOD8099080 Si02
#       6
#     8   8   8   8   8   8
#     4   9  18  34  56  78 104 138 173 215 267 317
#     4  10  20  36  55  77 108 140 175 219 267 314
#     4  10  21  36  54  77 107 142 178 218 265 316
#     4  10  20  35  55  78 105 141 181 221 262 310
#     4  11  22  34  52  79 109 139 173 215 266 320
#     4   9  18  34  54  77 105 136 174 218 263 313
#
# _framework density 17.715837000000001
#
# number of rings (size 3 to 8) (size 9 to 14) (size 15 to 20)
#    0.000    2.167    1.667    1.500    0.000    5.667 
#    0.000    4.167    0.000    5.000    0.000    0.000 
#    0.000    0.000    0.000    0.000    0.000    0.000 
#
# Total GULP energy -297693.624874 kJ/mol
# GULP energy per Si atom -12403.901036 kJ/mol
# Density = 1.767551 g / cm^3
# Si number density = 17.715837 Si / 1000 Ang^3
#
#
#
# Elastic Constant Matrix: (Units=GPa)
#
#
# Indices 1 2 3 4 5 6 
#
# 1 90.7460 36.3484 36.8969 0.0000 -10.5975 0.0000
# 2 36.3484 46.2098 27.9158 0.0000 -3.1166 0.0000
# 3 36.8969 27.9158 87.3204 0.0000 -15.0422 0.0000
# 4 0.0000 0.0000 0.0000 32.8713 0.0000 3.5799
# 5 -10.5975 -3.1166 -15.0422 0.0000 30.2485 0.0000
# 6 0.0000 0.0000 0.0000 3.5799 0.0000 32.5358
#
#
#
# Elastic Compliance Matrix: (Units=1/GPa)
#
#
# Indices 1 2 3 4 5 6 
#
# 1 0.017257 -0.011516 -0.003033 0.000000 0.003351 0.000000
# 2 -0.011516 0.034580 -0.006858 0.000000 -0.003882 0.000000
# 3 -0.003033 -0.006858 0.015991 0.000000 0.006183 0.000000
# 4 0.000000 0.000000 0.000000 0.030791 0.000000 -0.003388
# 5 0.003351 -0.003882 0.006183 0.000000 0.036908 0.000000
# 6 0.000000 0.000000 0.000000 -0.003388 0.000000 0.031108
#
#
# Mechanical properties :
#
#
# Convention : Reuss Voigt Hill
#
# Bulk Modulus (GPa) = 39.97655 47.39983 43.68819
# Shear Modulus (GPa) = 22.95822 27.33880 25.14851
#
# Velocity S-wave (km/s) = 3.60379 3.93260 3.77178
# Velocity P-wave (km/s) = 6.31908 6.88725 6.60927
#
# Compressibility (1/GPa) = 0.02501467
#
# Stress axis : x y z
#
# Youngs Moduli (GPa) = 57.94709 28.91854 62.53467
#
# Poissons Ratio (x) = 0.33303 0.18967
# Poissons Ratio (y) = 0.66732 0.42884
# Poissons Ratio (z) = 0.17575 0.19831
#
# Static dielectric constant tensor:
#      x y z
#    x 3.279840 0.000000 -0.027720 
#    y 0.000000 3.235680 0.000000 
#    z -0.027720 0.000000 3.367680 
# 
# 
# High freq. dielectric constant tensor:
#      x y z
#    x 1.682800 0.000000 -0.003550 
#    y 0.000000 1.682120 0.000000 
#    z -0.003550 0.000000 1.686910 
# 
# From -- ./inp_files/172102.got.cif
#   From: 2010.06.25/outbox.cif.g09.slc.cpg/sg12_87_cif.got.tgz:172102.got - 2010.06.28 00:19:55.
