data_PCOD8099110
_publ_section_title
;
Structure prediction by ZEFSAII (Michael W. Deem and Ramdas Pophale) SiO2 
 PCOD8099110
Probable space group: C 2/M
;
_chemical_formula_sum "Si O2"
_cell_formula_units_Z 48
_cell_length_a 29.360974
_cell_length_b 9.283812
_cell_length_c 19.162581
_cell_angle_alpha 90.000000
_cell_angle_beta 148.405588
_cell_angle_gamma 90.000000
_cell_volume 2736.538410
_symmetry_space_group_name_H-M "C 2/M"
_symmetry_group_IT_number 12
_symmetry_cell_setting 'monoclinic'
loop_
_space_group_symop_operation_xyz
x,y,z
-x,y,-z
-x,-y,-z
x,-y,z
1/2+x,1/2+y,z
1/2-x,1/2+y,-z
1/2-x,1/2-y,-z
1/2+x,1/2-y,z
loop_
_atom_site_type_symbol
_atom_site_label
_atom_site_fract_x
_atom_site_fract_y
_atom_site_fract_z
Si Si1 0.760006 0.168658 0.084855
Si Si2 0.722097 0.330255 0.394384
Si Si3 0.902848 0.828988 0.377710
Si Si4 0.126647 0.665182 0.028777
Si Si5 0.724034 0.331709 0.668004
Si Si6 0.022805 0.167760 0.106117
O O1 0.844949 0.227133 0.237194
O O2 0.674934 0.201444 0.019771
O O3 0.769255 0.000000 0.082037
O O4 0.750000 0.250000 0.000000
O O5 0.740491 0.500000 0.424020
O O6 0.750000 0.250000 0.500000
O O7 0.777443 0.265719 0.402750
O O8 0.621331 0.295392 0.252095
O O9 0.859160 0.785013 0.394190
O O10 0.000000 0.763315 0.500000
O O11 0.904717 0.000000 0.375695
O O12 0.098858 0.500000 0.994847
O O13 0.189133 0.701749 0.175168
O O14 0.039134 0.757979 0.917858
O O15 0.719168 0.500000 0.641222
O O16 0.002878 0.000000 0.083511
O O17 0.000000 0.229667 0.000000
#
# Coordination Sequence:
#
# PCOD8099110 Si02
#       6
#     8   8   8   8   8   8
#     4   9  18  33  52  77 107 137 169 210 260 306
#     4  11  23  38  54  75 107 140 170 211 262 311
#     4   8  15  31  55  78 100 132 175 214 247 298
#     4   9  18  32  53  79 105 137 175 213 256 308
#     4   9  17  32  55  79 103 135 175 214 255 305
#     4  10  20  35  55  79 103 130 173 220 255 301
#
# _framework density 17.540407999999999
#
# number of rings (size 3 to 8) (size 9 to 14) (size 15 to 20)
#    0.000    2.667    1.667    2.500    0.000    2.333 
#    3.000    2.500    0.000    1.000    0.000    0.000 
#    0.000    0.000    0.000    0.000    0.000    0.000 
#
# Total GULP energy -297575.229419 kJ/mol
# GULP energy per Si atom -12398.967892 kJ/mol
# Density = 1.750048 g / cm^3
# Si number density = 17.540408 Si / 1000 Ang^3
#
#
#
# Elastic Constant Matrix: (Units=GPa)
#
#
# Indices 1 2 3 4 5 6 
#
# 1 145.3924 62.1987 81.1777 0.0000 -3.8078 0.0000
# 2 62.1987 59.3851 52.9178 0.0000 -4.1787 0.0000
# 3 81.1777 52.9178 104.5416 0.0000 -3.1021 0.0000
# 4 0.0000 0.0000 0.0000 26.0944 0.0000 -5.1991
# 5 -3.8078 -4.1787 -3.1021 0.0000 36.6342 0.0000
# 6 0.0000 0.0000 0.0000 -5.1991 0.0000 33.5333
#
#
#
# Elastic Compliance Matrix: (Units=1/GPa)
#
#
# Indices 1 2 3 4 5 6 
#
# 1 0.014559 -0.009436 -0.006532 0.000000 -0.000116 0.000000
# 2 -0.009436 0.036968 -0.011318 0.000000 0.002278 0.000000
# 3 -0.006532 -0.011318 0.020360 0.000000 -0.000246 0.000000
# 4 0.000000 0.000000 0.000000 0.039544 0.000000 0.006131
# 5 -0.000116 0.002278 -0.000246 0.000000 0.027524 0.000000
# 6 0.000000 0.000000 0.000000 0.006131 0.000000 0.030772
#
#
# Mechanical properties :
#
#
# Convention : Reuss Voigt Hill
#
# Bulk Modulus (GPa) = 57.75646 77.98972 67.87309
# Shear Modulus (GPa) = 21.73260 26.78737 24.25999
#
# Velocity S-wave (km/s) = 3.52376 3.91216 3.72303
# Velocity P-wave (km/s) = 7.03953 8.06015 7.56707
#
# Compressibility (1/GPa) = 0.01731408
#
# Stress axis : x y z
#
# Youngs Moduli (GPa) = 68.68789 27.05043 49.11700
#
# Poissons Ratio (x) = 0.25525 0.32083
# Poissons Ratio (y) = 0.64813 0.55591
# Poissons Ratio (z) = 0.44867 0.30616
#
# Static dielectric constant tensor:
#      x y z
#    x 3.415530 0.000000 0.257550 
#    y 0.000000 3.030060 0.000000 
#    z 0.257550 0.000000 3.618790 
# 
# 
# High freq. dielectric constant tensor:
#      x y z
#    x 1.686630 0.000000 0.004240 
#    y 0.000000 1.659110 0.000000 
#    z 0.004240 0.000000 1.667770 
# 
# From -- ./inp_files/274125.got.cif
#   From: 2010.06.25/outbox.cif.g09.slc.cpg/sg12_138_cif.got.tgz:274125.got - 2010.06.28 00:19:55.
