data_PCOD8099616
_publ_section_title
;
Structure prediction by ZEFSAII (Michael W. Deem and Ramdas Pophale) SiO2 
 PCOD8099616
Probable space group: C 2/M
;
_chemical_formula_sum "Si O2"
_cell_formula_units_Z 64
_cell_length_a 19.517596
_cell_length_b 14.076359
_cell_length_c 28.615146
_cell_angle_alpha 90.000000
_cell_angle_beta 24.451271
_cell_angle_gamma 90.000000
_cell_volume 3254.079685
_symmetry_space_group_name_H-M "C 2/M"
_symmetry_group_IT_number 12
_symmetry_cell_setting 'monoclinic'
loop_
_space_group_symop_operation_xyz
x,y,z
-x,y,-z
-x,-y,-z
x,-y,z
1/2+x,1/2+y,z
1/2-x,1/2+y,-z
1/2-x,1/2-y,-z
1/2+x,1/2-y,z
loop_
_atom_site_type_symbol
_atom_site_label
_atom_site_fract_x
_atom_site_fract_y
_atom_site_fract_z
Si Si1 0.683283 0.245044 0.108469
Si Si2 0.370214 0.246476 0.355776
Si Si3 0.151301 0.388264 0.545419
Si Si4 0.149389 0.603907 0.807310
Si Si5 0.686979 0.110288 0.298856
Si Si6 0.809268 0.602395 0.970446
Si Si7 0.814776 0.773385 0.627020
Si Si8 0.953285 0.220702 0.081158
O O1 0.568324 0.260439 0.225221
O O2 0.622031 0.151441 0.119235
O O3 0.665991 0.335294 0.084372
O O4 0.875925 0.229435 0.997786
O O5 0.297209 0.341585 0.424192
O O6 0.343633 0.156156 0.405871
O O7 0.290990 0.228904 0.354474
O O8 0.185031 0.500000 0.528696
O O9 0.977378 0.365361 0.628648
O O10 0.221878 0.500000 0.777569
O O11 0.251051 0.644042 0.700487
O O12 0.152645 0.680882 0.847678
O O13 0.960103 0.588511 0.911785
O O14 0.691383 0.170968 0.343717
O O15 0.846187 0.134316 0.168308
O O16 0.691341 0.000000 0.310213
O O17 0.731593 0.500000 0.006176
O O18 0.000000 0.801472 0.500000
O O19 0.000000 0.196235 0.000000
#
# Coordination Sequence:
#
# PCOD8099616 Si02
#       8
#     8   8   8   8   8   8   8   8
#     4  10  20  35  56  83 111 152 190 231 286 347
#     4  11  22  39  62  87 120 157 202 246 299 359
#     4  10  23  42  63  87 120 161 203 249 297 359
#     4   9  19  36  56  81 110 145 191 239 284 342
#     4  10  22  40  62  92 124 156 201 249 300 361
#     4   9  18  33  53  79 110 139 180 231 279 333
#     4  11  21  37  62  88 118 154 195 250 306 351
#     4  10  21  37  58  82 119 157 194 238 293 348
#
# _framework density 19.667618000000001
#
# number of rings (size 3 to 8) (size 9 to 14) (size 15 to 20)
#    0.000    2.000    2.500    0.750    1.750    3.500 
#    0.000    0.000    0.000    0.000    0.000    0.000 
#    0.000    0.000    0.000    0.000    0.000    0.000 
#
# Total GULP energy -396675.386410 kJ/mol
# GULP energy per Si atom -12396.105825 kJ/mol
# Density = 1.962285 g / cm^3
# Si number density = 19.667618 Si / 1000 Ang^3
#
#
#
# Elastic Constant Matrix: (Units=GPa)
#
#
# Indices 1 2 3 4 5 6 
#
# 1 64.3388 21.8101 14.1696 -0.0120 8.7487 -0.0021
# 2 21.8101 121.2704 37.9854 -0.0598 -1.0493 -0.0036
# 3 14.1696 37.9854 98.5237 -0.0883 19.7394 -0.0072
# 4 -0.0120 -0.0598 -0.0883 37.8666 -0.0105 -3.4138
# 5 8.7487 -1.0493 19.7394 -0.0105 24.6591 0.0011
# 6 -0.0021 -0.0036 -0.0072 -3.4138 0.0011 21.5245
#
#
#
# Elastic Compliance Matrix: (Units=1/GPa)
#
#
# Indices 1 2 3 4 5 6 
#
# 1 0.017490 -0.003195 -0.000015 -0.000001 -0.006329 0.000001
# 2 -0.003195 0.010292 -0.004554 0.000006 0.005217 0.000001
# 3 -0.000015 -0.004554 0.014227 0.000024 -0.011577 0.000008
# 4 -0.000001 0.000006 0.000024 0.026792 -0.000007 0.004249
# 5 -0.006329 0.005217 -0.011577 -0.000007 0.052288 -0.000007
# 6 0.000001 0.000001 0.000008 0.004249 -0.000007 0.047133
#
#
# Mechanical properties :
#
#
# Convention : Reuss Voigt Hill
#
# Bulk Modulus (GPa) = 37.76411 48.00699 42.88555
# Shear Modulus (GPa) = 25.96360 30.82123 28.39241
#
# Velocity S-wave (km/s) = 3.63729 3.96296 3.80361
# Velocity P-wave (km/s) = 6.07311 6.73812 6.41424
#
# Compressibility (1/GPa) = 0.02648017
#
# Stress axis : x y z
#
# Youngs Moduli (GPa) = 57.17586 97.16061 70.28757
#
# Poissons Ratio (x) = 0.31047 0.00108
# Poissons Ratio (y) = 0.18270 0.32007
# Poissons Ratio (z) = 0.00088 0.44245
#
# Static dielectric constant tensor:
#      x y z
#    x 3.101460 0.000040 0.107400 
#    y 0.000040 3.829920 0.000040 
#    z 0.107400 0.000040 3.759800 
# 
# 
# High freq. dielectric constant tensor:
#      x y z
#    x 1.753300 0.000000 0.005890 
#    y 0.000000 1.767370 0.000000 
#    z 0.005890 0.000000 1.774020 
# 
# From -- ./inp_files/290082.got.cif
#   From: 2010.06.25/outbox.cif.g09.slc.cpg/sg12_146_cif.got.tgz:290082.got - 2010.06.28 00:19:55.
