data_PCOD8099696
_publ_section_title
;
Structure prediction by ZEFSAII (Michael W. Deem and Ramdas Pophale) SiO2 
 PCOD8099696
Probable space group: C 2/M
;
_chemical_formula_sum "Si O2"
_cell_formula_units_Z 64
_cell_length_a 28.479306
_cell_length_b 9.210765
_cell_length_c 18.048902
_cell_angle_alpha 90.000000
_cell_angle_beta 43.121851
_cell_angle_gamma 90.000000
_cell_volume 3236.291020
_symmetry_space_group_name_H-M "C 2/M"
_symmetry_group_IT_number 12
_symmetry_cell_setting 'monoclinic'
loop_
_space_group_symop_operation_xyz
x,y,z
-x,y,-z
-x,-y,-z
x,-y,z
1/2+x,1/2+y,z
1/2-x,1/2+y,-z
1/2-x,1/2-y,-z
1/2+x,1/2-y,z
loop_
_atom_site_type_symbol
_atom_site_label
_atom_site_fract_x
_atom_site_fract_y
_atom_site_fract_z
Si Si1 0.782703 0.171013 0.031012
Si Si2 0.941158 0.328119 0.366943
Si Si3 0.818982 0.671828 0.397102
Si Si4 0.826289 0.335404 0.221788
Si Si5 0.712471 0.335978 0.242719
Si Si6 0.566086 0.331111 0.471123
Si Si7 0.441665 0.332910 0.014926
Si Si8 0.441798 0.334042 0.847870
O O1 0.746408 0.224217 0.147319
O O2 0.771549 0.000000 0.038133
O O3 0.750000 0.250000 0.000000
O O4 0.862625 0.212003 0.937482
O O5 0.945708 0.500000 0.368000
O O6 0.881393 0.280600 0.378539
O O7 0.925728 0.263241 0.464788
O O8 0.014509 0.268985 0.255409
O O9 0.806558 0.500000 0.413886
O O10 0.750000 0.750000 0.500000
O O11 0.834398 0.725373 0.295646
O O12 0.852214 0.500000 0.190385
O O13 0.747998 0.321563 0.282834
O O14 0.871035 0.248134 0.111209
O O15 0.722214 0.500000 0.200899
O O16 0.632178 0.300543 0.343890
O O17 0.500000 0.281850 0.500000
O O18 0.560979 0.500000 0.499515
O O19 0.427761 0.500000 0.049580
O O20 0.500000 0.265581 0.000000
O O21 0.467899 0.312261 0.901394
O O22 0.451444 0.500000 0.810324
#
# Coordination Sequence:
#
# PCOD8099696 Si02
#       8
#     8   8   8   8   8   8   8   8
#     4  11  24  41  63  90 122 160 201 250 304 361
#     4  11  24  40  61  92 127 160 202 256 306 354
#     4  10  22  39  59  88 122 160 204 248 299 358
#     4  10  20  35  57  84 117 153 193 241 293 351
#     4  10  21  39  63  91 120 155 201 251 302 359
#     4  10  23  43  66  89 118 160 205 250 304 367
#     4  10  20  35  56  84 116 152 196 239 286 347
#     4  10  22  40  60  86 123 164 202 243 298 365
#
# _framework density 19.775724
#
# number of rings (size 3 to 8) (size 9 to 14) (size 15 to 20)
#    0.000    1.750    1.250    2.250    1.750    5.000 
#    0.000    0.000    0.000    0.000    0.000    0.000 
#    0.000    0.000    0.000    0.000    0.000    0.000 
#
# Total GULP energy -396889.778444 kJ/mol
# GULP energy per Si atom -12402.805576 kJ/mol
# Density = 1.973071 g / cm^3
# Si number density = 19.775724 Si / 1000 Ang^3
#
#
#
# Elastic Constant Matrix: (Units=GPa)
#
#
# Indices 1 2 3 4 5 6 
#
# 1 125.2340 43.2606 43.5213 0.0052 -1.3058 -0.0016
# 2 43.2606 70.8148 50.9897 0.0246 -2.5597 -0.0118
# 3 43.5213 50.9897 107.8888 0.0298 -7.2930 -0.0165
# 4 0.0052 0.0246 0.0298 38.1998 -0.0064 1.7390
# 5 -1.3058 -2.5597 -7.2930 -0.0064 34.1901 0.0007
# 6 -0.0016 -0.0118 -0.0165 1.7390 0.0007 30.6368
#
#
#
# Elastic Compliance Matrix: (Units=1/GPa)
#
#
# Indices 1 2 3 4 5 6 
#
# 1 0.010351 -0.005021 -0.001828 0.000003 -0.000370 -0.000003
# 2 -0.005021 0.023852 -0.009273 -0.000008 -0.000384 0.000004
# 3 -0.001828 -0.009273 0.014547 -0.000005 0.002339 0.000004
# 4 0.000003 -0.000008 -0.000005 0.026246 0.000003 -0.001490
# 5 -0.000370 -0.000384 0.002339 0.000003 0.029704 0.000000
# 6 -0.000003 0.000004 0.000004 -0.001490 0.000000 0.032725
#
#
# Mechanical properties :
#
#
# Convention : Reuss Voigt Hill
#
# Bulk Modulus (GPa) = 60.58357 64.38677 62.48517
# Shear Modulus (GPa) = 28.54376 31.68308 30.11342
#
# Velocity S-wave (km/s) = 3.80330 4.00699 3.90647
# Velocity P-wave (km/s) = 7.07026 7.35100 7.21199
#
# Compressibility (1/GPa) = 0.01650613
#
# Stress axis : x y z
#
# Youngs Moduli (GPa) = 96.61253 41.92557 68.74345
#
# Poissons Ratio (x) = 0.21049 0.12563
# Poissons Ratio (y) = 0.48506 0.63748
# Poissons Ratio (z) = 0.17657 0.38879
#
# Static dielectric constant tensor:
#      x y z
#    x 3.862160 -0.000010 -0.007690 
#    y -0.000010 3.571240 0.000020 
#    z -0.007690 0.000020 3.535000 
# 
# 
# High freq. dielectric constant tensor:
#      x y z
#    x 1.786930 0.000000 -0.001260 
#    y 0.000000 1.764420 0.000000 
#    z -0.001260 0.000000 1.772350 
# 
# From -- ./inp_files/295564.got.cif
#   From: 2010.06.25/outbox.cif.g09.slc.cpg/sg12_148_cif.got.tgz:295564.got - 2010.06.28 00:19:55.
