data_PCOD8099756
_publ_section_title
;
Structure prediction by ZEFSAII (Michael W. Deem and Ramdas Pophale) SiO2 
 PCOD8099756
Probable space group: C 2/M
;
_chemical_formula_sum "Si O2"
_cell_formula_units_Z 52
_cell_length_a 15.137801
_cell_length_b 17.826309
_cell_length_c 21.276017
_cell_angle_alpha 90.000000
_cell_angle_beta 152.739769
_cell_angle_gamma 90.000000
_cell_volume 2629.728979
_symmetry_space_group_name_H-M "C 2/M"
_symmetry_group_IT_number 12
_symmetry_cell_setting 'monoclinic'
loop_
_space_group_symop_operation_xyz
x,y,z
-x,y,-z
-x,-y,-z
x,-y,z
1/2+x,1/2+y,z
1/2-x,1/2+y,-z
1/2-x,1/2-y,-z
1/2+x,1/2-y,z
loop_
_atom_site_type_symbol
_atom_site_label
_atom_site_fract_x
_atom_site_fract_y
_atom_site_fract_z
Si Si1 0.711751 0.703678 0.607487
Si Si2 0.748630 0.086689 0.473268
Si Si3 0.165071 0.914664 0.790701
Si Si4 0.649652 0.130544 0.538596
Si Si5 0.952379 0.235980 0.096378
Si Si6 0.000000 0.690186 0.000000
Si Si7 0.523843 0.581536 0.832816
O O1 0.500000 0.680933 0.500000
O O2 0.792978 0.638365 0.613559
O O3 0.698331 0.781686 0.561580
O O4 0.871970 0.715979 0.763009
O O5 0.594519 0.103401 0.432701
O O6 0.960397 0.109214 0.632347
O O7 0.733304 0.000000 0.442761
O O8 0.179802 0.903821 0.876016
O O9 0.211734 0.000000 0.801524
O O10 0.327166 0.861187 0.864013
O O11 0.500000 0.117940 0.500000
O O12 0.825626 0.077817 0.669050
O O13 0.928930 0.254988 0.009241
O O14 0.988531 0.146472 0.123353
O O15 0.750000 0.250000 0.000000
O O16 0.560109 0.500000 0.887854
#
# Coordination Sequence:
#
# PCOD8099756 Si02
#       7
#     8   8   8   8   8   4   8
#     4  10  21  39  59  86 115 150 198 244 294 343
#     4  10  20  35  56  86 122 153 182 237 302 346
#     4   9  18  33  57  87 114 148 195 241 287 340
#     4   9  18  33  57  85 113 151 198 238 275 336
#     4  11  23  41  59  88 118 155 195 240 290 349
#     4  12  21  36  63  82 114 154 200 238 287 356
#     4   9  18  36  57  79 116 151 188 242 287 331
#
# _framework density 19.773902
#
# number of rings (size 3 to 8) (size 9 to 14) (size 15 to 20)
#    0.000    2.154    1.538    3.000    0.000    1.538 
#    8.308    2.692    0.000    0.000    0.000    0.000 
#    0.000    0.000    0.000    0.000    0.000    0.000 
#
# Total GULP energy -322205.308415 kJ/mol
# GULP energy per Si atom -12392.511862 kJ/mol
# Density = 1.972890 g / cm^3
# Si number density = 19.773902 Si / 1000 Ang^3
#
#
#
# Elastic Constant Matrix: (Units=GPa)
#
#
# Indices 1 2 3 4 5 6 
#
# 1 110.2392 53.4110 26.6556 -0.0207 1.5175 -0.0024
# 2 53.4110 114.0538 21.0593 -0.0187 -10.1276 0.0022
# 3 26.6556 21.0593 54.2128 -0.0836 3.2219 0.0208
# 4 -0.0207 -0.0187 -0.0836 19.6135 0.0081 1.7247
# 5 1.5175 -10.1276 3.2219 0.0081 23.7943 0.0035
# 6 -0.0024 0.0022 0.0208 1.7247 0.0035 24.5955
#
#
#
# Elastic Compliance Matrix: (Units=1/GPa)
#
#
# Indices 1 2 3 4 5 6 
#
# 1 0.012708 -0.005446 -0.003979 -0.000008 -0.002590 0.000006
# 2 -0.005446 0.012296 -0.002450 -0.000007 0.005912 0.000000
# 3 -0.003979 -0.002450 0.021574 0.000089 -0.003710 -0.000024
# 4 -0.000008 -0.000007 0.000089 0.051302 -0.000031 -0.003598
# 5 -0.002590 0.005912 -0.003710 -0.000031 0.045211 -0.000002
# 6 0.000006 0.000000 -0.000024 -0.003598 -0.000002 0.040910
#
#
# Mechanical properties :
#
#
# Convention : Reuss Voigt Hill
#
# Bulk Modulus (GPa) = 43.80560 53.41751 48.61155
# Shear Modulus (GPa) = 23.21701 25.42599 24.32150
#
# Velocity S-wave (km/s) = 3.43027 3.58975 3.51091
# Velocity P-wave (km/s) = 6.15551 6.65240 6.40877
#
# Compressibility (1/GPa) = 0.02282813
#
# Stress axis : x y z
#
# Youngs Moduli (GPa) = 78.69333 81.32987 46.35130
#
# Poissons Ratio (x) = 0.44294 0.18441
# Poissons Ratio (y) = 0.42858 0.11355
# Poissons Ratio (z) = 0.31309 0.19925
#
# Static dielectric constant tensor:
#      x y z
#    x 4.190430 -0.000190 -0.253840 
#    y -0.000190 3.638260 0.000100 
#    z -0.253840 0.000100 3.606780 
# 
# 
# High freq. dielectric constant tensor:
#      x y z
#    x 1.767220 0.000000 0.012020 
#    y 0.000000 1.779100 0.000000 
#    z 0.012020 0.000000 1.735530 
# 
# From -- ./inp_files/311520.got.cif
#   From: 2010.06.25/outbox.cif.g09.slc.cpg/sg12_156_cif.got.tgz:311520.got - 2010.06.28 00:19:55.
