data_PCOD8099708
_publ_section_title
;
Structure prediction by ZEFSAII (Michael W. Deem and Ramdas Pophale) SiO2 
 PCOD8099708
Probable space group: C 2/M
;
_chemical_formula_sum "Si O2"
_cell_formula_units_Z 56
_cell_length_a 23.012551
_cell_length_b 8.630518
_cell_length_c 15.137055
_cell_angle_alpha 90.000000
_cell_angle_beta 87.422244
_cell_angle_gamma 90.000000
_cell_volume 3003.331928
_symmetry_space_group_name_H-M "C 2/M"
_symmetry_group_IT_number 12
_symmetry_cell_setting 'monoclinic'
loop_
_space_group_symop_operation_xyz
x,y,z
-x,y,-z
-x,-y,-z
x,-y,z
1/2+x,1/2+y,z
1/2-x,1/2+y,-z
1/2-x,1/2-y,-z
1/2+x,1/2-y,z
loop_
_atom_site_type_symbol
_atom_site_label
_atom_site_fract_x
_atom_site_fract_y
_atom_site_fract_z
Si Si1 0.367027 0.678440 0.854162
Si Si2 0.928162 0.179937 0.332097
Si Si3 0.568855 0.829393 0.491232
Si Si4 0.053509 0.317552 0.299223
Si Si5 0.862270 0.318556 0.181972
Si Si6 0.750731 0.818338 0.097645
Si Si7 0.564487 0.320624 0.972486
O O1 0.349683 0.500000 0.843247
O O2 0.413906 0.723556 0.778190
O O3 0.309721 0.783166 0.848705
O O4 0.393659 0.708300 0.948222
O O5 0.908361 0.213301 0.434729
O O6 0.875683 0.233265 0.273095
O O7 0.985752 0.274038 0.302048
O O8 0.941147 0.000000 0.319611
O O9 0.500000 0.841798 0.500000
O O10 0.583706 0.771430 0.390955
O O11 0.595879 0.000000 0.506324
O O12 0.058784 0.500000 0.281682
O O13 0.858461 0.500000 0.198976
O O14 0.801256 0.257654 0.150995
O O15 0.913652 0.282444 0.109732
O O16 0.762048 0.000000 0.090438
O O17 0.750000 0.750000 0.000000
O O18 0.564221 0.500000 0.943326
O O19 0.500000 0.263796 0.000000
#
# Coordination Sequence:
#
# PCOD8099708 Si02
#       7
#     8   8   8   8   8   8   8
#     4  11  22  36  57  83 114 148 187 233 279 329
#     4  11  21  34  55  84 117 150 187 232 282 337
#     4   8  16  32  53  79 113 150 186 227 275 331
#     4  10  20  35  56  84 118 152 188 230 278 334
#     4  12  24  38  58  81 109 146 189 233 280 334
#     4  12  24  41  61  81 108 144 192 237 279 329
#     4  10  21  36  54  79 113 147 180 224 278 330
#
# _framework density 18.645956999999999
#
# number of rings (size 3 to 8) (size 9 to 14) (size 15 to 20)
#    0.000    1.429    1.429    6.429    0.000    5.143 
#    0.000    0.000    0.000    0.857    0.000    0.000 
#    0.000    0.000    0.000    0.000    0.000    0.000 
#
# Total GULP energy -347270.434116 kJ/mol
# GULP energy per Si atom -12402.515504 kJ/mol
# Density = 1.860352 g / cm^3
# Si number density = 18.645957 Si / 1000 Ang^3
#
#
#
# Elastic Constant Matrix: (Units=GPa)
#
#
# Indices 1 2 3 4 5 6 
#
# 1 60.0369 11.8058 1.4682 0.0000 19.6536 0.0000
# 2 11.8058 74.0566 35.6150 0.0000 6.6426 0.0000
# 3 1.4682 35.6150 78.5686 0.0000 25.3668 0.0000
# 4 0.0000 0.0000 0.0000 25.6257 0.0000 1.5219
# 5 19.6536 6.6426 25.3668 0.0000 22.0495 0.0000
# 6 0.0000 0.0000 0.0000 1.5219 0.0000 28.9445
#
#
#
# Elastic Compliance Matrix: (Units=1/GPa)
#
#
# Indices 1 2 3 4 5 6 
#
# 1 0.035981 -0.011432 0.021879 0.000000 -0.053797 0.000000
# 2 -0.011432 0.021423 -0.017028 0.000000 0.023327 0.000000
# 3 0.021879 -0.017028 0.039261 0.000000 -0.059539 0.000000
# 4 0.000000 0.000000 0.000000 0.039146 0.000000 -0.002058
# 5 -0.053797 0.023327 -0.059539 0.000000 0.154773 0.000000
# 6 0.000000 0.000000 0.000000 -0.002058 0.000000 0.034657
#
#
# Mechanical properties :
#
#
# Convention : Reuss Voigt Hill
#
# Bulk Modulus (GPa) = 11.97603 34.49334 23.23469
# Shear Modulus (GPa) = 13.65236 26.24214 19.94725
#
# Velocity S-wave (km/s) = 2.70883 3.75559 3.27431
# Velocity P-wave (km/s) = 4.02747 6.11107 5.17522
#
# Compressibility (1/GPa) = 0.08350012
#
# Stress axis : x y z
#
# Youngs Moduli (GPa) = 27.79282 46.67963 25.47076
#
# Poissons Ratio (x) = 0.53366 -0.55727
# Poissons Ratio (y) = 0.31774 0.43373
# Poissons Ratio (z) = -0.60808 0.79488
#
# Static dielectric constant tensor:
#      x y z
#    x 3.289320 0.000000 0.081170 
#    y 0.000000 3.482620 0.000000 
#    z 0.081170 0.000000 3.742420 
# 
# 
# High freq. dielectric constant tensor:
#      x y z
#    x 1.699600 0.000000 0.008590 
#    y 0.000000 1.732840 0.000000 
#    z 0.008590 0.000000 1.730220 
# 
# From -- ./inp_files/231000.got.cif
#   From: 2010.06.25/outbox.cif.g09.slc.cpg/sg12_116_cif.got.tgz:231000.got - 2010.06.28 00:19:55.
