data_PCOD8099817
_publ_section_title
;
Structure prediction by ZEFSAII (Michael W. Deem and Ramdas Pophale) SiO2 
 PCOD8099817
Probable space group: C 2/M
;
_chemical_formula_sum "Si O2"
_cell_formula_units_Z 56
_cell_length_a 29.254626
_cell_length_b 8.929640
_cell_length_c 19.721714
_cell_angle_alpha 90.000000
_cell_angle_beta 147.621369
_cell_angle_gamma 90.000000
_cell_volume 2758.939958
_symmetry_space_group_name_H-M "C 2/M"
_symmetry_group_IT_number 12
_symmetry_cell_setting 'monoclinic'
loop_
_space_group_symop_operation_xyz
x,y,z
-x,y,-z
-x,-y,-z
x,-y,z
1/2+x,1/2+y,z
1/2-x,1/2+y,-z
1/2-x,1/2-y,-z
1/2+x,1/2-y,z
loop_
_atom_site_type_symbol
_atom_site_label
_atom_site_fract_x
_atom_site_fract_y
_atom_site_fract_z
Si Si1 0.317887 0.171761 0.734498
Si Si2 0.859656 0.170460 0.435318
Si Si3 0.555977 0.175952 0.223069
Si Si4 0.161327 0.321561 0.865498
Si Si5 0.905680 0.676609 0.364554
Si Si6 0.432438 0.334001 0.974812
Si Si7 0.500898 0.324391 0.284539
O O1 0.216142 0.195015 0.604633
O O2 0.362355 0.226012 0.720274
O O3 0.347035 0.264618 0.836753
O O4 0.344988 0.000000 0.779997
O O5 0.845566 0.272065 0.351286
O O6 0.948364 0.210832 0.582799
O O7 0.859458 0.000000 0.409888
O O8 0.560982 0.264087 0.299669
O O9 0.554999 0.000000 0.235715
O O10 0.467625 0.225129 0.076986
O O11 0.168395 0.500000 0.878448
O O12 0.134851 0.264880 0.756844
O O13 0.088479 0.263900 0.825699
O O14 0.250000 0.250000 0.000000
O O15 0.909995 0.500000 0.366760
O O16 0.000000 0.742800 0.500000
O O17 0.413797 0.500000 0.981327
O O18 0.500000 0.344925 0.000000
O O19 0.484134 0.500000 0.253778
#
# Coordination Sequence:
#
# PCOD8099817 Si02
#       7
#     8   8   8   8   8   8   8
#     4   9  19  36  55  82 118 155 199 245 292 354
#     4  10  22  38  60  88 118 154 198 247 297 358
#     4  10  20  35  57  81 114 161 201 241 297 356
#     4  11  24  43  66  93 126 160 199 250 306 364
#     4  10  21  40  65  90 118 154 197 246 300 360
#     4   9  17  31  52  78 108 145 191 243 296 348
#     4  11  23  39  59  86 119 155 199 248 302 361
#
# _framework density 20.297650000000001
#
# number of rings (size 3 to 8) (size 9 to 14) (size 15 to 20)
#    0.000    2.000    1.429    1.714    0.000    6.571 
#    0.000    2.857    0.000    0.000    0.000    0.000 
#    0.000    0.000    0.000    0.000    0.000    0.000 
#
# Total GULP energy -347161.783033 kJ/mol
# GULP energy per Si atom -12398.635108 kJ/mol
# Density = 2.025145 g / cm^3
# Si number density = 20.297650 Si / 1000 Ang^3
#
#
#
# Elastic Constant Matrix: (Units=GPa)
#
#
# Indices 1 2 3 4 5 6 
#
# 1 109.0956 32.5574 44.3675 0.0000 -3.0691 0.0000
# 2 32.5574 66.9348 38.0477 0.0000 -1.3061 0.0000
# 3 44.3675 38.0477 108.5286 0.0000 3.8097 0.0000
# 4 0.0000 0.0000 0.0000 27.6902 0.0000 -1.8504
# 5 -3.0691 -1.3061 3.8097 0.0000 30.9203 0.0000
# 6 0.0000 0.0000 0.0000 -1.8504 0.0000 34.9979
#
#
#
# Elastic Compliance Matrix: (Units=1/GPa)
#
#
# Indices 1 2 3 4 5 6 
#
# 1 0.011752 -0.003657 -0.003573 0.000000 0.001452 0.000000
# 2 -0.003657 0.019875 -0.005514 0.000000 0.001156 0.000000
# 3 -0.003573 -0.005514 0.012683 0.000000 -0.002150 0.000000
# 4 0.000000 0.000000 0.000000 0.036242 0.000000 0.001916
# 5 0.001452 0.001156 -0.002150 0.000000 0.032799 0.000000
# 6 0.000000 0.000000 0.000000 0.001916 0.000000 0.028674
#
#
# Mechanical properties :
#
#
# Convention : Reuss Voigt Hill
#
# Bulk Modulus (GPa) = 53.12537 57.16713 55.14625
# Shear Modulus (GPa) = 28.77095 30.02743 29.39919
#
# Velocity S-wave (km/s) = 3.76899 3.85041 3.80992
# Velocity P-wave (km/s) = 6.72089 6.92771 6.82508
#
# Compressibility (1/GPa) = 0.01882340
#
# Stress axis : x y z
#
# Youngs Moduli (GPa) = 85.09545 50.31432 78.84375
#
# Poissons Ratio (x) = 0.18398 0.28173
# Poissons Ratio (y) = 0.31115 0.43471
# Poissons Ratio (z) = 0.30406 0.27741
#
# Static dielectric constant tensor:
#      x y z
#    x 3.601150 0.000000 -0.051900 
#    y 0.000000 3.660610 0.000000 
#    z -0.051900 0.000000 3.682760 
# 
# 
# High freq. dielectric constant tensor:
#      x y z
#    x 1.789240 0.000000 -0.000350 
#    y 0.000000 1.792640 0.000000 
#    z -0.000350 0.000000 1.785190 
# 
# From -- ./inp_files/275000.got.cif
#   From: 2010.06.25/outbox.cif.g09.slc.cpg/sg12_138_cif.got.tgz:275000.got - 2010.06.28 00:19:55.
