data_PCOD8099168
_publ_section_title
;
Structure prediction by ZEFSAII (Michael W. Deem and Ramdas Pophale) SiO2 
 PCOD8099168
Probable space group: C 2/M
;
_chemical_formula_sum "Si O2"
_cell_formula_units_Z 48
_cell_length_a 19.241663
_cell_length_b 8.604209
_cell_length_c 15.752787
_cell_angle_alpha 90.000000
_cell_angle_beta 103.705021
_cell_angle_gamma 90.000000
_cell_volume 2533.765621
_symmetry_space_group_name_H-M "C 2/M"
_symmetry_group_IT_number 12
_symmetry_cell_setting 'monoclinic'
loop_
_space_group_symop_operation_xyz
x,y,z
-x,y,-z
-x,-y,-z
x,-y,z
1/2+x,1/2+y,z
1/2-x,1/2+y,-z
1/2-x,1/2-y,-z
1/2+x,1/2-y,z
loop_
_atom_site_type_symbol
_atom_site_label
_atom_site_fract_x
_atom_site_fract_y
_atom_site_fract_z
Si Si1 0.806098 0.681384 0.779940
Si Si2 0.522127 0.317421 0.599403
Si Si3 0.588359 0.321896 0.856314
Si Si4 0.342794 0.180898 0.282526
Si Si5 0.813621 0.179421 0.964237
Si Si6 0.545731 0.818266 0.257374
O O1 0.788809 0.500000 0.771948
O O2 0.738722 0.772974 0.722162
O O3 0.824073 0.727134 0.881168
O O4 0.873145 0.726727 0.740680
O O5 0.500000 0.259380 0.500000
O O6 0.511091 0.500000 0.606375
O O7 0.604709 0.273929 0.639502
O O8 0.470787 0.232197 0.651528
O O9 0.595292 0.500000 0.828475
O O10 0.639436 0.220764 0.810053
O O11 0.506432 0.268237 0.824150
O O12 0.613414 0.302244 0.960521
O O13 0.354015 0.000000 0.302171
O O14 0.796991 0.000000 0.938639
O O15 0.750000 0.250000 0.000000
O O16 0.531982 0.000000 0.243123
#
# Coordination Sequence:
#
# PCOD8099168 Si02
#       6
#     8   8   8   8   8   8
#     4  11  23  38  55  80 116 152 189 235 282 327
#     4  10  21  39  64  89 113 143 179 224 278 338
#     4  10  20  35  55  79 111 149 190 236 279 327
#     4  11  21  34  58  85 111 147 188 229 277 333
#     4  11  22  34  54  81 111 151 195 239 279 324
#     4  10  22  38  58  83 113 149 186 231 283 331
#
# _framework density 18.944136
#
# number of rings (size 3 to 8) (size 9 to 14) (size 15 to 20)
#    0.000    1.500    1.667    6.000    0.000    6.667 
#    0.000    4.167    0.000    0.000    0.000    0.000 
#    0.000    0.000    0.000    0.000    0.000    0.000 
#
# Total GULP energy -297691.539210 kJ/mol
# GULP energy per Si atom -12403.814134 kJ/mol
# Density = 1.890102 g / cm^3
# Si number density = 18.944136 Si / 1000 Ang^3
#
#
#
# Elastic Constant Matrix: (Units=GPa)
#
#
# Indices 1 2 3 4 5 6 
#
# 1 126.1942 27.9979 50.2492 0.0000 -1.0385 0.0000
# 2 27.9979 48.2975 6.9797 0.0000 -3.9117 0.0000
# 3 50.2492 6.9797 100.4971 0.0000 9.2128 0.0000
# 4 0.0000 0.0000 0.0000 28.4996 0.0000 0.3400
# 5 -1.0385 -3.9117 9.2128 0.0000 21.4605 0.0000
# 6 0.0000 0.0000 0.0000 0.3400 0.0000 31.2209
#
#
#
# Elastic Compliance Matrix: (Units=1/GPa)
#
#
# Indices 1 2 3 4 5 6 
#
# 1 0.011368 -0.005650 -0.005463 0.000000 0.001866 0.000000
# 2 -0.005650 0.024172 0.000799 0.000000 0.003790 0.000000
# 3 -0.005463 0.000799 0.013155 0.000000 -0.005766 0.000000
# 4 0.000000 0.000000 0.000000 0.035093 0.000000 -0.000382
# 5 0.001866 0.003790 -0.005766 0.000000 0.049853 0.000000
# 6 0.000000 0.000000 0.000000 -0.000382 0.000000 0.032034
#
#
# Mechanical properties :
#
#
# Convention : Reuss Voigt Hill
#
# Bulk Modulus (GPa) = 35.62853 49.49361 42.56107
# Shear Modulus (GPa) = 25.55469 28.88700 27.22084
#
# Velocity S-wave (km/s) = 3.67679 3.90917 3.79476
# Velocity P-wave (km/s) = 6.07232 6.82336 6.45877
#
# Compressibility (1/GPa) = 0.02806740
#
# Stress axis : x y z
#
# Youngs Moduli (GPa) = 87.96339 41.37092 76.01586
#
# Poissons Ratio (x) = 0.23373 0.41527
# Poissons Ratio (y) = 0.49696 -0.06071
# Poissons Ratio (z) = 0.48053 -0.03304
#
# Static dielectric constant tensor:
#      x y z
#    x 3.479600 0.000000 0.200270 
#    y 0.000000 3.646240 0.000000 
#    z 0.200270 0.000000 3.406620 
# 
# 
# High freq. dielectric constant tensor:
#      x y z
#    x 1.736870 0.000000 0.013750 
#    y 0.000000 1.753900 0.000000 
#    z 0.013750 0.000000 1.719300 
# 
# From -- ./inp_files/221726.got.cif
#   From: 2010.06.25/outbox.cif.g09.slc.cpg/sg12_111_cif.got.tgz:221726.got - 2010.06.28 00:19:55.
