data_PCOD8099236
_publ_section_title
;
Structure prediction by ZEFSAII (Michael W. Deem and Ramdas Pophale) SiO2 
 PCOD8099236
Probable space group: C 2/M
;
_chemical_formula_sum "Si O2"
_cell_formula_units_Z 56
_cell_length_a 20.505368
_cell_length_b 9.022747
_cell_length_c 17.701123
_cell_angle_alpha 90.000000
_cell_angle_beta 116.088761
_cell_angle_gamma 90.000000
_cell_volume 2941.294861
_symmetry_space_group_name_H-M "C 2/M"
_symmetry_group_IT_number 12
_symmetry_cell_setting 'monoclinic'
loop_
_space_group_symop_operation_xyz
x,y,z
-x,y,-z
-x,-y,-z
x,-y,z
1/2+x,1/2+y,z
1/2-x,1/2+y,-z
1/2-x,1/2-y,-z
1/2+x,1/2-y,z
loop_
_atom_site_type_symbol
_atom_site_label
_atom_site_fract_x
_atom_site_fract_y
_atom_site_fract_z
Si Si1 0.340693 0.676211 0.276673
Si Si2 0.428585 0.674737 0.176154
Si Si3 0.680051 0.172942 0.165562
Si Si4 0.676343 0.173823 0.989364
Si Si5 0.325647 0.675508 0.557522
Si Si6 0.595657 0.325916 0.251337
Si Si7 0.919072 0.823812 0.464352
O O1 0.339616 0.500000 0.276544
O O2 0.390843 0.731114 0.233593
O O3 0.259582 0.738471 0.225038
O O4 0.372161 0.740244 0.370887
O O5 0.417109 0.500000 0.158226
O O6 0.392980 0.760295 0.088343
O O7 0.512684 0.718244 0.224653
O O8 0.620412 0.251377 0.186568
O O9 0.677383 0.000000 0.182166
O O10 0.662124 0.206782 0.069815
O O11 0.683924 0.000000 0.977516
O O12 0.750000 0.250000 0.000000
O O13 0.315423 0.500000 0.550097
O O14 0.250000 0.750000 0.500000
O O15 0.355044 0.730007 0.653606
O O16 0.383800 0.727723 0.524768
O O17 0.603618 0.500000 0.246031
O O18 0.000000 0.757738 0.500000
O O19 0.921934 0.000000 0.460437
#
# Coordination Sequence:
#
# PCOD8099236 Si02
#       7
#     8   8   8   8   8   8   8
#     4   9  16  30  52  76 103 140 182 224 271 322
#     4  10  20  37  58  81 114 149 185 232 282 331
#     4  10  21  37  57  80 108 144 185 229 275 333
#     4  11  22  38  60  86 112 143 185 230 279 335
#     4  10  20  35  55  81 112 149 188 228 278 329
#     4  10  22  37  55  82 115 150 187 232 282 330
#     4   9  16  27  49  79 105 134 180 230 268 313
#
# _framework density 19.039234
#
# number of rings (size 3 to 8) (size 9 to 14) (size 15 to 20)
#    0.000    2.143    1.429    2.143    0.000    7.429 
#    0.000    2.857    0.000    0.429    0.000    0.000 
#    0.000    0.000    0.000    0.000    0.000    0.000 
#
# Total GULP energy -347258.719490 kJ/mol
# GULP energy per Si atom -12402.097125 kJ/mol
# Density = 1.899590 g / cm^3
# Si number density = 19.039234 Si / 1000 Ang^3
#
#
#
# Elastic Constant Matrix: (Units=GPa)
#
#
# Indices 1 2 3 4 5 6 
#
# 1 117.7057 34.4415 44.9198 0.0000 -11.2956 0.0000
# 2 34.4415 35.1243 39.1202 0.0000 -1.0433 0.0000
# 3 44.9198 39.1202 131.2456 0.0000 -1.7410 0.0000
# 4 0.0000 0.0000 0.0000 26.3504 0.0000 2.1944
# 5 -11.2956 -1.0433 -1.7410 0.0000 35.2598 0.0000
# 6 0.0000 0.0000 0.0000 2.1944 0.0000 28.4116
#
#
#
# Elastic Compliance Matrix: (Units=1/GPa)
#
#
# Indices 1 2 3 4 5 6 
#
# 1 0.012427 -0.011069 -0.000906 0.000000 0.003609 0.000000
# 2 -0.011069 0.052493 -0.011892 0.000000 -0.002580 0.000000
# 3 -0.000906 -0.011892 0.011473 0.000000 -0.000076 0.000000
# 4 0.000000 0.000000 0.000000 0.038196 0.000000 -0.002950
# 5 0.003609 -0.002580 -0.000076 0.000000 0.029437 0.000000
# 6 0.000000 0.000000 0.000000 -0.002950 0.000000 0.035425
#
#
# Mechanical properties :
#
#
# Convention : Reuss Voigt Hill
#
# Bulk Modulus (GPa) = 34.89403 57.89318 46.39360
# Shear Modulus (GPa) = 21.12051 29.04396 25.08224
#
# Velocity S-wave (km/s) = 3.33425 3.90998 3.63353
# Velocity P-wave (km/s) = 5.76109 7.13142 6.48257
#
# Compressibility (1/GPa) = 0.02865820
#
# Stress axis : x y z
#
# Youngs Moduli (GPa) = 80.47221 19.05027 87.16063
#
# Poissons Ratio (x) = 0.21087 0.07896
# Poissons Ratio (y) = 0.89074 1.03654
# Poissons Ratio (z) = 0.07290 0.22655
#
# Static dielectric constant tensor:
#      x y z
#    x 3.631330 0.000000 -0.029910 
#    y 0.000000 3.155190 0.000000 
#    z -0.029910 0.000000 3.803760 
# 
# 
# High freq. dielectric constant tensor:
#      x y z
#    x 1.751520 0.000000 -0.000550 
#    y 0.000000 1.700390 0.000000 
#    z -0.000550 0.000000 1.757730 
# 
# From -- ./inp_files/275637.got.cif
#   From: 2010.06.25/outbox.cif.g09.slc.cpg/sg12_138_cif.got.tgz:275637.got - 2010.06.28 00:19:55.
