data_PCOD8099793
_publ_section_title
;
Structure prediction by ZEFSAII (Michael W. Deem and Ramdas Pophale) SiO2 
 PCOD8099793
Probable space group: C 2/M
;
_chemical_formula_sum "Si O2"
_cell_formula_units_Z 44
_cell_length_a 9.565221
_cell_length_b 21.312823
_cell_length_c 12.118443
_cell_angle_alpha 90.000000
_cell_angle_beta 116.385099
_cell_angle_gamma 90.000000
_cell_volume 2213.131079
_symmetry_space_group_name_H-M "C 2/M"
_symmetry_group_IT_number 12
_symmetry_cell_setting 'monoclinic'
loop_
_space_group_symop_operation_xyz
x,y,z
-x,y,-z
-x,-y,-z
x,-y,z
1/2+x,1/2+y,z
1/2-x,1/2+y,-z
1/2-x,1/2-y,-z
1/2+x,1/2-y,z
loop_
_atom_site_type_symbol
_atom_site_label
_atom_site_fract_x
_atom_site_fract_y
_atom_site_fract_z
Si Si1 0.271032 0.929214 0.507620
Si Si2 0.516495 0.701344 0.137543
Si Si3 0.000000 0.159304 0.500000
Si Si4 0.094121 0.392943 0.681852
Si Si5 0.351349 0.247206 0.273157
Si Si6 0.096399 0.067656 0.143757
O O1 0.136058 0.883260 0.498938
O O2 0.425646 0.924645 0.639104
O O3 0.323354 0.911208 0.403730
O O4 0.207421 0.000000 0.490659
O O5 0.373080 0.731791 0.152768
O O6 0.667728 0.740299 0.229407
O O7 0.530077 0.628654 0.184347
O O8 0.500000 0.704571 0.000000
O O9 0.927688 0.202111 0.379580
O O10 0.064073 0.318858 0.677249
O O11 0.219096 0.417558 0.817244
O O12 0.081295 0.000000 0.202401
O O13 0.000000 0.060340 0.000000
#
# Coordination Sequence:
#
# PCOD8099793 Si02
#       6
#     8   8   4   8   8   8
#     4  11  22  36  55  79 111 147 183 225 272 329
#     4  10  21  37  57  81 110 145 185 228 273 324
#     4  12  23  36  54  82 117 146 180 228 284 334
#     4  10  20  35  57  80 106 144 186 224 267 324
#     4  11  22  36  56  82 111 146 183 226 277 328
#     4   9  17  31  53  80 106 134 175 224 268 313
#
# _framework density 19.881333999999999
#
# number of rings (size 3 to 8) (size 9 to 14) (size 15 to 20)
#    0.000    1.636    0.000    7.364    0.000    2.182 
#    0.000    0.909    0.000    0.000    0.000    0.000 
#    0.000   35.636    0.000    0.000    0.000    0.000 
#
# Total GULP energy -272590.096326 kJ/mol
# GULP energy per Si atom -12390.458924 kJ/mol
# Density = 1.983608 g / cm^3
# Si number density = 19.881334 Si / 1000 Ang^3
#
#
#
# Elastic Constant Matrix: (Units=GPa)
#
#
# Indices 1 2 3 4 5 6 
#
# 1 86.2261 55.6611 31.3866 0.0000 11.6274 0.0000
# 2 55.6611 172.6509 44.8078 0.0000 0.9347 0.0000
# 3 31.3866 44.8078 82.1470 0.0000 18.4942 0.0000
# 4 0.0000 0.0000 0.0000 12.3189 0.0000 11.1595
# 5 11.6274 0.9347 18.4942 0.0000 31.3548 0.0000
# 6 0.0000 0.0000 0.0000 11.1595 0.0000 15.6878
#
#
#
# Elastic Compliance Matrix: (Units=1/GPa)
#
#
# Indices 1 2 3 4 5 6 
#
# 1 0.016025 -0.004425 -0.002769 0.000000 -0.004178 0.000000
# 2 -0.004425 0.008112 -0.003516 0.000000 0.003473 0.000000
# 3 -0.002769 -0.003516 0.017175 0.000000 -0.008999 0.000000
# 4 0.000000 0.000000 0.000000 0.228276 0.000000 -0.162384
# 5 -0.004178 0.003473 -0.008999 0.000000 0.038647 0.000000
# 6 0.000000 0.000000 0.000000 -0.162384 0.000000 0.179255
#
#
# Mechanical properties :
#
#
# Convention : Reuss Voigt Hill
#
# Bulk Modulus (GPa) = 50.26952 67.19280 58.73116
# Shear Modulus (GPa) = 9.69855 25.81688 17.75771
#
# Velocity S-wave (km/s) = 2.21106 3.60745 2.99186
# Velocity P-wave (km/s) = 5.64430 7.15695 6.44515
#
# Compressibility (1/GPa) = 0.01989277
#
# Stress axis : x y z
#
# Youngs Moduli (GPa) = 62.40201 123.26775 58.22423
#
# Poissons Ratio (x) = 0.54549 0.16119
# Poissons Ratio (y) = 0.27614 0.20472
# Poissons Ratio (z) = 0.17276 0.43343
#
# Static dielectric constant tensor:
#      x y z
#    x 3.638770 0.000000 0.470460 
#    y 0.000000 4.173520 0.000000 
#    z 0.470460 0.000000 3.758790 
# 
# 
# High freq. dielectric constant tensor:
#      x y z
#    x 1.750930 0.000000 0.035220 
#    y 0.000000 1.801020 0.000000 
#    z 0.035220 0.000000 1.772210 
# 
# From -- ./inp_files/120926.got.cif
#   From: 2010.06.25/outbox.cif.g09.slc.cpg/sg12_61_cif.got.tgz:120926.got - 2010.06.28 00:19:55.
