data_PCOD8099977
_publ_section_title
;
Structure prediction by ZEFSAII (Michael W. Deem and Ramdas Pophale) SiO2 
 PCOD8099977
Probable space group: C 2/M
;
_chemical_formula_sum "Si O2"
_cell_formula_units_Z 48
_cell_length_a 27.259087
_cell_length_b 8.735008
_cell_length_c 15.384897
_cell_angle_alpha 90.000000
_cell_angle_beta 40.762384
_cell_angle_gamma 90.000000
_cell_volume 2391.836514
_symmetry_space_group_name_H-M "C 2/M"
_symmetry_group_IT_number 12
_symmetry_cell_setting 'monoclinic'
loop_
_space_group_symop_operation_xyz
x,y,z
-x,y,-z
-x,-y,-z
x,-y,z
1/2+x,1/2+y,z
1/2-x,1/2+y,-z
1/2-x,1/2-y,-z
1/2+x,1/2-y,z
loop_
_atom_site_type_symbol
_atom_site_label
_atom_site_fract_x
_atom_site_fract_y
_atom_site_fract_z
Si Si1 0.943165 0.319546 0.830347
Si Si2 0.700062 0.679379 0.315901
Si Si3 0.026725 0.822396 0.559898
Si Si4 0.709804 0.818910 0.635996
Si Si5 0.958867 0.682051 0.139899
Si Si6 0.281045 0.319505 0.046370
O O1 0.930450 0.500000 0.852704
O O2 0.977583 0.277396 0.691378
O O3 0.999590 0.260122 0.829244
O O4 0.864136 0.240073 0.953967
O O5 0.710659 0.500000 0.282134
O O6 0.614035 0.718531 0.453254
O O7 0.749513 0.735080 0.330778
O O8 0.725248 0.773007 0.198282
O O9 0.000000 0.777789 0.500000
O O10 0.011152 0.000000 0.600493
O O11 0.750000 0.750000 0.500000
O O12 0.625472 0.753885 0.748781
O O13 0.711821 0.000000 0.625896
O O14 0.958425 0.500000 0.137530
O O15 0.000000 0.749185 0.000000
O O16 0.282634 0.500000 0.034680
O O17 0.250000 0.250000 0.000000
#
# Coordination Sequence:
#
# PCOD8099977 Si02
#       6
#     8   8   8   8   8   8
#     4  11  22  37  60  87 116 152 194 238 286 343
#     4  10  21  38  60  86 118 157 199 244 295 347
#     4  10  21  37  57  82 115 153 191 238 295 348
#     4  10  20  35  57  84 116 154 195 240 288 341
#     4   9  18  34  56  81 111 149 191 233 279 335
#     4  12  25  41  62  87 117 151 191 240 292 350
#
# _framework density 20.068261
#
# number of rings (size 3 to 8) (size 9 to 14) (size 15 to 20)
#    0.000    1.667    0.000    5.000    0.000    5.667 
#    0.000    0.833    0.000    3.500    0.000    0.000 
#    0.000    0.000    0.000    0.000    0.000    0.000 
#
# Total GULP energy -297725.447494 kJ/mol
# GULP energy per Si atom -12405.226979 kJ/mol
# Density = 2.002258 g / cm^3
# Si number density = 20.068261 Si / 1000 Ang^3
#
#
#
# Elastic Constant Matrix: (Units=GPa)
#
#
# Indices 1 2 3 4 5 6 
#
# 1 110.8765 19.6904 18.8570 -0.0022 -0.0121 0.0015
# 2 19.6904 64.3493 21.0966 0.0052 4.3267 -0.0015
# 3 18.8570 21.0966 102.3955 0.0029 5.6611 -0.0008
# 4 -0.0022 0.0052 0.0029 37.5114 -0.0026 0.5476
# 5 -0.0121 4.3267 5.6611 -0.0026 42.2950 0.0006
# 6 0.0015 -0.0015 -0.0008 0.5476 0.0006 20.8406
#
#
#
# Elastic Compliance Matrix: (Units=1/GPa)
#
#
# Indices 1 2 3 4 5 6 
#
# 1 0.009694 -0.002577 -0.001279 0.000001 0.000437 -0.000001
# 2 -0.002577 0.017417 -0.003038 -0.000002 -0.001376 0.000001
# 3 -0.001279 -0.003038 0.010689 -0.000001 -0.001120 0.000000
# 4 0.000001 -0.000002 -0.000001 0.026669 0.000002 -0.000701
# 5 0.000437 -0.001376 -0.001120 0.000002 0.023934 -0.000001
# 6 -0.000001 0.000001 0.000000 -0.000701 -0.000001 0.048002
#
#
# Mechanical properties :
#
#
# Convention : Reuss Voigt Hill
#
# Bulk Modulus (GPa) = 41.64161 44.10106 42.87133
# Shear Modulus (GPa) = 31.60635 34.66123 33.13379
#
# Velocity S-wave (km/s) = 3.97286 4.16043 4.06772
# Velocity P-wave (km/s) = 6.46837 6.71581 6.59325
#
# Compressibility (1/GPa) = 0.02401444
#
# Stress axis : x y z
#
# Youngs Moduli (GPa) = 103.15541 57.41500 93.55100
#
# Poissons Ratio (x) = 0.14793 0.11961
# Poissons Ratio (y) = 0.26579 0.28420
# Poissons Ratio (z) = 0.13189 0.17442
#
# Static dielectric constant tensor:
#      x y z
#    x 3.868580 0.000000 -0.119220 
#    y 0.000000 3.415070 0.000000 
#    z -0.119220 0.000000 3.795720 
# 
# 
# High freq. dielectric constant tensor:
#      x y z
#    x 1.805260 0.000000 -0.002590 
#    y 0.000000 1.760740 0.000000 
#    z -0.002590 0.000000 1.799860 
# 
# From -- ./inp_files/244736.got.cif
#   From: 2010.06.25/outbox.cif.g09.slc.cpg/sg12_123_cif.got.tgz:244736.got - 2010.06.28 00:19:55.
