data_PCOD8099023
_publ_section_title
;
Structure prediction by ZEFSAII (Michael W. Deem and Ramdas Pophale) SiO2 
 PCOD8099023
Probable space group: C 2/M
;
_chemical_formula_sum "Si O2"
_cell_formula_units_Z 64
_cell_length_a 19.031767
_cell_length_b 11.838373
_cell_length_c 22.279305
_cell_angle_alpha 90.000000
_cell_angle_beta 42.862640
_cell_angle_gamma 90.000000
_cell_volume 3414.576870
_symmetry_space_group_name_H-M "C 2/M"
_symmetry_group_IT_number 12
_symmetry_cell_setting 'monoclinic'
loop_
_space_group_symop_operation_xyz
x,y,z
-x,y,-z
-x,-y,-z
x,-y,z
1/2+x,1/2+y,z
1/2-x,1/2+y,-z
1/2-x,1/2-y,-z
1/2+x,1/2-y,z
loop_
_atom_site_type_symbol
_atom_site_label
_atom_site_fract_x
_atom_site_fract_y
_atom_site_fract_z
Si Si1 0.457282 0.251556 0.796144
Si Si2 0.800589 0.208675 0.529062
Si Si3 0.707357 0.259604 0.271196
Si Si4 0.614207 0.130036 0.431038
Si Si5 0.007361 0.871964 0.346966
Si Si6 0.811016 0.869666 0.970342
Si Si7 0.231946 0.374112 0.140539
Si Si8 0.347613 0.127368 0.279734
O O1 0.506251 0.300483 0.704871
O O2 0.412848 0.352381 0.866228
O O3 0.371818 0.159112 0.831016
O O4 0.547938 0.196473 0.777521
O O5 0.750000 0.250000 0.500000
O O6 0.822625 0.320057 0.553430
O O7 0.905854 0.140990 0.451248
O O8 0.724450 0.131264 0.616021
O O9 0.671938 0.152284 0.332400
O O10 0.608175 0.336940 0.321101
O O11 0.755836 0.213599 0.178845
O O12 0.791370 0.330587 0.254719
O O13 0.500000 0.183995 0.500000
O O14 0.606882 0.000000 0.449355
O O15 0.021494 0.000000 0.318759
O O16 0.767368 0.000000 0.981136
O O17 0.750000 0.750000 0.000000
O O18 0.826485 0.872083 0.033140
O O19 0.216816 0.500000 0.176406
O O20 0.380573 0.000000 0.247601
#
# Coordination Sequence:
#
# PCOD8099023 Si02
#       8
#     8   8   8   8   8   8   8   8
#     4  10  20  36  56  86 117 145 189 236 289 347
#     4  11  22  39  51  82 113 143 190 234 286 344
#     4  10  21  37  55  81 112 146 194 232 280 345
#     4  10  20  35  55  75 104 142 182 231 278 325
#     4  11  21  36  56  78 109 148 188 233 281 337
#     4   9  18  35  61  92 122 154 193 243 298 355
#     4   9  18  35  61  86 111 145 188 235 284 344
#     4  11  23  38  57  80 115 155 191 239 293 347
#
# _framework density 18.743172000000001
#
# number of rings (size 3 to 8) (size 9 to 14) (size 15 to 20)
#    0.000    1.875    2.500    1.875    0.000    1.500 
#    0.000    5.000    0.000    2.250    0.000    0.000 
#    0.000    0.000    0.000    0.000    0.000    0.000 
#
# Total GULP energy -396479.337330 kJ/mol
# GULP energy per Si atom -12389.979292 kJ/mol
# Density = 1.870051 g / cm^3
# Si number density = 18.743172 Si / 1000 Ang^3
#
#
#
# Elastic Constant Matrix: (Units=GPa)
#
#
# Indices 1 2 3 4 5 6 
#
# 1 108.6383 37.2854 24.0845 0.0000 10.2466 0.0000
# 2 37.2854 115.8271 27.1611 0.0000 1.9911 0.0000
# 3 24.0845 27.1611 86.5869 0.0000 11.3657 0.0000
# 4 0.0000 0.0000 0.0000 20.9492 0.0000 -4.8421
# 5 10.2466 1.9911 11.3657 0.0000 20.9949 0.0000
# 6 0.0000 0.0000 0.0000 -4.8421 0.0000 10.7856
#
#
#
# Elastic Compliance Matrix: (Units=1/GPa)
#
#
# Indices 1 2 3 4 5 6 
#
# 1 0.011013 -0.003114 -0.001529 0.000000 -0.004252 0.000000
# 2 -0.003114 0.010210 -0.002593 0.000000 0.001955 0.000000
# 3 -0.001529 -0.002593 0.013626 0.000000 -0.006384 0.000000
# 4 0.000000 0.000000 0.000000 0.053261 0.000000 0.023911
# 5 -0.004252 0.001955 -0.006384 0.000000 0.052977 0.000000
# 6 0.000000 0.000000 0.000000 0.023911 0.000000 0.103451
#
#
# Mechanical properties :
#
#
# Convention : Reuss Voigt Hill
#
# Bulk Modulus (GPa) = 49.07181 54.23492 51.65336
# Shear Modulus (GPa) = 18.81095 25.38070 22.09583
#
# Velocity S-wave (km/s) = 3.17143 3.68384 3.43720
# Velocity P-wave (km/s) = 6.29671 6.86243 6.58565
#
# Compressibility (1/GPa) = 0.02037830
#
# Stress axis : x y z
#
# Youngs Moduli (GPa) = 90.79797 97.93902 73.39012
#
# Poissons Ratio (x) = 0.30496 0.11218
# Poissons Ratio (y) = 0.28272 0.19033
# Poissons Ratio (z) = 0.13879 0.25400
#
# Static dielectric constant tensor:
#      x y z
#    x 3.319920 0.000000 0.206530 
#    y 0.000000 3.500880 0.000000 
#    z 0.206530 0.000000 4.002030 
# 
# 
# High freq. dielectric constant tensor:
#      x y z
#    x 1.708070 0.000000 0.015220 
#    y 0.000000 1.735290 0.000000 
#    z 0.015220 0.000000 1.733370 
# 
# From -- ./inp_files/232483.got.cif
#   From: 2010.06.25/outbox.cif.g09.slc.cpg/sg12_117_cif.got.tgz:232483.got - 2010.06.28 00:19:55.
