data_PCOD8099550
_publ_section_title
;
Structure prediction by ZEFSAII (Michael W. Deem and Ramdas Pophale) SiO2 
 PCOD8099550
Probable space group: C 2/M
;
_chemical_formula_sum "Si O2"
_cell_formula_units_Z 40
_cell_length_a 14.739533
_cell_length_b 9.242762
_cell_length_c 16.020447
_cell_angle_alpha 90.000000
_cell_angle_beta 65.784279
_cell_angle_gamma 90.000000
_cell_volume 1990.483508
_symmetry_space_group_name_H-M "C 2/M"
_symmetry_group_IT_number 12
_symmetry_cell_setting 'monoclinic'
loop_
_space_group_symop_operation_xyz
x,y,z
-x,y,-z
-x,-y,-z
x,-y,z
1/2+x,1/2+y,z
1/2-x,1/2+y,-z
1/2-x,1/2-y,-z
1/2+x,1/2-y,z
loop_
_atom_site_type_symbol
_atom_site_label
_atom_site_fract_x
_atom_site_fract_y
_atom_site_fract_z
Si Si1 0.101237 0.660016 0.066397
Si Si2 0.499035 0.171466 0.732005
Si Si3 0.682373 0.332120 0.275077
Si Si4 0.799108 0.161664 0.100514
Si Si5 0.715027 0.834471 0.593397
O O1 0.075502 0.500000 0.042413
O O2 0.204941 0.655654 0.075893
O O3 0.017931 0.713783 0.164087
O O4 0.108212 0.766677 0.984383
O O5 0.422273 0.255253 0.701885
O O6 0.608408 0.222841 0.665165
O O7 0.481151 0.000000 0.727671
O O8 0.677031 0.500000 0.250565
O O9 0.772694 0.258510 0.190544
O O10 0.703952 0.314471 0.364772
O O11 0.829564 0.000000 0.117290
O O12 0.750000 0.750000 0.500000
O O13 0.704399 0.000000 0.571021
#
# Coordination Sequence:
#
# PCOD8099550 Si02
#       5
#     8   8   8   8   8
#     4   8  14  26  47  74 104 139 179 218 255 304
#     4   9  19  37  58  80 108 144 182 218 263 320
#     4  10  20  35  56  82 110 141 179 222 267 316
#     4   9  16  27  47  76 109 144 179 214 258 313
#     4  10  23  41  59  80 107 139 178 225 275 325
#
# _framework density 20.095618000000002
#
# number of rings (size 3 to 8) (size 9 to 14) (size 15 to 20)
#    0.000    2.800    0.000    2.400    0.000    8.000 
#    0.000    5.000    0.000    6.000    0.000    0.000 
#    0.000    0.000    0.000    0.000    0.000    0.000 
#
# Total GULP energy -247975.963271 kJ/mol
# GULP energy per Si atom -12398.798164 kJ/mol
# Density = 2.004988 g / cm^3
# Si number density = 20.095618 Si / 1000 Ang^3
#
#
#
# Elastic Constant Matrix: (Units=GPa)
#
#
# Indices 1 2 3 4 5 6 
#
# 1 49.8284 20.9785 24.8553 0.0000 -15.0590 0.0000
# 2 20.9785 88.2474 40.4687 0.0000 -6.4866 0.0000
# 3 24.8553 40.4687 104.4151 0.0000 -20.9036 0.0000
# 4 0.0000 0.0000 0.0000 41.8503 0.0000 -2.3436
# 5 -15.0590 -6.4866 -20.9036 0.0000 30.0233 0.0000
# 6 0.0000 0.0000 0.0000 -2.3436 0.0000 19.7713
#
#
#
# Elastic Compliance Matrix: (Units=1/GPa)
#
#
# Indices 1 2 3 4 5 6 
#
# 1 0.026317 -0.004349 -0.002469 0.000000 0.010542 0.000000
# 2 -0.004349 0.014519 -0.005113 0.000000 -0.002605 0.000000
# 3 -0.002469 -0.005113 0.013569 0.000000 0.007104 0.000000
# 4 0.000000 0.000000 0.000000 0.024054 0.000000 0.002851
# 5 0.010542 -0.002605 0.007104 0.000000 0.042978 0.000000
# 6 0.000000 0.000000 0.000000 0.002851 0.000000 0.050916
#
#
# Mechanical properties :
#
#
# Convention : Reuss Voigt Hill
#
# Bulk Modulus (GPa) = 32.74103 46.12177 39.43140
# Shear Modulus (GPa) = 24.22504 28.74155 26.48330
#
# Velocity S-wave (km/s) = 3.47578 3.78595 3.63418
# Velocity P-wave (km/s) = 5.69527 6.48939 6.10526
#
# Compressibility (1/GPa) = 0.03054271
#
# Stress axis : x y z
#
# Youngs Moduli (GPa) = 37.99791 68.87440 73.69806
#
# Poissons Ratio (x) = 0.29956 0.18192
# Poissons Ratio (y) = 0.16527 0.37685
# Poissons Ratio (z) = 0.09380 0.35218
#
# Static dielectric constant tensor:
#      x y z
#    x 3.379350 0.000000 -0.166200 
#    y 0.000000 3.768610 0.000000 
#    z -0.166200 0.000000 3.688160 
# 
# 
# High freq. dielectric constant tensor:
#      x y z
#    x 1.765790 0.000000 -0.007300 
#    y 0.000000 1.784450 0.000000 
#    z -0.007300 0.000000 1.782720 
# 
# From -- ./inp_files/211246.got.cif
#   From: 2010.06.25/outbox.cif.g09.slc.cpg/sg12_106_cif.got.tgz:211246.got - 2010.06.28 00:19:55.
