data_PCOD8099934
_publ_section_title
;
Structure prediction by ZEFSAII (Michael W. Deem and Ramdas Pophale) SiO2 
 PCOD8099934
Probable space group: C 2/M
;
_chemical_formula_sum "Si O2"
_cell_formula_units_Z 56
_cell_length_a 15.148528
_cell_length_b 8.961072
_cell_length_c 25.919519
_cell_angle_alpha 90.000000
_cell_angle_beta 116.514440
_cell_angle_gamma 90.000000
_cell_volume 3148.429214
_symmetry_space_group_name_H-M "C 2/M"
_symmetry_group_IT_number 12
_symmetry_cell_setting 'monoclinic'
loop_
_space_group_symop_operation_xyz
x,y,z
-x,y,-z
-x,-y,-z
x,-y,z
1/2+x,1/2+y,z
1/2-x,1/2+y,-z
1/2-x,1/2-y,-z
1/2+x,1/2-y,z
loop_
_atom_site_type_symbol
_atom_site_label
_atom_site_fract_x
_atom_site_fract_y
_atom_site_fract_z
Si Si1 0.475597 0.176469 0.139557
Si Si2 0.270634 0.668074 0.628872
Si Si3 0.524994 0.668513 0.355577
Si Si4 0.073298 0.675389 0.271914
Si Si5 0.272849 0.676963 0.060574
Si Si6 0.074838 0.323887 0.061622
Si Si7 0.430538 0.322714 0.436107
O O1 0.530198 0.224554 0.205942
O O2 0.372417 0.261082 0.110861
O O3 0.544495 0.232210 0.110513
O O4 0.455666 0.000000 0.132035
O O5 0.239238 0.500000 0.635213
O O6 0.355234 0.668915 0.606264
O O7 0.319022 0.747309 0.692189
O O8 0.177647 0.757667 0.583495
O O9 0.487306 0.500000 0.335886
O O10 0.498997 0.768076 0.298177
O O11 0.474436 0.736097 0.393271
O O12 0.087273 0.500000 0.279527
O O13 0.278921 0.500000 0.054840
O O14 0.186207 0.723876 0.077589
O O15 0.250000 0.750000 0.000000
O O16 0.064391 0.500000 0.056835
O O17 0.000000 0.253213 0.000000
O O18 0.500000 0.263180 0.500000
O O19 0.425186 0.500000 0.435455
#
# Coordination Sequence:
#
# PCOD8099934 Si02
#       7
#     8   8   8   8   8   8   8
#     4  10  20  37  57  77 104 136 180 224 262 317
#     4   9  19  36  55  77 109 142 176 219 268 314
#     4   8  18  36  54  76 109 141 172 216 269 316
#     4   9  18  35  58  78 103 142 183 222 267 317
#     4  11  21  34  55  79 106 139 176 217 269 320
#     4   9  17  33  55  75 102 140 173 208 262 324
#     4  10  20  35  57  84 110 140 180 221 263 318
#
# _framework density 17.786646999999999
#
# number of rings (size 3 to 8) (size 9 to 14) (size 15 to 20)
#    0.857    1.714    1.429    0.857    0.000    2.571 
#    2.571    2.143    0.000    0.000    0.000    0.000 
#    0.000    0.000    0.000    0.000    0.000    0.000 
#
# Total GULP energy -347007.081814 kJ/mol
# GULP energy per Si atom -12393.110065 kJ/mol
# Density = 1.774616 g / cm^3
# Si number density = 17.786647 Si / 1000 Ang^3
#
#
#
# Elastic Constant Matrix: (Units=GPa)
#
#
# Indices 1 2 3 4 5 6 
#
# 1 89.3683 22.8142 26.3672 0.0000 -2.9355 0.0000
# 2 22.8142 44.2679 33.7603 0.0000 1.4126 0.0000
# 3 26.3672 33.7603 94.4054 0.0000 -1.4644 0.0000
# 4 0.0000 0.0000 0.0000 27.7574 0.0000 6.0706
# 5 -2.9355 1.4126 -1.4644 0.0000 33.7874 0.0000
# 6 0.0000 0.0000 0.0000 6.0706 0.0000 24.3364
#
#
#
# Elastic Compliance Matrix: (Units=1/GPa)
#
#
# Indices 1 2 3 4 5 6 
#
# 1 0.013139 -0.005541 -0.001668 0.000000 0.001301 0.000000
# 2 -0.005541 0.033505 -0.010470 0.000000 -0.002336 0.000000
# 3 -0.001668 -0.010470 0.014817 0.000000 0.000935 0.000000
# 4 0.000000 0.000000 0.000000 0.038105 0.000000 -0.009505
# 5 0.001301 -0.002336 0.000935 0.000000 0.029848 0.000000
# 6 0.000000 0.000000 0.000000 -0.009505 0.000000 0.043462
#
#
# Mechanical properties :
#
#
# Convention : Reuss Voigt Hill
#
# Bulk Modulus (GPa) = 38.31014 43.76942 41.03978
# Shear Modulus (GPa) = 23.04831 26.84957 24.94894
#
# Velocity S-wave (km/s) = 3.60366 3.88949 3.74930
# Velocity P-wave (km/s) = 6.23703 6.69569 6.47043
#
# Compressibility (1/GPa) = 0.02610275
#
# Stress axis : x y z
#
# Youngs Moduli (GPa) = 76.10933 29.84634 67.48853
#
# Poissons Ratio (x) = 0.16537 0.11258
# Poissons Ratio (y) = 0.42171 0.70663
# Poissons Ratio (z) = 0.12696 0.31250
#
# Static dielectric constant tensor:
#      x y z
#    x 3.389490 0.000000 -0.033790 
#    y 0.000000 3.148940 0.000000 
#    z -0.033790 0.000000 3.280590 
# 
# 
# High freq. dielectric constant tensor:
#      x y z
#    x 1.685450 0.000000 -0.000220 
#    y 0.000000 1.678000 0.000000 
#    z -0.000220 0.000000 1.677610 
# 
# From -- ./inp_files/375150.got.cif
#   From: 2010.06.25/outbox.cif.g09.slc.cpg/sg12_188_cif.got.tgz:375150.got - 2010.06.28 00:19:55.
