data_PCOD8099352
_publ_section_title
;
Structure prediction by ZEFSAII (Michael W. Deem and Ramdas Pophale) SiO2 
 PCOD8099352
Probable space group: C 2/M
;
_chemical_formula_sum "Si O2"
_cell_formula_units_Z 64
_cell_length_a 8.975746
_cell_length_b 20.684184
_cell_length_c 19.187556
_cell_angle_alpha 90.000000
_cell_angle_beta 117.247265
_cell_angle_gamma 90.000000
_cell_volume 3167.009881
_symmetry_space_group_name_H-M "C 2/M"
_symmetry_group_IT_number 12
_symmetry_cell_setting 'monoclinic'
loop_
_space_group_symop_operation_xyz
x,y,z
-x,y,-z
-x,-y,-z
x,-y,z
1/2+x,1/2+y,z
1/2-x,1/2+y,-z
1/2-x,1/2-y,-z
1/2+x,1/2-y,z
loop_
_atom_site_type_symbol
_atom_site_label
_atom_site_fract_x
_atom_site_fract_y
_atom_site_fract_z
Si Si1 0.862985 0.808452 0.913209
Si Si2 0.895263 0.804056 0.161091
Si Si3 0.081672 0.205080 0.344646
Si Si4 0.453244 0.812908 0.410128
Si Si5 0.777443 0.428494 0.833923
Si Si6 0.642510 0.074499 0.852887
Si Si7 0.350124 0.072182 0.305867
Si Si8 0.028778 0.930849 0.326096
O O1 0.720126 0.754570 0.887610
O O2 0.781393 0.877945 0.915097
O O3 0.943642 0.808489 0.853792
O O4 0.000000 0.791809 0.000000
O O5 0.790688 0.871316 0.131207
O O6 0.952322 0.790569 0.252809
O O7 0.267551 0.212618 0.355633
O O8 0.058864 0.134103 0.378145
O O9 0.070378 0.260496 0.399287
O O10 0.500000 0.820393 0.500000
O O11 0.471521 0.882879 0.378176
O O12 0.772909 0.500000 0.869793
O O13 0.661573 0.432088 0.740661
O O14 0.965162 0.411710 0.851032
O O15 0.630383 0.093571 0.769443
O O16 0.698765 0.000000 0.874847
O O17 0.154223 0.076899 0.286383
O O18 0.418834 0.000000 0.331175
O O19 0.066793 0.000000 0.372927
#
# Coordination Sequence:
#
# PCOD8099352 Si02
#       8
#     8   8   8   8   8   8   8   8
#     4  12  25  40  59  85 118 150 187 242 303 352
#     4  11  22  39  62  84 110 150 197 238 287 351
#     4  10  20  35  56  79 104 144 188 228 275 339
#     4  11  22  35  52  79 115 148 183 233 291 341
#     4   9  18  33  57  87 113 140 182 236 284 330
#     4  10  20  36  58  85 115 148 192 240 285 342
#     4   9  18  34  57  81 107 145 193 238 280 334
#     4   8  15  30  52  78 103 133 180 232 277 324
#
# _framework density 20.208335999999999
#
# number of rings (size 3 to 8) (size 9 to 14) (size 15 to 20)
#    0.000    2.000    0.000    5.250    0.000    5.000 
#    0.000    0.000    0.000    2.250    0.000    0.000 
#    0.000    0.000    0.000    0.000    0.000    0.000 
#
# Total GULP energy -396619.221552 kJ/mol
# GULP energy per Si atom -12394.350674 kJ/mol
# Density = 2.016234 g / cm^3
# Si number density = 20.208336 Si / 1000 Ang^3
#
#
#
# Elastic Constant Matrix: (Units=GPa)
#
#
# Indices 1 2 3 4 5 6 
#
# 1 65.8858 31.8899 -2.4119 0.0000 10.5439 0.0000
# 2 31.8899 117.9262 19.5729 0.0000 5.9881 0.0000
# 3 -2.4119 19.5729 49.4269 0.0000 1.9627 0.0000
# 4 0.0000 0.0000 0.0000 -6.1008 0.0000 9.1959
# 5 10.5439 5.9881 1.9627 0.0000 16.9394 0.0000
# 6 0.0000 0.0000 0.0000 9.1959 0.0000 30.1174
#
#
#
# Elastic Compliance Matrix: (Units=1/GPa)
#
#
# Indices 1 2 3 4 5 6 
#
# 1 0.019605 -0.005337 0.003496 0.000000 -0.010721 0.000000
# 2 -0.005337 0.010664 -0.004486 0.000000 0.000072 0.000000
# 3 0.003496 -0.004486 0.022305 0.000000 -0.003175 0.000000
# 4 0.000000 0.000000 0.000000 -0.112251 0.000000 0.034274
# 5 -0.010721 0.000072 -0.003175 0.000000 0.066050 0.000000
# 6 0.000000 0.000000 0.000000 0.034274 0.000000 0.022738
#
#
# Mechanical properties :
#
#
# Convention : Reuss Voigt Hill
#
# Bulk Modulus (GPa) = 25.05087 36.81563 30.93325
# Shear Modulus (GPa) = 90.78858 20.47041 55.62950
#
# Velocity S-wave (km/s) = 6.70998 3.18617 5.25240
# Velocity P-wave (km/s) = 8.51205 5.63854 7.21970
#
# Compressibility (1/GPa) = 0.03991877
#
# Stress axis : x y z
#
# Youngs Moduli (GPa) = 51.00756 93.77166 44.83276
#
# Poissons Ratio (x) = 0.50050 -0.15674
# Poissons Ratio (y) = 0.27225 0.20113
# Poissons Ratio (z) = -0.17832 0.42069
#
# Static dielectric constant tensor:
#      x y z
#    x 3.647190 0.000000 0.136320 
#    y 0.000000 4.195300 0.000000 
#    z 0.136320 0.000000 3.193000 
# 
# 
# High freq. dielectric constant tensor:
#      x y z
#    x 1.787410 0.000000 0.015890 
#    y 0.000000 1.817850 0.000000 
#    z 0.015890 0.000000 1.741970 
# 
# From -- ./inp_files/301731.got.cif
#   From: 2010.06.25/outbox.cif.g09.slc.cpg/sg12_151_cif.got.tgz:301731.got - 2010.06.28 00:19:55.
