data_PCOD8099093
_publ_section_title
;
Structure prediction by ZEFSAII (Michael W. Deem and Ramdas Pophale) SiO2 
 PCOD8099093
Probable space group: C 2/M
;
_chemical_formula_sum "Si O2"
_cell_formula_units_Z 64
_cell_length_a 19.845539
_cell_length_b 8.950613
_cell_length_c 19.758067
_cell_angle_alpha 90.000000
_cell_angle_beta 89.775917
_cell_angle_gamma 90.000000
_cell_volume 3509.593450
_symmetry_space_group_name_H-M "C 2/M"
_symmetry_group_IT_number 12
_symmetry_cell_setting 'monoclinic'
loop_
_space_group_symop_operation_xyz
x,y,z
-x,y,-z
-x,-y,-z
x,-y,z
1/2+x,1/2+y,z
1/2-x,1/2+y,-z
1/2-x,1/2-y,-z
1/2+x,1/2-y,z
loop_
_atom_site_type_symbol
_atom_site_label
_atom_site_fract_x
_atom_site_fract_y
_atom_site_fract_z
Si Si1 0.702778 0.673917 0.196529
Si Si2 0.440179 0.827298 0.451917
Si Si3 0.557137 0.174023 0.703804
Si Si4 0.803577 0.824414 0.296964
Si Si5 0.548976 0.826751 0.060382
Si Si6 0.546308 0.672902 0.199173
Si Si7 0.195953 0.173614 0.546867
Si Si8 0.203928 0.674610 0.055911
O O1 0.719618 0.500000 0.188535
O O2 0.744568 0.743470 0.257218
O O3 0.624715 0.701019 0.213617
O O4 0.723656 0.755666 0.127650
O O5 0.500000 0.774770 0.500000
O O6 0.460128 0.795183 0.374391
O O7 0.376851 0.730875 0.475032
O O8 0.422156 0.000000 0.463146
O O9 0.624237 0.260880 0.726370
O O10 0.494093 0.232648 0.745977
O O11 0.568499 0.000000 0.718408
O O12 0.790199 0.786128 0.375232
O O13 0.802260 0.000000 0.282386
O O14 0.527436 0.728372 0.124412
O O15 0.625850 0.793417 0.038479
O O16 0.539784 0.000000 0.079683
O O17 0.500000 0.779063 0.000000
O O18 0.526748 0.500000 0.205367
O O19 0.250000 0.250000 0.500000
O O20 0.199404 0.000000 0.533347
O O21 0.219686 0.500000 0.058214
O O22 0.250000 0.750000 0.000000
#
# Coordination Sequence:
#
# PCOD8099093 Si02
#       8
#     8   8   8   8   8   8   8   8
#     4  10  21  37  56  79 108 142 180 222 269 319
#     4   9  19  36  56  79 107 139 177 220 265 314
#     4  10  20  35  56  79 107 142 177 217 265 317
#     4  10  21  37  56  79 107 139 178 223 268 316
#     4   9  19  36  56  77 102 135 176 218 260 309
#     4  10  21  36  54  78 109 141 176 219 262 311
#     4  10  21  36  55  79 108 141 177 219 266 318
#     4  10  20  35  55  78 107 141 177 221 269 317
#
# _framework density 18.23573
#
# number of rings (size 3 to 8) (size 9 to 14) (size 15 to 20)
#    0.000    2.250    0.000    2.250    0.000    6.500 
#    0.000    7.500    0.000    0.000    0.000    0.000 
#    0.000    0.000    0.000    0.000    0.000    0.000 
#
# Total GULP energy -396942.336149 kJ/mol
# GULP energy per Si atom -12404.448005 kJ/mol
# Density = 1.819422 g / cm^3
# Si number density = 18.235730 Si / 1000 Ang^3
#
#
#
# Elastic Constant Matrix: (Units=GPa)
#
#
# Indices 1 2 3 4 5 6 
#
# 1 112.8116 65.3225 85.1814 0.0000 2.1545 0.0000
# 2 65.3225 100.1157 62.9098 0.0000 -2.8468 0.0000
# 3 85.1814 62.9098 103.4836 0.0000 1.0655 0.0000
# 4 0.0000 0.0000 0.0000 33.9280 0.0000 -3.5394
# 5 2.1545 -2.8468 1.0655 0.0000 42.1966 0.0000
# 6 0.0000 0.0000 0.0000 -3.5394 0.0000 36.5003
#
#
#
# Elastic Compliance Matrix: (Units=1/GPa)
#
#
# Indices 1 2 3 4 5 6 
#
# 1 0.025231 -0.005591 -0.017358 0.000000 -0.001227 0.000000
# 2 -0.005591 0.017477 -0.006040 0.000000 0.001617 0.000000
# 3 -0.017358 -0.006040 0.027625 0.000000 -0.000219 0.000000
# 4 0.000000 0.000000 0.000000 0.029775 0.000000 0.002887
# 5 -0.001227 0.001617 -0.000219 0.000000 0.023876 0.000000
# 6 0.000000 0.000000 0.000000 0.002887 0.000000 0.027677
#
#
# Mechanical properties :
#
#
# Convention : Reuss Voigt Hill
#
# Bulk Modulus (GPa) = 80.91983 82.58204 81.75094
# Shear Modulus (GPa) = 23.39111 29.39144 26.39127
#
# Velocity S-wave (km/s) = 3.58538 4.01902 3.80837
# Velocity P-wave (km/s) = 7.84924 8.18051 8.01659
#
# Compressibility (1/GPa) = 0.01235791
#
# Stress axis : x y z
#
# Youngs Moduli (GPa) = 39.63343 57.21740 36.19914
#
# Poissons Ratio (x) = 0.31987 0.62833
# Poissons Ratio (y) = 0.22157 0.21863
# Poissons Ratio (z) = 0.68794 0.34557
#
# Static dielectric constant tensor:
#      x y z
#    x 3.322790 0.000000 0.059070 
#    y 0.000000 3.510840 0.000000 
#    z 0.059070 0.000000 3.264720 
# 
# 
# High freq. dielectric constant tensor:
#      x y z
#    x 1.709590 0.000000 0.000200 
#    y 0.000000 1.720800 0.000000 
#    z 0.000200 0.000000 1.707770 
# 
# From -- ./inp_files/314120.got.cif
#   From: 2010.06.25/outbox.cif.g09.slc.cpg/sg12_158_cif.got.tgz:314120.got - 2010.06.28 00:19:55.
