data_PCOD8099866
_publ_section_title
;
Structure prediction by ZEFSAII (Michael W. Deem and Ramdas Pophale) SiO2 
 PCOD8099866
Probable space group: C 2/M
;
_chemical_formula_sum "Si O2"
_cell_formula_units_Z 48
_cell_length_a 13.170371
_cell_length_b 13.115203
_cell_length_c 22.570603
_cell_angle_alpha 90.000000
_cell_angle_beta 140.879071
_cell_angle_gamma 90.000000
_cell_volume 2459.900225
_symmetry_space_group_name_H-M "C 2/M"
_symmetry_group_IT_number 12
_symmetry_cell_setting 'monoclinic'
loop_
_space_group_symop_operation_xyz
x,y,z
-x,y,-z
-x,-y,-z
x,-y,z
1/2+x,1/2+y,z
1/2-x,1/2+y,-z
1/2-x,1/2-y,-z
1/2+x,1/2-y,z
loop_
_atom_site_type_symbol
_atom_site_label
_atom_site_fract_x
_atom_site_fract_y
_atom_site_fract_z
Si Si1 0.017245 0.620177 0.258645
Si Si2 0.483075 0.804035 0.560222
Si Si3 0.273278 0.383222 0.467174
Si Si4 0.894070 0.616183 0.079444
Si Si5 0.450966 0.684503 0.044109
Si Si6 0.229691 0.380366 0.758025
O O1 0.006471 0.500000 0.255627
O O2 0.004024 0.655252 0.184516
O O3 0.864212 0.661435 0.226394
O O4 0.181990 0.654375 0.365631
O O5 0.500000 0.838143 0.500000
O O6 0.432698 0.685250 0.544510
O O7 0.346221 0.871662 0.530841
O O8 0.656945 0.821071 0.668606
O O9 0.329570 0.500000 0.488550
O O10 0.935673 0.500000 0.079442
O O11 0.927557 0.693351 0.040708
O O12 0.708475 0.621372 0.014025
O O13 0.583462 0.644983 0.150386
O O14 0.500000 0.658354 0.000000
O O15 0.202948 0.500000 0.735691
#
# Coordination Sequence:
#
# PCOD8099866 Si02
#       6
#     8   8   8   8   8   8
#     4   8  15  31  56  78 103 142 182 220 265 313
#     4  10  21  35  56  82 109 148 182 225 270 328
#     4   9  19  36  55  80 113 146 181 227 270 318
#     4  10  21  36  56  83 112 144 180 222 275 327
#     4  11  22  36  58  85 109 143 184 226 271 324
#     4  10  20  35  57  83 110 141 185 231 269 316
#
# _framework density 19.512986000000001
#
# number of rings (size 3 to 8) (size 9 to 14) (size 15 to 20)
#    0.000    2.333    1.667    2.000    2.333    2.667 
#    0.000    0.833    0.000    0.000    0.000    0.000 
#    0.000    0.000    0.000    0.000    0.000    0.000 
#
# Total GULP energy -297537.386536 kJ/mol
# GULP energy per Si atom -12397.391106 kJ/mol
# Density = 1.946857 g / cm^3
# Si number density = 19.512986 Si / 1000 Ang^3
#
#
#
# Elastic Constant Matrix: (Units=GPa)
#
#
# Indices 1 2 3 4 5 6 
#
# 1 35.1988 -0.6044 24.1467 0.0000 -5.0657 0.0000
# 2 -0.6044 78.7040 34.5290 0.0000 5.1817 0.0000
# 3 24.1467 34.5290 119.1815 0.0000 0.6713 0.0000
# 4 0.0000 0.0000 0.0000 30.8406 0.0000 -0.9949
# 5 -5.0657 5.1817 0.6713 0.0000 18.5343 0.0000
# 6 0.0000 0.0000 0.0000 -0.9949 0.0000 14.0521
#
#
#
# Elastic Compliance Matrix: (Units=1/GPa)
#
#
# Indices 1 2 3 4 5 6 
#
# 1 0.035366 0.003255 -0.008159 0.000000 0.009051 0.000000
# 2 0.003255 0.015146 -0.005030 0.000000 -0.003162 0.000000
# 3 -0.008159 -0.005030 0.011508 0.000000 -0.001241 0.000000
# 4 0.000000 0.000000 0.000000 0.032499 0.000000 0.002301
# 5 0.009051 -0.003162 -0.001241 0.000000 0.057357 0.000000
# 6 0.000000 0.000000 0.000000 0.002301 0.000000 0.071327
#
#
# Mechanical properties :
#
#
# Convention : Reuss Voigt Hill
#
# Bulk Modulus (GPa) = 23.72361 38.80298 31.26330
# Shear Modulus (GPa) = 19.44612 24.35294 21.89953
#
# Velocity S-wave (km/s) = 3.16028 3.53659 3.35372
# Velocity P-wave (km/s) = 5.04983 6.05025 5.57253
#
# Compressibility (1/GPa) = 0.04215210
#
# Stress axis : x y z
#
# Youngs Moduli (GPa) = 28.27567 66.02544 86.89687
#
# Poissons Ratio (x) = -0.21494 0.70903
# Poissons Ratio (y) = -0.09205 0.43707
# Poissons Ratio (z) = 0.23071 0.33209
#
# Static dielectric constant tensor:
#      x y z
#    x 3.496750 0.000000 -0.312490 
#    y 0.000000 3.345840 0.000000 
#    z -0.312490 0.000000 4.049880 
# 
# 
# High freq. dielectric constant tensor:
#      x y z
#    x 1.739370 0.000000 -0.002540 
#    y 0.000000 1.747130 0.000000 
#    z -0.002540 0.000000 1.766760 
# 
# From -- ./inp_files/204837.got.cif
#   From: 2010.06.25/outbox.cif.g09.slc.cpg/sg12_103_cif.got.tgz:204837.got - 2010.06.28 00:19:55.
