data_PCOD8099225
_publ_section_title
;
Structure prediction by ZEFSAII (Michael W. Deem and Ramdas Pophale) SiO2 
 PCOD8099225
Probable space group: C 2/M
;
_chemical_formula_sum "Si O2"
_cell_formula_units_Z 56
_cell_length_a 29.791000
_cell_length_b 17.529787
_cell_length_c 9.186665
_cell_angle_alpha 90.000000
_cell_angle_beta 140.195128
_cell_angle_gamma 90.000000
_cell_volume 3071.272338
_symmetry_space_group_name_H-M "C 2/M"
_symmetry_group_IT_number 12
_symmetry_cell_setting 'monoclinic'
loop_
_space_group_symop_operation_xyz
x,y,z
-x,y,-z
-x,-y,-z
x,-y,z
1/2+x,1/2+y,z
1/2-x,1/2+y,-z
1/2-x,1/2-y,-z
1/2+x,1/2-y,z
loop_
_atom_site_type_symbol
_atom_site_label
_atom_site_fract_x
_atom_site_fract_y
_atom_site_fract_z
Si Si1 0.562595 0.769602 0.473851
Si Si2 0.583032 0.719466 0.838622
Si Si3 0.048798 0.585892 0.256052
Si Si4 0.290773 0.802103 0.711685
Si Si5 0.823687 0.909155 0.029812
Si Si6 0.704176 0.695911 0.784662
Si Si7 0.202564 0.584877 0.516151
O O1 0.581859 0.772641 0.691951
O O2 0.494186 0.715248 0.281580
O O3 0.540602 0.854128 0.366549
O O4 0.629675 0.735156 0.555319
O O5 0.606871 0.633395 0.857443
O O6 0.635820 0.761136 0.077699
O O7 0.028269 0.500000 0.256990
O O8 0.128981 0.588397 0.411476
O O9 0.000000 0.610912 0.000000
O O10 0.250000 0.750000 0.500000
O O11 0.246053 0.821883 0.742865
O O12 0.304158 0.880144 0.660323
O O13 0.809043 0.882423 0.159027
O O14 0.834352 0.000000 0.054030
O O15 0.760133 0.878355 0.768791
O O16 0.750000 0.750000 0.000000
O O17 0.228476 0.500000 0.552694
#
# Coordination Sequence:
#
# PCOD8099225 Si02
#       7
#     8   8   8   8   8   8   8
#     4  10  20  36  55  82 115 144 194 237 279 338
#     4  10  21  36  56  83 113 148 190 240 281 344
#     4  10  20  35  55  80 116 155 190 229 284 351
#     4  12  20  34  59  82 114 152 190 235 293 334
#     4  10  20  38  60  81 111 152 193 239 291 336
#     4  11  20  36  57  83 114 147 192 239 282 343
#     4  10  21  35  55  83 113 148 192 237 288 347
#
# _framework density 18.233487
#
# number of rings (size 3 to 8) (size 9 to 14) (size 15 to 20)
#    0.000    1.571    4.286    2.571    0.000    0.571 
#    0.000    7.857    0.000    0.000    0.000    2.000 
#    0.000    0.000    0.000    0.000    0.000    0.000 
#
# Total GULP energy -347102.886889 kJ/mol
# GULP energy per Si atom -12396.531675 kJ/mol
# Density = 1.819199 g / cm^3
# Si number density = 18.233487 Si / 1000 Ang^3
#
#
#
# Elastic Constant Matrix: (Units=GPa)
#
#
# Indices 1 2 3 4 5 6 
#
# 1 63.6772 31.6515 25.3466 0.0000 8.6450 0.0000
# 2 31.6515 98.0300 45.9286 0.0000 -5.4475 0.0000
# 3 25.3466 45.9286 112.4874 0.0000 8.0165 0.0000
# 4 0.0000 0.0000 0.0000 30.8181 0.0000 -1.3061
# 5 8.6450 -5.4475 8.0165 0.0000 33.6603 0.0000
# 6 0.0000 0.0000 0.0000 -1.3061 0.0000 19.6664
#
#
#
# Elastic Compliance Matrix: (Units=1/GPa)
#
#
# Indices 1 2 3 4 5 6 
#
# 1 0.020154 -0.006049 -0.001661 0.000000 -0.005760 0.000000
# 2 -0.006049 0.014806 -0.005050 0.000000 0.005152 0.000000
# 3 -0.001661 -0.005050 0.011550 0.000000 -0.003141 0.000000
# 4 0.000000 0.000000 0.000000 0.032540 0.000000 0.002161
# 5 -0.005760 0.005152 -0.003141 0.000000 0.032770 0.000000
# 6 0.000000 0.000000 0.000000 0.002161 0.000000 0.050992
#
#
# Mechanical properties :
#
#
# Convention : Reuss Voigt Hill
#
# Bulk Modulus (GPa) = 47.63998 53.33867 50.48932
# Shear Modulus (GPa) = 25.59800 28.24680 26.92240
#
# Velocity S-wave (km/s) = 3.75093 3.94022 3.84674
# Velocity P-wave (km/s) = 6.70401 7.07228 6.89061
#
# Compressibility (1/GPa) = 0.02099077
#
# Stress axis : x y z
#
# Youngs Moduli (GPa) = 49.61774 67.53938 86.58209
#
# Poissons Ratio (x) = 0.40855 0.14381
# Poissons Ratio (y) = 0.30014 0.43720
# Poissons Ratio (z) = 0.08241 0.34104
#
# Static dielectric constant tensor:
#      x y z
#    x 4.155390 0.000000 -0.611300 
#    y 0.000000 3.908180 0.000000 
#    z -0.611300 0.000000 4.383350 
# 
# 
# High freq. dielectric constant tensor:
#      x y z
#    x 1.697140 0.000000 0.011230 
#    y 0.000000 1.695690 0.000000 
#    z 0.011230 0.000000 1.722300 
# 
# From -- ./inp_files/112660.got.cif
#   From: 2010.06.25/outbox.cif.g09.slc.cpg/sg12_57_cif.got.tgz:112660.got - 2010.06.28 00:19:55.
