data_PCOD8099783
_publ_section_title
;
Structure prediction by ZEFSAII (Michael W. Deem and Ramdas Pophale) SiO2 
 PCOD8099783
Probable space group: C 2/M
;
_chemical_formula_sum "Si O2"
_cell_formula_units_Z 56
_cell_length_a 24.886089
_cell_length_b 13.058816
_cell_length_c 26.162738
_cell_angle_alpha 90.000000
_cell_angle_beta 160.553263
_cell_angle_gamma 90.000000
_cell_volume 2830.721384
_symmetry_space_group_name_H-M "C 2/M"
_symmetry_group_IT_number 12
_symmetry_cell_setting 'monoclinic'
loop_
_space_group_symop_operation_xyz
x,y,z
-x,y,-z
-x,-y,-z
x,-y,z
1/2+x,1/2+y,z
1/2-x,1/2+y,-z
1/2-x,1/2-y,-z
1/2+x,1/2-y,z
loop_
_atom_site_type_symbol
_atom_site_label
_atom_site_fract_x
_atom_site_fract_y
_atom_site_fract_z
Si Si1 0.072052 0.777501 0.354549
Si Si2 0.865405 0.745996 0.920616
Si Si3 0.538373 0.121589 0.893196
Si Si4 0.190875 0.883999 0.550789
Si Si5 0.582283 0.615333 0.627570
Si Si6 0.174009 0.619074 0.825423
Si Si7 0.181696 0.883684 0.934750
O O1 0.250000 0.750000 0.500000
O O2 0.108343 0.876778 0.421518
O O3 0.988251 0.685400 0.311526
O O4 0.968532 0.810976 0.212894
O O5 0.742534 0.682451 0.775126
O O6 0.777298 0.842132 0.869130
O O7 0.933898 0.674005 0.027146
O O8 0.000000 0.783231 0.000000
O O9 0.369914 0.163259 0.717913
O O10 0.536948 0.000000 0.900432
O O11 0.673415 0.152030 0.972689
O O12 0.057956 0.828147 0.466243
O O13 0.205937 0.000000 0.582145
O O14 0.500000 0.609903 0.500000
O O15 0.624744 0.500000 0.684945
O O16 0.127033 0.500000 0.774613
O O17 0.279922 0.631391 0.971544
O O18 0.136441 0.000000 0.882380
#
# Coordination Sequence:
#
# PCOD8099783 Si02
#       7
#     8   8   8   8   8   8   8
#     4  12  23  36  64  91 125 160 195 249 318 389
#     4  12  24  39  63  88 120 172 220 256 303 368
#     4  10  20  36  64  97 129 157 197 254 318 388
#     4  10  20  35  56  90 126 156 188 238 308 381
#     4  10  20  37  60  90 126 155 189 250 318 377
#     4  11  25  44  63  88 125 167 219 268 301 353
#     4  10  21  40  64  91 123 157 198 255 322 383
#
# _framework density 19.782941999999998
#
# number of rings (size 3 to 8) (size 9 to 14) (size 15 to 20)
#    0.000    1.286    2.857    3.000    2.000    7.143 
#    0.000    0.000    0.000    0.429    0.000    0.000 
#    0.000    0.000    0.000    0.000    0.000    0.000 
#
# Total GULP energy -346879.962929 kJ/mol
# GULP energy per Si atom -12388.570105 kJ/mol
# Density = 1.973792 g / cm^3
# Si number density = 19.782942 Si / 1000 Ang^3
#
#
#
# Elastic Constant Matrix: (Units=GPa)
#
#
# Indices 1 2 3 4 5 6 
#
# 1 122.1468 28.2619 43.0323 0.0052 20.5249 0.0040
# 2 28.2619 75.9963 44.9398 -0.0579 8.1605 -0.0138
# 3 43.0323 44.9398 114.5546 -0.0421 16.4986 -0.0122
# 4 0.0052 -0.0579 -0.0421 45.7424 -0.0294 8.4015
# 5 20.5249 8.1605 16.4986 -0.0294 38.6282 -0.0052
# 6 0.0040 -0.0138 -0.0122 8.4015 -0.0052 32.8437
#
#
#
# Elastic Compliance Matrix: (Units=1/GPa)
#
#
# Indices 1 2 3 4 5 6 
#
# 1 0.010168 -0.001869 -0.002520 -0.000008 -0.003931 -0.000002
# 2 -0.001869 0.017500 -0.006152 0.000016 -0.000076 0.000001
# 3 -0.002520 -0.006152 0.012477 0.000002 -0.002690 0.000001
# 4 -0.000008 0.000016 0.000002 0.022939 0.000017 -0.005868
# 5 -0.003931 -0.000076 -0.002690 0.000017 0.029142 0.000000
# 6 -0.000002 0.000001 0.000001 -0.005868 0.000000 0.031948
#
#
# Mechanical properties :
#
#
# Convention : Reuss Voigt Hill
#
# Bulk Modulus (GPa) = 52.45932 60.57396 56.51664
# Shear Modulus (GPa) = 32.97925 36.54045 34.75985
#
# Velocity S-wave (km/s) = 4.08739 4.30242 4.19628
# Velocity P-wave (km/s) = 6.98933 7.44089 7.21864
#
# Compressibility (1/GPa) = 0.01906239
#
# Stress axis : x y z
#
# Youngs Moduli (GPa) = 98.35048 57.14371 80.14672
#
# Poissons Ratio (x) = 0.10679 0.20198
# Poissons Ratio (y) = 0.18380 0.49307
# Poissons Ratio (z) = 0.24786 0.35156
#
# Static dielectric constant tensor:
#      x y z
#    x 3.549290 0.000010 0.125750 
#    y 0.000010 3.471690 -0.000100 
#    z 0.125750 -0.000100 3.802340 
# 
# 
# High freq. dielectric constant tensor:
#      x y z
#    x 1.773020 0.000000 0.002490 
#    y 0.000000 1.754730 0.000000 
#    z 0.002490 0.000000 1.782250 
# 
# From -- ./inp_files/349806.got.cif
#   From: 2010.06.25/outbox.cif.g09.slc.cpg/sg12_175_cif.got.tgz:349806.got - 2010.06.28 00:19:55.
