data_PCOD8099358
_publ_section_title
;
Structure prediction by ZEFSAII (Michael W. Deem and Ramdas Pophale) SiO2 
 PCOD8099358
Probable space group: C 2/M
;
_chemical_formula_sum "Si O2"
_cell_formula_units_Z 64
_cell_length_a 20.463604
_cell_length_b 9.033213
_cell_length_c 20.431963
_cell_angle_alpha 90.000000
_cell_angle_beta 121.449909
_cell_angle_gamma 90.000000
_cell_volume 3222.053118
_symmetry_space_group_name_H-M "C 2/M"
_symmetry_group_IT_number 12
_symmetry_cell_setting 'monoclinic'
loop_
_space_group_symop_operation_xyz
x,y,z
-x,y,-z
-x,-y,-z
x,-y,z
1/2+x,1/2+y,z
1/2-x,1/2+y,-z
1/2-x,1/2-y,-z
1/2+x,1/2-y,z
loop_
_atom_site_type_symbol
_atom_site_label
_atom_site_fract_x
_atom_site_fract_y
_atom_site_fract_z
Si Si1 0.592620 0.826028 0.418094
Si Si2 0.062320 0.173622 0.277461
Si Si3 0.667001 0.832545 0.589808
Si Si4 0.458685 0.336002 0.409792
Si Si5 0.307450 0.666668 0.747370
Si Si6 0.401524 0.174951 0.173523
Si Si7 0.246706 0.826595 0.840541
Si Si8 0.820191 0.669305 0.006776
O O1 0.614835 0.741269 0.363209
O O2 0.650970 0.778090 0.506933
O O3 0.506114 0.773342 0.388438
O O4 0.593830 0.000000 0.406162
O O5 0.106788 0.205530 0.232358
O O6 0.980116 0.250810 0.235743
O O7 0.052071 0.000000 0.283567
O O8 0.624659 0.733158 0.622117
O O9 0.755914 0.822501 0.654562
O O10 0.634999 0.000000 0.578529
O O11 0.500000 0.348876 0.500000
O O12 0.450667 0.500000 0.373808
O O13 0.303992 0.500000 0.774051
O O14 0.277960 0.777662 0.786803
O O15 0.330568 0.241100 0.178336
O O16 0.393406 0.210069 0.090456
O O17 0.405260 0.000000 0.189414
O O18 0.226829 0.000000 0.827764
O O19 0.318808 0.794312 0.928303
O O20 0.801887 0.500000 0.008078
O O21 0.750000 0.750000 0.000000
#
# Coordination Sequence:
#
# PCOD8099358 Si02
#       8
#     8   8   8   8   8   8   8   8
#     4  10  20  35  56  79 105 143 188 236 288 342
#     4  11  24  40  56  79 114 152 192 239 286 336
#     4   9  19  36  56  77 105 144 190 234 283 339
#     4   9  17  30  50  78 108 135 171 225 281 331
#     4  10  23  41  57  78 114 155 192 234 285 339
#     4  10  20  37  62  88 116 151 188 228 279 337
#     4  10  20  36  61  91 119 147 185 232 278 332
#     4   8  16  32  56  87 117 145 181 226 275 328
#
# _framework density 19.863112000000001
#
# number of rings (size 3 to 8) (size 9 to 14) (size 15 to 20)
#    0.000    2.375    0.000    1.875    1.750    5.000 
#    0.000    0.625    0.000    3.750    0.000    0.000 
#    0.000    0.000    0.000    0.000    0.000    0.000 
#
# Total GULP energy -396480.457455 kJ/mol
# GULP energy per Si atom -12390.014295 kJ/mol
# Density = 1.981790 g / cm^3
# Si number density = 19.863112 Si / 1000 Ang^3
#
#
#
# Elastic Constant Matrix: (Units=GPa)
#
#
# Indices 1 2 3 4 5 6 
#
# 1 75.9469 37.8627 36.7070 0.0000 -12.2514 0.0000
# 2 37.8627 93.2706 43.0981 0.0000 -7.7575 0.0000
# 3 36.7070 43.0981 103.1208 0.0000 -14.0670 0.0000
# 4 0.0000 0.0000 0.0000 26.6950 0.0000 -3.9345
# 5 -12.2514 -7.7575 -14.0670 0.0000 16.5561 0.0000
# 6 0.0000 0.0000 0.0000 -3.9345 0.0000 25.4294
#
#
#
# Elastic Compliance Matrix: (Units=1/GPa)
#
#
# Indices 1 2 3 4 5 6 
#
# 1 0.018839 -0.005422 -0.003263 0.000000 0.008628 0.000000
# 2 -0.005422 0.014891 -0.004399 0.000000 -0.000773 0.000000
# 3 -0.003263 -0.004399 0.013671 0.000000 0.007140 0.000000
# 4 0.000000 0.000000 0.000000 0.038334 0.000000 0.005931
# 5 0.008628 -0.000773 0.007140 0.000000 0.072490 0.000000
# 6 0.000000 0.000000 0.000000 0.005931 0.000000 0.040242
#
#
# Mechanical properties :
#
#
# Convention : Reuss Voigt Hill
#
# Bulk Modulus (GPa) = 47.09552 56.40821 51.75186
# Shear Modulus (GPa) = 21.57836 24.04748 22.81292
#
# Velocity S-wave (km/s) = 3.29956 3.48323 3.39264
# Velocity P-wave (km/s) = 6.18689 6.68112 6.43875
#
# Compressibility (1/GPa) = 0.02123344
#
# Stress axis : x y z
#
# Youngs Moduli (GPa) = 53.08078 67.15484 73.14625
#
# Poissons Ratio (x) = 0.36414 0.23867
# Poissons Ratio (y) = 0.28782 0.32175
# Poissons Ratio (z) = 0.17320 0.29540
#
# Static dielectric constant tensor:
#      x y z
#    x 3.291840 0.000000 0.058270 
#    y 0.000000 3.701150 0.000000 
#    z 0.058270 0.000000 3.105430 
# 
# 
# High freq. dielectric constant tensor:
#      x y z
#    x 1.742490 0.000000 -0.005180 
#    y 0.000000 1.782740 0.000000 
#    z -0.005180 0.000000 1.782450 
# 
# From -- ./inp_files/320163.got.cif
#   From: 2010.06.25/outbox.cif.g09.slc.cpg/sg12_161_cif.got.tgz:320163.got - 2010.06.28 00:19:55.
