data_PCOD8099551
_publ_section_title
;
Structure prediction by ZEFSAII (Michael W. Deem and Ramdas Pophale) SiO2 
 PCOD8099551
Probable space group: C 2/M
;
_chemical_formula_sum "Si O2"
_cell_formula_units_Z 64
_cell_length_a 9.295194
_cell_length_b 19.262386
_cell_length_c 20.878329
_cell_angle_alpha 90.000000
_cell_angle_beta 110.617499
_cell_angle_gamma 90.000000
_cell_volume 3498.789941
_symmetry_space_group_name_H-M "C 2/M"
_symmetry_group_IT_number 12
_symmetry_cell_setting 'monoclinic'
loop_
_space_group_symop_operation_xyz
x,y,z
-x,y,-z
-x,-y,-z
x,-y,z
1/2+x,1/2+y,z
1/2-x,1/2+y,-z
1/2-x,1/2-y,-z
1/2+x,1/2-y,z
loop_
_atom_site_type_symbol
_atom_site_label
_atom_site_fract_x
_atom_site_fract_y
_atom_site_fract_z
Si Si1 0.067120 0.920468 0.693062
Si Si2 0.672215 0.671432 0.048012
Si Si3 0.824482 0.418985 0.173137
Si Si4 0.761671 0.420219 0.306534
Si Si5 0.841211 0.580991 0.827816
Si Si6 0.367523 0.178776 0.431596
Si Si7 0.169521 0.673765 0.050254
Si Si8 0.975778 0.820804 0.568468
O O1 0.217270 0.897158 0.755336
O O2 0.920735 0.908711 0.715840
O O3 0.054648 0.875975 0.627100
O O4 0.080110 0.000000 0.673132
O O5 0.697732 0.622557 0.113034
O O6 0.737482 0.748871 0.074715
O O7 0.500000 0.675705 0.000000
O O8 0.751082 0.637737 0.998116
O O9 0.786532 0.500000 0.160911
O O10 0.812757 0.394630 0.244622
O O11 0.992703 0.400298 0.173830
O O12 0.807180 0.500000 0.324619
O O13 0.853296 0.376877 0.373354
O O14 0.826925 0.500000 0.843206
O O15 0.808274 0.625155 0.885517
O O16 0.500000 0.150930 0.500000
O O17 0.205096 0.189862 0.443173
O O18 0.428843 0.249699 0.409627
O O19 0.000000 0.683239 0.000000
O O20 0.000000 0.848590 0.500000
#
# Coordination Sequence:
#
# PCOD8099551 Si02
#       8
#     8   8   8   8   8   8   8   8
#     4   9  20  38  56  78 107 141 180 218 263 314
#     4  10  22  36  54  79 107 140 177 217 268 320
#     4  10  21  37  55  79 108 138 177 221 264 316
#     4   9  20  38  56  77 109 142 176 220 264 313
#     4  10  21  36  57  80 104 139 179 220 266 314
#     4  10  20  35  56  82 110 143 179 217 263 312
#     4  10  20  38  55  76 108 139 175 222 265 315
#     4  10  20  35  56  82 111 142 177 220 262 311
#
# _framework density 18.292038999999999
#
# number of rings (size 3 to 8) (size 9 to 14) (size 15 to 20)
#    0.000    2.250    1.250    1.500    1.750    4.500 
#    0.000    2.500    0.000    0.000    0.000    0.000 
#    0.000    0.000    0.000    0.000    0.000    0.000 
#
# Total GULP energy -396722.385025 kJ/mol
# GULP energy per Si atom -12397.574532 kJ/mol
# Density = 1.825041 g / cm^3
# Si number density = 18.292039 Si / 1000 Ang^3
#
#
#
# Elastic Constant Matrix: (Units=GPa)
#
#
# Indices 1 2 3 4 5 6 
#
# 1 90.8625 39.9468 54.8236 0.0000 -14.4544 0.0000
# 2 39.9468 77.7431 81.4279 0.0000 -9.9519 0.0000
# 3 54.8236 81.4279 143.4265 0.0000 -11.7805 0.0000
# 4 0.0000 0.0000 0.0000 105.9712 0.0000 -10.7088
# 5 -14.4544 -9.9519 -11.7805 0.0000 37.3712 0.0000
# 6 0.0000 0.0000 0.0000 -10.7088 0.0000 26.5817
#
#
#
# Elastic Compliance Matrix: (Units=1/GPa)
#
#
# Indices 1 2 3 4 5 6 
#
# 1 0.015344 -0.003897 -0.003337 0.000000 0.003845 0.000000
# 2 -0.003897 0.033019 -0.017101 0.000000 0.001895 0.000000
# 3 -0.003337 -0.017101 0.017941 0.000000 -0.000189 0.000000
# 4 0.000000 0.000000 0.000000 0.009837 0.000000 0.003963
# 5 0.003845 0.001895 -0.000189 0.000000 0.028691 0.000000
# 6 0.000000 0.000000 0.000000 0.003963 0.000000 0.039216
#
#
# Mechanical properties :
#
#
# Convention : Reuss Voigt Hill
#
# Bulk Modulus (GPa) = 56.70637 73.82537 65.26587
# Shear Modulus (GPa) = 25.17677 43.04041 34.10859
#
# Velocity S-wave (km/s) = 3.71398 4.85599 4.32287
# Velocity P-wave (km/s) = 7.03274 8.47867 7.78933
#
# Compressibility (1/GPa) = 0.01763470
#
# Stress axis : x y z
#
# Youngs Moduli (GPa) = 65.17238 30.28541 55.73871
#
# Poissons Ratio (x) = 0.11802 0.18599
# Poissons Ratio (y) = 0.25398 0.95318
# Poissons Ratio (z) = 0.21747 0.51791
#
# Static dielectric constant tensor:
#      x y z
#    x 3.488800 0.000000 -0.013850 
#    y 0.000000 3.368170 0.000000 
#    z -0.013850 0.000000 3.340190 
# 
# 
# High freq. dielectric constant tensor:
#      x y z
#    x 1.721190 0.000000 -0.002220 
#    y 0.000000 1.703720 0.000000 
#    z -0.002220 0.000000 1.711580 
# 
# From -- ./inp_files/301745.got.cif
#   From: 2010.06.25/outbox.cif.g09.slc.cpg/sg12_151_cif.got.tgz:301745.got - 2010.06.28 00:19:55.
