data_PCOD8099299
_publ_section_title
;
Structure prediction by ZEFSAII (Michael W. Deem and Ramdas Pophale) SiO2 
 PCOD8099299
Probable space group: C 2/M
;
_chemical_formula_sum "Si O2"
_cell_formula_units_Z 64
_cell_length_a 24.188608
_cell_length_b 8.832820
_cell_length_c 16.219258
_cell_angle_alpha 90.000000
_cell_angle_beta 87.850416
_cell_angle_gamma 90.000000
_cell_volume 3462.864687
_symmetry_space_group_name_H-M "C 2/M"
_symmetry_group_IT_number 12
_symmetry_cell_setting 'monoclinic'
loop_
_space_group_symop_operation_xyz
x,y,z
-x,y,-z
-x,-y,-z
x,-y,z
1/2+x,1/2+y,z
1/2-x,1/2+y,-z
1/2-x,1/2-y,-z
1/2+x,1/2-y,z
loop_
_atom_site_type_symbol
_atom_site_label
_atom_site_fract_x
_atom_site_fract_y
_atom_site_fract_z
Si Si1 0.215094 0.174913 0.262237
Si Si2 0.822747 0.177716 0.203010
Si Si3 0.306392 0.177810 0.028274
Si Si4 0.116813 0.822032 0.380577
Si Si5 0.365865 0.326863 0.884107
Si Si6 0.963255 0.177242 0.760247
Si Si7 0.058654 0.678250 0.527877
Si Si8 0.074244 0.321906 0.715270
O O1 0.269123 0.279038 0.259932
O O2 0.176908 0.223566 0.341620
O O3 0.181878 0.201791 0.179933
O O4 0.232842 0.000000 0.268760
O O5 0.822427 0.263583 0.116765
O O6 0.876175 0.226980 0.250160
O O7 0.823725 0.000000 0.186755
O O8 0.298109 0.000000 0.033181
O O9 0.250000 0.250000 0.000000
O O10 0.355867 0.219226 0.962817
O O11 0.069497 0.769179 0.319401
O O12 0.107986 0.742996 0.468817
O O13 0.113650 0.000000 0.392228
O O14 0.363933 0.500000 0.914200
O O15 0.425593 0.289151 0.842244
O O16 0.018288 0.276476 0.766004
O O17 0.977857 0.000000 0.754189
O O18 0.058868 0.500000 0.518649
O O19 0.068978 0.728428 0.620647
O O20 0.000000 0.745338 0.500000
O O21 0.085005 0.500000 0.724784
#
# Coordination Sequence:
#
# PCOD8099299 Si02
#       8
#     8   8   8   8   8   8   8   8
#     4   9  18  35  57  83 116 150 186 231 285 339
#     4  12  25  40  59  84 114 152 194 236 287 342
#     4  12  23  37  59  88 118 149 191 236 281 334
#     4   9  18  32  56  87 115 147 186 234 285 333
#     4   9  18  34  58  86 117 149 184 233 287 335
#     4   9  18  34  56  85 117 150 187 230 284 339
#     4  10  20  35  55  84 116 149 190 237 284 333
#     4  11  23  39  58  81 116 157 192 234 288 341
#
# _framework density 18.481808999999998
#
# number of rings (size 3 to 8) (size 9 to 14) (size 15 to 20)
#    0.000    1.875    2.500    4.125    0.000    2.250 
#    0.000    3.750    0.000    3.750    0.000    0.000 
#    0.000    0.000    0.000    0.000    0.000    0.000 
#
# Total GULP energy -396881.189548 kJ/mol
# GULP energy per Si atom -12402.537173 kJ/mol
# Density = 1.843974 g / cm^3
# Si number density = 18.481809 Si / 1000 Ang^3
#
#
#
# Elastic Constant Matrix: (Units=GPa)
#
#
# Indices 1 2 3 4 5 6 
#
# 1 116.2731 49.0366 60.3829 0.0000 -11.5170 0.0000
# 2 49.0366 90.5440 48.8314 0.0000 -4.2780 0.0000
# 3 60.3829 48.8314 105.9740 0.0000 -15.0165 0.0000
# 4 0.0000 0.0000 0.0000 31.2934 0.0000 -5.1574
# 5 -11.5170 -4.2780 -15.0165 0.0000 29.1436 0.0000
# 6 0.0000 0.0000 0.0000 -5.1574 0.0000 34.2331
#
#
#
# Elastic Compliance Matrix: (Units=1/GPa)
#
#
# Indices 1 2 3 4 5 6 
#
# 1 0.013383 -0.004245 -0.005403 0.000000 0.001882 0.000000
# 2 -0.004245 0.016099 -0.005288 0.000000 -0.002039 0.000000
# 3 -0.005403 -0.005288 0.015684 0.000000 0.005170 0.000000
# 4 0.000000 0.000000 0.000000 0.032769 0.000000 0.004937
# 5 0.001882 -0.002039 0.005170 0.000000 0.037421 0.000000
# 6 0.000000 0.000000 0.000000 0.004937 0.000000 0.029955
#
#
# Mechanical properties :
#
#
# Convention : Reuss Voigt Hill
#
# Bulk Modulus (GPa) = 65.38665 69.92140 67.65403
# Shear Modulus (GPa) = 27.73429 29.23669 28.48549
#
# Velocity S-wave (km/s) = 3.87799 3.98165 3.93016
# Velocity P-wave (km/s) = 7.45034 7.68458 7.56836
#
# Compressibility (1/GPa) = 0.01529364
#
# Stress axis : x y z
#
# Youngs Moduli (GPa) = 74.72216 62.11487 63.75903
#
# Poissons Ratio (x) = 0.26369 0.34447
# Poissons Ratio (y) = 0.31722 0.33718
# Poissons Ratio (z) = 0.40370 0.32849
#
# Static dielectric constant tensor:
#      x y z
#    x 3.400540 0.000000 -0.212020 
#    y 0.000000 3.315030 0.000000 
#    z -0.212020 0.000000 3.498010 
# 
# 
# High freq. dielectric constant tensor:
#      x y z
#    x 1.712110 0.000000 -0.022120 
#    y 0.000000 1.714170 0.000000 
#    z -0.022120 0.000000 1.711440 
# 
# From -- ./inp_files/238788.got.cif
#   From: 2010.06.25/outbox.cif.g09.slc.cpg/sg12_120_cif.got.tgz:238788.got - 2010.06.28 00:19:55.
