data_PCOD8099059
_publ_section_title
;
Structure prediction by ZEFSAII (Michael W. Deem and Ramdas Pophale) SiO2 
 PCOD8099059
Probable space group: C 2/M
;
_chemical_formula_sum "Si O2"
_cell_formula_units_Z 36
_cell_length_a 11.976543
_cell_length_b 23.611887
_cell_length_c 14.736144
_cell_angle_alpha 90.000000
_cell_angle_beta 152.878351
_cell_angle_gamma 90.000000
_cell_volume 1899.755674
_symmetry_space_group_name_H-M "C 2/M"
_symmetry_group_IT_number 12
_symmetry_cell_setting 'monoclinic'
loop_
_space_group_symop_operation_xyz
x,y,z
-x,y,-z
-x,-y,-z
x,-y,z
1/2+x,1/2+y,z
1/2-x,1/2+y,-z
1/2-x,1/2-y,-z
1/2+x,1/2-y,z
loop_
_atom_site_type_symbol
_atom_site_label
_atom_site_fract_x
_atom_site_fract_y
_atom_site_fract_z
Si Si1 0.745810 0.258867 0.349902
Si Si2 0.245038 0.565287 0.553875
Si Si3 0.711849 0.434380 0.210662
Si Si4 0.032457 0.170558 0.357110
Si Si5 0.500000 0.210801 0.000000
O O1 0.824796 0.200274 0.456622
O O2 0.608257 0.300806 0.317463
O O3 0.000000 0.287884 0.500000
O O4 0.561078 0.249000 0.132271
O O5 0.258350 0.500000 0.530469
O O6 0.360438 0.572340 0.737001
O O7 0.391936 0.604433 0.589345
O O8 0.971113 0.590472 0.366207
O O9 0.731915 0.500000 0.200340
O O10 0.500000 0.403561 0.000000
O O11 0.739002 0.172615 0.154388
#
# Coordination Sequence:
#
# PCOD8099059 Si02
#       5
#     8   8   8   8   4
#     4   9  20  36  56  78 103 132 173 224 268 307
#     4   9  18  31  49  75 107 140 171 207 257 311
#     4   8  15  29  46  70 105 138 168 207 252 301
#     4  10  20  35  55  77 108 137 173 217 260 308
#     4  10  20  38  55  76 101 140 178 216 262 308
#
# _framework density 18.949805000000001
#
# number of rings (size 3 to 8) (size 9 to 14) (size 15 to 20)
#    0.000    2.889    0.000    2.000    3.111    1.778 
#    2.000    0.556    0.000    6.000    0.000    0.000 
#    0.000    0.000    0.000    0.000    0.000    0.000 
#
# Total GULP energy -223070.523034 kJ/mol
# GULP energy per Si atom -12392.806835 kJ/mol
# Density = 1.890667 g / cm^3
# Si number density = 18.949805 Si / 1000 Ang^3
#
#
#
# Elastic Constant Matrix: (Units=GPa)
#
#
# Indices 1 2 3 4 5 6 
#
# 1 87.5413 37.2566 33.0977 -0.0018 6.9824 -0.0008
# 2 37.2566 78.1328 30.3710 -0.0007 9.1296 -0.0002
# 3 33.0977 30.3710 115.2599 -0.0020 -13.7181 -0.0020
# 4 -0.0018 -0.0007 -0.0020 11.0468 -0.0025 3.1374
# 5 6.9824 9.1296 -13.7181 -0.0025 32.6836 -0.0011
# 6 -0.0008 -0.0002 -0.0020 3.1374 -0.0011 23.3275
#
#
#
# Elastic Compliance Matrix: (Units=1/GPa)
#
#
# Indices 1 2 3 4 5 6 
#
# 1 0.015318 -0.005677 -0.003267 0.000001 -0.003058 0.000000
# 2 -0.005677 0.017513 -0.003602 -0.000001 -0.005191 0.000000
# 3 -0.003267 -0.003602 0.011332 0.000003 0.006460 0.000001
# 4 0.000001 -0.000001 0.000003 0.094119 0.000008 -0.012658
# 5 -0.003058 -0.005191 0.006460 0.000008 0.035411 0.000001
# 6 0.000000 0.000000 0.000001 -0.012658 0.000001 0.044570
#
#
# Mechanical properties :
#
#
# Convention : Reuss Voigt Hill
#
# Bulk Modulus (GPa) = 52.43597 53.59830 53.01713
# Shear Modulus (GPa) = 20.02299 25.42548 22.72424
#
# Velocity S-wave (km/s) = 3.25412 3.66693 3.46668
# Velocity P-wave (km/s) = 6.46916 6.80252 6.63794
#
# Compressibility (1/GPa) = 0.01907088
#
# Stress axis : x y z
#
# Youngs Moduli (GPa) = 65.28122 57.10190 88.24413
#
# Poissons Ratio (x) = 0.32418 0.28827
# Poissons Ratio (y) = 0.37062 0.31787
# Poissons Ratio (z) = 0.21326 0.20569
#
# Static dielectric constant tensor:
#      x y z
#    x 3.481380 0.000000 0.061500 
#    y 0.000000 3.185460 0.000000 
#    z 0.061500 0.000000 4.325590 
# 
# 
# High freq. dielectric constant tensor:
#      x y z
#    x 1.725160 0.000000 -0.000250 
#    y 0.000000 1.709190 0.000000 
#    z -0.000250 0.000000 1.744330 
# 
# From -- ./inp_files/207872.got.cif
#   From: 2010.06.25/outbox.cif.g09.slc.cpg/sg12_104_cif.got.tgz:207872.got - 2010.06.28 00:19:55.
