data_PCOD8099490
_publ_section_title
;
Structure prediction by ZEFSAII (Michael W. Deem and Ramdas Pophale) SiO2 
 PCOD8099490
Probable space group: C 2/M
;
_chemical_formula_sum "Si O2"
_cell_formula_units_Z 56
_cell_length_a 23.628775
_cell_length_b 9.402142
_cell_length_c 15.234016
_cell_angle_alpha 90.000000
_cell_angle_beta 61.546057
_cell_angle_gamma 90.000000
_cell_volume 2975.570831
_symmetry_space_group_name_H-M "C 2/M"
_symmetry_group_IT_number 12
_symmetry_cell_setting 'monoclinic'
loop_
_space_group_symop_operation_xyz
x,y,z
-x,y,-z
-x,-y,-z
x,-y,z
1/2+x,1/2+y,z
1/2-x,1/2+y,-z
1/2-x,1/2-y,-z
1/2+x,1/2-y,z
loop_
_atom_site_type_symbol
_atom_site_label
_atom_site_fract_x
_atom_site_fract_y
_atom_site_fract_z
Si Si1 0.164633 0.836916 0.502173
Si Si2 0.785958 0.837255 0.900312
Si Si3 0.552822 0.165807 0.032946
Si Si4 0.721870 0.663206 0.649933
Si Si5 0.681606 0.837723 0.837395
Si Si6 0.479182 0.331054 0.421086
Si Si7 0.067143 0.168459 0.197116
O O1 0.210120 0.743195 0.406816
O O2 0.182302 0.820098 0.590320
O O3 0.092834 0.778394 0.544495
O O4 0.171324 0.000000 0.465968
O O5 0.749969 0.815122 0.834585
O O6 0.859460 0.786878 0.836662
O O7 0.782724 0.000000 0.932750
O O8 0.750000 0.750000 0.000000
O O9 0.540663 0.255926 0.129531
O O10 0.546566 0.000000 0.061149
O O11 0.500000 0.210599 0.000000
O O12 0.623738 0.203347 0.945168
O O13 0.735040 0.500000 0.664017
O O14 0.678288 0.734381 0.756795
O O15 0.673347 0.000000 0.811228
O O16 0.500000 0.268374 0.500000
O O17 0.482528 0.500000 0.420104
O O18 0.525805 0.274468 0.309954
O O19 0.059608 0.000000 0.189818
#
# Coordination Sequence:
#
# PCOD8099490 Si02
#       7
#     8   8   8   8   8   8   8
#     4   9  19  37  58  79 108 144 181 224 278 331
#     4  10  20  35  56  81 109 141 183 226 272 327
#     4  10  22  39  57  81 114 154 191 221 272 341
#     4  10  21  35  55  84 111 139 181 229 275 324
#     4  10  21  36  56  81 110 146 185 223 272 331
#     4   9  19  35  58  83 108 142 185 228 272 329
#     4  10  21  36  58  87 111 142 188 236 280 322
#
# _framework density 18.819918000000001
#
# number of rings (size 3 to 8) (size 9 to 14) (size 15 to 20)
#    0.000    2.286    1.429    0.429    4.000    2.000 
#    0.000    0.714    0.000    0.857    0.000    0.000 
#    0.000    0.000    0.000    0.000    0.000    0.000 
#
# Total GULP energy -347283.470296 kJ/mol
# GULP energy per Si atom -12402.981082 kJ/mol
# Density = 1.877708 g / cm^3
# Si number density = 18.819918 Si / 1000 Ang^3
#
#
#
# Elastic Constant Matrix: (Units=GPa)
#
#
# Indices 1 2 3 4 5 6 
#
# 1 126.0100 31.9302 56.2340 0.0000 -12.3643 0.0000
# 2 31.9302 62.6424 53.1588 0.0000 2.2555 0.0000
# 3 56.2340 53.1588 138.3920 0.0000 -0.3267 0.0000
# 4 0.0000 0.0000 0.0000 30.9333 0.0000 -1.1495
# 5 -12.3643 2.2555 -0.3267 0.0000 24.9523 0.0000
# 6 0.0000 0.0000 0.0000 -1.1495 0.0000 19.2704
#
#
#
# Elastic Compliance Matrix: (Units=1/GPa)
#
#
# Indices 1 2 3 4 5 6 
#
# 1 0.010636 -0.002912 -0.003191 0.000000 0.005492 0.000000
# 2 -0.002912 0.024609 -0.008278 0.000000 -0.003776 0.000000
# 3 -0.003191 -0.008278 0.011701 0.000000 -0.000679 0.000000
# 4 0.000000 0.000000 0.000000 0.032399 0.000000 0.001933
# 5 0.005492 -0.003776 -0.000679 0.000000 0.043130 0.000000
# 6 0.000000 0.000000 0.000000 0.001933 0.000000 0.052008
#
#
# Mechanical properties :
#
#
# Convention : Reuss Voigt Hill
#
# Bulk Modulus (GPa) = 54.99245 67.74335 61.36790
# Shear Modulus (GPa) = 23.88832 27.41261 25.65046
#
# Velocity S-wave (km/s) = 3.56660 3.82065 3.69581
# Velocity P-wave (km/s) = 6.80034 7.45231 7.13378
#
# Compressibility (1/GPa) = 0.01818432
#
# Stress axis : x y z
#
# Youngs Moduli (GPa) = 94.01648 40.63557 85.46589
#
# Poissons Ratio (x) = 0.11833 0.27268
# Poissons Ratio (y) = 0.27376 0.70753
# Poissons Ratio (z) = 0.29996 0.33640
#
# Static dielectric constant tensor:
#      x y z
#    x 3.617940 0.000000 -0.089190 
#    y 0.000000 3.290540 0.000000 
#    z -0.089190 0.000000 3.455740 
# 
# 
# High freq. dielectric constant tensor:
#      x y z
#    x 1.739860 0.000000 -0.002770 
#    y 0.000000 1.709580 0.000000 
#    z -0.002770 0.000000 1.735170 
# 
# From -- ./inp_files/238340.got.cif
#   From: 2010.06.25/outbox.cif.g09.slc.cpg/sg12_120_cif.got.tgz:238340.got - 2010.06.28 00:19:55.
