data_PCOD8099597
_publ_section_title
;
Structure prediction by ZEFSAII (Michael W. Deem and Ramdas Pophale) SiO2 
 PCOD8099597
Probable space group: C 2/M
;
_chemical_formula_sum "Si O2"
_cell_formula_units_Z 56
_cell_length_a 18.400972
_cell_length_b 17.127945
_cell_length_c 11.521552
_cell_angle_alpha 90.000000
_cell_angle_beta 54.428794
_cell_angle_gamma 90.000000
_cell_volume 2953.639913
_symmetry_space_group_name_H-M "C 2/M"
_symmetry_group_IT_number 12
_symmetry_cell_setting 'monoclinic'
loop_
_space_group_symop_operation_xyz
x,y,z
-x,y,-z
-x,-y,-z
x,-y,z
1/2+x,1/2+y,z
1/2-x,1/2+y,-z
1/2-x,1/2-y,-z
1/2+x,1/2-y,z
loop_
_atom_site_type_symbol
_atom_site_label
_atom_site_fract_x
_atom_site_fract_y
_atom_site_fract_z
Si Si1 0.688186 0.407816 0.683876
Si Si2 0.493514 0.414809 0.868827
Si Si3 0.323460 0.912269 0.928194
Si Si4 0.843822 0.592944 0.365454
Si Si5 0.606807 0.164060 0.918551
Si Si6 0.502137 0.089011 0.373271
Si Si7 0.676623 0.672195 0.936535
O O1 0.691635 0.500000 0.699032
O O2 0.588744 0.381760 0.733972
O O3 0.757907 0.381291 0.520897
O O4 0.708538 0.372230 0.791002
O O5 0.474201 0.500000 0.831532
O O6 0.500000 0.422983 0.000000
O O7 0.413168 0.357133 0.915366
O O8 0.397870 0.904090 0.761760
O O9 0.251479 0.844686 0.965116
O O10 0.281633 0.000000 0.964068
O O11 0.372955 0.902199 0.005534
O O12 0.845984 0.500000 0.340624
O O13 0.843198 0.638415 0.244853
O O14 0.931131 0.625860 0.350518
O O15 0.658030 0.239237 0.920109
O O16 0.500000 0.176231 0.000000
O O17 0.500000 0.131996 0.500000
O O18 0.469997 0.000000 0.419154
#
# Coordination Sequence:
#
# PCOD8099597 Si02
#       7
#     8   8   8   8   8   8   8
#     4   9  17  32  56  84 111 144 190 241 288 329
#     4   8  14  28  52  79 106 137 179 233 285 327
#     4  11  22  37  59  82 111 151 196 240 281 333
#     4  10  20  35  56  82 114 150 194 238 277 335
#     4  12  24  38  55  81 120 162 191 222 283 354
#     4   9  17  31  54  82 108 137 179 236 286 321
#     4  11  21  35  55  84 115 145 188 240 289 336
#
# _framework density 18.959655999999999
#
# number of rings (size 3 to 8) (size 9 to 14) (size 15 to 20)
#    0.000    2.000    1.429    5.143    0.000    3.429 
#    0.000    0.000    0.000    0.857    0.000    4.000 
#    0.000    0.000    0.000    0.000    0.000    0.000 
#
# Total GULP energy -346988.565904 kJ/mol
# GULP energy per Si atom -12392.448782 kJ/mol
# Density = 1.891650 g / cm^3
# Si number density = 18.959656 Si / 1000 Ang^3
#
#
#
# Elastic Constant Matrix: (Units=GPa)
#
#
# Indices 1 2 3 4 5 6 
#
# 1 106.6636 38.9647 39.3839 0.0000 -1.6198 0.0000
# 2 38.9647 55.2013 21.6154 0.0000 -6.2704 0.0000
# 3 39.3839 21.6154 78.0716 0.0000 -5.3947 0.0000
# 4 0.0000 0.0000 0.0000 6.1785 0.0000 1.2714
# 5 -1.6198 -6.2704 -5.3947 0.0000 29.8160 0.0000
# 6 0.0000 0.0000 0.0000 1.2714 0.0000 24.0063
#
#
#
# Elastic Compliance Matrix: (Units=1/GPa)
#
#
# Indices 1 2 3 4 5 6 
#
# 1 0.014226 -0.008293 -0.005010 0.000000 -0.001878 0.000000
# 2 -0.008293 0.025478 -0.002563 0.000000 0.004444 0.000000
# 3 -0.005010 -0.002563 0.016192 0.000000 0.002118 0.000000
# 4 0.000000 0.000000 0.000000 0.163635 0.000000 -0.008666
# 5 -0.001878 0.004444 0.002118 0.000000 0.034755 0.000000
# 6 0.000000 0.000000 0.000000 -0.008666 0.000000 0.042115
#
#
# Mechanical properties :
#
#
# Convention : Reuss Voigt Hill
#
# Bulk Modulus (GPa) = 41.38570 48.87383 45.12977
# Shear Modulus (GPa) = 14.87261 21.33167 18.10214
#
# Velocity S-wave (km/s) = 2.80381 3.35790 3.09329
# Velocity P-wave (km/s) = 5.68837 6.39279 6.05084
#
# Compressibility (1/GPa) = 0.02416293
#
# Stress axis : x y z
#
# Youngs Moduli (GPa) = 70.29252 39.24963 61.75790
#
# Poissons Ratio (x) = 0.32551 0.30942
# Poissons Ratio (y) = 0.58296 0.15830
# Poissons Ratio (z) = 0.35218 0.10061
#
# Static dielectric constant tensor:
#      x y z
#    x 3.553490 0.000000 -0.260900 
#    y 0.000000 3.271200 0.000000 
#    z -0.260900 0.000000 3.638160 
# 
# 
# High freq. dielectric constant tensor:
#      x y z
#    x 1.732250 0.000000 -0.014500 
#    y 0.000000 1.713430 0.000000 
#    z -0.014500 0.000000 1.731980 
# 
# From -- ./inp_files/158192.got.cif
#   From: 2010.06.25/outbox.cif.g09.slc.cpg/sg12_80_cif.got.tgz:158192.got - 2010.06.28 00:19:55.
