data_PCOD8099130
_publ_section_title
;
Structure prediction by ZEFSAII (Michael W. Deem and Ramdas Pophale) SiO2 
 PCOD8099130
Probable space group: C 2/M
;
_chemical_formula_sum "Si O2"
_cell_formula_units_Z 48
_cell_length_a 14.161865
_cell_length_b 9.060947
_cell_length_c 26.797880
_cell_angle_alpha 90.000000
_cell_angle_beta 40.856405
_cell_angle_gamma 90.000000
_cell_volume 2249.479932
_symmetry_space_group_name_H-M "C 2/M"
_symmetry_group_IT_number 12
_symmetry_cell_setting 'monoclinic'
loop_
_space_group_symop_operation_xyz
x,y,z
-x,y,-z
-x,-y,-z
x,-y,z
1/2+x,1/2+y,z
1/2-x,1/2+y,-z
1/2-x,1/2-y,-z
1/2+x,1/2-y,z
loop_
_atom_site_type_symbol
_atom_site_label
_atom_site_fract_x
_atom_site_fract_y
_atom_site_fract_z
Si Si1 0.912109 0.325272 0.083901
Si Si2 0.599437 0.665941 0.509103
Si Si3 0.412727 0.675079 0.180952
Si Si4 0.908042 0.170901 0.796150
Si Si5 0.682874 0.328686 0.632979
Si Si6 0.677402 0.673682 0.329036
O O1 0.917554 0.500000 0.090546
O O2 0.982791 0.242484 0.102876
O O3 0.749836 0.257967 0.145272
O O4 0.000000 0.278824 0.000000
O O5 0.500000 0.683181 0.500000
O O6 0.658363 0.500000 0.490370
O O7 0.740657 0.773376 0.449065
O O8 0.496401 0.703489 0.597994
O O9 0.402713 0.500000 0.182096
O O10 0.511169 0.732641 0.187194
O O11 0.250604 0.741965 0.253174
O O12 0.008515 0.194789 0.706326
O O13 0.880824 0.000000 0.816348
O O14 0.719948 0.500000 0.626723
O O15 0.750636 0.231786 0.649380
O O16 0.706678 0.500000 0.311834
#
# Coordination Sequence:
#
# PCOD8099130 Si02
#       6
#     8   8   8   8   8   8
#     4  10  21  38  59  80 103 136 175 210 254 319
#     4   8  14  23  37  63  99 134 171 215 254 293
#     4  10  20  35  55  79 108 138 170 215 265 308
#     4   8  17  34  53  76 108 141 171 210 262 310
#     4   9  15  24  42  68 100 137 173 212 257 302
#     4   9  16  27  44  68 100 137 175 213 253 301
#
# _framework density 21.338266000000001
#
# number of rings (size 3 to 8) (size 9 to 14) (size 15 to 20)
#    0.000    3.000    0.000    3.500    0.000    4.667 
#    0.000    5.000    0.000    1.000    0.000    0.000 
#    0.000    0.000    0.000    0.000    0.000    0.000 
#
# Total GULP energy -297362.511311 kJ/mol
# GULP energy per Si atom -12390.104638 kJ/mol
# Density = 2.128970 g / cm^3
# Si number density = 21.338266 Si / 1000 Ang^3
#
#
#
# Elastic Constant Matrix: (Units=GPa)
#
#
# Indices 1 2 3 4 5 6 
#
# 1 14.6499 7.4416 22.6883 0.0000 -8.8538 0.0002
# 2 7.4416 62.4311 37.2487 0.0000 -0.7763 0.0002
# 3 22.6883 37.2487 134.8258 0.0000 0.4851 0.0000
# 4 0.0000 0.0000 0.0000 34.0289 0.0000 7.5611
# 5 -8.8538 -0.7763 0.4851 0.0000 32.2386 0.0000
# 6 0.0002 0.0002 0.0000 7.5611 0.0000 13.4028
#
#
#
# Elastic Compliance Matrix: (Units=1/GPa)
#
#
# Indices 1 2 3 4 5 6 
#
# 1 0.119920 -0.002120 -0.019714 0.000000 0.033180 -0.000002
# 2 -0.002120 0.019226 -0.004955 0.000000 -0.000045 0.000000
# 3 -0.019714 -0.004955 0.012124 0.000000 -0.005716 0.000000
# 4 0.000000 0.000000 0.000000 0.033598 0.000000 -0.018954
# 5 0.033180 -0.000045 -0.005716 0.000000 0.040216 -0.000001
# 6 -0.000002 0.000000 0.000000 -0.018954 -0.000001 0.085304
#
#
# Mechanical properties :
#
#
# Convention : Reuss Voigt Hill
#
# Bulk Modulus (GPa) = 10.23613 38.51822 24.37717
# Shear Modulus (GPa) = 12.60945 25.56927 19.08936
#
# Velocity S-wave (km/s) = 2.43355 3.46538 2.99424
# Velocity P-wave (km/s) = 3.56422 5.83971 4.83766
#
# Compressibility (1/GPa) = 0.09769319
#
# Stress axis : x y z
#
# Youngs Moduli (GPa) = 8.33893 52.01305 82.48249
#
# Poissons Ratio (x) = 0.11025 1.62603
# Poissons Ratio (y) = 0.01768 0.40868
# Poissons Ratio (z) = 0.16439 0.25771
#
# Static dielectric constant tensor:
#      x y z
#    x 3.579710 0.000000 -0.147810 
#    y 0.000000 3.601530 0.000000 
#    z -0.147810 0.000000 4.551030 
# 
# 
# High freq. dielectric constant tensor:
#      x y z
#    x 1.810450 0.000000 0.001130 
#    y 0.000000 1.813720 0.000000 
#    z 0.001130 0.000000 1.853000 
# 
# From -- ./inp_files/360258.got.cif
#   From: 2010.06.25/outbox.cif.g09.slc.cpg/sg12_181_cif.got.tgz:360258.got - 2010.06.28 00:19:55.
