data_PCOD8099762
_publ_section_title
;
Structure prediction by ZEFSAII (Michael W. Deem and Ramdas Pophale) SiO2 
 PCOD8099762
Probable space group: C 2/M
;
_chemical_formula_sum "Si O2"
_cell_formula_units_Z 56
_cell_length_a 27.714944
_cell_length_b 19.024998
_cell_length_c 8.981688
_cell_angle_alpha 90.000000
_cell_angle_beta 39.141518
_cell_angle_gamma 90.000000
_cell_volume 2989.439130
_symmetry_space_group_name_H-M "C 2/M"
_symmetry_group_IT_number 12
_symmetry_cell_setting 'monoclinic'
loop_
_space_group_symop_operation_xyz
x,y,z
-x,y,-z
-x,-y,-z
x,-y,z
1/2+x,1/2+y,z
1/2-x,1/2+y,-z
1/2-x,1/2-y,-z
1/2+x,1/2-y,z
loop_
_atom_site_type_symbol
_atom_site_label
_atom_site_fract_x
_atom_site_fract_y
_atom_site_fract_z
Si Si1 0.946671 0.198382 0.487116
Si Si2 0.930467 0.691929 0.280063
Si Si3 0.725243 0.323177 0.114822
Si Si4 0.682743 0.422894 0.747149
Si Si5 0.010437 0.077335 0.143968
Si Si6 0.307905 0.916445 0.689965
Si Si7 0.699087 0.706077 0.509294
O O1 0.958450 0.270011 0.363970
O O2 0.861511 0.175810 0.735549
O O3 0.000000 0.209235 0.500000
O O4 0.965559 0.130620 0.349168
O O5 0.883697 0.621851 0.442493
O O6 0.877215 0.748393 0.325383
O O7 0.000000 0.671820 0.000000
O O8 0.737447 0.316478 0.262623
O O9 0.750000 0.250000 0.000000
O O10 0.779334 0.384825 0.917047
O O11 0.709001 0.500000 0.627248
O O12 0.738189 0.398793 0.746629
O O13 0.682520 0.369845 0.612807
O O14 0.595511 0.425665 0.008034
O O15 0.972794 0.000000 0.247625
O O16 0.000000 0.103315 0.000000
O O17 0.324088 0.000000 0.667854
O O18 0.750000 0.750000 0.500000
#
# Coordination Sequence:
#
# PCOD8099762 Si02
#       7
#     8   8   8   8   8   8   8
#     4  11  22  36  60  88 122 153 197 246 300 364
#     4  11  23  41  62  89 117 159 209 256 306 357
#     4  11  21  38  59  86 122 154 196 244 301 358
#     4  10  20  36  58  88 123 158 200 244 299 361
#     4  10  20  35  56  86 125 160 193 236 290 362
#     4  11  23  42  62  87 123 163 205 255 306 359
#     4  11  20  36  64  91 120 154 201 250 296 362
#
# _framework density 18.732612
#
# number of rings (size 3 to 8) (size 9 to 14) (size 15 to 20)
#    0.000    1.286    4.286    3.857    0.000    2.857 
#    0.000    0.000    0.000    0.429    0.000    0.000 
#    0.000    0.000    0.000    0.000    0.000    0.000 
#
# Total GULP energy -346888.386025 kJ/mol
# GULP energy per Si atom -12388.870929 kJ/mol
# Density = 1.868998 g / cm^3
# Si number density = 18.732612 Si / 1000 Ang^3
#
#
#
# Elastic Constant Matrix: (Units=GPa)
#
#
# Indices 1 2 3 4 5 6 
#
# 1 112.0447 49.8850 42.5552 0.0000 0.3715 0.0000
# 2 49.8850 123.0343 77.3365 0.0000 11.8362 0.0000
# 3 42.5552 77.3365 129.0975 0.0000 -4.0145 0.0000
# 4 0.0000 0.0000 0.0000 39.5128 0.0000 3.4331
# 5 0.3715 11.8362 -4.0145 0.0000 17.5129 0.0000
# 6 0.0000 0.0000 0.0000 3.4331 0.0000 29.7135
#
#
#
# Elastic Compliance Matrix: (Units=1/GPa)
#
#
# Indices 1 2 3 4 5 6 
#
# 1 0.011146 -0.003942 -0.001246 0.000000 0.002142 0.000000
# 2 -0.003942 0.016769 -0.009161 0.000000 -0.013350 0.000000
# 3 -0.001246 -0.009161 0.013938 0.000000 0.009413 0.000000
# 4 0.000000 0.000000 0.000000 0.025565 0.000000 -0.002954
# 5 0.002142 -0.013350 0.009413 0.000000 0.068236 0.000000
# 6 0.000000 0.000000 0.000000 -0.002954 0.000000 0.033996
#
#
# Mechanical properties :
#
#
# Convention : Reuss Voigt Hill
#
# Bulk Modulus (GPa) = 76.02211 78.19221 77.10716
# Shear Modulus (GPa) = 24.66291 30.30780 27.48535
#
# Velocity S-wave (km/s) = 3.63240 4.02670 3.83462
# Velocity P-wave (km/s) = 7.63304 7.96561 7.80110
#
# Compressibility (1/GPa) = 0.01315407
#
# Stress axis : x y z
#
# Youngs Moduli (GPa) = 89.71566 59.63364 71.74833
#
# Poissons Ratio (x) = 0.23509 0.08940
# Poissons Ratio (y) = 0.35368 0.65730
# Poissons Ratio (z) = 0.11178 0.54632
#
# Static dielectric constant tensor:
#      x y z
#    x 3.161040 0.000000 -0.221680 
#    y 0.000000 3.695740 0.000000 
#    z -0.221680 0.000000 3.210590 
# 
# 
# High freq. dielectric constant tensor:
#      x y z
#    x 1.729590 0.000000 0.001310 
#    y 0.000000 1.737400 0.000000 
#    z 0.001310 0.000000 1.721320 
# 
# From -- ./inp_files/105956.got.cif
#   From: 2010.06.25/outbox.cif.g09.slc.cpg/sg12_53_cif.got.tgz:105956.got - 2010.06.28 00:19:55.
