data_PCOD8099665
_publ_section_title
;
Structure prediction by ZEFSAII (Michael W. Deem and Ramdas Pophale) SiO2 
 PCOD8099665
Probable space group: C 2/M
;
_chemical_formula_sum "Si O2"
_cell_formula_units_Z 64
_cell_length_a 13.882935
_cell_length_b 10.292183
_cell_length_c 22.248093
_cell_angle_alpha 90.000000
_cell_angle_beta 88.427897
_cell_angle_gamma 90.000000
_cell_volume 3177.737933
_symmetry_space_group_name_H-M "C 2/M"
_symmetry_group_IT_number 12
_symmetry_cell_setting 'monoclinic'
loop_
_space_group_symop_operation_xyz
x,y,z
-x,y,-z
-x,-y,-z
x,-y,z
1/2+x,1/2+y,z
1/2-x,1/2+y,-z
1/2-x,1/2-y,-z
1/2+x,1/2-y,z
loop_
_atom_site_type_symbol
_atom_site_label
_atom_site_fract_x
_atom_site_fract_y
_atom_site_fract_z
Si Si1 0.166082 0.850396 0.767878
Si Si2 0.451911 0.849824 0.626469
Si Si3 0.876432 0.650996 0.755266
Si Si4 0.395908 0.351843 0.358894
Si Si5 0.860229 0.853569 0.947064
Si Si6 0.488924 0.249408 0.144530
Si Si7 0.140396 0.645095 0.952478
Si Si8 0.725981 0.143356 0.451514
O O1 0.272562 0.786806 0.776353
O O2 0.116827 0.795199 0.708406
O O3 0.097110 0.834680 0.826300
O O4 0.182949 0.000000 0.754976
O O5 0.407463 0.794767 0.689712
O O6 0.536984 0.750904 0.607710
O O7 0.380530 0.836094 0.571851
O O8 0.487040 0.000000 0.632422
O O9 0.862336 0.500000 0.747866
O O10 0.957137 0.673524 0.803995
O O11 0.437944 0.500000 0.359149
O O12 0.293473 0.347716 0.392528
O O13 0.749880 0.827725 0.928157
O O14 0.932426 0.838757 0.890004
O O15 0.870887 0.000000 0.972557
O O16 0.889997 0.751382 0.997789
O O17 0.435768 0.150449 0.100436
O O18 0.133869 0.500000 0.980718
O O19 0.750000 0.250000 0.500000
O O20 0.735505 0.000000 0.481086
#
# Coordination Sequence:
#
# PCOD8099665 Si02
#       8
#     8   8   8   8   8   8   8   8
#     4  10  20  35  56  83 117 156 194 231 286 357
#     4  10  20  38  61  87 118 157 199 243 290 347
#     4  10  20  35  56  83 117 156 194 231 286 357
#     4  10  20  38  61  87 118 157 199 243 290 347
#     4  10  23  42  61  84 117 154 195 245 297 351
#     4  12  21  34  60  90 117 148 192 244 298 348
#     4  10  23  42  61  84 117 154 195 245 297 351
#     4  10  22  40  64  88 122 162 203 250 295 346
#
# _framework density 20.140111999999998
#
# number of rings (size 3 to 8) (size 9 to 14) (size 15 to 20)
#    0.000    1.750    2.500    1.875    0.000    4.500 
#    0.000    5.000    0.000    1.500    0.000    0.000 
#    0.000    0.000    0.000    0.000    0.000    0.000 
#
# Total GULP energy -396683.357282 kJ/mol
# GULP energy per Si atom -12396.354915 kJ/mol
# Density = 2.009427 g / cm^3
# Si number density = 20.140112 Si / 1000 Ang^3
#
#
#
# Elastic Constant Matrix: (Units=GPa)
#
#
# Indices 1 2 3 4 5 6 
#
# 1 82.2403 28.5818 9.2607 0.0000 12.8069 0.0000
# 2 28.5818 89.6406 26.1700 0.0000 9.5827 0.0000
# 3 9.2607 26.1700 64.3788 0.0000 10.2552 0.0000
# 4 0.0000 0.0000 0.0000 29.8773 0.0000 2.2880
# 5 12.8069 9.5827 10.2552 0.0000 25.0831 0.0000
# 6 0.0000 0.0000 0.0000 2.2880 0.0000 25.9051
#
#
#
# Elastic Compliance Matrix: (Units=1/GPa)
#
#
# Indices 1 2 3 4 5 6 
#
# 1 0.014473 -0.004133 0.000560 0.000000 -0.006040 0.000000
# 2 -0.004133 0.014041 -0.004915 0.000000 -0.001245 0.000000
# 3 0.000560 -0.004915 0.018395 0.000000 -0.005929 0.000000
# 4 0.000000 0.000000 0.000000 0.033698 0.000000 -0.002976
# 5 -0.006040 -0.001245 -0.005929 0.000000 0.045851 0.000000
# 6 0.000000 0.000000 0.000000 -0.002976 0.000000 0.038865
#
#
# Mechanical properties :
#
#
# Convention : Reuss Voigt Hill
#
# Bulk Modulus (GPa) = 33.40646 40.47609 36.94128
# Shear Modulus (GPa) = 26.00414 27.65624 26.83019
#
# Velocity S-wave (km/s) = 3.59717 3.70968 3.65386
# Velocity P-wave (km/s) = 5.82030 6.20402 6.01522
#
# Compressibility (1/GPa) = 0.02993433
#
# Stress axis : x y z
#
# Youngs Moduli (GPa) = 69.09310 71.21835 54.36281
#
# Poissons Ratio (x) = 0.29432 -0.03045
# Poissons Ratio (y) = 0.28553 0.26720
# Poissons Ratio (z) = -0.03870 0.35004
#
# Static dielectric constant tensor:
#      x y z
#    x 3.898990 0.000000 -0.014290 
#    y 0.000000 3.507050 0.000000 
#    z -0.014290 0.000000 3.493820 
# 
# 
# High freq. dielectric constant tensor:
#      x y z
#    x 1.802780 0.000000 -0.000520 
#    y 0.000000 1.770160 0.000000 
#    z -0.000520 0.000000 1.776830 
# 
# From -- ./inp_files/338926.got.cif
#   From: 2010.06.25/outbox.cif.g09.slc.cpg/sg12_170_cif.got.tgz:338926.got - 2010.06.28 00:19:55.
