data_PCOD8099939
_publ_section_title
;
Structure prediction by ZEFSAII (Michael W. Deem and Ramdas Pophale) SiO2 
 PCOD8099939
Probable space group: C 2/M
;
_chemical_formula_sum "Si O2"
_cell_formula_units_Z 40
_cell_length_a 32.443870
_cell_length_b 14.732804
_cell_length_c 10.055751
_cell_angle_alpha 90.000000
_cell_angle_beta 155.884497
_cell_angle_gamma 90.000000
_cell_volume 1963.843864
_symmetry_space_group_name_H-M "C 2/M"
_symmetry_group_IT_number 12
_symmetry_cell_setting 'monoclinic'
loop_
_space_group_symop_operation_xyz
x,y,z
-x,y,-z
-x,-y,-z
x,-y,z
1/2+x,1/2+y,z
1/2-x,1/2+y,-z
1/2-x,1/2-y,-z
1/2+x,1/2-y,z
loop_
_atom_site_type_symbol
_atom_site_label
_atom_site_fract_x
_atom_site_fract_y
_atom_site_fract_z
Si Si1 0.783604 0.604402 0.135988
Si Si2 0.657789 0.314854 0.237064
Si Si3 0.654113 0.602197 0.509736
Si Si4 0.465554 0.228549 0.758787
Si Si5 0.612510 0.604768 0.833058
O O1 0.806946 0.500000 0.244460
O O2 0.883400 0.664150 0.449523
O O3 0.755315 0.612241 0.896979
O O4 0.690903 0.644539 0.953439
O O5 0.750000 0.250000 0.500000
O O6 0.673840 0.375655 0.414768
O O7 0.562119 0.246457 0.951179
O O8 0.658673 0.381781 0.114459
O O9 0.611680 0.500000 0.398829
O O10 0.571693 0.669253 0.325664
O O11 0.500000 0.183464 0.000000
O O12 0.500000 0.649797 0.500000
O O13 0.600838 0.500000 0.763095
#
# Coordination Sequence:
#
# PCOD8099939 Si02
#       5
#     8   8   8   8   8
#     4  10  21  39  61  84 114 153 195 236 281 342
#     4  11  23  37  55  82 116 149 186 234 288 338
#     4  10  21  38  61  86 113 148 190 236 286 340
#     4  10  21  36  58  84 113 151 193 236 283 341
#     4  10  20  35  57  84 111 141 183 236 288 332
#
# _framework density 20.368219
#
# number of rings (size 3 to 8) (size 9 to 14) (size 15 to 20)
#    0.000    1.800    0.000    4.800    0.000    8.000 
#    0.000    2.000    0.000    2.400    0.000    0.000 
#    0.000    0.000    0.000    0.000    0.000    0.000 
#
# Total GULP energy -247909.875252 kJ/mol
# GULP energy per Si atom -12395.493763 kJ/mol
# Density = 2.032186 g / cm^3
# Si number density = 20.368219 Si / 1000 Ang^3
#
#
#
# Elastic Constant Matrix: (Units=GPa)
#
#
# Indices 1 2 3 4 5 6 
#
# 1 82.6461 30.2332 52.3200 0.0000 -10.8708 0.0000
# 2 30.2332 82.6703 54.9850 0.0000 6.6219 0.0000
# 3 52.3200 54.9850 134.2613 0.0000 -3.7898 0.0000
# 4 0.0000 0.0000 0.0000 29.7913 0.0000 -8.4217
# 5 -10.8708 6.6219 -3.7898 0.0000 41.1753 0.0000
# 6 0.0000 0.0000 0.0000 -8.4217 0.0000 13.0484
#
#
#
# Elastic Compliance Matrix: (Units=1/GPa)
#
#
# Indices 1 2 3 4 5 6 
#
# 1 0.017194 -0.003136 -0.005287 0.000000 0.004557 0.000000
# 2 -0.003136 0.017659 -0.006129 0.000000 -0.004232 0.000000
# 3 -0.005287 -0.006129 0.012038 0.000000 0.000698 0.000000
# 4 0.000000 0.000000 0.000000 0.041058 0.000000 0.026500
# 5 0.004557 -0.004232 0.000698 0.000000 0.026234 0.000000
# 6 0.000000 0.000000 0.000000 0.026500 0.000000 0.093741
#
#
# Mechanical properties :
#
#
# Convention : Reuss Voigt Hill
#
# Bulk Modulus (GPa) = 56.22570 63.85044 60.03807
# Shear Modulus (GPa) = 20.57969 27.60564 24.09266
#
# Velocity S-wave (km/s) = 3.18210 3.68547 3.44300
# Velocity P-wave (km/s) = 6.41604 7.03750 6.73394
#
# Compressibility (1/GPa) = 0.01778546
#
# Stress axis : x y z
#
# Youngs Moduli (GPa) = 58.16143 56.62890 83.06837
#
# Poissons Ratio (x) = 0.17761 0.43918
# Poissons Ratio (y) = 0.18242 0.50914
# Poissons Ratio (z) = 0.30750 0.34709
#
# Static dielectric constant tensor:
#      x y z
#    x 3.699550 0.000000 -0.164850 
#    y 0.000000 3.569940 0.000000 
#    z -0.164850 0.000000 3.959800 
# 
# 
# High freq. dielectric constant tensor:
#      x y z
#    x 1.790030 0.000000 -0.013000 
#    y 0.000000 1.780700 0.000000 
#    z -0.013000 0.000000 1.809180 
# 
# From -- ./inp_files/112120.got.cif
#   From: 2010.06.25/outbox.cif.g09.slc.cpg/sg12_57_cif.got.tgz:112120.got - 2010.06.28 00:19:55.
