data_PCOD8099701
_publ_section_title
;
Structure prediction by ZEFSAII (Michael W. Deem and Ramdas Pophale) SiO2 
 PCOD8099701
Probable space group: C 2/M
;
_chemical_formula_sum "Si O2"
_cell_formula_units_Z 64
_cell_length_a 32.087774
_cell_length_b 9.070526
_cell_length_c 15.005889
_cell_angle_alpha 90.000000
_cell_angle_beta 133.106467
_cell_angle_gamma 90.000000
_cell_volume 3188.653346
_symmetry_space_group_name_H-M "C 2/M"
_symmetry_group_IT_number 12
_symmetry_cell_setting 'monoclinic'
loop_
_space_group_symop_operation_xyz
x,y,z
-x,y,-z
-x,-y,-z
x,-y,z
1/2+x,1/2+y,z
1/2-x,1/2+y,-z
1/2-x,1/2-y,-z
1/2+x,1/2-y,z
loop_
_atom_site_type_symbol
_atom_site_label
_atom_site_fract_x
_atom_site_fract_y
_atom_site_fract_z
Si Si1 0.002563 0.331640 0.766858
Si Si2 0.334632 0.671126 0.777126
Si Si3 0.189006 0.825621 0.915667
Si Si4 0.705551 0.168964 0.587862
Si Si5 0.846150 0.829361 0.332821
Si Si6 0.026672 0.826246 0.448865
Si Si7 0.629886 0.171720 0.994058
Si Si8 0.886246 0.674247 0.689001
O O1 0.992978 0.500000 0.724694
O O2 0.006795 0.238268 0.683415
O O3 0.949555 0.279862 0.750088
O O4 0.061655 0.309781 0.905890
O O5 0.350119 0.500000 0.812691
O O6 0.269906 0.691140 0.647153
O O7 0.340072 0.753893 0.878402
O O8 0.377182 0.743006 0.768540
O O9 0.157883 0.791529 0.777049
O O10 0.195349 0.000000 0.942549
O O11 0.250000 0.750000 0.000000
O O12 0.150860 0.752687 0.936017
O O13 0.700731 0.246053 0.676941
O O14 0.660796 0.233231 0.450428
O O15 0.690630 0.000000 0.582354
O O16 0.907515 0.779053 0.458855
O O17 0.835181 0.000000 0.332619
O O18 0.000000 0.760569 0.500000
O O19 0.018532 0.000000 0.434923
O O20 0.647223 0.000000 0.014308
O O21 0.880109 0.500000 0.696102
#
# Coordination Sequence:
#
# PCOD8099701 Si02
#       8
#     8   8   8   8   8   8   8   8
#     4  10  22  40  62  87 118 157 202 246 297 357
#     4  11  24  40  61  90 118 155 203 252 305 364
#     4  11  23  40  61  88 123 163 206 251 298 353
#     4  10  21  38  61  88 121 155 195 246 301 359
#     4  10  21  35  56  86 118 154 193 237 295 356
#     4  10  20  35  56  84 117 153 192 237 294 352
#     4  11  24  42  62  87 120 162 206 250 299 357
#     4  10  21  40  63  88 119 155 195 250 308 360
#
# _framework density 20.071169999999999
#
# number of rings (size 3 to 8) (size 9 to 14) (size 15 to 20)
#    0.000    1.625    1.250    3.000    0.000    7.750 
#    0.000    2.500    0.000    0.000    0.000    0.000 
#    0.000    0.000    0.000    0.000    0.000    0.000 
#
# Total GULP energy -396929.435742 kJ/mol
# GULP energy per Si atom -12404.044867 kJ/mol
# Density = 2.002549 g / cm^3
# Si number density = 20.071170 Si / 1000 Ang^3
#
#
#
# Elastic Constant Matrix: (Units=GPa)
#
#
# Indices 1 2 3 4 5 6 
#
# 1 114.5941 41.2416 21.4765 0.0000 -8.2804 0.0000
# 2 41.2416 72.6097 32.0586 0.0000 -4.0838 0.0000
# 3 21.4765 32.0586 73.3189 0.0000 -1.5706 0.0000
# 4 0.0000 0.0000 0.0000 31.2004 0.0000 -6.6347
# 5 -8.2804 -4.0838 -1.5706 0.0000 33.1468 0.0000
# 6 0.0000 0.0000 0.0000 -6.6347 0.0000 35.7738
#
#
#
# Elastic Compliance Matrix: (Units=1/GPa)
#
#
# Indices 1 2 3 4 5 6 
#
# 1 0.011123 -0.005929 -0.000622 0.000000 0.002019 0.000000
# 2 -0.005929 0.020330 -0.007138 0.000000 0.000685 0.000000
# 3 -0.000622 -0.007138 0.016937 0.000000 -0.000232 0.000000
# 4 0.000000 0.000000 0.000000 0.033367 0.000000 0.006188
# 5 0.002019 0.000685 -0.000232 0.000000 0.030747 0.000000
# 6 0.000000 0.000000 0.000000 0.006188 0.000000 0.029101
#
#
# Mechanical properties :
#
#
# Convention : Reuss Voigt Hill
#
# Bulk Modulus (GPa) = 47.59316 50.00848 48.80082
# Shear Modulus (GPa) = 28.41110 31.07393 29.74251
#
# Velocity S-wave (km/s) = 3.76642 3.93897 3.85366
# Velocity P-wave (km/s) = 6.53286 6.75699 6.64587
#
# Compressibility (1/GPa) = 0.02101142
#
# Stress axis : x y z
#
# Youngs Moduli (GPa) = 89.90471 49.18805 59.04119
#
# Poissons Ratio (x) = 0.29166 0.03674
# Poissons Ratio (y) = 0.53308 0.42142
# Poissons Ratio (z) = 0.05594 0.35109
#
# Static dielectric constant tensor:
#      x y z
#    x 3.746190 0.000000 0.109790 
#    y 0.000000 3.621130 0.000000 
#    z 0.109790 0.000000 3.784100 
# 
# 
# High freq. dielectric constant tensor:
#      x y z
#    x 1.793840 0.000000 0.003620 
#    y 0.000000 1.780320 0.000000 
#    z 0.003620 0.000000 1.786600 
# 
# From -- ./inp_files/249936.got.cif
#   From: 2010.06.25/outbox.cif.g09.slc.cpg/sg12_125_cif.got.tgz:249936.got - 2010.06.28 00:19:55.
