data_PCOD8099606
_publ_section_title
;
Structure prediction by ZEFSAII (Michael W. Deem and Ramdas Pophale) SiO2 
 PCOD8099606
Probable space group: C 2/M
;
_chemical_formula_sum "Si O2"
_cell_formula_units_Z 56
_cell_length_a 20.453605
_cell_length_b 8.824722
_cell_length_c 27.814514
_cell_angle_alpha 90.000000
_cell_angle_beta 34.920708
_cell_angle_gamma 90.000000
_cell_volume 2873.915928
_symmetry_space_group_name_H-M "C 2/M"
_symmetry_group_IT_number 12
_symmetry_cell_setting 'monoclinic'
loop_
_space_group_symop_operation_xyz
x,y,z
-x,y,-z
-x,-y,-z
x,-y,z
1/2+x,1/2+y,z
1/2-x,1/2+y,-z
1/2-x,1/2-y,-z
1/2+x,1/2-y,z
loop_
_atom_site_type_symbol
_atom_site_label
_atom_site_fract_x
_atom_site_fract_y
_atom_site_fract_z
Si Si1 0.675575 0.679688 0.276696
Si Si2 0.472644 0.319455 0.463978
Si Si3 0.971304 0.676749 0.250766
Si Si4 0.691663 0.679426 0.158850
Si Si5 0.759837 0.320730 0.442075
Si Si6 0.414225 0.176856 0.175828
Si Si7 0.069800 0.178834 0.004588
O O1 0.669468 0.500000 0.279730
O O2 0.565688 0.746499 0.370503
O O3 0.674905 0.743271 0.222927
O O4 0.789233 0.733595 0.235465
O O5 0.500000 0.253175 0.500000
O O6 0.479189 0.500000 0.460912
O O7 0.347485 0.263245 0.524379
O O8 0.997209 0.500000 0.242187
O O9 0.875098 0.733311 0.346233
O O10 0.926663 0.711082 0.224446
O O11 0.086122 0.770046 0.189872
O O12 0.701394 0.500000 0.152446
O O13 0.806362 0.746947 0.067793
O O14 0.756965 0.500000 0.448774
O O15 0.750000 0.250000 0.500000
O O16 0.431531 0.000000 0.153597
O O17 0.506712 0.272581 0.091065
O O18 0.084002 0.000000 0.994482
O O19 0.000000 0.237618 0.000000
#
# Coordination Sequence:
#
# PCOD8099606 Si02
#       7
#     8   8   8   8   8   8   8
#     4   9  17  30  52  81 107 139 187 235 275 322
#     4   9  16  28  50  80 110 140 182 233 277 321
#     4  10  22  38  56  83 118 154 190 236 290 337
#     4  11  22  37  60  85 112 147 190 237 279 337
#     4  10  20  35  56  82 115 154 192 233 283 335
#     4  10  20  37  60  83 113 151 192 237 284 336
#     4  11  23  39  60  87 117 146 182 230 286 344
#
# _framework density 19.485609
#
# number of rings (size 3 to 8) (size 9 to 14) (size 15 to 20)
#    0.000    2.000    1.429    2.571    0.000    6.857 
#    0.000    0.000    0.000    0.429    0.000    0.000 
#    0.000    0.000    0.000    0.000    0.000    0.000 
#
# Total GULP energy -347292.793531 kJ/mol
# GULP energy per Si atom -12403.314055 kJ/mol
# Density = 1.944126 g / cm^3
# Si number density = 19.485609 Si / 1000 Ang^3
#
#
#
# Elastic Constant Matrix: (Units=GPa)
#
#
# Indices 1 2 3 4 5 6 
#
# 1 108.6838 27.3462 34.4991 0.0003 -10.5285 -0.0003
# 2 27.3462 39.1908 29.9115 0.0005 -3.6278 -0.0016
# 3 34.4991 29.9115 129.4041 0.0001 -12.2451 0.0009
# 4 0.0003 0.0005 0.0001 19.7869 0.0001 3.8441
# 5 -10.5285 -3.6278 -12.2451 0.0001 41.3873 0.0004
# 6 -0.0003 -0.0016 0.0009 3.8441 0.0004 23.8894
#
#
#
# Elastic Compliance Matrix: (Units=1/GPa)
#
#
# Indices 1 2 3 4 5 6 
#
# 1 0.011532 -0.006873 -0.001302 0.000000 0.001946 0.000000
# 2 -0.006873 0.035094 -0.006331 -0.000001 -0.000545 0.000003
# 3 -0.001302 -0.006331 0.009727 0.000000 0.001992 -0.000001
# 4 0.000000 -0.000001 0.000000 0.052169 0.000000 -0.008395
# 5 0.001946 -0.000545 0.001992 0.000000 0.025199 0.000000
# 6 0.000000 0.000003 -0.000001 -0.008395 0.000000 0.043210
#
#
# Mechanical properties :
#
#
# Convention : Reuss Voigt Hill
#
# Bulk Modulus (GPa) = 36.57552 51.19915 43.88734
# Shear Modulus (GPa) = 23.24978 29.38084 26.31531
#
# Velocity S-wave (km/s) = 3.45799 3.88728 3.67890
# Velocity P-wave (km/s) = 5.89532 6.81765 6.37319
#
# Compressibility (1/GPa) = 0.02734069
#
# Stress axis : x y z
#
# Youngs Moduli (GPa) = 86.71478 28.49517 102.81082
#
# Poissons Ratio (x) = 0.19585 0.13382
# Poissons Ratio (y) = 0.59601 0.65090
# Poissons Ratio (z) = 0.11287 0.18040
#
# Static dielectric constant tensor:
#      x y z
#    x 3.598630 0.000000 0.103910 
#    y 0.000000 3.186030 0.000000 
#    z 0.103910 0.000000 3.567230 
# 
# 
# High freq. dielectric constant tensor:
#      x y z
#    x 1.769690 0.000000 -0.002300 
#    y 0.000000 1.722200 0.000000 
#    z -0.002300 0.000000 1.775800 
# 
# From -- ./inp_files/230986.got.cif
#   From: 2010.06.25/outbox.cif.g09.slc.cpg/sg12_116_cif.got.tgz:230986.got - 2010.06.28 00:19:55.
