data_PCOD8099062
_publ_section_title
;
Structure prediction by ZEFSAII (Michael W. Deem and Ramdas Pophale) SiO2 
 PCOD8099062
Probable space group: C 2/M
;
_chemical_formula_sum "Si O2"
_cell_formula_units_Z 64
_cell_length_a 20.979835
_cell_length_b 9.495900
_cell_length_c 24.419365
_cell_angle_alpha 90.000000
_cell_angle_beta 132.829443
_cell_angle_gamma 90.000000
_cell_volume 3567.812275
_symmetry_space_group_name_H-M "C 2/M"
_symmetry_group_IT_number 12
_symmetry_cell_setting 'monoclinic'
loop_
_space_group_symop_operation_xyz
x,y,z
-x,y,-z
-x,-y,-z
x,-y,z
1/2+x,1/2+y,z
1/2-x,1/2+y,-z
1/2-x,1/2-y,-z
1/2+x,1/2-y,z
loop_
_atom_site_type_symbol
_atom_site_label
_atom_site_fract_x
_atom_site_fract_y
_atom_site_fract_z
Si Si1 0.104914 0.344172 0.315030
Si Si2 0.747830 0.333892 0.354371
Si Si3 0.927396 0.342158 0.502380
Si Si4 0.511146 0.843394 0.145378
Si Si5 0.177560 0.667997 0.924717
Si Si6 0.017867 0.332874 0.660498
Si Si7 0.804348 0.666967 0.190204
Si Si8 0.161067 0.834278 0.190178
O O1 0.138942 0.500000 0.350962
O O2 0.183610 0.235207 0.360787
O O3 0.059230 0.349910 0.230519
O O4 0.035341 0.288692 0.317397
O O5 0.743150 0.500000 0.358018
O O6 0.842167 0.270983 0.425785
O O7 0.721805 0.291613 0.277262
O O8 0.900657 0.500000 0.504038
O O9 0.968041 0.263881 0.579291
O O10 0.000000 0.343857 0.500000
O O11 0.414132 0.786744 0.101255
O O12 0.567095 0.743243 0.137415
O O13 0.507049 0.000000 0.116903
O O14 0.190344 0.500000 0.935984
O O15 0.186558 0.720312 0.866947
O O16 0.250000 0.750000 0.000000
O O17 0.023860 0.500000 0.655415
O O18 0.115473 0.273196 0.726352
O O19 0.810993 0.500000 0.193920
O O20 0.713495 0.713022 0.165951
O O21 0.141561 0.000000 0.178605
#
# Coordination Sequence:
#
# PCOD8099062 Si02
#       8
#     8   8   8   8   8   8   8   8
#     4   9  16  28  47  68  88 122 165 196 227 278
#     4   9  17  28  42  67 100 125 152 197 247 281
#     4   9  16  25  39  63  94 124 155 197 245 282
#     4   9  17  32  51  71  98 129 161 194 234 288
#     4  10  20  35  55  77  99 125 157 197 242 286
#     4   9  15  25  45  68  90 122 164 201 232 275
#     4   9  16  30  51  74  97 123 164 207 236 276
#     4   9  17  29  50  75  98 128 163 201 241 278
#
# _framework density 17.938164
#
# number of rings (size 3 to 8) (size 9 to 14) (size 15 to 20)
#    0.000    2.875    1.250    0.750    0.000    4.000 
#    0.000    1.250    0.000    4.875    0.000    0.000 
#    0.000    0.000    0.000    0.000    0.000    0.000 
#
# Total GULP energy -396496.795068 kJ/mol
# GULP energy per Si atom -12390.524846 kJ/mol
# Density = 1.789734 g / cm^3
# Si number density = 17.938164 Si / 1000 Ang^3
#
#
#
# Elastic Constant Matrix: (Units=GPa)
#
#
# Indices 1 2 3 4 5 6 
#
# 1 128.2389 31.0610 57.1118 0.0000 19.8222 0.0000
# 2 31.0610 23.3086 29.3069 0.0000 7.5111 0.0000
# 3 57.1118 29.3069 83.0237 0.0000 19.6593 0.0000
# 4 0.0000 0.0000 0.0000 18.2689 0.0000 7.9512
# 5 19.8222 7.5111 19.6593 0.0000 26.7810 0.0000
# 6 0.0000 0.0000 0.0000 7.9512 0.0000 31.6389
#
#
#
# Elastic Compliance Matrix: (Units=1/GPa)
#
#
# Indices 1 2 3 4 5 6 
#
# 1 0.012779 -0.010597 -0.004253 0.000000 -0.003364 0.000000
# 2 -0.010597 0.086016 -0.023261 0.000000 0.000795 0.000000
# 3 -0.004253 -0.023261 0.025287 0.000000 -0.008890 0.000000
# 4 0.000000 0.000000 0.000000 0.061460 0.000000 -0.015446
# 5 -0.003364 0.000795 -0.008890 0.000000 0.046133 0.000000
# 6 0.000000 0.000000 0.000000 -0.015446 0.000000 0.035488
#
#
# Mechanical properties :
#
#
# Convention : Reuss Voigt Hill
#
# Bulk Modulus (GPa) = 20.89530 52.17006 36.53268
# Shear Modulus (GPa) = 13.91439 23.14387 18.52913
#
# Velocity S-wave (km/s) = 2.78814 3.59584 3.21743
# Velocity P-wave (km/s) = 4.69454 6.81076 5.84915
#
# Compressibility (1/GPa) = 0.04785766
#
# Stress axis : x y z
#
# Youngs Moduli (GPa) = 78.25378 11.62574 39.54624
#
# Poissons Ratio (x) = 0.12320 0.16820
# Poissons Ratio (y) = 0.82929 0.91990
# Poissons Ratio (z) = 0.33283 0.27043
#
# Static dielectric constant tensor:
#      x y z
#    x 3.678010 0.000000 0.038930 
#    y 0.000000 3.108350 0.000000 
#    z 0.038930 0.000000 3.418870 
# 
# 
# High freq. dielectric constant tensor:
#      x y z
#    x 1.705940 0.000000 0.008370 
#    y 0.000000 1.640310 0.000000 
#    z 0.008370 0.000000 1.687420 
# 
# From -- ./inp_files/276527.got.cif
#   From: 2010.06.25/outbox.cif.g09.slc.cpg/sg12_139_cif.got.tgz:276527.got - 2010.06.28 00:19:55.
