data_PCOD8099267
_publ_section_title
;
Structure prediction by ZEFSAII (Michael W. Deem and Ramdas Pophale) SiO2 
 PCOD8099267
Probable space group: C 2/M
;
_chemical_formula_sum "Si O2"
_cell_formula_units_Z 64
_cell_length_a 15.231757
_cell_length_b 8.761212
_cell_length_c 25.466862
_cell_angle_alpha 90.000000
_cell_angle_beta 72.535015
_cell_angle_gamma 90.000000
_cell_volume 3241.848553
_symmetry_space_group_name_H-M "C 2/M"
_symmetry_group_IT_number 12
_symmetry_cell_setting 'monoclinic'
loop_
_space_group_symop_operation_xyz
x,y,z
-x,y,-z
-x,-y,-z
x,-y,z
1/2+x,1/2+y,z
1/2-x,1/2+y,-z
1/2-x,1/2-y,-z
1/2+x,1/2-y,z
loop_
_atom_site_type_symbol
_atom_site_label
_atom_site_fract_x
_atom_site_fract_y
_atom_site_fract_z
Si Si1 0.800911 0.680865 0.827282
Si Si2 0.003499 0.679719 0.244838
Si Si3 0.098208 0.818846 0.833233
Si Si4 0.928635 0.326471 0.059670
Si Si5 0.248011 0.321006 0.443163
Si Si6 0.555955 0.322643 0.638122
Si Si7 0.245640 0.826529 0.945298
Si Si8 0.435603 0.678168 0.558544
O O1 0.796217 0.500000 0.828918
O O2 0.890717 0.738185 0.780079
O O3 0.705284 0.737693 0.818151
O O4 0.811148 0.737515 0.886634
O O5 0.995834 0.500000 0.235429
O O6 0.937958 0.769586 0.216888
O O7 0.972139 0.716600 0.308864
O O8 0.036994 0.729846 0.888917
O O9 0.087973 0.000000 0.841752
O O10 0.890360 0.500000 0.070557
O O11 0.855375 0.197237 0.059081
O O12 0.000000 0.319315 0.000000
O O13 0.240959 0.500000 0.451659
O O14 0.250000 0.250000 0.500000
O O15 0.341175 0.275745 0.396521
O O16 0.162067 0.262842 0.424514
O O17 0.550800 0.500000 0.654998
O O18 0.485606 0.285861 0.603978
O O19 0.269139 0.000000 0.952189
O O20 0.250000 0.750000 0.000000
O O21 0.500000 0.739690 0.500000
O O22 0.416674 0.500000 0.553823
#
# Coordination Sequence:
#
# PCOD8099267 Si02
#       8
#     8   8   8   8   8   8   8   8
#     4   8  19  39  59  79 113 154 190 239 298 352
#     4  11  23  40  63  88 116 157 205 247 292 357
#     4  10  21  40  62  85 116 155 197 247 305 363
#     4  10  21  36  55  82 116 152 191 242 300 359
#     4  11  22  38  62  91 125 163 203 247 301 357
#     4  10  23  42  60  86 125 162 198 245 299 354
#     4  10  20  35  55  82 114 149 191 240 299 362
#     4  10  20  39  63  89 125 164 199 245 304 355
#
# _framework density 19.741824000000001
#
# number of rings (size 3 to 8) (size 9 to 14) (size 15 to 20)
#    0.000    2.000    1.250    2.625    1.750    3.750 
#    0.000   10.625    0.000    0.000    0.000    0.000 
#    0.000    0.000    0.000    0.000    0.000    0.000 
#
# Total GULP energy -396628.290758 kJ/mol
# GULP energy per Si atom -12394.634086 kJ/mol
# Density = 1.969689 g / cm^3
# Si number density = 19.741824 Si / 1000 Ang^3
#
#
#
# Elastic Constant Matrix: (Units=GPa)
#
#
# Indices 1 2 3 4 5 6 
#
# 1 123.5228 38.4423 64.3812 0.0000 -7.5220 0.0000
# 2 38.4423 63.2920 47.7916 0.0000 -8.1877 0.0000
# 3 64.3812 47.7916 142.2411 0.0000 -4.7103 0.0000
# 4 0.0000 0.0000 0.0000 29.3119 0.0000 1.0795
# 5 -7.5220 -8.1877 -4.7103 0.0000 30.1012 0.0000
# 6 0.0000 0.0000 0.0000 1.0795 0.0000 29.8448
#
#
#
# Elastic Compliance Matrix: (Units=1/GPa)
#
#
# Indices 1 2 3 4 5 6 
#
# 1 0.011353 -0.003874 -0.003798 0.000000 0.001189 0.000000
# 2 -0.003874 0.023167 -0.005884 0.000000 0.004413 0.000000
# 3 -0.003798 -0.005884 0.010697 0.000000 -0.000876 0.000000
# 4 0.000000 0.000000 0.000000 0.034161 0.000000 -0.001236
# 5 0.001189 0.004413 -0.000876 0.000000 0.034582 0.000000
# 6 0.000000 0.000000 0.000000 -0.001236 0.000000 0.033551
#
#
# Mechanical properties :
#
#
# Convention : Reuss Voigt Hill
#
# Bulk Modulus (GPa) = 55.23283 70.03181 62.63232
# Shear Modulus (GPa) = 27.67652 29.74764 28.71208
#
# Velocity S-wave (km/s) = 3.74829 3.88601 3.81777
# Velocity P-wave (km/s) = 6.83895 7.46228 7.15740
#
# Compressibility (1/GPa) = 0.01810517
#
# Stress axis : x y z
#
# Youngs Moduli (GPa) = 88.08127 43.16507 93.48260
#
# Poissons Ratio (x) = 0.16724 0.35500
# Poissons Ratio (y) = 0.34126 0.55006
# Poissons Ratio (z) = 0.33449 0.25399
#
# Static dielectric constant tensor:
#      x y z
#    x 3.502180 0.000000 -0.356550 
#    y 0.000000 3.557760 0.000000 
#    z -0.356550 0.000000 3.652470 
# 
# 
# High freq. dielectric constant tensor:
#      x y z
#    x 1.769550 0.000000 0.002010 
#    y 0.000000 1.762480 0.000000 
#    z 0.002010 0.000000 1.777530 
# 
# From -- ./inp_files/359802.got.cif
#   From: 2010.06.25/outbox.cif.g09.slc.cpg/sg12_180_cif.got.tgz:359802.got - 2010.06.28 00:19:55.
