data_PCOD8099329
_publ_section_title
;
Structure prediction by ZEFSAII (Michael W. Deem and Ramdas Pophale) SiO2 
 PCOD8099329
Probable space group: C 2/M
;
_chemical_formula_sum "Si O2"
_cell_formula_units_Z 56
_cell_length_a 20.726457
_cell_length_b 9.136747
_cell_length_c 31.263983
_cell_angle_alpha 90.000000
_cell_angle_beta 32.117163
_cell_angle_gamma 90.000000
_cell_volume 3147.666280
_symmetry_space_group_name_H-M "C 2/M"
_symmetry_group_IT_number 12
_symmetry_cell_setting 'monoclinic'
loop_
_space_group_symop_operation_xyz
x,y,z
-x,y,-z
-x,-y,-z
x,-y,z
1/2+x,1/2+y,z
1/2-x,1/2+y,-z
1/2-x,1/2-y,-z
1/2+x,1/2-y,z
loop_
_atom_site_type_symbol
_atom_site_label
_atom_site_fract_x
_atom_site_fract_y
_atom_site_fract_z
Si Si1 0.932998 0.829420 0.402731
Si Si2 0.330861 0.670140 0.989763
Si Si3 0.698344 0.671477 0.233066
Si Si4 0.577098 0.174244 0.835631
Si Si5 0.580739 0.827509 0.737704
Si Si6 0.277401 0.170994 0.420986
Si Si7 0.667584 0.168552 0.162622
O O1 0.859206 0.785382 0.487561
O O2 0.877884 0.747380 0.393395
O O3 0.073902 0.786211 0.327834
O O4 0.917408 0.000000 0.402293
O O5 0.342602 0.500000 0.970521
O O6 0.461041 0.745710 0.920112
O O7 0.250000 0.750000 0.000000
O O8 0.271958 0.688613 0.069155
O O9 0.705215 0.500000 0.220891
O O10 0.807735 0.724454 0.201474
O O11 0.708577 0.747184 0.181687
O O12 0.599747 0.233483 0.774699
O O13 0.556880 0.000000 0.848390
O O14 0.696697 0.784176 0.642914
O O15 0.457513 0.763996 0.785919
O O16 0.565505 0.000000 0.749946
O O17 0.299472 0.000000 0.414562
O O18 0.648798 0.000000 0.185612
#
# Coordination Sequence:
#
# PCOD8099329 Si02
#       7
#     8   8   8   8   8   8   8
#     4   9  17  29  46  75 107 131 165 212 259 302
#     4  11  22  37  57  81 105 134 173 219 263 305
#     4  10  21  35  52  77 110 142 169 212 266 308
#     4  10  21  38  55  74 107 143 174 211 261 314
#     4   9  16  31  53  76  99 134 176 211 250 304
#     4   9  16  28  50  75  99 132 173 212 251 300
#     4  10  20  35  56  77 102 135 174 215 255 308
#
# _framework density 17.790959000000001
#
# number of rings (size 3 to 8) (size 9 to 14) (size 15 to 20)
#    0.000    2.286    2.857    0.429    0.000    2.286 
#    0.000    4.286    0.000    4.286    0.000    0.000 
#    0.000    6.857    0.000    0.000    0.000    0.000 
#
# Total GULP energy -347109.424456 kJ/mol
# GULP energy per Si atom -12396.765159 kJ/mol
# Density = 1.775047 g / cm^3
# Si number density = 17.790959 Si / 1000 Ang^3
#
#
#
# Elastic Constant Matrix: (Units=GPa)
#
#
# Indices 1 2 3 4 5 6 
#
# 1 141.8392 38.8087 77.8793 -0.0010 -3.8058 -0.0122
# 2 38.8087 38.6824 39.0379 -0.0102 -5.2922 -0.0646
# 3 77.8793 39.0379 137.7200 -0.0040 -3.6047 -0.0107
# 4 -0.0010 -0.0102 -0.0040 24.5415 0.0007 0.3997
# 5 -3.8058 -5.2922 -3.6047 0.0007 29.8303 0.0013
# 6 -0.0122 -0.0646 -0.0107 0.3997 0.0013 24.5644
#
#
#
# Elastic Compliance Matrix: (Units=1/GPa)
#
#
# Indices 1 2 3 4 5 6 
#
# 1 0.011411 -0.006964 -0.004487 -0.000003 -0.000322 -0.000015
# 2 -0.006964 0.041282 -0.007620 0.000014 0.005515 0.000101
# 3 -0.004487 -0.007620 0.011946 -0.000001 -0.000481 -0.000017
# 4 -0.000003 0.000014 -0.000001 0.040758 0.000001 -0.000663
# 5 -0.000322 0.005515 -0.000481 0.000001 0.034402 0.000012
# 6 -0.000015 0.000101 -0.000017 -0.000663 0.000012 0.040720
#
#
# Mechanical properties :
#
#
# Convention : Reuss Voigt Hill
#
# Bulk Modulus (GPa) = 37.73872 69.96594 53.85233
# Shear Modulus (GPa) = 21.97873 26.62163 24.30018
#
# Velocity S-wave (km/s) = 3.51862 3.87247 3.69978
# Velocity P-wave (km/s) = 6.14540 7.70758 6.97039
#
# Compressibility (1/GPa) = 0.02649798
#
# Stress axis : x y z
#
# Youngs Moduli (GPa) = 87.63734 24.22352 83.71146
#
# Poissons Ratio (x) = 0.16868 0.37563
# Poissons Ratio (y) = 0.61027 0.63785
# Poissons Ratio (z) = 0.39324 0.18457
#
# Static dielectric constant tensor:
#      x y z
#    x 3.292350 -0.000070 0.042890 
#    y -0.000070 3.200740 -0.000060 
#    z 0.042890 -0.000060 3.725020 
# 
# 
# High freq. dielectric constant tensor:
#      x y z
#    x 1.669100 0.000000 0.004650 
#    y 0.000000 1.670580 0.000000 
#    z 0.004650 0.000000 1.709160 
# 
# From -- ./inp_files/280404.got.cif
#   From: 2010.06.25/outbox.cif.g09.slc.cpg/sg12_141_cif.got.tgz:280404.got - 2010.06.28 00:19:55.
