data_PCOD8099822
_publ_section_title
;
Structure prediction by ZEFSAII (Michael W. Deem and Ramdas Pophale) SiO2 
 PCOD8099822
Probable space group: C 2/M
;
_chemical_formula_sum "Si O2"
_cell_formula_units_Z 48
_cell_length_a 29.714392
_cell_length_b 9.095985
_cell_length_c 9.367982
_cell_angle_alpha 90.000000
_cell_angle_beta 92.105209
_cell_angle_gamma 90.000000
_cell_volume 2530.284814
_symmetry_space_group_name_H-M "C 2/M"
_symmetry_group_IT_number 12
_symmetry_cell_setting 'monoclinic'
loop_
_space_group_symop_operation_xyz
x,y,z
-x,y,-z
-x,-y,-z
x,-y,z
1/2+x,1/2+y,z
1/2-x,1/2+y,-z
1/2-x,1/2-y,-z
1/2+x,1/2-y,z
loop_
_atom_site_type_symbol
_atom_site_label
_atom_site_fract_x
_atom_site_fract_y
_atom_site_fract_z
Si Si1 0.795562 0.171163 0.835674
Si Si2 0.058894 0.170538 0.145002
Si Si3 0.384395 0.826903 0.348122
Si Si4 0.306780 0.829060 0.125704
Si Si5 0.956831 0.830538 0.180713
Si Si6 0.633748 0.174227 0.334466
O O1 0.742511 0.201408 0.815631
O O2 0.819267 0.253128 0.707264
O O3 0.807351 0.000000 0.831521
O O4 0.815117 0.234352 0.985551
O O5 0.093812 0.274758 0.227383
O O6 0.009751 0.200561 0.204881
O O7 0.072249 0.000000 0.166085
O O8 0.059370 0.214746 0.978944
O O9 0.342562 0.775126 0.246522
O O10 0.430948 0.761999 0.296263
O O11 0.376276 0.770209 0.507118
O O12 0.389135 0.000000 0.346099
O O13 0.312609 0.000000 0.086519
O O14 0.946186 0.000000 0.206412
O O15 0.638642 0.000000 0.326720
#
# Coordination Sequence:
#
# PCOD8099822 Si02
#       6
#     8   8   8   8   8   8
#     4  10  20  35  57  82 105 134 176 221 262 308
#     4   9  19  37  58  80 105 134 173 219 264 311
#     4  10  22  37  52  75 109 144 176 212 257 312
#     4   9  19  37  58  79 105 138 175 216 262 310
#     4   9  19  36  58  81 104 133 173 220 264 309
#     4  11  23  36  51  76 110 144 176 213 259 310
#
# _framework density 18.970195
#
# number of rings (size 3 to 8) (size 9 to 14) (size 15 to 20)
#    0.000    2.333    0.000    3.000    0.000    8.000 
#    0.000    5.000    0.000    0.000    0.000    0.000 
#    0.000    0.000    0.000    0.000    0.000    0.000 
#
# Total GULP energy -297686.832792 kJ/mol
# GULP energy per Si atom -12403.618033 kJ/mol
# Density = 1.892702 g / cm^3
# Si number density = 18.970195 Si / 1000 Ang^3
#
#
#
# Elastic Constant Matrix: (Units=GPa)
#
#
# Indices 1 2 3 4 5 6 
#
# 1 71.5018 24.4299 30.4339 0.0000 -22.7640 0.0000
# 2 24.4299 52.6850 30.0915 0.0000 -15.6055 0.0000
# 3 30.4339 30.0915 77.3359 0.0000 -32.4830 0.0000
# 4 0.0000 0.0000 0.0000 30.8719 0.0000 -7.4679
# 5 -22.7640 -15.6055 -32.4830 0.0000 32.5386 0.0000
# 6 0.0000 0.0000 0.0000 -7.4679 0.0000 32.8094
#
#
#
# Elastic Compliance Matrix: (Units=1/GPa)
#
#
# Indices 1 2 3 4 5 6 
#
# 1 0.019510 -0.005308 -0.001634 0.000000 0.009473 0.000000
# 2 -0.005308 0.026129 -0.007533 0.000000 0.001298 0.000000
# 3 -0.001634 -0.007533 0.024982 0.000000 0.020184 0.000000
# 4 0.000000 0.000000 0.000000 0.034279 0.000000 0.007802
# 5 0.009473 0.001298 0.020184 0.000000 0.058132 0.000000
# 6 0.000000 0.000000 0.000000 0.007802 0.000000 0.032255
#
#
# Mechanical properties :
#
#
# Convention : Reuss Voigt Hill
#
# Bulk Modulus (GPa) = 23.99644 41.27036 32.63340
# Shear Modulus (GPa) = 20.99713 27.01513 24.00613
#
# Velocity S-wave (km/s) = 3.33054 3.77780 3.56120
# Velocity P-wave (km/s) = 5.24090 6.38996 5.84374
#
# Compressibility (1/GPa) = 0.04167284
#
# Stress axis : x y z
#
# Youngs Moduli (GPa) = 51.25450 38.27179 40.02841
#
# Poissons Ratio (x) = 0.20314 0.06540
# Poissons Ratio (y) = 0.27206 0.30152
# Poissons Ratio (z) = 0.08374 0.28829
#
# Static dielectric constant tensor:
#      x y z
#    x 3.544620 0.000000 -0.090010 
#    y 0.000000 3.370190 0.000000 
#    z -0.090010 0.000000 3.506380 
# 
# 
# High freq. dielectric constant tensor:
#      x y z
#    x 1.749160 0.000000 -0.007420 
#    y 0.000000 1.734220 0.000000 
#    z -0.007420 0.000000 1.732360 
# 
# From -- ./inp_files/108581.got.cif
#   From: 2010.06.25/outbox.cif.g09.slc.cpg/sg12_55_cif.got.tgz:108581.got - 2010.06.28 00:19:55.
