data_PCOD8099564
_publ_section_title
;
Structure prediction by ZEFSAII (Michael W. Deem and Ramdas Pophale) SiO2 
 PCOD8099564
Probable space group: C 2/M
;
_chemical_formula_sum "Si O2"
_cell_formula_units_Z 56
_cell_length_a 15.397558
_cell_length_b 9.137895
_cell_length_c 23.125924
_cell_angle_alpha 90.000000
_cell_angle_beta 59.046382
_cell_angle_gamma 90.000000
_cell_volume 2790.446832
_symmetry_space_group_name_H-M "C 2/M"
_symmetry_group_IT_number 12
_symmetry_cell_setting 'monoclinic'
loop_
_space_group_symop_operation_xyz
x,y,z
-x,y,-z
-x,-y,-z
x,-y,z
1/2+x,1/2+y,z
1/2-x,1/2+y,-z
1/2-x,1/2-y,-z
1/2+x,1/2-y,z
loop_
_atom_site_type_symbol
_atom_site_label
_atom_site_fract_x
_atom_site_fract_y
_atom_site_fract_z
Si Si1 0.970285 0.336905 0.072677
Si Si2 0.828828 0.161768 0.203770
Si Si3 0.234009 0.826408 0.335308
Si Si4 0.697969 0.673234 0.571420
Si Si5 0.126486 0.339315 0.206458
Si Si6 0.677728 0.838008 0.066246
Si Si7 0.033857 0.168498 0.334174
O O1 0.922446 0.500000 0.081416
O O2 0.892920 0.229495 0.129935
O O3 0.067930 0.347186 0.077877
O O4 0.000000 0.271256 0.000000
O O5 0.821722 0.268913 0.261474
O O6 0.716640 0.142357 0.219865
O O7 0.871656 0.000000 0.206112
O O8 0.252493 0.744327 0.388906
O O9 0.120433 0.786142 0.351239
O O10 0.246812 0.000000 0.338930
O O11 0.719613 0.500000 0.564760
O O12 0.750000 0.750000 0.500000
O O13 0.578141 0.704818 0.604584
O O14 0.081316 0.500000 0.206389
O O15 0.165128 0.262748 0.133768
O O16 0.042276 0.246217 0.268691
O O17 0.725072 0.000000 0.057434
O O18 0.750000 0.750000 0.000000
O O19 0.047997 0.000000 0.315117
#
# Coordination Sequence:
#
# PCOD8099564 Si02
#       7
#     8   8   8   8   8   8   8
#     4  10  21  35  51  75 109 148 191 238 291 352
#     4  10  20  35  56  82 111 144 187 242 295 349
#     4  10  21  40  64  89 120 160 199 244 300 354
#     4  11  24  42  63  93 127 160 202 248 297 357
#     4   9  19  35  55  80 110 143 187 240 292 344
#     4  10  21  35  51  75 105 143 188 235 287 346
#     4   9  21  40  62  88 120 157 200 243 293 357
#
# _framework density 20.068470999999999
#
# number of rings (size 3 to 8) (size 9 to 14) (size 15 to 20)
#    0.000    2.143    0.000    2.143    2.000    4.286 
#    0.000    2.857    0.000    0.000    0.000    0.000 
#    0.000    0.000    0.000    0.000    0.000    0.000 
#
# Total GULP energy -347071.661557 kJ/mol
# GULP energy per Si atom -12395.416484 kJ/mol
# Density = 2.002279 g / cm^3
# Si number density = 20.068471 Si / 1000 Ang^3
#
#
#
# Elastic Constant Matrix: (Units=GPa)
#
#
# Indices 1 2 3 4 5 6 
#
# 1 67.2712 44.4231 49.5666 0.0000 7.1829 0.0000
# 2 44.4231 117.6725 87.5837 0.0000 -1.2907 0.0001
# 3 49.5666 87.5837 183.2553 0.0000 10.8292 0.0000
# 4 0.0000 0.0000 0.0000 97.4969 0.0000 -31.1176
# 5 7.1829 -1.2907 10.8292 0.0000 34.9361 0.0000
# 6 0.0000 0.0001 0.0000 -31.1176 0.0000 45.6102
#
#
#
# Elastic Compliance Matrix: (Units=1/GPa)
#
#
# Indices 1 2 3 4 5 6 
#
# 1 0.021223 -0.006127 -0.002588 0.000000 -0.003788 0.000000
# 2 -0.006127 0.015175 -0.005809 0.000000 0.003621 0.000000
# 3 -0.002588 -0.005809 0.009081 0.000000 -0.002497 0.000000
# 4 0.000000 0.000000 0.000000 0.013112 0.000000 0.008946
# 5 -0.003788 0.003621 -0.002497 0.000000 0.030310 0.000000
# 6 0.000000 0.000000 0.000000 0.008946 0.000000 0.028028
#
#
# Mechanical properties :
#
#
# Convention : Reuss Voigt Hill
#
# Bulk Modulus (GPa) = 60.86642 81.26066 71.06354
# Shear Modulus (GPa) = 33.01334 48.05034 40.53184
#
# Velocity S-wave (km/s) = 4.06030 4.89849 4.49896
# Velocity P-wave (km/s) = 7.23717 8.51899 7.90411
#
# Compressibility (1/GPa) = 0.01642942
#
# Stress axis : x y z
#
# Youngs Moduli (GPa) = 47.11950 65.89884 110.12105
#
# Poissons Ratio (x) = 0.40377 0.28501
# Poissons Ratio (y) = 0.28870 0.63972
# Poissons Ratio (z) = 0.12195 0.38282
#
# Static dielectric constant tensor:
#      x y z
#    x 0.861570 0.000000 -1.356190 
#    y 0.000000 4.066570 0.000000 
#    z -1.356190 0.000000 2.807920 
# 
# 
# High freq. dielectric constant tensor:
#      x y z
#    x 1.779150 0.000000 0.007910 
#    y 0.000000 1.784090 0.000000 
#    z 0.007910 0.000000 1.787690 
# 
# From -- ./inp_files/342224.got.cif
#   From: 2010.06.25/outbox.cif.g09.slc.cpg/sg12_172_cif.got.tgz:342224.got - 2010.06.28 00:19:55.
