data_PCOD8099001
_publ_section_title
;
Structure prediction by ZEFSAII (Michael W. Deem and Ramdas Pophale) SiO2 
 PCOD8099001
Probable space group: C 2/M
;
_chemical_formula_sum "Si O2"
_cell_formula_units_Z 64
_cell_length_a 28.669240
_cell_length_b 9.638889
_cell_length_c 15.117977
_cell_angle_alpha 90.000000
_cell_angle_beta 126.862690
_cell_angle_gamma 90.000000
_cell_volume 3342.472139
_symmetry_space_group_name_H-M "C 2/M"
_symmetry_group_IT_number 12
_symmetry_cell_setting 'monoclinic'
loop_
_space_group_symop_operation_xyz
x,y,z
-x,y,-z
-x,-y,-z
x,-y,z
1/2+x,1/2+y,z
1/2-x,1/2+y,-z
1/2-x,1/2-y,-z
1/2+x,1/2-y,z
loop_
_atom_site_type_symbol
_atom_site_label
_atom_site_fract_x
_atom_site_fract_y
_atom_site_fract_z
Si Si1 0.839864 0.660269 0.823192
Si Si2 0.932395 0.160072 0.187566
Si Si3 0.211920 0.157588 0.728284
Si Si4 0.947549 0.839077 0.004691
Si Si5 0.007455 0.662773 0.406243
Si Si6 0.363942 0.843404 0.482407
Si Si7 0.195816 0.840668 0.908510
Si Si8 0.802432 0.344065 0.589365
O O1 0.859227 0.500000 0.849554
O O2 0.781110 0.686899 0.812261
O O3 0.890333 0.752789 0.919917
O O4 0.829631 0.710215 0.711221
O O5 0.863318 0.197396 0.106036
O O6 0.961847 0.255365 0.294546
O O7 0.939991 0.000000 0.224756
O O8 0.961741 0.186143 0.124726
O O9 0.183415 0.254427 0.622882
O O10 0.183602 0.187344 0.791045
O O11 0.200977 0.000000 0.685269
O O12 0.933850 0.000000 0.971517
O O13 0.000000 0.789254 0.000000
O O14 0.998938 0.500000 0.377356
O O15 0.071677 0.716656 0.455745
O O16 0.000000 0.699147 0.500000
O O17 0.352745 0.838862 0.573892
O O18 0.360093 0.000000 0.440663
O O19 0.213485 0.000000 0.944602
O O20 0.250000 0.750000 0.000000
O O21 0.778256 0.500000 0.575081
O O22 0.750000 0.250000 0.500000
#
# Coordination Sequence:
#
# PCOD8099001 Si02
#       8
#     8   8   8   8   8   8   8   8
#     4  10  21  36  56  82 112 144 184 231 278 330
#     4  10  22  40  59  83 114 148 189 234 279 331
#     4  10  20  35  55  82 112 141 177 223 273 331
#     4  10  23  41  58  80 111 148 192 237 279 329
#     4  10  22  39  59  85 116 149 187 231 277 331
#     4  10  21  35  54  81 111 144 184 224 271 329
#     4  10  21  36  57  83 110 140 179 225 275 331
#     4  10  20  35  54  81 114 146 183 227 275 331
#
# _framework density 19.147504999999999
#
# number of rings (size 3 to 8) (size 9 to 14) (size 15 to 20)
#    0.000    2.000    1.250    1.500    1.750    3.500 
#    0.000    0.000    0.000    0.000    0.000    0.000 
#    0.000    0.000    0.000    0.000    0.000    0.000 
#
# Total GULP energy -396853.891333 kJ/mol
# GULP energy per Si atom -12401.684104 kJ/mol
# Density = 1.910392 g / cm^3
# Si number density = 19.147505 Si / 1000 Ang^3
#
#
#
# Elastic Constant Matrix: (Units=GPa)
#
#
# Indices 1 2 3 4 5 6 
#
# 1 113.9929 30.0210 34.5400 0.0000 -7.0399 0.0000
# 2 30.0210 67.6458 51.9757 0.0000 6.8680 0.0000
# 3 34.5400 51.9757 93.9517 0.0000 2.1620 0.0000
# 4 0.0000 0.0000 0.0000 36.8522 0.0000 5.5436
# 5 -7.0399 6.8680 2.1620 0.0000 29.8297 0.0000
# 6 0.0000 0.0000 0.0000 5.5436 0.0000 25.1920
#
#
#
# Elastic Compliance Matrix: (Units=1/GPa)
#
#
# Indices 1 2 3 4 5 6 
#
# 1 0.010508 -0.003447 -0.002035 0.000000 0.003421 0.000000
# 2 -0.003447 0.027578 -0.013847 0.000000 -0.006160 0.000000
# 3 -0.002035 -0.013847 0.019022 0.000000 0.001329 0.000000
# 4 0.000000 0.000000 0.000000 0.028064 0.000000 -0.006176
# 5 0.003421 -0.006160 0.001329 0.000000 0.035653 0.000000
# 6 0.000000 0.000000 0.000000 -0.006176 0.000000 0.041054
#
#
# Mechanical properties :
#
#
# Convention : Reuss Voigt Hill
#
# Bulk Modulus (GPa) = 54.20426 56.51818 55.36122
# Shear Modulus (GPa) = 24.19102 28.97834 26.58468
#
# Velocity S-wave (km/s) = 3.55829 3.89450 3.73019
# Velocity P-wave (km/s) = 6.72697 7.05721 6.89407
#
# Compressibility (1/GPa) = 0.01844874
#
# Stress axis : x y z
#
# Youngs Moduli (GPa) = 95.16370 36.26091 52.57117
#
# Poissons Ratio (x) = 0.12501 0.10697
# Poissons Ratio (y) = 0.32808 0.72797
# Poissons Ratio (z) = 0.19363 0.50212
#
# Static dielectric constant tensor:
#      x y z
#    x 3.991210 0.000000 -0.307140 
#    y 0.000000 3.538570 0.000000 
#    z -0.307140 0.000000 3.398020 
# 
# 
# High freq. dielectric constant tensor:
#      x y z
#    x 1.763470 0.000000 -0.011440 
#    y 0.000000 1.740260 0.000000 
#    z -0.011440 0.000000 1.736770 
# 
# From -- ./inp_files/250118.got.cif
#   From: 2010.06.25/outbox.cif.g09.slc.cpg/sg12_126_cif.got.tgz:250118.got - 2010.06.28 00:19:55.
