data_PCOD8099692
_publ_section_title
;
Structure prediction by ZEFSAII (Michael W. Deem and Ramdas Pophale) SiO2 
 PCOD8099692
Probable space group: C 2/M
;
_chemical_formula_sum "Si O2"
_cell_formula_units_Z 64
_cell_length_a 31.926865
_cell_length_b 9.002667
_cell_length_c 24.452339
_cell_angle_alpha 90.000000
_cell_angle_beta 26.797243
_cell_angle_gamma 90.000000
_cell_volume 3168.583089
_symmetry_space_group_name_H-M "C 2/M"
_symmetry_group_IT_number 12
_symmetry_cell_setting 'monoclinic'
loop_
_space_group_symop_operation_xyz
x,y,z
-x,y,-z
-x,-y,-z
x,-y,z
1/2+x,1/2+y,z
1/2-x,1/2+y,-z
1/2-x,1/2-y,-z
1/2+x,1/2-y,z
loop_
_atom_site_type_symbol
_atom_site_label
_atom_site_fract_x
_atom_site_fract_y
_atom_site_fract_z
Si Si1 0.136583 0.824847 0.491904
Si Si2 0.443596 0.828739 0.733561
Si Si3 0.927472 0.675178 0.041551
Si Si4 0.370057 0.329819 0.920139
Si Si5 0.987568 0.832356 0.155545
Si Si6 0.799610 0.670301 0.808618
Si Si7 0.274507 0.324749 0.414812
Si Si8 0.779573 0.826052 0.719834
O O1 0.214242 0.742990 0.436586
O O2 0.153079 0.785591 0.408975
O O3 0.035692 0.769623 0.626832
O O4 0.144149 0.000000 0.494092
O O5 0.373833 0.771343 0.861847
O O6 0.392887 0.809352 0.734852
O O7 0.469034 0.000000 0.715009
O O8 0.931627 0.500000 0.041151
O O9 0.823613 0.732870 0.174979
O O10 0.000000 0.747375 0.000000
O O11 0.954600 0.722076 0.949371
O O12 0.347519 0.500000 0.929736
O O13 0.470194 0.318549 0.832928
O O14 0.289105 0.267592 0.054351
O O15 0.880995 0.784682 0.279159
O O16 0.999691 0.000000 0.119558
O O17 0.779766 0.500000 0.817458
O O18 0.816962 0.753575 0.731637
O O19 0.257423 0.500000 0.438726
O O20 0.250000 0.250000 0.500000
O O21 0.776828 0.000000 0.733858
#
# Coordination Sequence:
#
# PCOD8099692 Si02
#       8
#     8   8   8   8   8   8   8   8
#     4  11  24  43  63  86 121 165 209 257 306 360
#     4  11  24  40  61  91 120 156 205 255 311 370
#     4  10  20  35  56  84 116 150 192 241 290 345
#     4  10  20  38  62  90 124 159 196 245 305 369
#     4  10  21  36  57  86 118 152 192 236 292 355
#     4  10  22  40  63  90 123 159 198 251 312 369
#     4  11  23  39  61  91 124 162 206 251 302 361
#     4  10  22  39  61  88 119 159 207 254 304 361
#
# _framework density 20.198301000000001
#
# number of rings (size 3 to 8) (size 9 to 14) (size 15 to 20)
#    0.000    1.625    1.250    3.000    0.000    6.750 
#    0.000    2.500    0.000    0.000    0.000    0.000 
#    0.000    0.000    0.000    0.000    0.000    0.000 
#
# Total GULP energy -396922.064347 kJ/mol
# GULP energy per Si atom -12403.814511 kJ/mol
# Density = 2.015233 g / cm^3
# Si number density = 20.198301 Si / 1000 Ang^3
#
#
#
# Elastic Constant Matrix: (Units=GPa)
#
#
# Indices 1 2 3 4 5 6 
#
# 1 81.6747 32.6618 16.4254 -0.0359 10.8036 0.0122
# 2 32.6618 60.3044 30.0243 -0.0109 6.8768 0.0121
# 3 16.4254 30.0243 76.7993 -0.0612 5.9000 0.0254
# 4 -0.0359 -0.0109 -0.0612 29.0987 0.0095 4.9479
# 5 10.8036 6.8768 5.9000 0.0095 37.1052 -0.0020
# 6 0.0122 0.0121 0.0254 4.9479 -0.0020 34.9505
#
#
#
# Elastic Compliance Matrix: (Units=1/GPa)
#
#
# Indices 1 2 3 4 5 6 
#
# 1 0.015974 -0.008337 0.000083 0.000019 -0.003119 -0.000006
# 2 -0.008337 0.025186 -0.007989 -0.000018 -0.000970 0.000002
# 3 0.000083 -0.007989 0.016213 0.000034 -0.001121 -0.000014
# 4 0.000019 -0.000018 0.000034 0.035214 -0.000017 -0.004985
# 5 -0.003119 -0.000970 -0.001121 -0.000017 0.028217 0.000006
# 6 -0.000006 0.000002 -0.000014 -0.004985 0.000006 0.029318
#
#
# Mechanical properties :
#
#
# Convention : Reuss Voigt Hill
#
# Bulk Modulus (GPa) = 40.18334 41.88903 41.03618
# Shear Modulus (GPa) = 26.19148 29.54201 27.86675
#
# Velocity S-wave (km/s) = 3.60490 3.82854 3.71840
# Velocity P-wave (km/s) = 6.10448 6.35040 6.22865
#
# Compressibility (1/GPa) = 0.02488594
#
# Stress axis : x y z
#
# Youngs Moduli (GPa) = 62.60325 39.70454 61.68033
#
# Poissons Ratio (x) = 0.33102 -0.00509
# Poissons Ratio (y) = 0.52192 0.49275
# Poissons Ratio (z) = -0.00517 0.31719
#
# Static dielectric constant tensor:
#      x y z
#    x 3.788870 0.000030 -0.102170 
#    y 0.000030 3.424130 0.000030 
#    z -0.102170 0.000030 3.667870 
# 
# 
# High freq. dielectric constant tensor:
#      x y z
#    x 1.798400 0.000000 -0.003900 
#    y 0.000000 1.783000 0.000000 
#    z -0.003900 0.000000 1.793540 
# 
# From -- ./inp_files/353363.got.cif
#   From: 2010.06.25/outbox.cif.g09.slc.cpg/sg12_177_cif.got.tgz:353363.got - 2010.06.28 00:19:55.
