data_PCOD8099442
_publ_section_title
;
Structure prediction by ZEFSAII (Michael W. Deem and Ramdas Pophale) SiO2 
 PCOD8099442
Probable space group: C 2/M
;
_chemical_formula_sum "Si O2"
_cell_formula_units_Z 48
_cell_length_a 15.124355
_cell_length_b 15.236724
_cell_length_c 10.008001
_cell_angle_alpha 90.000000
_cell_angle_beta 84.676443
_cell_angle_gamma 90.000000
_cell_volume 2296.352112
_symmetry_space_group_name_H-M "C 2/M"
_symmetry_group_IT_number 12
_symmetry_cell_setting 'monoclinic'
loop_
_space_group_symop_operation_xyz
x,y,z
-x,y,-z
-x,-y,-z
x,-y,z
1/2+x,1/2+y,z
1/2-x,1/2+y,-z
1/2-x,1/2-y,-z
1/2+x,1/2-y,z
loop_
_atom_site_type_symbol
_atom_site_label
_atom_site_fract_x
_atom_site_fract_y
_atom_site_fract_z
Si Si1 0.573430 0.648311 0.892573
Si Si2 0.228453 0.596238 0.164603
Si Si3 0.900654 0.655143 0.035061
Si Si4 0.228134 0.900295 0.552651
Si Si5 0.378530 0.097813 0.322950
Si Si6 0.063129 0.214333 0.611886
O O1 0.666253 0.597180 0.882256
O O2 0.594745 0.742968 0.943595
O O3 0.534637 0.659054 0.747520
O O4 0.500000 0.602488 0.000000
O O5 0.192673 0.500000 0.139704
O O6 0.213527 0.620328 0.322581
O O7 0.164509 0.654211 0.082755
O O8 0.857911 0.605563 0.167921
O O9 0.000000 0.615865 0.000000
O O10 0.286094 0.894127 0.412130
O O11 0.157886 0.822051 0.551493
O O12 0.187906 0.000000 0.571444
O O13 0.439699 0.180237 0.359170
O O14 0.420524 0.000000 0.346111
O O15 0.000000 0.190913 0.500000
#
# Coordination Sequence:
#
# PCOD8099442 Si02
#       6
#     8   8   8   8   8   8
#     4   9  20  37  55  79 109 142 182 223 266 320
#     4  10  20  35  56  80 109 143 176 220 275 323
#     4  10  21  37  56  79 109 144 182 223 268 321
#     4   9  20  38  57  79 107 141 182 224 269 321
#     4  10  21  36  54  78 108 141 180 223 266 320
#     4  10  21  36  55  80 110 142 177 223 274 320
#
# _framework density 20.902718
#
# number of rings (size 3 to 8) (size 9 to 14) (size 15 to 20)
#    0.000    2.333    0.000    1.500    0.000    7.667 
#    0.000    1.667    0.000    0.000    0.000    0.000 
#    0.000    0.000    0.000    0.000    0.000    0.000 
#
# Total GULP energy -297356.625456 kJ/mol
# GULP energy per Si atom -12389.859394 kJ/mol
# Density = 2.085514 g / cm^3
# Si number density = 20.902718 Si / 1000 Ang^3
#
#
#
# Elastic Constant Matrix: (Units=GPa)
#
#
# Indices 1 2 3 4 5 6 
#
# 1 63.8746 19.9539 63.9796 0.0000 11.2141 0.0000
# 2 19.9539 47.2777 37.3857 0.0000 6.4505 0.0000
# 3 63.9796 37.3857 144.5249 0.0000 4.6526 0.0000
# 4 0.0000 0.0000 0.0000 9.2108 0.0000 4.8858
# 5 11.2141 6.4505 4.6526 0.0000 46.0555 0.0000
# 6 0.0000 0.0000 0.0000 4.8858 0.0000 -46.8953
#
#
#
# Elastic Compliance Matrix: (Units=1/GPa)
#
#
# Indices 1 2 3 4 5 6 
#
# 1 0.029783 -0.001897 -0.012510 0.000000 -0.005723 0.000000
# 2 -0.001897 0.027143 -0.006094 0.000000 -0.002724 0.000000
# 3 -0.012510 -0.006094 0.013953 0.000000 0.002490 0.000000
# 4 0.000000 0.000000 0.000000 0.102883 0.000000 0.010719
# 5 -0.005723 -0.002724 0.002490 0.000000 0.023236 0.000000
# 6 0.000000 0.000000 0.000000 0.010719 0.000000 -0.020207
#
#
# Mechanical properties :
#
#
# Convention : Reuss Voigt Hill
#
# Bulk Modulus (GPa) = 33.46940 55.36839 44.41890
# Shear Modulus (GPa) = 21.95370 10.63139 16.29255
#
# Velocity S-wave (km/s) = 3.24432 2.25769 2.79489
# Velocity P-wave (km/s) = 5.48460 5.77428 5.63131
#
# Compressibility (1/GPa) = 0.02987804
#
# Stress axis : x y z
#
# Youngs Moduli (GPa) = 33.57579 36.84228 71.66748
#
# Poissons Ratio (x) = 0.06990 0.89654
# Poissons Ratio (y) = 0.06370 0.43672
# Poissons Ratio (z) = 0.42003 0.22451
#
# Static dielectric constant tensor:
#      x y z
#    x 3.649890 0.000000 -0.351910 
#    y 0.000000 3.912000 0.000000 
#    z -0.351910 0.000000 4.252430 
# 
# 
# High freq. dielectric constant tensor:
#      x y z
#    x 1.785380 0.000000 -0.011950 
#    y 0.000000 1.823020 0.000000 
#    z -0.011950 0.000000 1.835110 
# 
# From -- ./inp_files/61675.got.cif
#   From: 2010.06.25/outbox.cif.g09.slc.cpg/sg12_31_cif.got.tgz:61675.got - 2010.06.28 00:19:55.
