data_PCOD8099108
_publ_section_title
;
Structure prediction by ZEFSAII (Michael W. Deem and Ramdas Pophale) SiO2 
 PCOD8099108
Probable space group: C 2/M
;
_chemical_formula_sum "Si O2"
_cell_formula_units_Z 64
_cell_length_a 24.832595
_cell_length_b 9.321793
_cell_length_c 14.334512
_cell_angle_alpha 90.000000
_cell_angle_beta 88.874161
_cell_angle_gamma 90.000000
_cell_volume 3317.574051
_symmetry_space_group_name_H-M "C 2/M"
_symmetry_group_IT_number 12
_symmetry_cell_setting 'monoclinic'
loop_
_space_group_symop_operation_xyz
x,y,z
-x,y,-z
-x,-y,-z
x,-y,z
1/2+x,1/2+y,z
1/2-x,1/2+y,-z
1/2-x,1/2-y,-z
1/2+x,1/2-y,z
loop_
_atom_site_type_symbol
_atom_site_label
_atom_site_fract_x
_atom_site_fract_y
_atom_site_fract_z
Si Si1 0.303666 0.666633 0.025902
Si Si2 0.061414 0.663698 0.690807
Si Si3 0.801035 0.160299 0.524592
Si Si4 0.339222 0.669543 0.230141
Si Si5 0.739794 0.340239 0.276917
Si Si6 0.559293 0.167777 0.287292
Si Si7 0.096668 0.335802 0.488753
Si Si8 0.642653 0.665786 0.160068
O O1 0.287770 0.500000 0.028562
O O2 0.352692 0.693884 0.950941
O O3 0.250000 0.750000 0.000000
O O4 0.327434 0.716850 0.124282
O O5 0.077030 0.500000 0.714616
O O6 0.104353 0.767128 0.737559
O O7 0.056659 0.680178 0.578133
O O8 0.002809 0.703494 0.733237
O O9 0.750000 0.250000 0.500000
O O10 0.801956 0.157165 0.636221
O O11 0.853226 0.238303 0.483634
O O12 0.798665 0.000000 0.482314
O O13 0.341239 0.500000 0.243188
O O14 0.289826 0.733203 0.292871
O O15 0.763441 0.500000 0.258587
O O16 0.702180 0.287754 0.193665
O O17 0.571388 0.220288 0.392699
O O18 0.595195 0.243822 0.208008
O O19 0.570892 0.000000 0.279321
O O20 0.115831 0.500000 0.476665
O O21 0.631463 0.500000 0.184367
#
# Coordination Sequence:
#
# PCOD8099108 Si02
#       8
#     8   8   8   8   8   8   8   8
#     4  10  21  37  59  86 115 147 185 228 281 340
#     4  10  22  40  59  81 113 154 191 229 284 339
#     4  11  22  34  49  76 113 150 187 225 274 334
#     4  11  23  37  57  87 116 145 188 238 281 330
#     4  10  20  35  55  78 111 151 184 221 279 340
#     4  10  21  38  61  86 112 146 194 241 276 324
#     4  10  20  36  58  82 110 146 190 235 278 328
#     4  10  20  37  59  84 113 146 183 227 283 339
#
# _framework density 19.291205000000001
#
# number of rings (size 3 to 8) (size 9 to 14) (size 15 to 20)
#    0.000    1.750    2.500    1.875    0.000    8.000 
#    0.000    0.625    0.000    6.000    0.000    0.000 
#    0.000    0.000    0.000    0.000    0.000    0.000 
#
# Total GULP energy -396758.732508 kJ/mol
# GULP energy per Si atom -12398.710391 kJ/mol
# Density = 1.924730 g / cm^3
# Si number density = 19.291205 Si / 1000 Ang^3
#
#
#
# Elastic Constant Matrix: (Units=GPa)
#
#
# Indices 1 2 3 4 5 6 
#
# 1 110.6056 51.7845 28.3092 0.0000 -10.1323 0.0000
# 2 51.7845 80.8974 22.7859 0.0000 -4.7190 0.0000
# 3 28.3092 22.7859 70.4809 0.0000 -6.3224 0.0000
# 4 0.0000 0.0000 0.0000 28.0075 0.0000 -2.0260
# 5 -10.1323 -4.7190 -6.3224 0.0000 24.8424 0.0000
# 6 0.0000 0.0000 0.0000 -2.0260 0.0000 34.3221
#
#
#
# Elastic Compliance Matrix: (Units=1/GPa)
#
#
# Indices 1 2 3 4 5 6 
#
# 1 0.013697 -0.007817 -0.002667 0.000000 0.003423 0.000000
# 2 -0.007817 0.018116 -0.002757 0.000000 -0.000449 0.000000
# 3 -0.002667 -0.002757 0.016380 0.000000 0.002557 0.000000
# 4 0.000000 0.000000 0.000000 0.035858 0.000000 0.002117
# 5 0.003423 -0.000449 0.002557 0.000000 0.042215 0.000000
# 6 0.000000 0.000000 0.000000 0.002117 0.000000 0.029261
#
#
# Mechanical properties :
#
#
# Convention : Reuss Voigt Hill
#
# Bulk Modulus (GPa) = 46.06131 51.97146 49.01639
# Shear Modulus (GPa) = 26.42051 28.04134 27.23092
#
# Velocity S-wave (km/s) = 3.70477 3.81672 3.76117
# Velocity P-wave (km/s) = 6.49840 6.81338 6.65775
#
# Compressibility (1/GPa) = 0.02171019
#
# Stress axis : x y z
#
# Youngs Moduli (GPa) = 73.00739 55.20102 61.04869
#
# Poissons Ratio (x) = 0.43151 0.16284
# Poissons Ratio (y) = 0.57070 0.16832
# Poissons Ratio (z) = 0.19474 0.15220
#
# Static dielectric constant tensor:
#      x y z
#    x 6.945940 0.000000 -2.151330 
#    y 0.000000 3.412880 0.000000 
#    z -2.151330 0.000000 4.975730 
# 
# 
# High freq. dielectric constant tensor:
#      x y z
#    x 1.738710 0.000000 -0.005150 
#    y 0.000000 1.747600 0.000000 
#    z -0.005150 0.000000 1.755240 
# 
# From -- ./inp_files/238682.got.cif
#   From: 2010.06.25/outbox.cif.g09.slc.cpg/sg12_120_cif.got.tgz:238682.got - 2010.06.28 00:19:55.
