data_PCOD8099895
_publ_section_title
;
Structure prediction by ZEFSAII (Michael W. Deem and Ramdas Pophale) SiO2 
 PCOD8099895
Probable space group: C 2/M
;
_chemical_formula_sum "Si O2"
_cell_formula_units_Z 40
_cell_length_a 16.481585
_cell_length_b 10.408500
_cell_length_c 11.053906
_cell_angle_alpha 90.000000
_cell_angle_beta 77.991957
_cell_angle_gamma 90.000000
_cell_volume 1854.788179
_symmetry_space_group_name_H-M "C 2/M"
_symmetry_group_IT_number 12
_symmetry_cell_setting 'monoclinic'
loop_
_space_group_symop_operation_xyz
x,y,z
-x,y,-z
-x,-y,-z
x,-y,z
1/2+x,1/2+y,z
1/2-x,1/2+y,-z
1/2-x,1/2-y,-z
1/2+x,1/2-y,z
loop_
_atom_site_type_symbol
_atom_site_label
_atom_site_fract_x
_atom_site_fract_y
_atom_site_fract_z
Si Si1 0.562841 0.717334 0.883762
Si Si2 0.169805 0.141280 0.646264
Si Si3 0.053417 0.358363 0.256692
Si Si4 0.318810 0.858516 0.982453
Si Si5 0.142850 0.351713 0.465394
O O1 0.633213 0.632520 0.795357
O O2 0.509538 0.762982 0.786570
O O3 0.609017 0.830846 0.941601
O O4 0.500000 0.646696 0.000000
O O5 0.126859 0.254943 0.581902
O O6 0.267317 0.172048 0.622519
O O7 0.155484 0.000000 0.591266
O O8 0.013366 0.500000 0.268008
O O9 0.072834 0.317167 0.388214
O O10 0.141313 0.360752 0.161643
O O11 0.280991 0.000000 0.024408
O O12 0.250000 0.750000 0.000000
O O13 0.134269 0.500000 0.511667
#
# Coordination Sequence:
#
# PCOD8099895 Si02
#       5
#     8   8   8   8   8
#     4  10  21  36  56  84 116 150 187 229 279 334
#     4  10  21  38  59  84 116 148 185 236 285 332
#     4   9  18  35  56  80 112 148 189 233 276 328
#     4  10  20  35  57  83 112 147 187 232 279 330
#     4   9  19  37  61  84 108 147 194 235 277 329
#
# _framework density 21.565805000000001
#
# number of rings (size 3 to 8) (size 9 to 14) (size 15 to 20)
#    0.000    2.400    0.000    1.800    0.000    7.600 
#    0.000   12.000    0.000    0.000    0.000    0.000 
#    0.000    0.000    0.000    0.000    0.000    0.000 
#
# Total GULP energy -247782.802603 kJ/mol
# GULP energy per Si atom -12389.140130 kJ/mol
# Density = 2.151672 g / cm^3
# Si number density = 21.565805 Si / 1000 Ang^3
#
#
#
# Elastic Constant Matrix: (Units=GPa)
#
#
# Indices 1 2 3 4 5 6 
#
# 1 61.2806 26.5881 33.7142 0.0000 5.8366 0.0000
# 2 26.5881 104.9219 33.6179 0.0000 9.7554 0.0000
# 3 33.7142 33.6179 123.2968 0.0000 -12.1976 0.0000
# 4 0.0000 0.0000 0.0000 19.9511 0.0000 6.4187
# 5 5.8366 9.7554 -12.1976 0.0000 40.4650 0.0000
# 6 0.0000 0.0000 0.0000 6.4187 0.0000 -2.5105
#
#
#
# Elastic Compliance Matrix: (Units=1/GPa)
#
#
# Indices 1 2 3 4 5 6 
#
# 1 0.020978 -0.003291 -0.005215 0.000000 -0.003804 0.000000
# 2 -0.003291 0.011458 -0.002526 0.000000 -0.003049 0.000000
# 3 -0.005215 -0.002526 0.010678 0.000000 0.004580 0.000000
# 4 0.000000 0.000000 0.000000 0.027501 0.000000 0.070313
# 5 -0.003804 -0.003049 0.004580 0.000000 0.027377 0.000000
# 6 0.000000 0.000000 0.000000 0.070313 0.000000 -0.218550
#
#
# Mechanical properties :
#
#
# Convention : Reuss Voigt Hill
#
# Bulk Modulus (GPa) = 47.50681 53.03774 50.27228
# Shear Modulus (GPa) = -54.65844 24.61971 -15.01937
#
# Velocity S-wave (km/s) = -5.03984 3.38244 -2.64188
# Velocity P-wave (km/s) = 3.43366 6.31675 3.74909
#
# Compressibility (1/GPa) = 0.02104961
#
# Stress axis : x y z
#
# Youngs Moduli (GPa) = 47.66926 87.27782 93.64810
#
# Poissons Ratio (x) = 0.28726 0.48839
# Poissons Ratio (y) = 0.15689 0.23653
# Poissons Ratio (z) = 0.24860 0.22044
#
# Static dielectric constant tensor:
#      x y z
#    x 3.824910 0.000000 -0.094030 
#    y 0.000000 3.731550 0.000000 
#    z -0.094030 0.000000 4.044520 
# 
# 
# High freq. dielectric constant tensor:
#      x y z
#    x 1.849210 0.000000 -0.009140 
#    y 0.000000 1.821900 0.000000 
#    z -0.009140 0.000000 1.855380 
# 
# From -- ./inp_files/140808.got.cif
#   From: 2010.06.25/outbox.cif.g09.slc.cpg/sg12_71_cif.got.tgz:140808.got - 2010.06.28 00:19:55.
