data_PCOD8099894
_publ_section_title
;
Structure prediction by ZEFSAII (Michael W. Deem and Ramdas Pophale) SiO2 
 PCOD8099894
Probable space group: C 2/M
;
_chemical_formula_sum "Si O2"
_cell_formula_units_Z 64
_cell_length_a 30.694642
_cell_length_b 8.950856
_cell_length_c 15.793518
_cell_angle_alpha 90.000000
_cell_angle_beta 45.650694
_cell_angle_gamma 90.000000
_cell_volume 3102.898758
_symmetry_space_group_name_H-M "C 2/M"
_symmetry_group_IT_number 12
_symmetry_cell_setting 'monoclinic'
loop_
_space_group_symop_operation_xyz
x,y,z
-x,y,-z
-x,-y,-z
x,-y,z
1/2+x,1/2+y,z
1/2-x,1/2+y,-z
1/2-x,1/2-y,-z
1/2+x,1/2-y,z
loop_
_atom_site_type_symbol
_atom_site_label
_atom_site_fract_x
_atom_site_fract_y
_atom_site_fract_z
Si Si1 0.516388 0.174572 0.572528
Si Si2 0.946659 0.324202 0.837112
Si Si3 0.673193 0.328320 0.032088
Si Si4 0.283686 0.169802 0.575942
Si Si5 0.475839 0.673729 0.124002
Si Si6 0.361184 0.326212 0.599307
Si Si7 0.338062 0.669457 0.347346
Si Si8 0.306950 0.169266 0.822134
O O1 0.500000 0.234946 0.500000
O O2 0.466407 0.211781 0.712781
O O3 0.578064 0.252261 0.520424
O O4 0.528780 0.000000 0.550960
O O5 0.936606 0.500000 0.863095
O O6 0.884342 0.234494 0.941952
O O7 0.996144 0.269172 0.837614
O O8 0.661729 0.500000 0.075885
O O9 0.683225 0.216517 0.095532
O O10 0.735517 0.319762 0.892523
O O11 0.301930 0.274266 0.628634
O O12 0.323591 0.214328 0.440614
O O13 0.211734 0.191131 0.658877
O O14 0.299666 0.000000 0.577481
O O15 0.491562 0.500000 0.117702
O O16 0.403745 0.703210 0.219587
O O17 0.500000 0.728290 0.000000
O O18 0.369873 0.500000 0.580954
O O19 0.350182 0.277241 0.710258
O O20 0.334266 0.500000 0.388672
O O21 0.330589 0.000000 0.778868
#
# Coordination Sequence:
#
# PCOD8099894 Si02
#       8
#     8   8   8   8   8   8   8   8
#     4  10  22  40  61  86 119 159 198 239 293 353
#     4  11  23  38  60  89 120 156 197 243 294 349
#     4  10  21  38  61  86 113 150 193 235 284 342
#     4  10  20  35  57  83 112 146 183 229 288 348
#     4  10  22  40  60  82 112 152 197 244 294 349
#     4  12  24  36  55  85 118 151 191 236 283 339
#     4   9  19  37  59  82 108 140 184 236 289 345
#     4  10  21  38  59  83 115 152 189 235 288 341
#
# _framework density 20.625874
#
# number of rings (size 3 to 8) (size 9 to 14) (size 15 to 20)
#    0.000    1.750    0.000    4.125    0.000    8.000 
#    0.000    2.500    0.000    0.000    0.000    0.000 
#    0.000    0.000    0.000    0.000    0.000    0.000 
#
# Total GULP energy -396837.254660 kJ/mol
# GULP energy per Si atom -12401.164208 kJ/mol
# Density = 2.057893 g / cm^3
# Si number density = 20.625874 Si / 1000 Ang^3
#
#
#
# Elastic Constant Matrix: (Units=GPa)
#
#
# Indices 1 2 3 4 5 6 
#
# 1 80.6579 33.1297 24.6235 0.0000 -9.6707 0.0000
# 2 33.1297 76.6614 34.2075 0.0011 -10.7059 0.0001
# 3 24.6235 34.2075 79.7278 0.0000 -15.5908 0.0000
# 4 0.0000 0.0011 0.0000 27.5880 0.0000 0.0924
# 5 -9.6707 -10.7059 -15.5908 0.0000 34.1928 0.0000
# 6 0.0000 0.0001 0.0000 0.0924 0.0000 35.8390
#
#
#
# Elastic Compliance Matrix: (Units=1/GPa)
#
#
# Indices 1 2 3 4 5 6 
#
# 1 0.015512 -0.005537 -0.002082 0.000000 0.001704 0.000000
# 2 -0.005537 0.018245 -0.005827 -0.000001 0.001490 0.000000
# 3 -0.002082 -0.005827 0.016703 0.000000 0.005203 0.000000
# 4 0.000000 -0.000001 0.000000 0.036248 0.000000 -0.000093
# 5 0.001704 0.001490 0.005203 0.000000 0.032567 0.000000
# 6 0.000000 0.000000 0.000000 -0.000093 0.000000 0.027903
#
#
# Mechanical properties :
#
#
# Convention : Reuss Voigt Hill
#
# Bulk Modulus (GPa) = 42.42785 46.77428 44.60107
# Shear Modulus (GPa) = 27.48380 29.19640 28.34010
#
# Velocity S-wave (km/s) = 3.65429 3.76643 3.71078
# Velocity P-wave (km/s) = 6.19839 6.45301 6.32698
#
# Compressibility (1/GPa) = 0.02356942
#
# Stress axis : x y z
#
# Youngs Moduli (GPa) = 64.46568 54.80912 59.86891
#
# Poissons Ratio (x) = 0.30346 0.12465
# Poissons Ratio (y) = 0.35692 0.34885
# Poissons Ratio (z) = 0.13422 0.31936
#
# Static dielectric constant tensor:
#      x y z
#    x 3.745090 0.000000 -0.181900 
#    y 0.000000 3.706280 0.000000 
#    z -0.181900 0.000000 3.775680 
# 
# 
# High freq. dielectric constant tensor:
#      x y z
#    x 1.806100 0.000000 -0.015180 
#    y 0.000000 1.808180 0.000000 
#    z -0.015180 0.000000 1.804810 
# 
# From -- ./inp_files/295531.got.cif
#   From: 2010.06.25/outbox.cif.g09.slc.cpg/sg12_148_cif.got.tgz:295531.got - 2010.06.28 00:19:55.
