data_PCOD8099675
_publ_section_title
;
Structure prediction by ZEFSAII (Michael W. Deem and Ramdas Pophale) SiO2 
 PCOD8099675
Probable space group: C 2/M
;
_chemical_formula_sum "Si O2"
_cell_formula_units_Z 64
_cell_length_a 24.287742
_cell_length_b 9.257694
_cell_length_c 31.731541
_cell_angle_alpha 90.000000
_cell_angle_beta 28.486227
_cell_angle_gamma 90.000000
_cell_volume 3402.919662
_symmetry_space_group_name_H-M "C 2/M"
_symmetry_group_IT_number 12
_symmetry_cell_setting 'monoclinic'
loop_
_space_group_symop_operation_xyz
x,y,z
-x,y,-z
-x,-y,-z
x,-y,z
1/2+x,1/2+y,z
1/2-x,1/2+y,-z
1/2-x,1/2-y,-z
1/2+x,1/2-y,z
loop_
_atom_site_type_symbol
_atom_site_label
_atom_site_fract_x
_atom_site_fract_y
_atom_site_fract_z
Si Si1 0.970404 0.671279 0.565840
Si Si2 0.714260 0.669678 0.762212
Si Si3 0.012314 0.328693 0.853879
Si Si4 0.304008 0.166975 0.053567
Si Si5 0.129703 0.669281 0.533441
Si Si6 0.868679 0.169117 0.089613
Si Si7 0.891584 0.832668 0.369115
Si Si8 0.941433 0.167129 0.818850
O O1 0.978390 0.500000 0.558577
O O2 0.843414 0.720263 0.665180
O O3 0.000000 0.736982 0.500000
O O4 0.063102 0.730137 0.537305
O O5 0.695172 0.500000 0.766857
O O6 0.632345 0.757768 0.786290
O O7 0.688043 0.710829 0.827949
O O8 0.025324 0.500000 0.843023
O O9 0.978387 0.271076 0.831220
O O10 0.914659 0.280749 0.952766
O O11 0.295095 0.254390 0.102872
O O12 0.191848 0.198017 0.101117
O O13 0.313075 0.000000 0.059529
O O14 0.108102 0.500000 0.553252
O O15 0.077686 0.743850 0.609826
O O16 0.264464 0.707152 0.437340
O O17 0.864240 0.000000 0.083775
O O18 0.000000 0.226174 0.000000
O O19 0.983461 0.789841 0.272108
O O20 0.899077 0.000000 0.376043
O O21 0.962256 0.000000 0.817328
#
# Coordination Sequence:
#
# PCOD8099675 Si02
#       8
#     8   8   8   8   8   8   8   8
#     4   9  19  34  57  85 111 143 186 229 270 322
#     4  10  21  37  58  83 112 149 188 228 275 330
#     4  11  23  38  56  81 112 146 185 228 277 331
#     4  10  22  38  56  81 113 147 183 226 279 332
#     4   9  18  34  56  82 110 139 178 224 270 321
#     4  10  20  35  56  84 112 144 188 230 272 327
#     4   9  19  35  56  81 107 142 180 220 273 328
#     4  10  22  38  58  82 108 144 189 229 275 332
#
# _framework density 18.807378
#
# number of rings (size 3 to 8) (size 9 to 14) (size 15 to 20)
#    0.000    2.250    1.250    0.750    3.500    2.250 
#    0.000    0.625    0.000    0.750    0.000    0.000 
#    0.000    0.000    0.000    0.000    0.000    0.000 
#
# Total GULP energy -396925.712677 kJ/mol
# GULP energy per Si atom -12403.928521 kJ/mol
# Density = 1.876457 g / cm^3
# Si number density = 18.807378 Si / 1000 Ang^3
#
#
#
# Elastic Constant Matrix: (Units=GPa)
#
#
# Indices 1 2 3 4 5 6 
#
# 1 147.8003 43.9432 59.2286 0.0028 5.6885 -0.0048
# 2 43.9432 39.3245 26.1149 0.0080 4.9237 -0.0145
# 3 59.2286 26.1149 117.8830 0.0012 3.8956 -0.0011
# 4 0.0028 0.0080 0.0012 17.1240 -0.0016 3.2752
# 5 5.6885 4.9237 3.8956 -0.0016 27.0575 0.0019
# 6 -0.0048 -0.0145 -0.0011 3.2752 0.0019 36.2766
#
#
#
# Elastic Compliance Matrix: (Units=1/GPa)
#
#
# Indices 1 2 3 4 5 6 
#
# 1 0.011146 -0.010243 -0.003331 0.000004 0.000000 -0.000003
# 2 -0.010243 0.039784 -0.003515 -0.000020 -0.004580 0.000016
# 3 -0.003331 -0.003515 0.010943 0.000002 -0.000236 -0.000002
# 4 0.000004 -0.000020 0.000002 0.059424 0.000007 -0.005365
# 5 0.000000 -0.004580 -0.000236 0.000007 0.037826 -0.000004
# 6 -0.000003 0.000016 -0.000002 -0.005365 -0.000004 0.028050
#
#
# Mechanical properties :
#
#
# Convention : Reuss Voigt Hill
#
# Bulk Modulus (GPa) = 36.10932 62.62013 49.36473
# Shear Modulus (GPa) = 21.68408 27.80636 24.74522
#
# Velocity S-wave (km/s) = 3.39920 3.84927 3.63122
# Velocity P-wave (km/s) = 5.88620 7.28860 6.62461
#
# Compressibility (1/GPa) = 0.02769368
#
# Stress axis : x y z
#
# Youngs Moduli (GPa) = 89.71657 25.13581 91.38100
#
# Poissons Ratio (x) = 0.25747 0.30439
# Poissons Ratio (y) = 0.91899 0.32125
# Poissons Ratio (z) = 0.29885 0.08836
#
# Static dielectric constant tensor:
#      x y z
#    x 3.514940 -0.000010 -0.012570 
#    y -0.000010 3.231410 0.000000 
#    z -0.012570 0.000000 3.625810 
# 
# 
# High freq. dielectric constant tensor:
#      x y z
#    x 1.740120 0.000000 -0.000380 
#    y 0.000000 1.708580 0.000000 
#    z -0.000380 0.000000 1.739070 
# 
# From -- ./inp_files/382234.got.cif
#   From: 2010.06.25/outbox.cif.g09.slc.cpg/sg12_192_cif.got.tgz:382234.got - 2010.06.28 00:19:55.
