data_PCOD8099727
_publ_section_title
;
Structure prediction by ZEFSAII (Michael W. Deem and Ramdas Pophale) SiO2 
 PCOD8099727
Probable space group: C 2/M
;
_chemical_formula_sum "Si O2"
_cell_formula_units_Z 56
_cell_length_a 13.723640
_cell_length_b 17.770727
_cell_length_c 11.076483
_cell_angle_alpha 90.000000
_cell_angle_beta 54.233093
_cell_angle_gamma 90.000000
_cell_volume 2191.857055
_symmetry_space_group_name_H-M "C 2/M"
_symmetry_group_IT_number 12
_symmetry_cell_setting 'monoclinic'
loop_
_space_group_symop_operation_xyz
x,y,z
-x,y,-z
-x,-y,-z
x,-y,z
1/2+x,1/2+y,z
1/2-x,1/2+y,-z
1/2-x,1/2-y,-z
1/2+x,1/2-y,z
loop_
_atom_site_type_symbol
_atom_site_label
_atom_site_fract_x
_atom_site_fract_y
_atom_site_fract_z
Si Si1 0.308044 0.588582 0.496691
Si Si2 0.186781 0.832986 0.758869
Si Si3 0.034970 0.170678 0.313651
Si Si4 0.369907 0.916208 0.939661
Si Si5 0.400782 0.585210 0.959073
Si Si6 0.946985 0.663095 0.661736
Si Si7 0.196512 0.665568 0.785183
O O1 0.313563 0.500000 0.473020
O O2 0.278856 0.630912 0.393243
O O3 0.436378 0.619634 0.455410
O O4 0.200899 0.610161 0.666231
O O5 0.096134 0.886599 0.902514
O O6 0.305629 0.825658 0.752706
O O7 0.144079 0.746118 0.781127
O O8 0.989520 0.256409 0.360317
O O9 0.168235 0.162961 0.262751
O O10 0.022394 0.142784 0.181967
O O11 0.234296 0.913740 0.991068
O O12 0.463628 0.888346 0.768595
O O13 0.407430 0.000000 0.947371
O O14 0.387486 0.865923 0.047064
O O15 0.451603 0.500000 0.913551
O O16 0.000000 0.626124 0.500000
#
# Coordination Sequence:
#
# PCOD8099727 Si02
#       7
#     8   8   8   8   8   8   8
#     4  12  24  36  56  87 123 155 184 229 289 347
#     4  10  21  37  56  82 115 154 195 231 281 343
#     4  10  20  35  56  85 115 150 192 231 277 337
#     4   9  18  33  56  84 108 138 188 244 290 327
#     4   9  17  32  54  80 115 151 186 233 283 335
#     4  10  20  37  61  85 110 145 193 243 284 331
#     4  10  20  37  58  80 113 155 196 234 274 334
#
# _framework density 25.549109999999999
#
# number of rings (size 3 to 8) (size 9 to 14) (size 15 to 20)
#    0.000    2.000    0.000    4.714    0.000    7.143 
#    0.000    1.429    0.000    2.571    0.000    5.000 
#    0.000    0.000    0.000    0.000    0.000    0.000 
#
# Total GULP energy -347144.342888 kJ/mol
# GULP energy per Si atom -12398.012246 kJ/mol
# Density = 2.549096 g / cm^3
# Si number density = 25.549110 Si / 1000 Ang^3
#
#
#
# Elastic Constant Matrix: (Units=GPa)
#
#
# Indices 1 2 3 4 5 6 
#
# 1 36.6717 12.6460 2.4619 0.0000 7.5839 0.0000
# 2 12.6460 194.8991 87.4879 0.0000 16.0362 0.0000
# 3 2.4619 87.4879 216.4713 0.0000 32.0374 0.0000
# 4 0.0000 0.0000 0.0000 46.5623 0.0000 1.3166
# 5 7.5839 16.0362 32.0374 0.0000 28.8274 0.0000
# 6 0.0000 0.0000 0.0000 1.3166 0.0000 26.8677
#
#
#
# Elastic Compliance Matrix: (Units=1/GPa)
#
#
# Indices 1 2 3 4 5 6 
#
# 1 0.029624 -0.001996 0.001746 0.000000 -0.008623 0.000000
# 2 -0.001996 0.006418 -0.002538 0.000000 -0.000224 0.000000
# 3 0.001746 -0.002538 0.006564 0.000000 -0.006343 0.000000
# 4 0.000000 0.000000 0.000000 0.021506 0.000000 -0.001054
# 5 -0.008623 -0.000224 -0.006343 0.000000 0.044132 0.000000
# 6 0.000000 0.000000 0.000000 -0.001054 0.000000 0.037271
#
#
# Mechanical properties :
#
#
# Convention : Reuss Voigt Hill
#
# Bulk Modulus (GPa) = 27.00552 72.58154 49.79353
# Shear Modulus (GPa) = 30.59326 43.48121 37.03724
#
# Velocity S-wave (km/s) = 3.46414 4.12985 3.81156
# Velocity P-wave (km/s) = 5.15688 7.15620 6.23717
#
# Compressibility (1/GPa) = 0.03702947
#
# Stress axis : x y z
#
# Youngs Moduli (GPa) = 33.75683 155.80822 152.34310
#
# Poissons Ratio (x) = 0.31106 -0.26603
# Poissons Ratio (y) = 0.06739 0.38665
# Poissons Ratio (z) = -0.05895 0.39544
#
# Static dielectric constant tensor:
#      x y z
#    x 4.553190 0.000000 0.069780 
#    y 0.000000 4.603900 0.000000 
#    z 0.069780 0.000000 4.911600 
# 
# 
# High freq. dielectric constant tensor:
#      x y z
#    x 2.035680 0.000000 0.008140 
#    y 0.000000 2.006180 0.000000 
#    z 0.008140 0.000000 2.035440 
# 
# From -- ./inp_files/168396.got.cif
#   From: 2010.06.25/outbox.cif.g09.slc.cpg/sg12_85_cif.got.tgz:168396.got - 2010.06.28 00:19:55.
