data_PCOD8099754
_publ_section_title
;
Structure prediction by ZEFSAII (Michael W. Deem and Ramdas Pophale) SiO2 
 PCOD8099754
Probable space group: C 2/M
;
_chemical_formula_sum "Si O2"
_cell_formula_units_Z 64
_cell_length_a 25.428142
_cell_length_b 14.488156
_cell_length_c 14.592206
_cell_angle_alpha 90.000000
_cell_angle_beta 141.550022
_cell_angle_gamma 90.000000
_cell_volume 3342.882899
_symmetry_space_group_name_H-M "C 2/M"
_symmetry_group_IT_number 12
_symmetry_cell_setting 'monoclinic'
loop_
_space_group_symop_operation_xyz
x,y,z
-x,y,-z
-x,-y,-z
x,-y,z
1/2+x,1/2+y,z
1/2-x,1/2+y,-z
1/2-x,1/2-y,-z
1/2+x,1/2-y,z
loop_
_atom_site_type_symbol
_atom_site_label
_atom_site_fract_x
_atom_site_fract_y
_atom_site_fract_z
Si Si1 0.673738 0.269591 0.829144
Si Si2 0.020296 0.106818 0.633680
Si Si3 0.451722 0.101484 0.157049
Si Si4 0.201191 0.606215 0.324664
Si Si5 0.066382 0.603912 0.665231
Si Si6 0.604611 0.606972 0.371708
Si Si7 0.727854 0.898574 0.154143
Si Si8 0.548459 0.763350 0.162030
O O1 0.597833 0.328024 0.772941
O O2 0.645683 0.169382 0.757961
O O3 0.701912 0.325121 0.777478
O O4 0.750000 0.250000 0.000000
O O5 0.000000 0.131535 0.500000
O O6 0.941312 0.128082 0.593609
O O7 0.047434 0.000000 0.679524
O O8 0.480235 0.117151 0.300517
O O9 0.484594 0.180561 0.137401
O O10 0.480900 0.000000 0.161280
O O11 0.349848 0.105986 0.022524
O O12 0.179443 0.500000 0.322153
O O13 0.296366 0.631360 0.484049
O O14 0.190701 0.621431 0.202724
O O15 0.134588 0.677085 0.277100
O O16 0.098875 0.500000 0.695668
O O17 0.000000 0.634630 0.500000
O O18 0.592128 0.500000 0.328445
O O19 0.566939 0.665930 0.236093
O O20 0.771246 0.000000 0.211524
O O21 0.500000 0.745921 0.000000
#
# Coordination Sequence:
#
# PCOD8099754 Si02
#       8
#     8   8   8   8   8   8   8   8
#     4  12  22  32  56  86 118 150 194 237 289 340
#     4  10  21  39  62  88 116 152 195 241 292 347
#     4  10  20  36  58  87 119 147 184 242 300 347
#     4  10  21  39  63  90 115 145 190 252 309 348
#     4  10  22  40  58  80 118 164 198 228 280 350
#     4  10  23  41  59  83 122 161 197 238 287 349
#     4  10  20  35  56  86 120 147 182 240 305 346
#     4  12  23  37  63  89 117 150 200 243 296 355
#
# _framework density 19.145152
#
# number of rings (size 3 to 8) (size 9 to 14) (size 15 to 20)
#    0.000    1.500    2.500    3.000    0.000    4.250 
#    0.000    0.000    0.000    0.750    0.000    0.000 
#    0.000    0.000    0.000    0.000    0.000    0.000 
#
# Total GULP energy -396725.575446 kJ/mol
# GULP energy per Si atom -12397.674233 kJ/mol
# Density = 1.910158 g / cm^3
# Si number density = 19.145152 Si / 1000 Ang^3
#
#
#
# Elastic Constant Matrix: (Units=GPa)
#
#
# Indices 1 2 3 4 5 6 
#
# 1 79.5534 47.3314 43.0328 0.0000 2.2502 0.0000
# 2 47.3314 112.8023 64.3342 0.0000 6.0327 0.0000
# 3 43.0328 64.3342 116.6169 0.0000 -7.8724 0.0000
# 4 0.0000 0.0000 0.0000 34.2833 0.0000 4.0980
# 5 2.2502 6.0327 -7.8724 0.0000 30.3150 0.0000
# 6 0.0000 0.0000 0.0000 4.0980 0.0000 34.3307
#
#
#
# Elastic Compliance Matrix: (Units=1/GPa)
#
#
# Indices 1 2 3 4 5 6 
#
# 1 0.017751 -0.005250 -0.003738 0.000000 -0.001244 0.000000
# 2 -0.005250 0.015122 -0.006699 0.000000 -0.004359 0.000000
# 3 -0.003738 -0.006699 0.014005 0.000000 0.005247 0.000000
# 4 0.000000 0.000000 0.000000 0.029591 0.000000 -0.003532
# 5 -0.001244 -0.004359 0.005247 0.000000 0.035309 0.000000
# 6 0.000000 0.000000 0.000000 -0.003532 0.000000 0.029550
#
#
# Mechanical properties :
#
#
# Convention : Reuss Voigt Hill
#
# Bulk Modulus (GPa) = 64.50419 68.70771 66.60595
# Shear Modulus (GPa) = 28.11051 30.07074 29.09063
#
# Velocity S-wave (km/s) = 3.83598 3.96747 3.90228
# Velocity P-wave (km/s) = 7.30650 7.54675 7.42760
#
# Compressibility (1/GPa) = 0.01550287
#
# Stress axis : x y z
#
# Youngs Moduli (GPa) = 56.33561 66.12972 71.40553
#
# Poissons Ratio (x) = 0.34716 0.26692
# Poissons Ratio (y) = 0.29575 0.47837
# Poissons Ratio (z) = 0.21058 0.44303
#
# Static dielectric constant tensor:
#      x y z
#    x 3.436120 0.000000 -0.034640 
#    y 0.000000 3.672520 0.000000 
#    z -0.034640 0.000000 3.575040 
# 
# 
# High freq. dielectric constant tensor:
#      x y z
#    x 1.733760 0.000000 0.001740 
#    y 0.000000 1.753970 0.000000 
#    z 0.001740 0.000000 1.746210 
# 
# From -- ./inp_files/240724.got.cif
#   From: 2010.06.25/outbox.cif.g09.slc.cpg/sg12_121_cif.got.tgz:240724.got - 2010.06.28 00:19:55.
