data_PCOD8099436
_publ_section_title
;
Structure prediction by ZEFSAII (Michael W. Deem and Ramdas Pophale) SiO2 
 PCOD8099436
Probable space group: C 2/M
;
_chemical_formula_sum "Si O2"
_cell_formula_units_Z 60
_cell_length_a 9.193989
_cell_length_b 19.046257
_cell_length_c 24.528252
_cell_angle_alpha 90.000000
_cell_angle_beta 47.619475
_cell_angle_gamma 90.000000
_cell_volume 3172.774474
_symmetry_space_group_name_H-M "C 2/M"
_symmetry_group_IT_number 12
_symmetry_cell_setting 'monoclinic'
loop_
_space_group_symop_operation_xyz
x,y,z
-x,y,-z
-x,-y,-z
x,-y,z
1/2+x,1/2+y,z
1/2-x,1/2+y,-z
1/2-x,1/2-y,-z
1/2+x,1/2-y,z
loop_
_atom_site_type_symbol
_atom_site_label
_atom_site_fract_x
_atom_site_fract_y
_atom_site_fract_z
Si Si1 0.035550 0.820984 0.303163
Si Si2 0.054588 0.580482 0.284214
Si Si3 0.778287 0.082439 0.547169
Si Si4 0.428103 0.798930 0.901180
Si Si5 0.500000 0.745857 0.000000
Si Si6 0.795640 0.684167 0.525394
Si Si7 0.840560 0.203119 0.237709
Si Si8 0.378197 0.919831 0.210979
O O1 0.167985 0.758209 0.293219
O O2 0.154400 0.894044 0.275165
O O3 0.851844 0.829551 0.388282
O O4 0.974924 0.803270 0.256911
O O5 0.109992 0.500000 0.284307
O O6 0.245696 0.627755 0.247739
O O7 0.863727 0.604721 0.367199
O O8 0.999213 0.589412 0.235677
O O9 0.691840 0.114381 0.513873
O O10 0.000000 0.111778 0.500000
O O11 0.783685 0.000000 0.537989
O O12 0.477363 0.794432 0.952575
O O13 0.523982 0.732145 0.845685
O O14 0.516927 0.872887 0.860821
O O15 0.195019 0.802166 0.947755
O O16 0.750000 0.750000 0.500000
O O17 0.000000 0.701477 0.500000
O O18 0.374682 0.000000 0.192119
#
# Coordination Sequence:
#
# PCOD8099436 Si02
#       8
#     8   8   8   8   4   8   8   8
#     4  11  22  35  56  79 107 147 188 236 282 328
#     4  10  20  35  56  80 108 144 187 236 280 325
#     4  10  21  37  55  75 105 146 189 234 287 339
#     4  10  20  36  60  86 112 145 175 218 263 319
#     4  10  20  36  60  88 114 138 178 210 260 330
#     4  12  24  36  52  77 109 145 187 239 291 338
#     4  11  21  38  58  82 110 141 185 228 273 323
#     4  10  21  38  59  84 113 146 187 227 271 324
#
# _framework density 18.910893999999999
#
# number of rings (size 3 to 8) (size 9 to 14) (size 15 to 20)
#    0.000    1.467    0.000    7.600    0.000    2.400 
#    0.000    0.667    0.000    3.200    0.000    0.000 
#    0.000    0.000    0.000    0.000    0.000    0.000 
#
# Total GULP energy -372085.144988 kJ/mol
# GULP energy per Si atom -12402.838166 kJ/mol
# Density = 1.886785 g / cm^3
# Si number density = 18.910894 Si / 1000 Ang^3
#
#
#
# Elastic Constant Matrix: (Units=GPa)
#
#
# Indices 1 2 3 4 5 6 
#
# 1 103.6409 45.7462 28.6516 -0.0003 -5.6913 0.0022
# 2 45.7462 96.9928 47.1062 0.0080 -7.9060 -0.0007
# 3 28.6516 47.1062 112.4361 0.0197 -10.3471 -0.0024
# 4 -0.0003 0.0080 0.0197 8.0051 -0.0039 2.0489
# 5 -5.6913 -7.9060 -10.3471 -0.0039 35.0251 -0.0012
# 6 0.0022 -0.0007 -0.0024 2.0489 -0.0012 31.4971
#
#
#
# Elastic Compliance Matrix: (Units=1/GPa)
#
#
# Indices 1 2 3 4 5 6 
#
# 1 0.012264 -0.005332 -0.000842 0.000009 0.000541 -0.000002
# 2 -0.005332 0.015324 -0.004958 -0.000003 0.001128 0.000001
# 3 -0.000842 -0.004958 0.011379 -0.000023 0.002106 0.000002
# 4 0.000009 -0.000003 -0.000023 0.127036 0.000008 -0.008264
# 5 0.000541 0.001128 0.002106 0.000008 0.029516 0.000001
# 6 -0.000002 0.000001 0.000002 -0.008264 0.000001 0.032286
#
#
# Mechanical properties :
#
#
# Convention : Reuss Voigt Hill
#
# Bulk Modulus (GPa) = 59.85958 61.78642 60.82300
# Shear Modulus (GPa) = 19.55898 27.67650 23.61774
#
# Velocity S-wave (km/s) = 3.21950 3.82975 3.53781
# Velocity P-wave (km/s) = 6.74851 7.23183 6.99434
#
# Compressibility (1/GPa) = 0.01670576
#
# Stress axis : x y z
#
# Youngs Moduli (GPa) = 81.53670 65.25506 87.87794
#
# Poissons Ratio (x) = 0.34791 0.07398
# Poissons Ratio (y) = 0.43472 0.43569
# Poissons Ratio (z) = 0.06864 0.32353
#
# Static dielectric constant tensor:
#      x y z
#    x 3.671580 -0.000010 -0.056980 
#    y -0.000010 3.451160 0.000010 
#    z -0.056980 0.000010 3.589760 
# 
# 
# High freq. dielectric constant tensor:
#      x y z
#    x 1.747140 0.000000 0.000420 
#    y 0.000000 1.727520 0.000000 
#    z 0.000420 0.000000 1.740740 
# 
# From -- ./inp_files/301890.got.cif
#   From: 2010.06.25/outbox.cif.g09.slc.cpg/sg12_151_cif.got.tgz:301890.got - 2010.06.28 00:19:55.
