data_PCOD8099595
_publ_section_title
;
Structure prediction by ZEFSAII (Michael W. Deem and Ramdas Pophale) SiO2 
 PCOD8099595
Probable space group: C 2/M
;
_chemical_formula_sum "Si O2"
_cell_formula_units_Z 48
_cell_length_a 18.766639
_cell_length_b 8.716648
_cell_length_c 17.961907
_cell_angle_alpha 90.000000
_cell_angle_beta 58.132187
_cell_angle_gamma 90.000000
_cell_volume 2495.361234
_symmetry_space_group_name_H-M "C 2/M"
_symmetry_group_IT_number 12
_symmetry_cell_setting 'monoclinic'
loop_
_space_group_symop_operation_xyz
x,y,z
-x,y,-z
-x,-y,-z
x,-y,z
1/2+x,1/2+y,z
1/2-x,1/2+y,-z
1/2-x,1/2-y,-z
1/2+x,1/2-y,z
loop_
_atom_site_type_symbol
_atom_site_label
_atom_site_fract_x
_atom_site_fract_y
_atom_site_fract_z
Si Si1 0.930444 0.681014 0.733640
Si Si2 0.088089 0.819282 0.415136
Si Si3 0.993858 0.174328 0.923112
Si Si4 0.668903 0.674666 0.079075
Si Si5 0.581022 0.320023 0.731505
Si Si6 0.262568 0.180225 0.573623
O O1 0.932553 0.500000 0.733473
O O2 0.900991 0.736983 0.669496
O O3 0.862025 0.737571 0.830683
O O4 0.023988 0.742510 0.699367
O O5 0.161094 0.764785 0.429417
O O6 0.000000 0.771427 0.500000
O O7 0.094281 0.000000 0.399859
O O8 0.054925 0.248529 0.826825
O O9 0.899010 0.184868 0.948528
O O10 0.024218 0.000000 0.917224
O O11 0.000000 0.259737 0.000000
O O12 0.687293 0.500000 0.091742
O O13 0.750000 0.750000 0.000000
O O14 0.559425 0.500000 0.739420
O O15 0.678323 0.285810 0.666427
O O16 0.250000 0.250000 0.500000
O O17 0.281011 0.000000 0.557825
#
# Coordination Sequence:
#
# PCOD8099595 Si02
#       6
#     8   8   8   8   8   8
#     4  11  22  37  59  84 112 149 193 238 285 339
#     4  11  24  41  60  83 114 150 188 235 290 343
#     4   8  15  30  53  78 104 138 179 221 268 325
#     4  10  20  35  56  82 114 150 189 235 286 338
#     4   9  19  36  56  80 112 147 182 227 283 337
#     4  11  23  38  58  84 114 148 187 231 281 338
#
# _framework density 19.235690999999999
#
# number of rings (size 3 to 8) (size 9 to 14) (size 15 to 20)
#    0.000    2.000    0.000    5.000    0.000    8.000 
#    0.000    3.333    0.000   12.500    0.000    0.000 
#    0.000    0.000    0.000    0.000    0.000    0.000 
#
# Total GULP energy -297615.634883 kJ/mol
# GULP energy per Si atom -12400.651453 kJ/mol
# Density = 1.919191 g / cm^3
# Si number density = 19.235691 Si / 1000 Ang^3
#
#
#
# Elastic Constant Matrix: (Units=GPa)
#
#
# Indices 1 2 3 4 5 6 
#
# 1 114.2472 46.5798 73.8390 -0.0001 3.2703 -0.0007
# 2 46.5798 97.0205 50.6004 -0.0001 -5.0498 -0.0011
# 3 73.8390 50.6004 121.2429 0.0000 4.2344 -0.0001
# 4 -0.0001 -0.0001 0.0000 30.3368 0.0000 -1.2057
# 5 3.2703 -5.0498 4.2344 0.0000 42.7336 0.0000
# 6 -0.0007 -0.0011 -0.0001 -1.2057 0.0000 29.7050
#
#
#
# Elastic Compliance Matrix: (Units=1/GPa)
#
#
# Indices 1 2 3 4 5 6 
#
# 1 0.015175 -0.003220 -0.007871 0.000000 -0.000762 0.000000
# 2 -0.003220 0.014050 -0.003983 0.000000 0.002301 0.000000
# 3 -0.007871 -0.003983 0.014751 0.000000 -0.001330 0.000000
# 4 0.000000 0.000000 0.000000 0.033017 0.000000 0.001340
# 5 -0.000762 0.002301 -0.001330 0.000000 0.023863 0.000000
# 6 0.000000 0.000000 0.000000 0.001340 0.000000 0.033719
#
#
# Mechanical properties :
#
#
# Convention : Reuss Voigt Hill
#
# Bulk Modulus (GPa) = 72.32394 74.94989 73.63692
# Shear Modulus (GPa) = 29.52789 31.32117 30.42453
#
# Velocity S-wave (km/s) = 3.92223 4.03958 3.98134
# Velocity P-wave (km/s) = 7.62839 7.79783 7.71357
#
# Compressibility (1/GPa) = 0.01382668
#
# Stress axis : x y z
#
# Youngs Moduli (GPa) = 65.89846 71.17349 67.79430
#
# Poissons Ratio (x) = 0.22917 0.53363
# Poissons Ratio (y) = 0.21219 0.27004
# Poissons Ratio (z) = 0.51871 0.28350
#
# Static dielectric constant tensor:
#      x y z
#    x 3.150020 0.000000 0.277880 
#    y 0.000000 3.484520 0.000000 
#    z 0.277880 0.000000 3.599540 
# 
# 
# High freq. dielectric constant tensor:
#      x y z
#    x 1.748570 0.000000 0.001910 
#    y 0.000000 1.739810 0.000000 
#    z 0.001910 0.000000 1.765890 
# 
# From -- ./inp_files/274077.got.cif
#   From: 2010.06.25/outbox.cif.g09.slc.cpg/sg12_138_cif.got.tgz:274077.got - 2010.06.28 00:19:55.
