data_PCOD8099211
_publ_section_title
;
Structure prediction by ZEFSAII (Michael W. Deem and Ramdas Pophale) SiO2 
 PCOD8099211
Probable space group: C 2/M
;
_chemical_formula_sum "Si O2"
_cell_formula_units_Z 56
_cell_length_a 17.110197
_cell_length_b 15.392809
_cell_length_c 14.867446
_cell_angle_alpha 90.000000
_cell_angle_beta 127.599651
_cell_angle_gamma 90.000000
_cell_volume 3102.382031
_symmetry_space_group_name_H-M "C 2/M"
_symmetry_group_IT_number 12
_symmetry_cell_setting 'monoclinic'
loop_
_space_group_symop_operation_xyz
x,y,z
-x,y,-z
-x,-y,-z
x,-y,z
1/2+x,1/2+y,z
1/2-x,1/2+y,-z
1/2-x,1/2-y,-z
1/2+x,1/2-y,z
loop_
_atom_site_type_symbol
_atom_site_label
_atom_site_fract_x
_atom_site_fract_y
_atom_site_fract_z
Si Si1 0.551143 0.000000 0.171461
Si Si2 0.908564 0.767520 0.125110
Si Si3 0.464633 0.596761 0.873776
Si Si4 0.849700 0.500000 0.949570
Si Si5 0.092480 0.336314 0.315290
Si Si6 0.895013 0.398464 0.472783
Si Si7 0.783209 0.782399 0.713299
Si Si8 0.222299 0.685957 0.107679
O O1 0.595363 0.083744 0.249917
O O2 0.588910 0.000000 0.097666
O O3 0.430886 0.000000 0.087408
O O4 0.817243 0.774912 0.126869
O O5 0.952946 0.861137 0.132350
O O6 0.987911 0.710540 0.233294
O O7 0.876954 0.722363 0.009010
O O8 0.447007 0.500000 0.824891
O O9 0.363104 0.647549 0.798121
O O10 0.500000 0.595849 0.000000
O O11 0.777890 0.582444 0.904144
O O12 0.103703 0.372019 0.422791
O O13 0.181268 0.270130 0.350788
O O14 0.864601 0.500000 0.441803
O O15 0.817705 0.334584 0.370977
O O16 0.000000 0.382131 0.500000
O O17 0.772739 0.712155 0.785008
#
# Coordination Sequence:
#
# PCOD8099211 Si02
#       8
#     4   8   8   4   8   8   8   8
#     4  11  20  34  59  92 116 146 200 240 288 336
#     4  10  22  35  56  82 119 153 189 237 285 346
#     4  10  20  35  55  80 111 154 194 233 275 339
#     4  11  22  34  60  86 121 156 186 242 288 347
#     4  11  21  39  61  85 114 153 194 244 286 345
#     4  11  24  41  61  86 116 150 193 246 296 343
#     4  11  22  38  61  83 115 151 196 238 286 348
#     4  11  21  36  53  87 118 152 191 232 291 341
#
# _framework density 18.050646
#
# number of rings (size 3 to 8) (size 9 to 14) (size 15 to 20)
#    0.000    1.286    5.000    1.714    1.000    0.000 
#    0.000    0.000    0.000    0.000    0.000    2.000 
#    0.000    0.000    0.000    0.000    0.000    0.000 
#
# Total GULP energy -347217.870651 kJ/mol
# GULP energy per Si atom -12400.638238 kJ/mol
# Density = 1.800956 g / cm^3
# Si number density = 18.050646 Si / 1000 Ang^3
#
#
#
# Elastic Constant Matrix: (Units=GPa)
#
#
# Indices 1 2 3 4 5 6 
#
# 1 70.7087 30.6021 26.2166 0.0000 5.2405 0.0000
# 2 30.6021 127.2851 34.0371 0.0000 10.5438 0.0000
# 3 26.2166 34.0371 72.0024 0.0000 2.2158 0.0000
# 4 0.0000 0.0000 0.0000 21.0405 0.0000 -9.5736
# 5 5.2405 10.5438 2.2158 0.0000 26.3357 0.0000
# 6 0.0000 0.0000 0.0000 -9.5736 0.0000 20.3573
#
#
#
# Elastic Compliance Matrix: (Units=1/GPa)
#
#
# Indices 1 2 3 4 5 6 
#
# 1 0.017284 -0.002664 -0.004974 0.000000 -0.001955 0.000000
# 2 -0.002664 0.009690 -0.003517 0.000000 -0.003054 0.000000
# 3 -0.004974 -0.003517 0.017333 0.000000 0.000940 0.000000
# 4 0.000000 0.000000 0.000000 0.060466 0.000000 0.028436
# 5 -0.001955 -0.003054 0.000940 0.000000 0.039504 0.000000
# 6 0.000000 0.000000 0.000000 0.028436 0.000000 0.062495
#
#
# Mechanical properties :
#
#
# Convention : Reuss Voigt Hill
#
# Bulk Modulus (GPa) = 45.45762 50.18975 47.82369
# Shear Modulus (GPa) = 21.14928 25.48938 23.31933
#
# Velocity S-wave (km/s) = 3.42667 3.76187 3.59818
# Velocity P-wave (km/s) = 6.39485 6.83625 6.61923
#
# Compressibility (1/GPa) = 0.02199851
#
# Stress axis : x y z
#
# Youngs Moduli (GPa) = 57.85563 103.19741 57.69281
#
# Poissons Ratio (x) = 0.27487 0.28697
# Poissons Ratio (y) = 0.15410 0.20290
# Poissons Ratio (z) = 0.28778 0.36294
#
# Static dielectric constant tensor:
#      x y z
#    x 3.232820 0.000000 0.026650 
#    y 0.000000 3.560030 0.000000 
#    z 0.026650 0.000000 3.363720 
# 
# 
# High freq. dielectric constant tensor:
#      x y z
#    x 1.699310 0.000000 -0.000750 
#    y 0.000000 1.713980 0.000000 
#    z -0.000750 0.000000 1.692280 
# 
# From -- ./inp_files/225426.got.cif
#   From: 2010.06.25/outbox.cif.g09.slc.cpg/sg12_113_cif.got.tgz:225426.got - 2010.06.28 00:19:55.
