data_PCOD8099819
_publ_section_title
;
Structure prediction by ZEFSAII (Michael W. Deem and Ramdas Pophale) SiO2 
 PCOD8099819
Probable space group: C 2/M
;
_chemical_formula_sum "Si O2"
_cell_formula_units_Z 56
_cell_length_a 9.322007
_cell_length_b 10.410700
_cell_length_c 30.325170
_cell_angle_alpha 90.000000
_cell_angle_beta 71.009005
_cell_angle_gamma 90.000000
_cell_volume 2782.826707
_symmetry_space_group_name_H-M "C 2/M"
_symmetry_group_IT_number 12
_symmetry_cell_setting 'monoclinic'
loop_
_space_group_symop_operation_xyz
x,y,z
-x,y,-z
-x,-y,-z
x,-y,z
1/2+x,1/2+y,z
1/2-x,1/2+y,-z
1/2-x,1/2-y,-z
1/2+x,1/2-y,z
loop_
_atom_site_type_symbol
_atom_site_label
_atom_site_fract_x
_atom_site_fract_y
_atom_site_fract_z
Si Si1 0.624478 0.642981 0.751641
Si Si2 0.302281 0.718451 0.811152
Si Si3 0.128197 0.500000 0.522368
Si Si4 0.261485 0.649587 0.351361
Si Si5 0.447039 0.763557 0.409230
Si Si6 0.052828 0.000000 0.544342
Si Si7 0.481571 0.858262 0.870219
Si Si8 0.124629 0.352790 0.024850
O O1 0.683960 0.500000 0.741541
O O2 0.441489 0.641190 0.775514
O O3 0.720746 0.695520 0.782723
O O4 0.668576 0.709684 0.700859
O O5 0.382019 0.790304 0.843316
O O6 0.163458 0.635521 0.844137
O O7 0.267098 0.500000 0.474899
O O8 0.000000 0.500000 0.500000
O O9 0.125175 0.368689 0.550728
O O10 0.305269 0.500000 0.352925
O O11 0.320053 0.730127 0.386586
O O12 0.081883 0.669025 0.368903
O O13 0.504032 0.631430 0.426713
O O14 0.000000 0.000000 0.500000
O O15 0.449038 0.802319 0.922014
O O16 0.417497 0.000000 0.875199
O O17 0.187885 0.500000 0.022148
O O18 0.250000 0.250000 0.000000
O O19 0.000000 0.347961 0.000000
#
# Coordination Sequence:
#
# PCOD8099819 Si02
#       8
#     8   8   4   8   8   4   8   8
#     4  10  21  37  60  84 118 150 190 240 294 353
#     4  10  20  36  57  87 111 151 196 238 297 356
#     4  12  24  42  66  94 124 162 196 246 298 346
#     4  11  23  42  62  91 122 159 196 246 295 352
#     4  12  23  43  66  90 126 159 200 242 297 350
#     4  12  24  40  62  96 122 154 204 246 284 354
#     4  10  20  35  57  81 117 152 194 249 299 351
#     4  10  21  37  56  83 118 159 203 250 301 357
#
# _framework density 20.123424
#
# number of rings (size 3 to 8) (size 9 to 14) (size 15 to 20)
#    0.000    1.286    1.429    5.143    0.000    0.286 
#    0.000    3.571    6.286    0.000    0.000    0.000 
#    0.000    0.000    0.000    0.000    0.000    0.000 
#
# Total GULP energy -346979.642034 kJ/mol
# GULP energy per Si atom -12392.130073 kJ/mol
# Density = 2.007762 g / cm^3
# Si number density = 20.123424 Si / 1000 Ang^3
#
#
#
# Elastic Constant Matrix: (Units=GPa)
#
#
# Indices 1 2 3 4 5 6 
#
# 1 104.7754 27.8758 37.0964 0.0000 3.4018 0.0000
# 2 27.8758 88.1714 38.5823 0.0000 5.8775 0.0000
# 3 37.0964 38.5823 130.1547 0.0000 1.1020 0.0000
# 4 0.0000 0.0000 0.0000 30.2580 0.0000 -3.5898
# 5 3.4018 5.8775 1.1020 0.0000 31.8340 0.0000
# 6 0.0000 0.0000 0.0000 -3.5898 0.0000 23.7119
#
#
#
# Elastic Compliance Matrix: (Units=1/GPa)
#
#
# Indices 1 2 3 4 5 6 
#
# 1 0.011065 -0.002386 -0.002441 0.000000 -0.000657 0.000000
# 2 -0.002386 0.013713 -0.003367 0.000000 -0.002160 0.000000
# 3 -0.002441 -0.003367 0.009372 0.000000 0.000558 0.000000
# 4 0.000000 0.000000 0.000000 0.033654 0.000000 0.005095
# 5 -0.000657 -0.002160 0.000558 0.000000 0.031863 0.000000
# 6 0.000000 0.000000 0.000000 0.005095 0.000000 0.042944
#
#
# Mechanical properties :
#
#
# Convention : Reuss Voigt Hill
#
# Bulk Modulus (GPa) = 56.29798 58.91230 57.60514
# Shear Modulus (GPa) = 30.31802 31.79724 31.05763
#
# Velocity S-wave (km/s) = 3.88571 3.97937 3.93282
# Velocity P-wave (km/s) = 6.94037 7.10302 7.02217
#
# Compressibility (1/GPa) = 0.01776263
#
# Stress axis : x y z
#
# Youngs Moduli (GPa) = 90.37850 72.92255 106.70023
#
# Poissons Ratio (x) = 0.17402 0.26042
# Poissons Ratio (y) = 0.21567 0.35922
# Poissons Ratio (z) = 0.22058 0.24550
#
# Static dielectric constant tensor:
#      x y z
#    x 3.615450 0.000000 0.082990 
#    y 0.000000 3.842340 0.000000 
#    z 0.082990 0.000000 3.942390 
# 
# 
# High freq. dielectric constant tensor:
#      x y z
#    x 1.792750 0.000000 0.004970 
#    y 0.000000 1.780520 0.000000 
#    z 0.004970 0.000000 1.804110 
# 
# From -- ./inp_files/372112.got.cif
#   From: 2010.06.25/outbox.cif.g09.slc.cpg/sg12_187_cif.got.tgz:372112.got - 2010.06.28 00:19:55.
