data_PCOD8099406
_publ_section_title
;
Structure prediction by ZEFSAII (Michael W. Deem and Ramdas Pophale) SiO2 
 PCOD8099406
Probable space group: C 2/M
;
_chemical_formula_sum "Si O2"
_cell_formula_units_Z 40
_cell_length_a 10.015134
_cell_length_b 10.298112
_cell_length_c 19.629490
_cell_angle_alpha 90.000000
_cell_angle_beta 102.573513
_cell_angle_gamma 90.000000
_cell_volume 1975.972959
_symmetry_space_group_name_H-M "C 2/M"
_symmetry_group_IT_number 12
_symmetry_cell_setting 'monoclinic'
loop_
_space_group_symop_operation_xyz
x,y,z
-x,y,-z
-x,-y,-z
x,-y,z
1/2+x,1/2+y,z
1/2-x,1/2+y,-z
1/2-x,1/2-y,-z
1/2+x,1/2-y,z
loop_
_atom_site_type_symbol
_atom_site_label
_atom_site_fract_x
_atom_site_fract_y
_atom_site_fract_z
Si Si1 0.368540 0.851173 0.030426
Si Si2 0.633195 0.639635 0.443812
Si Si3 0.046938 0.649043 0.805198
Si Si4 0.266654 0.644767 0.250677
Si Si5 0.154079 0.787605 0.595291
O O1 0.406875 0.832625 0.112704
O O2 0.320987 0.000000 0.010486
O O3 0.500000 0.816254 0.000000
O O4 0.250000 0.750000 0.000000
O O5 0.566158 0.500000 0.421425
O O6 0.756333 0.656785 0.403424
O O7 0.508542 0.741380 0.417584
O O8 0.687794 0.638923 0.527668
O O9 0.070656 0.500000 0.783474
O O10 0.132603 0.747512 0.768447
O O11 0.888092 0.687105 0.782176
O O12 0.294370 0.500000 0.223118
O O13 0.290103 0.634516 0.334074
#
# Coordination Sequence:
#
# PCOD8099406 Si02
#       5
#     8   8   8   8   8
#     4  10  21  39  62  87 116 148 184 228 276 327
#     4  10  20  36  54  77 110 141 183 239 284 326
#     4  10  23  39  57  86 118 147 185 231 275 331
#     4  11  22  38  59  82 114 154 191 229 281 337
#     4  10  20  35  56  80 106 145 189 230 280 334
#
# _framework density 20.243193000000002
#
# number of rings (size 3 to 8) (size 9 to 14) (size 15 to 20)
#    0.000    1.800    0.000    4.800    0.000    4.400 
#    0.000   10.000    0.000    0.000    0.000    0.000 
#    0.000    0.000    0.000    0.000    0.000    0.000 
#
# Total GULP energy -247830.258734 kJ/mol
# GULP energy per Si atom -12391.512937 kJ/mol
# Density = 2.019712 g / cm^3
# Si number density = 20.243193 Si / 1000 Ang^3
#
#
#
# Elastic Constant Matrix: (Units=GPa)
#
#
# Indices 1 2 3 4 5 6 
#
# 1 114.4583 63.6145 31.5259 0.0000 -0.0693 0.0000
# 2 63.6145 98.7339 30.0511 0.0000 -7.7147 0.0000
# 3 31.5259 30.0511 78.6497 0.0000 8.8325 0.0000
# 4 0.0000 0.0000 0.0000 9.0745 0.0000 4.7500
# 5 -0.0693 -7.7147 8.8325 0.0000 33.2496 0.0000
# 6 0.0000 0.0000 0.0000 4.7500 0.0000 33.2062
#
#
#
# Elastic Compliance Matrix: (Units=1/GPa)
#
#
# Indices 1 2 3 4 5 6 
#
# 1 0.014072 -0.008488 -0.002247 0.000000 -0.001343 0.000000
# 2 -0.008488 0.017104 -0.003687 0.000000 0.004930 0.000000
# 3 -0.002247 -0.003687 0.015585 0.000000 -0.005000 0.000000
# 4 0.000000 0.000000 0.000000 0.119118 0.000000 -0.017039
# 5 -0.001343 0.004930 -0.005000 0.000000 0.032545 0.000000
# 6 0.000000 0.000000 0.000000 -0.017039 0.000000 0.032552
#
#
# Mechanical properties :
#
#
# Convention : Reuss Voigt Hill
#
# Bulk Modulus (GPa) = 55.80609 60.24721 58.02665
# Shear Modulus (GPa) = 18.81160 26.21610 22.51385
#
# Velocity S-wave (km/s) = 3.05172 3.60259 3.33854
# Velocity P-wave (km/s) = 6.32811 6.86522 6.60213
#
# Compressibility (1/GPa) = 0.01791919
#
# Stress axis : x y z
#
# Youngs Moduli (GPa) = 71.06147 58.46454 64.16269
#
# Poissons Ratio (x) = 0.49624 0.14416
# Poissons Ratio (y) = 0.60317 0.23655
# Poissons Ratio (z) = 0.15966 0.21554
#
# Static dielectric constant tensor:
#      x y z
#    x 3.712780 0.000000 0.050760 
#    y 0.000000 3.733630 0.000000 
#    z 0.050760 0.000000 3.731700 
# 
# 
# High freq. dielectric constant tensor:
#      x y z
#    x 1.797330 0.000000 0.008830 
#    y 0.000000 1.779700 0.000000 
#    z 0.008830 0.000000 1.796320 
# 
# From -- ./inp_files/299062.got.cif
#   From: 2010.06.25/outbox.cif.g09.slc.cpg/sg12_150_cif.got.tgz:299062.got - 2010.06.28 00:19:55.
