data_PCOD8099337
_publ_section_title
;
Structure prediction by ZEFSAII (Michael W. Deem and Ramdas Pophale) SiO2 
 PCOD8099337
Probable space group: C 2/M
;
_chemical_formula_sum "Si O2"
_cell_formula_units_Z 48
_cell_length_a 24.881880
_cell_length_b 9.345140
_cell_length_c 12.232291
_cell_angle_alpha 90.000000
_cell_angle_beta 71.100918
_cell_angle_gamma 90.000000
_cell_volume 2690.974060
_symmetry_space_group_name_H-M "C 2/M"
_symmetry_group_IT_number 12
_symmetry_cell_setting 'monoclinic'
loop_
_space_group_symop_operation_xyz
x,y,z
-x,y,-z
-x,-y,-z
x,-y,z
1/2+x,1/2+y,z
1/2-x,1/2+y,-z
1/2-x,1/2-y,-z
1/2+x,1/2-y,z
loop_
_atom_site_type_symbol
_atom_site_label
_atom_site_fract_x
_atom_site_fract_y
_atom_site_fract_z
Si Si1 0.559997 0.831968 0.009875
Si Si2 0.061662 0.166821 0.623608
Si Si3 0.630685 0.162259 0.404002
Si Si4 0.950961 0.334939 0.734668
Si Si5 0.129589 0.165907 0.796132
Si Si6 0.254756 0.335161 0.385482
O O1 0.611086 0.753788 0.914383
O O2 0.568663 0.000000 0.988976
O O3 0.500000 0.781458 0.000000
O O4 0.563186 0.784263 0.133773
O O5 0.105873 0.228837 0.508049
O O6 0.085074 0.196360 0.728912
O O7 0.001356 0.243050 0.649027
O O8 0.054072 0.000000 0.604662
O O9 0.604842 0.190783 0.301426
O O10 0.698224 0.186267 0.350570
O O11 0.617044 0.000000 0.451349
O O12 0.970476 0.500000 0.721783
O O13 0.191904 0.220967 0.719833
O O14 0.130906 0.000000 0.827027
O O15 0.265145 0.500000 0.410297
O O16 0.250000 0.250000 0.500000
#
# Coordination Sequence:
#
# PCOD8099337 Si02
#       6
#     8   8   8   8   8   8
#     4  10  20  35  56  78 103 138 181 222 257 306
#     4  11  21  33  53  82 113 140 171 219 271 318
#     4  10  21  36  56  78 107 145 178 215 265 318
#     4  10  21  37  54  78 109 141 180 220 263 316
#     4  10  21  35  53  80 110 136 172 220 268 314
#     4  10  20  36  56  79 106 140 178 217 261 312
#
# _framework density 17.837406000000001
#
# number of rings (size 3 to 8) (size 9 to 14) (size 15 to 20)
#    0.000    1.833    3.333    1.000    0.000    5.000 
#    0.000    0.833    0.000    0.000    0.000    0.000 
#    0.000    0.000    0.000    0.000    0.000    0.000 
#
# Total GULP energy -297703.786220 kJ/mol
# GULP energy per Si atom -12404.324426 kJ/mol
# Density = 1.779681 g / cm^3
# Si number density = 17.837406 Si / 1000 Ang^3
#
#
#
# Elastic Constant Matrix: (Units=GPa)
#
#
# Indices 1 2 3 4 5 6 
#
# 1 104.4929 33.8305 30.0757 0.0000 -13.9988 0.0000
# 2 33.8305 58.5199 38.0412 0.0000 -7.8146 0.0000
# 3 30.0757 38.0412 85.9537 0.0000 -17.1645 0.0000
# 4 0.0000 0.0000 0.0000 32.4404 0.0000 -7.0355
# 5 -13.9988 -7.8146 -17.1645 0.0000 30.4744 0.0000
# 6 0.0000 0.0000 0.0000 -7.0355 0.0000 19.7907
#
#
#
# Elastic Compliance Matrix: (Units=1/GPa)
#
#
# Indices 1 2 3 4 5 6 
#
# 1 0.012260 -0.006016 -0.000913 0.000000 0.003574 0.000000
# 2 -0.006016 0.026944 -0.010131 0.000000 -0.001561 0.000000
# 3 -0.000913 -0.010131 0.017842 0.000000 0.007032 0.000000
# 4 0.000000 0.000000 0.000000 0.033401 0.000000 0.011874
# 5 0.003574 -0.001561 0.007032 0.000000 0.038017 0.000000
# 6 0.000000 0.000000 0.000000 0.011874 0.000000 0.054750
#
#
# Mechanical properties :
#
#
# Convention : Reuss Voigt Hill
#
# Bulk Modulus (GPa) = 43.62329 50.31792 46.97061
# Shear Modulus (GPa) = 22.22466 26.34237 24.28352
#
# Velocity S-wave (km/s) = 3.53364 3.84709 3.69369
# Velocity P-wave (km/s) = 6.41545 6.92849 6.67690
#
# Compressibility (1/GPa) = 0.02292353
#
# Stress axis : x y z
#
# Youngs Moduli (GPa) = 81.56884 37.11448 56.04828
#
# Poissons Ratio (x) = 0.22329 0.05118
# Poissons Ratio (y) = 0.49075 0.56784
# Poissons Ratio (z) = 0.07449 0.37601
#
# Static dielectric constant tensor:
#      x y z
#    x 3.488620 0.000000 -0.013980 
#    y 0.000000 3.272330 0.000000 
#    z -0.013980 0.000000 3.226810 
# 
# 
# High freq. dielectric constant tensor:
#      x y z
#    x 1.692710 0.000000 -0.001560 
#    y 0.000000 1.688590 0.000000 
#    z -0.001560 0.000000 1.683450 
# 
# From -- ./inp_files/172064.got.cif
#   From: 2010.06.25/outbox.cif.g09.slc.cpg/sg12_87_cif.got.tgz:172064.got - 2010.06.28 00:19:55.
