data_PCOD8099247
_publ_section_title
;
Structure prediction by ZEFSAII (Michael W. Deem and Ramdas Pophale) SiO2 
 PCOD8099247
Probable space group: C 2/M
;
_chemical_formula_sum "Si O2"
_cell_formula_units_Z 64
_cell_length_a 31.751385
_cell_length_b 8.437246
_cell_length_c 17.966874
_cell_angle_alpha 90.000000
_cell_angle_beta 41.074419
_cell_angle_gamma 90.000000
_cell_volume 3162.473402
_symmetry_space_group_name_H-M "C 2/M"
_symmetry_group_IT_number 12
_symmetry_cell_setting 'monoclinic'
loop_
_space_group_symop_operation_xyz
x,y,z
-x,y,-z
-x,-y,-z
x,-y,z
1/2+x,1/2+y,z
1/2-x,1/2+y,-z
1/2-x,1/2-y,-z
1/2+x,1/2-y,z
loop_
_atom_site_type_symbol
_atom_site_label
_atom_site_fract_x
_atom_site_fract_y
_atom_site_fract_z
Si Si1 0.552223 0.313063 0.166403
Si Si2 0.211160 0.815681 0.481976
Si Si3 0.571078 0.816733 0.891188
Si Si4 0.849437 0.184650 0.084963
Si Si5 0.417054 0.817483 0.296438
Si Si6 0.914179 0.184816 0.568450
Si Si7 0.457847 0.186474 0.662356
Si Si8 0.283942 0.814007 0.682985
O O1 0.543431 0.500000 0.167752
O O2 0.487284 0.226802 0.229973
O O3 0.569534 0.271074 0.227876
O O4 0.609244 0.242559 0.038208
O O5 0.250000 0.750000 0.500000
O O6 0.135100 0.789942 0.592751
O O7 0.234330 0.723958 0.377749
O O8 0.226336 0.000000 0.451962
O O9 0.619364 0.719857 0.877318
O O10 0.590795 0.787577 0.780422
O O11 0.574634 0.000000 0.909470
O O12 0.500000 0.750282 0.000000
O O13 0.775609 0.243095 0.185793
O O14 0.848394 0.000000 0.073946
O O15 0.404097 0.000000 0.333929
O O16 0.915679 0.250210 0.650208
O O17 0.845049 0.213244 0.625790
O O18 0.967201 0.273898 0.448240
O O19 0.930715 0.000000 0.546032
O O20 0.449059 0.000000 0.681458
O O21 0.298032 0.000000 0.673308
#
# Coordination Sequence:
#
# PCOD8099247 Si02
#       8
#     8   8   8   8   8   8   8   8
#     4  11  22  38  58  87 120 153 193 243 295 347
#     4  12  25  41  59  85 118 156 198 246 297 349
#     4  10  20  35  55  81 114 152 196 244 291 344
#     4  10  23  39  59  84 116 157 200 245 292 347
#     4  11  22  37  58  85 116 154 196 244 297 352
#     4  11  22  40  65  94 122 154 192 239 294 352
#     4  11  22  39  64  93 122 154 190 239 294 351
#     4  11  23  42  63  87 119 159 202 243 292 353
#
# _framework density 20.237324000000001
#
# number of rings (size 3 to 8) (size 9 to 14) (size 15 to 20)
#    0.000    1.125    1.250    6.750    0.000    4.750 
#    0.000    0.625    0.000    0.000    0.000    0.000 
#    0.000    0.000    0.000    0.000    0.000    0.000 
#
# Total GULP energy -396941.422938 kJ/mol
# GULP energy per Si atom -12404.419467 kJ/mol
# Density = 2.019126 g / cm^3
# Si number density = 20.237324 Si / 1000 Ang^3
#
#
#
# Elastic Constant Matrix: (Units=GPa)
#
#
# Indices 1 2 3 4 5 6 
#
# 1 91.4113 5.5922 40.4318 0.0112 5.5693 -0.0021
# 2 5.5922 38.1807 16.5289 0.0483 2.9847 -0.0131
# 3 40.4318 16.5289 105.2896 0.0538 7.7900 -0.0137
# 4 0.0112 0.0483 0.0538 21.3182 -0.0239 -2.7387
# 5 5.5693 2.9847 7.7900 -0.0239 32.7124 0.0002
# 6 -0.0021 -0.0131 -0.0137 -2.7387 0.0002 31.9382
#
#
#
# Elastic Compliance Matrix: (Units=1/GPa)
#
#
# Indices 1 2 3 4 5 6 
#
# 1 0.013218 0.000334 -0.005048 0.000004 -0.001079 -0.000001
# 2 0.000334 0.028186 -0.004437 -0.000054 -0.001572 0.000005
# 3 -0.005048 -0.004437 0.012255 -0.000020 -0.001654 0.000001
# 4 0.000004 -0.000054 -0.000020 0.047431 0.000044 0.004067
# 5 -0.001079 -0.001572 -0.001654 0.000044 0.031290 0.000002
# 6 -0.000001 0.000005 0.000001 0.004067 0.000002 0.031659
#
#
# Mechanical properties :
#
#
# Convention : Reuss Voigt Hill
#
# Bulk Modulus (GPa) = 28.28329 39.99861 34.14095
# Shear Modulus (GPa) = 25.75632 28.68236 27.21934
#
# Velocity S-wave (km/s) = 3.57138 3.76879 3.67141
# Velocity P-wave (km/s) = 5.56889 6.22463 5.90587
#
# Compressibility (1/GPa) = 0.03535657
#
# Stress axis : x y z
#
# Youngs Moduli (GPa) = 75.65587 35.47864 81.59890
#
# Poissons Ratio (x) = -0.01184 0.41194
# Poissons Ratio (y) = -0.02526 0.36203
# Poissons Ratio (z) = 0.38193 0.15741
#
# Static dielectric constant tensor:
#      x y z
#    x 3.632900 -0.000010 0.104740 
#    y -0.000010 3.655650 0.000070 
#    z 0.104740 0.000070 4.088340 
# 
# 
# High freq. dielectric constant tensor:
#      x y z
#    x 1.785640 0.000000 0.004230 
#    y 0.000000 1.794450 0.000000 
#    z 0.004230 0.000000 1.799230 
# 
# From -- ./inp_files/295566.got.cif
#   From: 2010.06.25/outbox.cif.g09.slc.cpg/sg12_148_cif.got.tgz:295566.got - 2010.06.28 00:19:55.
