data_PCOD8099813
_publ_section_title
;
Structure prediction by ZEFSAII (Michael W. Deem and Ramdas Pophale) SiO2 
 PCOD8099813
Probable space group: C 2/M
;
_chemical_formula_sum "Si O2"
_cell_formula_units_Z 64
_cell_length_a 13.632484
_cell_length_b 16.707091
_cell_length_c 28.335515
_cell_angle_alpha 90.000000
_cell_angle_beta 31.450769
_cell_angle_gamma 90.000000
_cell_volume 3367.305425
_symmetry_space_group_name_H-M "C 2/M"
_symmetry_group_IT_number 12
_symmetry_cell_setting 'monoclinic'
loop_
_space_group_symop_operation_xyz
x,y,z
-x,y,-z
-x,-y,-z
x,-y,z
1/2+x,1/2+y,z
1/2-x,1/2+y,-z
1/2-x,1/2-y,-z
1/2+x,1/2-y,z
loop_
_atom_site_type_symbol
_atom_site_label
_atom_site_fract_x
_atom_site_fract_y
_atom_site_fract_z
Si Si1 0.600144 0.671973 0.005297
Si Si2 0.386552 0.090941 0.950455
Si Si3 0.781743 0.585710 0.583430
Si Si4 0.312177 0.210896 0.166066
Si Si5 0.699456 0.326185 0.109087
Si Si6 0.139933 0.249752 0.485169
Si Si7 0.316253 0.407346 0.269570
Si Si8 0.476980 0.208036 0.647658
O O1 0.438504 0.711590 0.103434
O O2 0.500000 0.635030 0.000000
O O3 0.702863 0.603506 0.992943
O O4 0.759507 0.736814 0.926096
O O5 0.560932 0.143880 0.860188
O O6 0.449437 0.000000 0.922126
O O7 0.341930 0.114956 0.022998
O O8 0.700424 0.500000 0.596764
O O9 0.756588 0.662530 0.560169
O O10 0.693398 0.603510 0.670514
O O11 0.000000 0.573236 0.500000
O O12 0.232342 0.169737 0.151364
O O13 0.141570 0.234644 0.269650
O O14 0.489262 0.352575 0.181647
O O15 0.317862 0.188707 0.413199
O O16 0.000000 0.230302 0.500000
O O17 0.015462 0.244001 0.583274
O O18 0.344510 0.500000 0.243589
O O19 0.129894 0.374806 0.319782
#
# Coordination Sequence:
#
# PCOD8099813 Si02
#       8
#     8   8   8   8   8   8   8   8
#     4   9  19  37  56  79 112 154 193 225 262 317
#     4  11  21  35  56  82 119 151 182 227 273 328
#     4   9  16  30  50  76 111 138 165 222 288 334
#     4  10  21  35  55  83 110 148 188 226 278 328
#     4  10  20  35  57  81 112 148 186 229 277 326
#     4  10  20  36  55  82 111 142 187 230 280 339
#     4  11  20  31  54  84 114 143 181 230 280 332
#     4  11  21  34  56  81 111 146 186 233 276 331
#
# _framework density 19.006294
#
# number of rings (size 3 to 8) (size 9 to 14) (size 15 to 20)
#    0.000    1.875    2.500    5.250    0.000    1.750 
#    0.000    0.625    0.000    1.875    0.000    0.000 
#    0.000    0.000    0.000    0.000    0.000    0.000 
#
# Total GULP energy -396575.015025 kJ/mol
# GULP energy per Si atom -12392.969220 kJ/mol
# Density = 1.896303 g / cm^3
# Si number density = 19.006294 Si / 1000 Ang^3
#
#
#
# Elastic Constant Matrix: (Units=GPa)
#
#
# Indices 1 2 3 4 5 6 
#
# 1 102.6220 25.1081 38.2059 -0.0036 -2.3935 0.0011
# 2 25.1081 41.3478 19.3807 -0.0029 3.4264 0.0009
# 3 38.2059 19.3807 107.9782 -0.0020 2.1022 0.0107
# 4 -0.0036 -0.0029 -0.0020 16.4251 0.0073 -0.3349
# 5 -2.3935 3.4264 2.1022 0.0073 30.9627 0.0006
# 6 0.0011 0.0009 0.0107 -0.3349 0.0006 20.0449
#
#
#
# Elastic Compliance Matrix: (Units=1/GPa)
#
#
# Indices 1 2 3 4 5 6 
#
# 1 0.012560 -0.006205 -0.003367 0.000000 0.001886 0.000001
# 2 -0.006205 0.029684 -0.003063 0.000005 -0.003557 0.000001
# 3 -0.003367 -0.003063 0.011015 0.000000 -0.000669 -0.000006
# 4 0.000000 0.000005 0.000000 0.060903 -0.000015 0.001017
# 5 0.001886 -0.003557 -0.000669 -0.000015 0.032882 -0.000001
# 6 0.000001 0.000001 -0.000006 0.001017 -0.000001 0.049905
#
#
# Mechanical properties :
#
#
# Convention : Reuss Voigt Hill
#
# Bulk Modulus (GPa) = 35.72898 46.37082 41.04990
# Shear Modulus (GPa) = 21.59367 24.77009 23.18188
#
# Velocity S-wave (km/s) = 3.37431 3.61398 3.49620
# Velocity P-wave (km/s) = 5.83272 6.47032 6.15978
#
# Compressibility (1/GPa) = 0.02798848
#
# Stress axis : x y z
#
# Youngs Moduli (GPa) = 79.61610 33.68867 90.78253
#
# Poissons Ratio (x) = 0.20904 0.30568
# Poissons Ratio (y) = 0.49403 0.27807
# Poissons Ratio (z) = 0.26808 0.10319
#
# Static dielectric constant tensor:
#      x y z
#    x 3.571360 0.000000 0.115650 
#    y 0.000000 3.544880 0.000010 
#    z 0.115650 0.000010 4.113920 
# 
# 
# High freq. dielectric constant tensor:
#      x y z
#    x 1.730630 0.000000 -0.002410 
#    y 0.000000 1.705850 0.000000 
#    z -0.002410 0.000000 1.749310 
# 
# From -- ./inp_files/376782.got.cif
#   From: 2010.06.25/outbox.cif.g09.slc.cpg/sg12_189_cif.got.tgz:376782.got - 2010.06.28 00:19:55.
