data_PCOD8099637
_publ_section_title
;
Structure prediction by ZEFSAII (Michael W. Deem and Ramdas Pophale) SiO2 
 PCOD8099637
Probable space group: C 2/M
;
_chemical_formula_sum "Si O2"
_cell_formula_units_Z 56
_cell_length_a 18.433543
_cell_length_b 8.774768
_cell_length_c 18.470860
_cell_angle_alpha 90.000000
_cell_angle_beta 104.920393
_cell_angle_gamma 90.000000
_cell_volume 2886.932223
_symmetry_space_group_name_H-M "C 2/M"
_symmetry_group_IT_number 12
_symmetry_cell_setting 'monoclinic'
loop_
_space_group_symop_operation_xyz
x,y,z
-x,y,-z
-x,-y,-z
x,-y,z
1/2+x,1/2+y,z
1/2-x,1/2+y,-z
1/2-x,1/2-y,-z
1/2+x,1/2-y,z
loop_
_atom_site_type_symbol
_atom_site_label
_atom_site_fract_x
_atom_site_fract_y
_atom_site_fract_z
Si Si1 0.353610 0.179612 0.226271
Si Si2 0.008149 0.180675 0.232201
Si Si3 0.798883 0.822735 0.354615
Si Si4 0.525273 0.672432 0.932185
Si Si5 0.192998 0.827004 0.931480
Si Si6 0.086551 0.322983 0.508315
Si Si7 0.867512 0.676743 0.641160
O O1 0.437028 0.248719 0.255661
O O2 0.305008 0.226578 0.283011
O O3 0.309549 0.238219 0.144741
O O4 0.361089 0.000000 0.224263
O O5 0.085234 0.224563 0.290065
O O6 0.009739 0.245800 0.149950
O O7 0.996196 0.000000 0.228361
O O8 0.864845 0.779299 0.426033
O O9 0.719660 0.783355 0.371528
O O10 0.805233 0.000000 0.337126
O O11 0.495159 0.500000 0.928243
O O12 0.614232 0.679811 0.951609
O O13 0.500000 0.758143 0.000000
O O14 0.217292 0.000000 0.921537
O O15 0.250000 0.750000 0.000000
O O16 0.104206 0.500000 0.527792
O O17 0.107728 0.275853 0.432576
O O18 0.000000 0.285098 0.500000
O O19 0.884447 0.500000 0.660175
#
# Coordination Sequence:
#
# PCOD8099637 Si02
#       7
#     8   8   8   8   8   8   8
#     4  11  22  38  59  80 109 151 195 238 286 337
#     4  10  20  35  58  85 112 146 189 234 280 338
#     4  11  23  38  57  84 117 149 187 236 283 330
#     4   8  16  32  53  78 108 141 180 225 270 323
#     4  10  20  35  56  83 114 147 186 233 284 338
#     4  10  21  38  60  84 111 148 190 228 275 339
#     4  10  22  38  56  83 119 152 182 227 283 335
#
# _framework density 19.397753999999999
#
# number of rings (size 3 to 8) (size 9 to 14) (size 15 to 20)
#    0.000    2.000    0.000    4.714    0.000    4.286 
#    0.000    1.429    0.000   14.571    0.000    0.000 
#    0.000    0.000    0.000    0.000    0.000    0.000 
#
# Total GULP energy -347261.721380 kJ/mol
# GULP energy per Si atom -12402.204335 kJ/mol
# Density = 1.935360 g / cm^3
# Si number density = 19.397754 Si / 1000 Ang^3
#
#
#
# Elastic Constant Matrix: (Units=GPa)
#
#
# Indices 1 2 3 4 5 6 
#
# 1 102.6369 39.2805 70.1977 0.0000 -9.1349 0.0000
# 2 39.2805 94.6753 48.4399 0.0000 2.1388 0.0000
# 3 70.1977 48.4399 133.1391 0.0000 -2.9137 0.0000
# 4 0.0000 0.0000 0.0000 35.3749 0.0000 5.2343
# 5 -9.1349 2.1388 -2.9137 0.0000 42.1935 0.0000
# 6 0.0000 0.0000 0.0000 5.2343 0.0000 24.1056
#
#
#
# Elastic Compliance Matrix: (Units=1/GPa)
#
#
# Indices 1 2 3 4 5 6 
#
# 1 0.016238 -0.003027 -0.007391 0.000000 0.003158 0.000000
# 2 -0.003027 0.013584 -0.003381 0.000000 -0.001577 0.000000
# 3 -0.007391 -0.003381 0.012626 0.000000 -0.000557 0.000000
# 4 0.000000 0.000000 0.000000 0.029207 0.000000 -0.006342
# 5 0.003158 -0.001577 -0.000557 0.000000 0.024426 0.000000
# 6 0.000000 0.000000 0.000000 -0.006342 0.000000 0.042861
#
#
# Mechanical properties :
#
#
# Convention : Reuss Voigt Hill
#
# Bulk Modulus (GPa) = 67.34054 71.80973 69.57514
# Shear Modulus (GPa) = 29.15667 31.83704 30.49685
#
# Velocity S-wave (km/s) = 3.88118 4.05566 3.96938
# Velocity P-wave (km/s) = 7.40782 7.68317 7.54675
#
# Compressibility (1/GPa) = 0.01484989
#
# Stress axis : x y z
#
# Youngs Moduli (GPa) = 61.58571 73.61833 79.20394
#
# Poissons Ratio (x) = 0.22282 0.58539
# Poissons Ratio (y) = 0.18640 0.26777
# Poissons Ratio (z) = 0.45517 0.24889
#
# Static dielectric constant tensor:
#      x y z
#    x 3.561890 0.000000 -0.180540 
#    y 0.000000 3.484300 0.000000 
#    z -0.180540 0.000000 3.716310 
# 
# 
# High freq. dielectric constant tensor:
#      x y z
#    x 1.755410 0.000000 -0.004740 
#    y 0.000000 1.745780 0.000000 
#    z -0.004740 0.000000 1.770460 
# 
# From -- ./inp_files/275535.got.cif
#   From: 2010.06.25/outbox.cif.g09.slc.cpg/sg12_138_cif.got.tgz:275535.got - 2010.06.28 00:19:55.
