data_PCOD8099713
_publ_section_title
;
Structure prediction by ZEFSAII (Michael W. Deem and Ramdas Pophale) SiO2 
 PCOD8099713
Probable space group: C 2/M
;
_chemical_formula_sum "Si O2"
_cell_formula_units_Z 64
_cell_length_a 30.004678
_cell_length_b 8.962351
_cell_length_c 23.732623
_cell_angle_alpha 90.000000
_cell_angle_beta 150.226068
_cell_angle_gamma 90.000000
_cell_volume 3169.166793
_symmetry_space_group_name_H-M "C 2/M"
_symmetry_group_IT_number 12
_symmetry_cell_setting 'monoclinic'
loop_
_space_group_symop_operation_xyz
x,y,z
-x,y,-z
-x,-y,-z
x,-y,z
1/2+x,1/2+y,z
1/2-x,1/2+y,-z
1/2-x,1/2-y,-z
1/2+x,1/2-y,z
loop_
_atom_site_type_symbol
_atom_site_label
_atom_site_fract_x
_atom_site_fract_y
_atom_site_fract_z
Si Si1 0.644834 0.324652 0.107431
Si Si2 0.318133 0.162664 0.228937
Si Si3 0.673882 0.839317 0.887885
Si Si4 0.130802 0.823603 0.490539
Si Si5 0.485705 0.322726 0.847533
Si Si6 0.013362 0.322915 0.272791
Si Si7 0.007450 0.174339 0.569632
Si Si8 0.167848 0.676629 0.252259
O O1 0.639878 0.500000 0.115859
O O2 0.737418 0.279734 0.178886
O O3 0.640675 0.232969 0.160488
O O4 0.563868 0.278051 0.977370
O O5 0.286758 0.141944 0.131068
O O6 0.391950 0.289961 0.302682
O O7 0.353142 0.000000 0.289426
O O8 0.572949 0.773458 0.783887
O O9 0.668644 0.000000 0.912160
O O10 0.750000 0.750000 0.000000
O O11 0.102002 0.745328 0.400308
O O12 0.230793 0.780796 0.619347
O O13 0.065933 0.758129 0.468404
O O14 0.119896 0.000000 0.470489
O O15 0.480558 0.500000 0.834010
O O16 0.502678 0.246323 0.806211
O O17 0.392571 0.260079 0.768590
O O18 0.027113 0.500000 0.283387
O O19 0.000000 0.249244 0.500000
O O20 0.990523 0.000000 0.547915
O O21 0.152149 0.500000 0.237571
#
# Coordination Sequence:
#
# PCOD8099713 Si02
#       8
#     8   8   8   8   8   8   8   8
#     4  10  22  40  63  91 125 163 203 249 308 377
#     4  10  20  36  56  84 119 154 193 236 287 348
#     4  10  21  36  56  85 120 157 199 244 291 349
#     4  10  22  40  61  87 124 166 205 251 311 372
#     4  11  24  43  66  90 121 162 206 255 317 379
#     4  11  23  40  63  91 124 161 209 261 305 360
#     4  10  20  35  56  84 118 156 198 241 290 352
#     4  11  24  42  65  92 122 158 206 262 314 367
#
# _framework density 20.194583000000002
#
# number of rings (size 3 to 8) (size 9 to 14) (size 15 to 20)
#    0.000    1.625    1.250    3.000    0.000    8.250 
#    0.000    0.000    0.000    0.000    0.000    0.000 
#    0.000    0.000    0.000    0.000    0.000    0.000 
#
# Total GULP energy -396653.134469 kJ/mol
# GULP energy per Si atom -12395.410452 kJ/mol
# Density = 2.014862 g / cm^3
# Si number density = 20.194583 Si / 1000 Ang^3
#
#
#
# Elastic Constant Matrix: (Units=GPa)
#
#
# Indices 1 2 3 4 5 6 
#
# 1 91.4385 28.1336 20.4521 0.0000 1.3971 0.0000
# 2 28.1336 59.5944 38.4202 0.0000 -6.8418 0.0000
# 3 20.4521 38.4202 106.7610 0.0000 -5.6232 0.0000
# 4 0.0000 0.0000 0.0000 34.3453 0.0000 -1.9945
# 5 1.3971 -6.8418 -5.6232 0.0000 36.8902 0.0000
# 6 0.0000 0.0000 0.0000 -1.9945 0.0000 27.4556
#
#
#
# Elastic Compliance Matrix: (Units=1/GPa)
#
#
# Indices 1 2 3 4 5 6 
#
# 1 0.012905 -0.006033 -0.000389 0.000000 -0.001667 0.000000
# 2 -0.006033 0.024977 -0.007638 0.000000 0.003696 0.000000
# 3 -0.000389 -0.007638 0.012214 0.000000 0.000460 0.000000
# 4 0.000000 0.000000 0.000000 0.029239 0.000000 0.002124
# 5 -0.001667 0.003696 0.000460 0.000000 0.027926 0.000000
# 6 0.000000 0.000000 0.000000 0.002124 0.000000 0.036577
#
#
# Mechanical properties :
#
#
# Convention : Reuss Voigt Hill
#
# Bulk Modulus (GPa) = 45.50373 47.97842 46.74108
# Shear Modulus (GPa) = 27.88886 31.12408 29.50647
#
# Velocity S-wave (km/s) = 3.72022 3.93008 3.82659
# Velocity P-wave (km/s) = 6.40585 6.66361 6.53600
#
# Compressibility (1/GPa) = 0.02197622
#
# Stress axis : x y z
#
# Youngs Moduli (GPa) = 77.48968 40.03743 81.87241
#
# Poissons Ratio (x) = 0.24154 0.03184
# Poissons Ratio (y) = 0.46748 0.62534
# Poissons Ratio (z) = 0.03014 0.30580
#
# Static dielectric constant tensor:
#      x y z
#    x 3.363480 0.000000 0.005250 
#    y 0.000000 3.874080 0.000000 
#    z 0.005250 0.000000 3.655740 
# 
# 
# High freq. dielectric constant tensor:
#      x y z
#    x 1.799820 0.000000 -0.000940 
#    y 0.000000 1.784220 0.000000 
#    z -0.000940 0.000000 1.791980 
# 
# From -- ./inp_files/250022.got.cif
#   From: 2010.06.25/outbox.cif.g09.slc.cpg/sg12_126_cif.got.tgz:250022.got - 2010.06.28 00:19:55.
