data_PCOD8099287
_publ_section_title
;
Structure prediction by ZEFSAII (Michael W. Deem and Ramdas Pophale) SiO2 
 PCOD8099287
Probable space group: C 2/M
;
_chemical_formula_sum "Si O2"
_cell_formula_units_Z 64
_cell_length_a 29.954132
_cell_length_b 9.098664
_cell_length_c 25.261998
_cell_angle_alpha 90.000000
_cell_angle_beta 28.790100
_cell_angle_gamma 90.000000
_cell_volume 3315.817140
_symmetry_space_group_name_H-M "C 2/M"
_symmetry_group_IT_number 12
_symmetry_cell_setting 'monoclinic'
loop_
_space_group_symop_operation_xyz
x,y,z
-x,y,-z
-x,-y,-z
x,-y,z
1/2+x,1/2+y,z
1/2-x,1/2+y,-z
1/2-x,1/2-y,-z
1/2+x,1/2-y,z
loop_
_atom_site_type_symbol
_atom_site_label
_atom_site_fract_x
_atom_site_fract_y
_atom_site_fract_z
Si Si1 0.085538 0.170751 0.573235
Si Si2 0.651099 0.826608 0.605063
Si Si3 0.067979 0.669852 0.804469
Si Si4 0.881469 0.172856 0.001039
Si Si5 0.248602 0.167662 0.324274
Si Si6 0.099028 0.168315 0.291746
Si Si7 0.217827 0.671648 0.248946
Si Si8 0.764135 0.330013 0.040035
O O1 0.085762 0.266932 0.626157
O O2 0.180882 0.198713 0.443555
O O3 0.000705 0.223961 0.624682
O O4 0.073259 0.000000 0.601527
O O5 0.750000 0.750000 0.500000
O O6 0.601369 0.785477 0.711425
O O7 0.666144 0.000000 0.584047
O O8 0.037769 0.500000 0.837336
O O9 0.148219 0.701793 0.763386
O O10 0.982955 0.770927 0.911092
O O11 0.882514 0.000000 0.989142
O O12 0.812404 0.214984 0.120516
O O13 0.850271 0.255163 0.980203
O O14 0.222670 0.272475 0.303379
O O15 0.238694 0.000000 0.315319
O O16 0.128959 0.259865 0.311969
O O17 0.170706 0.191872 0.169906
O O18 0.094172 0.000000 0.314847
O O19 0.202035 0.500000 0.266337
O O20 0.788163 0.500000 0.005698
O O21 0.750000 0.250000 0.000000
#
# Coordination Sequence:
#
# PCOD8099287 Si02
#       8
#     8   8   8   8   8   8   8   8
#     4  10  21  39  60  87 118 151 195 238 280 343
#     4  11  22  38  59  85 119 156 192 235 288 338
#     4  10  22  39  58  86 118 152 194 237 284 343
#     4  10  22  39  58  82 113 152 192 238 292 342
#     4  10  21  39  61  83 114 152 193 236 287 346
#     4   9  20  38  60  83 112 152 192 231 284 343
#     4  10  22  40  60  84 116 148 190 244 292 339
#     4  10  20  35  55  83 115 149 192 237 284 344
#
# _framework density 19.301427
#
# number of rings (size 3 to 8) (size 9 to 14) (size 15 to 20)
#    0.000    2.000    1.250    1.500    1.750    5.500 
#    0.000    5.000    0.000    0.000    0.000    0.000 
#    0.000    0.000    0.000    0.000    0.000    0.000 
#
# Total GULP energy -396967.235617 kJ/mol
# GULP energy per Si atom -12405.226113 kJ/mol
# Density = 1.925750 g / cm^3
# Si number density = 19.301427 Si / 1000 Ang^3
#
#
#
# Elastic Constant Matrix: (Units=GPa)
#
#
# Indices 1 2 3 4 5 6 
#
# 1 103.4453 39.4922 14.9406 0.0203 -0.5865 -0.0051
# 2 39.4922 73.4355 18.3094 0.0422 0.3583 -0.0181
# 3 14.9406 18.3094 31.9178 0.0452 -16.0720 -0.0236
# 4 0.0203 0.0422 0.0452 29.5631 -0.0171 1.2440
# 5 -0.5865 0.3583 -16.0720 -0.0171 34.2913 0.0076
# 6 -0.0051 -0.0181 -0.0236 1.2440 0.0076 40.7758
#
#
#
# Elastic Compliance Matrix: (Units=1/GPa)
#
#
# Indices 1 2 3 4 5 6 
#
# 1 0.012337 -0.005892 -0.002955 0.000004 -0.001112 -0.000003
# 2 -0.005892 0.019641 -0.011338 -0.000010 -0.005620 0.000003
# 3 -0.002955 -0.011338 0.051378 -0.000047 0.024148 0.000021
# 4 0.000004 -0.000010 -0.000047 0.033869 -0.000005 -0.001033
# 5 -0.001112 -0.005620 0.024148 -0.000005 0.040520 0.000004
# 6 -0.000003 0.000003 0.000021 -0.001033 0.000004 0.024556
#
#
# Mechanical properties :
#
#
# Convention : Reuss Voigt Hill
#
# Bulk Modulus (GPa) = 23.26466 39.36478 31.31472
# Shear Modulus (GPa) = 21.09709 29.99649 25.54679
#
# Velocity S-wave (km/s) = 3.30969 3.94649 3.64204
# Velocity P-wave (km/s) = 5.16574 6.41915 5.82625
#
# Compressibility (1/GPa) = 0.04298365
#
# Stress axis : x y z
#
# Youngs Moduli (GPa) = 81.05726 50.91483 19.46374
#
# Poissons Ratio (x) = 0.30001 0.05751
# Poissons Ratio (y) = 0.47763 0.22069
# Poissons Ratio (z) = 0.23951 0.57730
#
# Static dielectric constant tensor:
#      x y z
#    x 3.602580 -0.000020 -0.106140 
#    y -0.000020 3.540990 0.000030 
#    z -0.106140 0.000030 3.528170 
# 
# 
# High freq. dielectric constant tensor:
#      x y z
#    x 1.760630 0.000000 -0.006290 
#    y 0.000000 1.752120 0.000000 
#    z -0.006290 0.000000 1.747600 
# 
# From -- ./inp_files/249763.got.cif
#   From: 2010.06.25/outbox.cif.g09.slc.cpg/sg12_125_cif.got.tgz:249763.got - 2010.06.28 00:19:55.
