data_PCOD8099739
_publ_section_title
;
Structure prediction by ZEFSAII (Michael W. Deem and Ramdas Pophale) SiO2 
 PCOD8099739
Probable space group: C 2/M
;
_chemical_formula_sum "Si O2"
_cell_formula_units_Z 64
_cell_length_a 30.461612
_cell_length_b 8.751608
_cell_length_c 15.613527
_cell_angle_alpha 90.000000
_cell_angle_beta 47.022978
_cell_angle_gamma 90.000000
_cell_volume 3045.310446
_symmetry_space_group_name_H-M "C 2/M"
_symmetry_group_IT_number 12
_symmetry_cell_setting 'monoclinic'
loop_
_space_group_symop_operation_xyz
x,y,z
-x,y,-z
-x,-y,-z
x,-y,z
1/2+x,1/2+y,z
1/2-x,1/2+y,-z
1/2-x,1/2-y,-z
1/2+x,1/2-y,z
loop_
_atom_site_type_symbol
_atom_site_label
_atom_site_fract_x
_atom_site_fract_y
_atom_site_fract_z
Si Si1 0.480261 0.173456 0.867957
Si Si2 0.898456 0.822156 0.835743
Si Si3 0.432195 0.818359 0.611994
Si Si4 0.895719 0.824083 0.277312
Si Si5 0.181325 0.677520 0.336424
Si Si6 0.799408 0.825336 0.094734
Si Si7 0.295613 0.178151 0.507311
Si Si8 0.624213 0.828536 0.867335
O O1 0.443157 0.228994 0.836086
O O2 0.534663 0.287202 0.810280
O O3 0.502110 0.000000 0.822175
O O4 0.442033 0.181998 0.005321
O O5 0.906670 0.759712 0.730426
O O6 0.915323 0.000000 0.816210
O O7 0.829500 0.795876 0.961276
O O8 0.500000 0.763187 0.500000
O O9 0.385279 0.762227 0.600732
O O10 0.430722 0.000000 0.626341
O O11 0.862918 0.717341 0.389531
O O12 0.869299 0.789461 0.218650
O O13 0.883943 0.000000 0.314445
O O14 0.173399 0.500000 0.364606
O O15 0.227800 0.707467 0.195365
O O16 0.208036 0.746087 0.390233
O O17 0.828093 0.711151 0.124142
O O18 0.812764 0.000000 0.104789
O O19 0.250000 0.250000 0.500000
O O20 0.282564 0.000000 0.523681
O O21 0.636425 0.000000 0.817296
#
# Coordination Sequence:
#
# PCOD8099739 Si02
#       8
#     8   8   8   8   8   8   8   8
#     4  10  21  37  58  84 116 155 200 251 303 361
#     4  10  21  37  59  90 122 155 192 243 309 367
#     4  10  22  40  63  88 117 159 208 252 298 359
#     4  12  24  36  54  82 118 160 203 250 306 368
#     4   9  20  39  62  88 116 156 205 252 302 358
#     4   9  18  36  61  86 119 156 194 244 306 370
#     4  11  23  40  62  88 120 158 205 257 310 365
#     4  10  20  35  56  85 118 154 200 252 304 360
#
# _framework density 21.015919
#
# number of rings (size 3 to 8) (size 9 to 14) (size 15 to 20)
#    0.000    1.875    0.000    3.750    1.750    5.250 
#    0.000    2.500    0.000    0.000    0.000    0.000 
#    0.000    0.000    0.000    0.000    0.000    0.000 
#
# Total GULP energy -396648.273175 kJ/mol
# GULP energy per Si atom -12395.258537 kJ/mol
# Density = 2.096809 g / cm^3
# Si number density = 21.015919 Si / 1000 Ang^3
#
#
#
# Elastic Constant Matrix: (Units=GPa)
#
#
# Indices 1 2 3 4 5 6 
#
# 1 98.8462 27.1059 58.8427 0.0000 -4.1991 0.0000
# 2 27.1059 60.9068 30.6252 0.0004 0.8353 0.0000
# 3 58.8427 30.6252 128.8158 0.0000 0.8632 0.0000
# 4 0.0000 0.0004 0.0000 30.4435 0.0000 3.3535
# 5 -4.1991 0.8353 0.8632 0.0000 36.1529 0.0000
# 6 0.0000 0.0000 0.0000 3.3535 0.0000 26.4080
#
#
#
# Elastic Compliance Matrix: (Units=1/GPa)
#
#
# Indices 1 2 3 4 5 6 
#
# 1 0.014677 -0.003612 -0.005858 0.000000 0.001928 0.000000
# 2 -0.003612 0.019541 -0.002990 0.000000 -0.000800 0.000000
# 3 -0.005858 -0.002990 0.011156 0.000000 -0.000878 0.000000
# 4 0.000000 0.000000 0.000000 0.033314 0.000000 -0.004230
# 5 0.001928 -0.000800 -0.000878 0.000000 0.027924 0.000000
# 6 0.000000 0.000000 0.000000 -0.004230 0.000000 0.038405
#
#
# Mechanical properties :
#
#
# Convention : Reuss Voigt Hill
#
# Bulk Modulus (GPa) = 48.89657 57.96849 53.43253
# Shear Modulus (GPa) = 28.28785 30.06720 29.17753
#
# Velocity S-wave (km/s) = 3.67279 3.78655 3.73010
# Velocity P-wave (km/s) = 6.42673 6.83815 6.63563
#
# Compressibility (1/GPa) = 0.02045133
#
# Stress axis : x y z
#
# Youngs Moduli (GPa) = 68.13518 51.17525 89.63878
#
# Poissons Ratio (x) = 0.18487 0.52514
# Poissons Ratio (y) = 0.24613 0.26804
# Poissons Ratio (z) = 0.39916 0.15302
#
# Static dielectric constant tensor:
#      x y z
#    x 3.801220 0.000000 -0.069970 
#    y 0.000000 3.666280 0.000000 
#    z -0.069970 0.000000 4.115200 
# 
# 
# High freq. dielectric constant tensor:
#      x y z
#    x 1.815860 0.000000 -0.007090 
#    y 0.000000 1.810490 0.000000 
#    z -0.007090 0.000000 1.834320 
# 
# From -- ./inp_files/249895.got.cif
#   From: 2010.06.25/outbox.cif.g09.slc.cpg/sg12_125_cif.got.tgz:249895.got - 2010.06.28 00:19:55.
