data_PCOD8099167
_publ_section_title
;
Structure prediction by ZEFSAII (Michael W. Deem and Ramdas Pophale) SiO2 
 PCOD8099167
Probable space group: C 2/M
;
_chemical_formula_sum "Si O2"
_cell_formula_units_Z 56
_cell_length_a 21.495473
_cell_length_b 8.723242
_cell_length_c 18.428811
_cell_angle_alpha 90.000000
_cell_angle_beta 123.783668
_cell_angle_gamma 90.000000
_cell_volume 2872.089688
_symmetry_space_group_name_H-M "C 2/M"
_symmetry_group_IT_number 12
_symmetry_cell_setting 'monoclinic'
loop_
_space_group_symop_operation_xyz
x,y,z
-x,y,-z
-x,-y,-z
x,-y,z
1/2+x,1/2+y,z
1/2-x,1/2+y,-z
1/2-x,1/2-y,-z
1/2+x,1/2-y,z
loop_
_atom_site_type_symbol
_atom_site_label
_atom_site_fract_x
_atom_site_fract_y
_atom_site_fract_z
Si Si1 0.225786 0.318511 0.375776
Si Si2 0.080898 0.682318 0.023526
Si Si3 0.287547 0.180440 0.792132
Si Si4 0.133605 0.178095 0.760717
Si Si5 0.333697 0.680107 0.055925
Si Si6 0.361743 0.679404 0.560072
Si Si7 0.995758 0.678677 0.413000
O O1 0.224737 0.500000 0.372271
O O2 0.221082 0.244944 0.292876
O O3 0.302655 0.259165 0.462056
O O4 0.154316 0.260572 0.373972
O O5 0.082160 0.500000 0.014672
O O6 0.137914 0.742638 0.121622
O O7 0.108117 0.753008 0.965028
O O8 0.000000 0.738862 0.000000
O O9 0.218027 0.225459 0.796799
O O10 0.293593 0.000000 0.787120
O O11 0.125194 0.213968 0.840561
O O12 0.082573 0.281356 0.675433
O O13 0.117540 0.000000 0.732766
O O14 0.323722 0.500000 0.037397
O O15 0.250000 0.750000 0.000000
O O16 0.353949 0.500000 0.566232
O O17 0.444345 0.720807 0.590289
O O18 0.013200 0.500000 0.415148
O O19 0.000000 0.726539 0.500000
#
# Coordination Sequence:
#
# PCOD8099167 Si02
#       7
#     8   8   8   8   8   8   8
#     4   9  18  33  56  80 108 149 195 239 283 340
#     4  10  21  38  60  87 122 160 199 246 303 363
#     4   9  17  34  57  82 112 149 193 237 287 349
#     4  10  21  38  61  86 115 155 199 242 291 354
#     4  11  22  39  64  90 122 158 200 252 302 360
#     4  10  20  35  55  79 110 151 192 234 290 349
#     4  11  24  39  56  83 118 149 188 244 296 346
#
# _framework density 19.497997999999999
#
# number of rings (size 3 to 8) (size 9 to 14) (size 15 to 20)
#    0.000    2.000    1.429    2.143    0.000    5.429 
#    0.000    2.857    0.000    0.000    0.000    0.000 
#    0.000    0.000    0.000    0.000    0.000    0.000 
#
# Total GULP energy -347170.339302 kJ/mol
# GULP energy per Si atom -12398.940689 kJ/mol
# Density = 1.945362 g / cm^3
# Si number density = 19.497998 Si / 1000 Ang^3
#
#
#
# Elastic Constant Matrix: (Units=GPa)
#
#
# Indices 1 2 3 4 5 6 
#
# 1 129.6489 18.5260 60.2632 0.0000 -9.3937 0.0000
# 2 18.5260 34.2505 28.2722 0.0000 -6.3434 0.0000
# 3 60.2632 28.2722 132.2594 0.0000 -13.2673 0.0000
# 4 0.0000 0.0000 0.0000 25.3616 0.0000 0.6329
# 5 -9.3937 -6.3434 -13.2673 0.0000 37.1764 0.0000
# 6 0.0000 0.0000 0.0000 0.6329 0.0000 25.5387
#
#
#
# Elastic Compliance Matrix: (Units=1/GPa)
#
#
# Indices 1 2 3 4 5 6 
#
# 1 0.009914 -0.001892 -0.004039 0.000000 0.000741 0.000000
# 2 -0.001892 0.036250 -0.006549 0.000000 0.003370 0.000000
# 3 -0.004039 -0.006549 0.010980 0.000000 0.001780 0.000000
# 4 0.000000 0.000000 0.000000 0.039454 0.000000 -0.000978
# 5 0.000741 0.003370 0.001780 0.000000 0.028297 0.000000
# 6 0.000000 0.000000 0.000000 -0.000978 0.000000 0.039181
#
#
# Mechanical properties :
#
#
# Convention : Reuss Voigt Hill
#
# Bulk Modulus (GPa) = 31.07003 56.69793 43.88398
# Shear Modulus (GPa) = 25.02979 30.22183 27.62581
#
# Velocity S-wave (km/s) = 3.58678 3.94127 3.76820
# Velocity P-wave (km/s) = 5.75525 7.06070 6.44113
#
# Compressibility (1/GPa) = 0.03218535
#
# Stress axis : x y z
#
# Youngs Moduli (GPa) = 100.86325 27.58634 91.07768
#
# Poissons Ratio (x) = 0.05218 0.36784
# Poissons Ratio (y) = 0.19080 0.59646
# Poissons Ratio (z) = 0.40736 0.18066
#
# Static dielectric constant tensor:
#      x y z
#    x 3.596360 0.000000 -0.103650 
#    y 0.000000 3.341000 0.000000 
#    z -0.103650 0.000000 3.843360 
# 
# 
# High freq. dielectric constant tensor:
#      x y z
#    x 1.765360 0.000000 -0.007830 
#    y 0.000000 1.740610 0.000000 
#    z -0.007830 0.000000 1.768400 
# 
# From -- ./inp_files/281621.got.cif
#   From: 2010.06.25/outbox.cif.g09.slc.cpg/sg12_141_cif.got.tgz:281621.got - 2010.06.28 00:19:55.
