data_PCOD8099073
_publ_section_title
;
Structure prediction by ZEFSAII (Michael W. Deem and Ramdas Pophale) SiO2 
 PCOD8099073
Probable space group: C 2/M
;
_chemical_formula_sum "Si O2"
_cell_formula_units_Z 48
_cell_length_a 17.936221
_cell_length_b 8.877754
_cell_length_c 28.808702
_cell_angle_alpha 90.000000
_cell_angle_beta 148.203575
_cell_angle_gamma 90.000000
_cell_volume 2417.064400
_symmetry_space_group_name_H-M "C 2/M"
_symmetry_group_IT_number 12
_symmetry_cell_setting 'monoclinic'
loop_
_space_group_symop_operation_xyz
x,y,z
-x,y,-z
-x,-y,-z
x,-y,z
1/2+x,1/2+y,z
1/2-x,1/2+y,-z
1/2-x,1/2-y,-z
1/2+x,1/2-y,z
loop_
_atom_site_type_symbol
_atom_site_label
_atom_site_fract_x
_atom_site_fract_y
_atom_site_fract_z
Si Si1 0.398376 0.679474 0.169260
Si Si2 0.311127 0.666650 0.639587
Si Si3 0.012166 0.322001 0.136891
Si Si4 0.550770 0.331889 0.473996
Si Si5 0.889283 0.826055 0.982251
Si Si6 0.287497 0.168046 0.307076
O O1 0.378179 0.500000 0.156680
O O2 0.526420 0.723475 0.272210
O O3 0.431349 0.737048 0.135156
O O4 0.260310 0.763393 0.115524
O O5 0.303510 0.500000 0.613965
O O6 0.211910 0.772043 0.555546
O O7 0.253957 0.663372 0.661395
O O8 0.004301 0.500000 0.140792
O O9 0.176043 0.270993 0.220346
O O10 0.934381 0.278004 0.048693
O O11 0.500000 0.326448 0.500000
O O12 0.549126 0.500000 0.453468
O O13 0.445590 0.234898 0.386070
O O14 0.876191 0.000000 0.990841
O O15 0.000000 0.806459 0.000000
O O16 0.285430 0.000000 0.284679
#
# Coordination Sequence:
#
# PCOD8099073 Si02
#       6
#     8   8   8   8   8   8
#     4  10  20  35  55  78 105 136 172 212 255 304
#     4   8  15  26  41  64  95 131 165 200 245 294
#     4  11  21  34  54  78 105 135 171 213 256 304
#     4   9  15  22  36  62  96 131 165 202 245 292
#     4  11  24  40  56  75 101 133 170 212 259 309
#     4   9  16  27  43  65  97 133 168 205 248 297
#
# _framework density 19.858799000000001
#
# number of rings (size 3 to 8) (size 9 to 14) (size 15 to 20)
#    0.000    2.333    0.000    5.000    0.000    8.000 
#    0.000    0.000    0.000    0.000    0.000    1.167 
#    0.000    0.000    0.000    0.000    0.000    0.000 
#
# Total GULP energy -297558.264884 kJ/mol
# GULP energy per Si atom -12398.261037 kJ/mol
# Density = 1.981360 g / cm^3
# Si number density = 19.858799 Si / 1000 Ang^3
#
#
#
# Elastic Constant Matrix: (Units=GPa)
#
#
# Indices 1 2 3 4 5 6 
#
# 1 32.0091 23.5469 30.5413 0.0000 16.2444 0.0000
# 2 23.5469 111.0078 50.7933 0.0000 17.8768 0.0000
# 3 30.5413 50.7933 139.1198 0.0001 41.9753 0.0000
# 4 0.0000 0.0000 0.0001 41.2193 0.0000 3.3189
# 5 16.2444 17.8768 41.9753 0.0000 16.6821 0.0000
# 6 0.0000 0.0000 0.0000 3.3189 0.0000 11.7367
#
#
#
# Elastic Compliance Matrix: (Units=1/GPa)
#
#
# Indices 1 2 3 4 5 6 
#
# 1 0.081226 -0.007092 0.026283 0.000000 -0.137628 0.000000
# 2 -0.007092 0.011627 -0.004204 0.000000 0.005025 0.000000
# 3 0.026283 -0.004204 0.038685 0.000000 -0.118426 0.000000
# 4 0.000000 0.000000 0.000000 0.024826 0.000000 -0.007020
# 5 -0.137628 0.005025 -0.118426 0.000000 0.486559 0.000000
# 6 0.000000 0.000000 0.000000 -0.007020 0.000000 0.087188
#
#
# Mechanical properties :
#
#
# Convention : Reuss Voigt Hill
#
# Bulk Modulus (GPa) = 6.19154 54.65552 30.42353
# Shear Modulus (GPa) = 6.63152 25.74462 16.18807
#
# Velocity S-wave (km/s) = 1.82937 3.60444 2.85820
# Velocity P-wave (km/s) = 2.75439 6.70108 5.12304
#
# Compressibility (1/GPa) = 0.16151069
#
# Stress axis : x y z
#
# Youngs Moduli (GPa) = 12.31131 86.00472 25.85004
#
# Poissons Ratio (x) = 0.60994 -0.67941
# Poissons Ratio (y) = 0.08731 0.10868
# Poissons Ratio (z) = -0.32357 0.36159
#
# Static dielectric constant tensor:
#      x y z
#    x 2.983700 0.000000 0.319190 
#    y 0.000000 3.784210 0.000000 
#    z 0.319190 0.000000 4.018510 
# 
# 
# High freq. dielectric constant tensor:
#      x y z
#    x 1.704660 0.000000 0.021720 
#    y 0.000000 1.786630 0.000000 
#    z 0.021720 0.000000 1.794260 
# 
# From -- ./inp_files/274090.got.cif
#   From: 2010.06.25/outbox.cif.g09.slc.cpg/sg12_138_cif.got.tgz:274090.got - 2010.06.28 00:19:55.
