data_PCOD8099846
_publ_section_title
;
Structure prediction by ZEFSAII (Michael W. Deem and Ramdas Pophale) SiO2 
 PCOD8099846
Probable space group: C 2/M
;
_chemical_formula_sum "Si O2"
_cell_formula_units_Z 56
_cell_length_a 26.717828
_cell_length_b 8.890189
_cell_length_c 20.716186
_cell_angle_alpha 90.000000
_cell_angle_beta 36.000566
_cell_angle_gamma 90.000000
_cell_volume 2892.321297
_symmetry_space_group_name_H-M "C 2/M"
_symmetry_group_IT_number 12
_symmetry_cell_setting 'monoclinic'
loop_
_space_group_symop_operation_xyz
x,y,z
-x,y,-z
-x,-y,-z
x,-y,z
1/2+x,1/2+y,z
1/2-x,1/2+y,-z
1/2-x,1/2-y,-z
1/2+x,1/2-y,z
loop_
_atom_site_type_symbol
_atom_site_label
_atom_site_fract_x
_atom_site_fract_y
_atom_site_fract_z
Si Si1 0.941680 0.324058 0.341236
Si Si2 0.583546 0.323050 0.878888
Si Si3 0.831834 0.822797 0.557867
Si Si4 0.749385 0.674097 0.100863
Si Si5 0.761616 0.321948 0.753420
Si Si6 0.117471 0.173826 0.124705
Si Si7 0.347208 0.826267 0.312189
O O1 0.948280 0.500000 0.349131
O O2 0.914844 0.238265 0.434366
O O3 0.870569 0.288445 0.361299
O O4 0.031537 0.265589 0.222790
O O5 0.576360 0.500000 0.881526
O O6 0.666065 0.274045 0.833566
O O7 0.588192 0.261878 0.801539
O O8 0.500000 0.254247 0.000000
O O9 0.827169 0.743568 0.632367
O O10 0.749623 0.776913 0.600931
O O11 0.840232 0.000000 0.559136
O O12 0.772350 0.500000 0.087068
O O13 0.716970 0.747520 0.200729
O O14 0.672873 0.695286 0.130840
O O15 0.833160 0.760107 0.988550
O O16 0.773191 0.500000 0.745649
O O17 0.096956 0.000000 0.132382
O O18 0.359977 0.000000 0.283097
#
# Coordination Sequence:
#
# PCOD8099846 Si02
#       7
#     8   8   8   8   8   8   8
#     4  11  22  36  56  84 115 145 186 234 279 325
#     4   9  19  33  49  76 111 145 183 224 266 323
#     4  10  20  37  57  80 112 151 191 228 272 328
#     4  10  21  39  61  84 112 144 182 229 279 333
#     4  10  20  35  57  82 111 148 185 225 278 332
#     4  10  22  39  59  84 112 145 184 227 278 333
#     4   9  20  35  52  78 110 148 187 225 272 323
#
# _framework density 19.361612000000001
#
# number of rings (size 3 to 8) (size 9 to 14) (size 15 to 20)
#    0.000    2.143    0.000    2.571    2.000    4.286 
#    0.000    0.714    0.000    4.286    0.000    0.000 
#    0.000    0.000    0.000    0.000    0.000    0.000 
#
# Total GULP energy -347317.710397 kJ/mol
# GULP energy per Si atom -12404.203943 kJ/mol
# Density = 1.931754 g / cm^3
# Si number density = 19.361612 Si / 1000 Ang^3
#
#
#
# Elastic Constant Matrix: (Units=GPa)
#
#
# Indices 1 2 3 4 5 6 
#
# 1 50.2656 33.9970 27.8404 0.0071 19.4412 -0.0039
# 2 33.9970 70.2689 25.3276 0.0048 15.1079 -0.0111
# 3 27.8404 25.3276 80.0011 -0.0011 15.9414 -0.0106
# 4 0.0071 0.0048 -0.0011 39.6663 0.0007 6.1819
# 5 19.4412 15.1079 15.9414 0.0007 28.7992 -0.0012
# 6 -0.0039 -0.0111 -0.0106 6.1819 -0.0012 28.4931
#
#
#
# Elastic Compliance Matrix: (Units=1/GPa)
#
#
# Indices 1 2 3 4 5 6 
#
# 1 0.037925 -0.012833 -0.006041 -0.000005 -0.015525 -0.000002
# 2 -0.012833 0.021495 -0.002044 -0.000001 -0.001482 0.000006
# 3 -0.006041 -0.002044 0.015986 0.000001 -0.003698 0.000004
# 4 -0.000005 -0.000001 0.000001 0.026093 0.000002 -0.005661
# 5 -0.015525 -0.001482 -0.003698 0.000002 0.048028 -0.000003
# 6 -0.000002 0.000006 0.000004 -0.005661 -0.000003 0.036324
#
#
# Mechanical properties :
#
#
# Convention : Reuss Voigt Hill
#
# Bulk Modulus (GPa) = 29.78904 41.65173 35.72039
# Shear Modulus (GPa) = 20.93122 26.94976 23.94049
#
# Velocity S-wave (km/s) = 3.29153 3.73489 3.52019
# Velocity P-wave (km/s) = 5.46485 6.33707 5.91705
#
# Compressibility (1/GPa) = 0.03356939
#
# Stress axis : x y z
#
# Youngs Moduli (GPa) = 26.36812 46.52220 62.55356
#
# Poissons Ratio (x) = 0.59702 0.37791
# Poissons Ratio (y) = 0.33838 0.12786
# Poissons Ratio (z) = 0.15930 0.09509
#
# Static dielectric constant tensor:
#      x y z
#    x 3.440020 -0.000020 0.071460 
#    y -0.000020 3.553690 0.000040 
#    z 0.071460 0.000040 3.557380 
# 
# 
# High freq. dielectric constant tensor:
#      x y z
#    x 1.738330 0.000000 0.011790 
#    y 0.000000 1.762570 0.000000 
#    z 0.011790 0.000000 1.758760 
# 
# From -- ./inp_files/329524.got.cif
#   From: 2010.06.25/outbox.cif.g09.slc.cpg/sg12_165_cif.got.tgz:329524.got - 2010.06.28 00:19:55.
