data_PCOD8099794
_publ_section_title
;
Structure prediction by ZEFSAII (Michael W. Deem and Ramdas Pophale) SiO2 
 PCOD8099794
Probable space group: C 2/M
;
_chemical_formula_sum "Si O2"
_cell_formula_units_Z 56
_cell_length_a 28.162658
_cell_length_b 9.111223
_cell_length_c 14.224332
_cell_angle_alpha 90.000000
_cell_angle_beta 60.356422
_cell_angle_gamma 90.000000
_cell_volume 3172.206422
_symmetry_space_group_name_H-M "C 2/M"
_symmetry_group_IT_number 12
_symmetry_cell_setting 'monoclinic'
loop_
_space_group_symop_operation_xyz
x,y,z
-x,y,-z
-x,-y,-z
x,-y,z
1/2+x,1/2+y,z
1/2-x,1/2+y,-z
1/2-x,1/2-y,-z
1/2+x,1/2-y,z
loop_
_atom_site_type_symbol
_atom_site_label
_atom_site_fract_x
_atom_site_fract_y
_atom_site_fract_z
Si Si1 0.085355 0.334324 0.656752
Si Si2 0.452180 0.332031 0.615847
Si Si3 0.945148 0.829155 0.001012
Si Si4 0.641839 0.334161 0.759254
Si Si5 0.759836 0.331158 0.588900
Si Si6 0.038686 0.666944 0.199938
Si Si7 0.864388 0.832440 0.552701
O O1 0.100137 0.500000 0.612927
O O2 0.127817 0.281030 0.692522
O O3 0.089890 0.229272 0.562799
O O4 0.025437 0.322681 0.757772
O O5 0.500000 0.270815 0.500000
O O6 0.466321 0.500000 0.627856
O O7 0.447113 0.238615 0.714810
O O8 0.392267 0.320236 0.627325
O O9 0.933251 0.748380 0.914636
O O10 0.952359 0.000000 0.971915
O O11 0.891073 0.794789 0.114485
O O12 0.000000 0.771188 0.000000
O O13 0.626041 0.500000 0.742907
O O14 0.707004 0.320435 0.708882
O O15 0.773841 0.500000 0.552711
O O16 0.750000 0.250000 0.500000
O O17 0.809111 0.260641 0.599606
O O18 0.059349 0.500000 0.182658
O O19 0.850733 0.000000 0.539977
#
# Coordination Sequence:
#
# PCOD8099794 Si02
#       7
#     8   8   8   8   8   8   8
#     4  11  21  31  50  80 114 147 177 217 270 326
#     4  10  21  37  57  79 106 145 185 223 270 327
#     4  10  20  35  57  80 106 146 186 222 267 321
#     4  10  21  36  54  78 109 147 186 221 262 322
#     4  11  22  35  54  81 113 146 182 223 272 323
#     4  11  23  35  52  82 116 146 177 223 278 327
#     4  11  22  36  55  79 109 145 186 225 267 322
#
# _framework density 17.653327999999998
#
# number of rings (size 3 to 8) (size 9 to 14) (size 15 to 20)
#    0.000    1.429    4.286    1.714    0.000    4.000 
#    0.000    0.000    0.000    0.857    0.000    0.000 
#    0.000    0.000    0.000    0.000    0.000    0.000 
#
# Total GULP energy -347210.785630 kJ/mol
# GULP energy per Si atom -12400.385201 kJ/mol
# Density = 1.761315 g / cm^3
# Si number density = 17.653328 Si / 1000 Ang^3
#
#
#
# Elastic Constant Matrix: (Units=GPa)
#
#
# Indices 1 2 3 4 5 6 
#
# 1 78.0225 42.5116 35.8805 0.0000 0.8443 0.0000
# 2 42.5116 107.6343 47.0782 0.0000 8.7141 0.0000
# 3 35.8805 47.0782 107.3706 0.0000 3.3284 0.0000
# 4 0.0000 0.0000 0.0000 16.0750 0.0000 -2.0899
# 5 0.8443 8.7141 3.3284 0.0000 30.6669 0.0000
# 6 0.0000 0.0000 0.0000 -2.0899 0.0000 27.6589
#
#
#
# Elastic Compliance Matrix: (Units=1/GPa)
#
#
# Indices 1 2 3 4 5 6 
#
# 1 0.017367 -0.005467 -0.003451 0.000000 0.001450 0.000000
# 2 -0.005467 0.013448 -0.003969 0.000000 -0.003240 0.000000
# 3 -0.003451 -0.003969 0.012210 0.000000 -0.000102 0.000000
# 4 0.000000 0.000000 0.000000 0.062825 0.000000 0.004747
# 5 0.001450 -0.003240 -0.000102 0.000000 0.033500 0.000000
# 6 0.000000 0.000000 0.000000 0.004747 0.000000 0.036513
#
#
# Mechanical properties :
#
#
# Convention : Reuss Voigt Hill
#
# Bulk Modulus (GPa) = 57.96966 60.44088 59.20527
# Shear Modulus (GPa) = 24.10904 26.05066 25.07985
#
# Velocity S-wave (km/s) = 3.69954 3.84563 3.77329
# Velocity P-wave (km/s) = 7.15247 7.35054 7.25218
#
# Compressibility (1/GPa) = 0.01725040
#
# Stress axis : x y z
#
# Youngs Moduli (GPa) = 57.57974 74.35777 81.89693
#
# Poissons Ratio (x) = 0.40653 0.28266
# Poissons Ratio (y) = 0.31480 0.32507
# Poissons Ratio (z) = 0.19873 0.29515
#
# Static dielectric constant tensor:
#      x y z
#    x 3.160140 0.000000 -0.138080 
#    y 0.000000 3.391610 0.000000 
#    z -0.138080 0.000000 3.300260 
# 
# 
# High freq. dielectric constant tensor:
#      x y z
#    x 1.668540 0.000000 -0.005650 
#    y 0.000000 1.693490 0.000000 
#    z -0.005650 0.000000 1.669200 
# 
# From -- ./inp_files/186393.got.cif
#   From: 2010.06.25/outbox.cif.g09.slc.cpg/sg12_94_cif.got.tgz:186393.got - 2010.06.28 00:19:55.
