data_PCOD8099350
_publ_section_title
;
Structure prediction by ZEFSAII (Michael W. Deem and Ramdas Pophale) SiO2 
 PCOD8099350
Probable space group: C 2/M
;
_chemical_formula_sum "Si O2"
_cell_formula_units_Z 56
_cell_length_a 8.402979
_cell_length_b 12.554211
_cell_length_c 29.769170
_cell_angle_alpha 90.000000
_cell_angle_beta 62.297454
_cell_angle_gamma 90.000000
_cell_volume 2780.453821
_symmetry_space_group_name_H-M "C 2/M"
_symmetry_group_IT_number 12
_symmetry_cell_setting 'monoclinic'
loop_
_space_group_symop_operation_xyz
x,y,z
-x,y,-z
-x,-y,-z
x,-y,z
1/2+x,1/2+y,z
1/2-x,1/2+y,-z
1/2-x,1/2-y,-z
1/2+x,1/2-y,z
loop_
_atom_site_type_symbol
_atom_site_label
_atom_site_fract_x
_atom_site_fract_y
_atom_site_fract_z
Si Si1 0.596895 0.770906 0.231019
Si Si2 0.973412 0.879128 0.173413
Si Si3 0.939934 0.121283 0.593278
Si Si4 0.220206 0.876760 0.289982
Si Si5 0.183696 0.704569 0.462525
Si Si6 0.794460 0.617693 0.956809
Si Si7 0.515001 0.325805 0.066813
O O1 0.767787 0.846858 0.207815
O O2 0.600444 0.697548 0.186057
O O3 0.426724 0.847911 0.254578
O O4 0.593929 0.694364 0.274751
O O5 0.030593 0.870945 0.114376
O O6 0.999016 0.000000 0.186453
O O7 0.829425 0.148159 0.652341
O O8 0.867000 0.199692 0.564630
O O9 0.153172 0.133070 0.577543
O O10 0.905664 0.000000 0.581923
O O11 0.187964 0.000000 0.282409
O O12 0.250000 0.750000 0.500000
O O13 0.000000 0.640043 0.500000
O O14 0.875818 0.500000 0.940564
O O15 0.677750 0.646542 0.928354
O O16 0.961968 0.697770 0.937852
O O17 0.673427 0.620867 0.017261
#
# Coordination Sequence:
#
# PCOD8099350 Si02
#       7
#     8   8   8   8   8   8   8
#     4  10  22  36  55  80 107 137 174 220 269 321
#     4  11  21  36  55  78 107 139 173 215 269 322
#     4  10  20  35  57  79 105 145 183 219 265 312
#     4  10  20  37  57  79 106 138 179 223 265 311
#     4   9  19  34  52  79 112 141 176 218 258 307
#     4  10  20  37  55  76 107 139 173 220 264 307
#     4  10  20  35  56  79 104 138 179 214 261 324
#
# _framework density 20.140597
#
# number of rings (size 3 to 8) (size 9 to 14) (size 15 to 20)
#    0.000    2.000    0.000    4.286    0.000    2.857 
#    0.000   14.286    0.000   12.000    0.000    0.000 
#    0.000    0.000    0.000    0.000    0.000    0.000 
#
# Total GULP energy -347161.082560 kJ/mol
# GULP energy per Si atom -12398.610091 kJ/mol
# Density = 2.009476 g / cm^3
# Si number density = 20.140597 Si / 1000 Ang^3
#
#
#
# Elastic Constant Matrix: (Units=GPa)
#
#
# Indices 1 2 3 4 5 6 
#
# 1 41.0743 10.5049 11.1121 0.0000 10.4666 0.0000
# 2 10.5049 107.2575 21.1218 0.0000 7.7764 0.0000
# 3 11.1121 21.1218 73.9429 0.0000 18.8389 0.0000
# 4 0.0000 0.0000 0.0000 14.7918 0.0000 0.0120
# 5 10.4666 7.7764 18.8389 0.0000 27.4703 0.0000
# 6 0.0000 0.0000 0.0000 0.0120 0.0000 24.4180
#
#
#
# Elastic Compliance Matrix: (Units=1/GPa)
#
#
# Indices 1 2 3 4 5 6 
#
# 1 0.027464 -0.001775 -0.001311 0.000000 -0.009063 0.000000
# 2 -0.001775 0.010018 -0.002478 0.000000 -0.000461 0.000000
# 3 -0.001311 -0.002478 0.017113 0.000000 -0.010535 0.000000
# 4 0.000000 0.000000 0.000000 0.067605 0.000000 -0.000033
# 5 -0.009063 -0.000461 -0.010535 0.000000 0.047211 0.000000
# 6 0.000000 0.000000 0.000000 -0.000033 0.000000 0.040953
#
#
# Mechanical properties :
#
#
# Convention : Reuss Voigt Hill
#
# Bulk Modulus (GPa) = 23.00547 34.19471 28.60009
# Shear Modulus (GPa) = 21.18810 25.30508 23.24659
#
# Velocity S-wave (km/s) = 3.24699 3.54845 3.40106
# Velocity P-wave (km/s) = 5.05020 5.81408 5.44555
#
# Compressibility (1/GPa) = 0.04346792
#
# Stress axis : x y z
#
# Youngs Moduli (GPa) = 36.41116 99.81546 58.43579
#
# Poissons Ratio (x) = 0.17713 0.07664
# Poissons Ratio (y) = 0.06461 0.14479
# Poissons Ratio (z) = 0.04775 0.24731
#
# Static dielectric constant tensor:
#      x y z
#    x 3.969940 0.000000 -0.198110 
#    y 0.000000 3.531400 0.000000 
#    z -0.198110 0.000000 3.923920 
# 
# 
# High freq. dielectric constant tensor:
#      x y z
#    x 1.785250 0.000000 0.004420 
#    y 0.000000 1.784990 0.000000 
#    z 0.004420 0.000000 1.791780 
# 
# From -- ./inp_files/355752.got.cif
#   From: 2010.06.25/outbox.cif.g09.slc.cpg/sg12_178_cif.got.tgz:355752.got - 2010.06.28 00:19:55.
