data_PCOD8099611
_publ_section_title
;
Structure prediction by ZEFSAII (Michael W. Deem and Ramdas Pophale) SiO2 
 PCOD8099611
Probable space group: C 2/M
;
_chemical_formula_sum "Si O2"
_cell_formula_units_Z 40
_cell_length_a 23.114659
_cell_length_b 12.912046
_cell_length_c 7.903789
_cell_angle_alpha 90.000000
_cell_angle_beta 114.084735
_cell_angle_gamma 90.000000
_cell_volume 2153.582557
_symmetry_space_group_name_H-M "C 2/M"
_symmetry_group_IT_number 12
_symmetry_cell_setting 'monoclinic'
loop_
_space_group_symop_operation_xyz
x,y,z
-x,y,-z
-x,-y,-z
x,-y,z
1/2+x,1/2+y,z
1/2-x,1/2+y,-z
1/2-x,1/2-y,-z
1/2+x,1/2-y,z
loop_
_atom_site_type_symbol
_atom_site_label
_atom_site_fract_x
_atom_site_fract_y
_atom_site_fract_z
Si Si1 0.286554 0.119389 0.199363
Si Si2 0.336906 0.762320 0.952646
Si Si3 0.439864 0.382011 0.204872
Si Si4 0.821131 0.714901 0.570975
Si Si5 0.582489 0.617348 0.432740
O O1 0.221901 0.183404 0.120581
O O2 0.325655 0.132694 0.422712
O O3 0.269848 0.000000 0.152178
O O4 0.331452 0.157439 0.100228
O O5 0.340473 0.827673 0.780477
O O6 0.400915 0.695308 0.039985
O O7 0.433408 0.500000 0.131394
O O8 0.411866 0.373803 0.359239
O O9 0.513053 0.347095 0.288283
O O10 0.750000 0.750000 0.500000
O O11 0.864015 0.814165 0.587102
O O12 0.595140 0.500000 0.390409
#
# Coordination Sequence:
#
# PCOD8099611 Si02
#       5
#     8   8   8   8   8
#     4  10  21  37  54  77 111 146 183 225 270 321
#     4  10  20  35  56  83 108 143 184 223 273 326
#     4   9  17  32  57  85 113 144 179 221 277 335
#     4  10  21  35  52  79 112 145 180 221 268 322
#     4   9  18  33  55  84 115 146 177 221 279 332
#
# _framework density 18.573701
#
# number of rings (size 3 to 8) (size 9 to 14) (size 15 to 20)
#    0.000    2.400    2.000    1.800    0.000    5.600 
#    0.000    2.000    0.000    2.400    0.000    2.800 
#    0.000    0.000    0.000    0.000    0.000    0.000 
#
# Total GULP energy -247903.859546 kJ/mol
# GULP energy per Si atom -12395.192977 kJ/mol
# Density = 1.853143 g / cm^3
# Si number density = 18.573701 Si / 1000 Ang^3
#
#
#
# Elastic Constant Matrix: (Units=GPa)
#
#
# Indices 1 2 3 4 5 6 
#
# 1 85.6258 24.8532 32.1752 0.0000 -4.0905 0.0000
# 2 24.8532 64.0929 34.6691 0.0000 -10.0251 0.0000
# 3 32.1752 34.6691 122.1685 0.0000 -13.2433 0.0000
# 4 0.0000 0.0000 0.0000 21.5091 0.0000 8.7537
# 5 -4.0905 -10.0251 -13.2433 0.0000 27.2887 0.0000
# 6 0.0000 0.0000 0.0000 8.7537 0.0000 23.1672
#
#
#
# Elastic Compliance Matrix: (Units=1/GPa)
#
#
# Indices 1 2 3 4 5 6 
#
# 1 0.013786 -0.004072 -0.002547 0.000000 -0.000666 0.000000
# 2 -0.004072 0.020165 -0.004131 0.000000 0.004793 0.000000
# 3 -0.002547 -0.004131 0.010368 0.000000 0.003132 0.000000
# 4 0.000000 0.000000 0.000000 0.054940 0.000000 -0.020759
# 5 -0.000666 0.004793 0.003132 0.000000 0.039826 0.000000
# 6 0.000000 0.000000 0.000000 -0.020759 0.000000 0.051008
#
#
# Mechanical properties :
#
#
# Convention : Reuss Voigt Hill
#
# Bulk Modulus (GPa) = 43.82196 50.58693 47.20444
# Shear Modulus (GPa) = 22.81010 26.40564 24.60787
#
# Velocity S-wave (km/s) = 3.50821 3.77459 3.64384
# Velocity P-wave (km/s) = 6.32889 6.80380 6.57063
#
# Compressibility (1/GPa) = 0.02281961
#
# Stress axis : x y z
#
# Youngs Moduli (GPa) = 72.53707 49.59003 96.45021
#
# Poissons Ratio (x) = 0.20193 0.24570
# Poissons Ratio (y) = 0.29537 0.39839
# Poissons Ratio (z) = 0.18478 0.20483
#
# Static dielectric constant tensor:
#      x y z
#    x 3.365860 0.000000 -0.204050 
#    y 0.000000 3.098400 0.000000 
#    z -0.204050 0.000000 3.945030 
# 
# 
# High freq. dielectric constant tensor:
#      x y z
#    x 1.716190 0.000000 -0.009430 
#    y 0.000000 1.681940 0.000000 
#    z -0.009430 0.000000 1.736600 
# 
# From -- ./inp_files/83473.got.cif
#   From: 2010.06.25/outbox.cif.g09.slc.cpg/sg12_42_cif.got.tgz:83473.got - 2010.06.28 00:19:55.
