data_PCOD8099933
_publ_section_title
;
Structure prediction by ZEFSAII (Michael W. Deem and Ramdas Pophale) SiO2 
 PCOD8099933
Probable space group: C 2/M
;
_chemical_formula_sum "Si O2"
_cell_formula_units_Z 48
_cell_length_a 15.218741
_cell_length_b 8.956781
_cell_length_c 26.709429
_cell_angle_alpha 90.000000
_cell_angle_beta 135.385162
_cell_angle_gamma 90.000000
_cell_volume 2557.061043
_symmetry_space_group_name_H-M "C 2/M"
_symmetry_group_IT_number 12
_symmetry_cell_setting 'monoclinic'
loop_
_space_group_symop_operation_xyz
x,y,z
-x,y,-z
-x,-y,-z
x,-y,z
1/2+x,1/2+y,z
1/2-x,1/2+y,-z
1/2-x,1/2-y,-z
1/2+x,1/2-y,z
loop_
_atom_site_type_symbol
_atom_site_label
_atom_site_fract_x
_atom_site_fract_y
_atom_site_fract_z
Si Si1 0.403782 0.825185 0.827916
Si Si2 0.704356 0.676413 0.663454
Si Si3 0.684269 0.824710 0.926773
Si Si4 0.762339 0.173468 0.582937
Si Si5 0.623839 0.675729 0.078421
Si Si6 0.555253 0.173468 0.417540
O O1 0.307696 0.779233 0.745973
O O2 0.540826 0.770988 0.865710
O O3 0.361756 0.747968 0.861786
O O4 0.403203 0.000000 0.837673
O O5 0.688939 0.500000 0.651060
O O6 0.747312 0.745660 0.629070
O O7 0.575245 0.746367 0.628357
O O8 0.754382 0.777646 0.904220
O O9 0.695019 0.000000 0.939281
O O10 0.750000 0.750000 0.000000
O O11 0.635250 0.195191 0.500262
O O12 0.877861 0.249837 0.602058
O O13 0.792510 0.000000 0.603289
O O14 0.613838 0.500000 0.081949
O O15 0.500000 0.736013 0.000000
O O16 0.534642 0.000000 0.397060
#
# Coordination Sequence:
#
# PCOD8099933 Si02
#       6
#     8   8   8   8   8   8
#     4  10  23  39  55  81 114 150 189 231 284 341
#     4  11  23  38  56  83 121 158 198 242 288 344
#     4  10  20  36  57  80 108 140 179 228 280 334
#     4  10  21  38  61  89 118 151 195 242 290 347
#     4  10  20  35  57  84 110 139 183 234 284 339
#     4  10  21  38  61  88 117 153 196 241 292 345
#
# _framework density 18.771550999999999
#
# number of rings (size 3 to 8) (size 9 to 14) (size 15 to 20)
#    0.000    1.833    1.667    2.000    0.000    7.667 
#    0.000    1.667    0.000    0.000    0.000    0.000 
#    0.000    0.000    0.000    0.000    0.000    0.000 
#
# Total GULP energy -297692.230351 kJ/mol
# GULP energy per Si atom -12403.842931 kJ/mol
# Density = 1.872883 g / cm^3
# Si number density = 18.771551 Si / 1000 Ang^3
#
#
#
# Elastic Constant Matrix: (Units=GPa)
#
#
# Indices 1 2 3 4 5 6 
#
# 1 190.1330 77.6819 108.7289 0.0000 -2.2382 0.0000
# 2 77.6819 90.4753 74.4732 0.0000 -1.4850 0.0000
# 3 108.7289 74.4732 137.0251 0.0000 5.3094 0.0000
# 4 0.0000 0.0000 0.0000 30.7637 0.0000 -4.3173
# 5 -2.2382 -1.4850 5.3094 0.0000 67.9591 0.0000
# 6 0.0000 0.0000 0.0000 -4.3173 0.0000 38.3839
#
#
#
# Elastic Compliance Matrix: (Units=1/GPa)
#
#
# Indices 1 2 3 4 5 6 
#
# 1 0.010352 -0.003784 -0.006187 0.000000 0.000742 0.000000
# 2 -0.003784 0.021497 -0.008721 0.000000 0.001026 0.000000
# 3 -0.006187 -0.008721 0.017014 0.000000 -0.001724 0.000000
# 4 0.000000 0.000000 0.000000 0.033027 0.000000 0.003715
# 5 0.000742 0.001026 -0.001724 0.000000 0.014896 0.000000
# 6 0.000000 0.000000 0.000000 0.003715 0.000000 0.026470
#
#
# Mechanical properties :
#
#
# Convention : Reuss Voigt Hill
#
# Bulk Modulus (GPa) = 87.10846 104.37793 95.74320
# Shear Modulus (GPa) = 30.40168 37.87131 34.13649
#
# Velocity S-wave (km/s) = 4.02874 4.49651 4.26904
# Velocity P-wave (km/s) = 8.25508 9.09303 8.68417
#
# Compressibility (1/GPa) = 0.01147994
#
# Stress axis : x y z
#
# Youngs Moduli (GPa) = 96.60107 46.51886 58.77672
#
# Poissons Ratio (x) = 0.17601 0.36362
# Poissons Ratio (y) = 0.36550 0.51259
# Poissons Ratio (z) = 0.59762 0.40569
#
# Static dielectric constant tensor:
#      x y z
#    x -12.976530 0.000000 -9.947680 
#    y 0.000000 3.501140 0.000000 
#    z -9.947680 0.000000 -3.167210 
# 
# 
# High freq. dielectric constant tensor:
#      x y z
#    x 1.747730 0.000000 0.003130 
#    y 0.000000 1.733590 0.000000 
#    z 0.003130 0.000000 1.726880 
# 
# From -- ./inp_files/267633.got.cif
#   From: 2010.06.25/outbox.cif.g09.slc.cpg/sg12_134_cif.got.tgz:267633.got - 2010.06.28 00:19:55.
