data_PCOD8099879
_publ_section_title
;
Structure prediction by ZEFSAII (Michael W. Deem and Ramdas Pophale) SiO2 
 PCOD8099879
Probable space group: C 2/M
;
_chemical_formula_sum "Si O2"
_cell_formula_units_Z 64
_cell_length_a 18.604448
_cell_length_b 8.950958
_cell_length_c 34.547706
_cell_angle_alpha 90.000000
_cell_angle_beta 144.452504
_cell_angle_gamma 90.000000
_cell_volume 3344.751352
_symmetry_space_group_name_H-M "C 2/M"
_symmetry_group_IT_number 12
_symmetry_cell_setting 'monoclinic'
loop_
_space_group_symop_operation_xyz
x,y,z
-x,y,-z
-x,-y,-z
x,-y,z
1/2+x,1/2+y,z
1/2-x,1/2+y,-z
1/2-x,1/2-y,-z
1/2+x,1/2-y,z
loop_
_atom_site_type_symbol
_atom_site_label
_atom_site_fract_x
_atom_site_fract_y
_atom_site_fract_z
Si Si1 0.905494 0.325950 0.381972
Si Si2 0.185470 0.824601 0.007480
Si Si3 0.402160 0.325750 0.889740
Si Si4 0.684518 0.827865 0.739839
Si Si5 0.251381 0.323878 0.114709
Si Si6 0.248195 0.825345 0.387805
Si Si7 0.832814 0.822848 0.503103
Si Si8 0.467210 0.673354 0.264884
O O1 0.943371 0.500000 0.400241
O O2 0.817034 0.292076 0.306515
O O3 0.832602 0.278933 0.388556
O O4 0.026312 0.226492 0.430155
O O5 0.041615 0.783132 0.941211
O O6 0.207203 0.000000 0.016321
O O7 0.250000 0.750000 0.000000
O O8 0.248852 0.758799 0.073108
O O9 0.388209 0.500000 0.894122
O O10 0.317189 0.280172 0.815688
O O11 0.364064 0.229451 0.910214
O O12 0.570835 0.747440 0.711283
O O13 0.660777 0.000000 0.737180
O O14 0.243797 0.500000 0.104734
O O15 0.378589 0.273363 0.191254
O O16 0.286663 0.727579 0.441020
O O17 0.107230 0.786621 0.315124
O O18 0.264374 0.000000 0.404966
O O19 0.750000 0.750000 0.500000
O O20 0.822837 0.000000 0.502401
O O21 0.449142 0.500000 0.263945
#
# Coordination Sequence:
#
# PCOD8099879 Si02
#       8
#     8   8   8   8   8   8   8   8
#     4  10  21  37  58  84 113 145 180 220 270 325
#     4  11  23  37  54  78 110 146 184 228 278 329
#     4   9  19  36  57  80 108 143 183 226 271 321
#     4   9  18  34  57  82 107 140 182 225 268 319
#     4  10  20  35  57  83 111 143 182 226 271 323
#     4  10  21  38  59  83 114 148 182 222 270 324
#     4  12  25  40  59  82 110 144 184 228 273 322
#     4   9  19  35  56  82 110 143 181 223 270 319
#
# _framework density 19.134456
#
# number of rings (size 3 to 8) (size 9 to 14) (size 15 to 20)
#    0.000    2.000    0.000    3.375    0.000    9.000 
#    0.000    3.750    0.000    1.500    0.000    0.000 
#    0.000    0.000    0.000    0.000    0.000    0.000 
#
# Total GULP energy -396885.815971 kJ/mol
# GULP energy per Si atom -12402.681749 kJ/mol
# Density = 1.909091 g / cm^3
# Si number density = 19.134456 Si / 1000 Ang^3
#
#
#
# Elastic Constant Matrix: (Units=GPa)
#
#
# Indices 1 2 3 4 5 6 
#
# 1 136.8729 47.2182 70.7663 0.0000 -21.6137 0.0001
# 2 47.2182 65.9388 45.0366 -0.0003 -13.3040 0.0003
# 3 70.7663 45.0366 111.0539 -0.0001 -17.3931 0.0001
# 4 0.0000 -0.0003 -0.0001 30.5377 0.0001 -2.1922
# 5 -21.6137 -13.3040 -17.3931 0.0001 30.1960 -0.0001
# 6 0.0001 0.0003 0.0001 -2.1922 -0.0001 33.7497
#
#
#
# Elastic Compliance Matrix: (Units=1/GPa)
#
#
# Indices 1 2 3 4 5 6 
#
# 1 0.012177 -0.004245 -0.005458 0.000000 0.003702 0.000000
# 2 -0.004245 0.023100 -0.006095 0.000000 0.003629 0.000000
# 3 -0.005458 -0.006095 0.015302 0.000000 0.002222 0.000000
# 4 0.000000 0.000000 0.000000 0.032900 0.000000 0.002137
# 5 0.003702 0.003629 0.002222 0.000000 0.038645 0.000000
# 6 0.000000 0.000000 0.000000 0.002137 0.000000 0.029769
#
#
# Mechanical properties :
#
#
# Convention : Reuss Voigt Hill
#
# Bulk Modulus (GPa) = 52.67639 71.10085 61.88862
# Shear Modulus (GPa) = 26.34111 28.95298 27.64705
#
# Velocity S-wave (km/s) = 3.71432 3.89412 3.80529
# Velocity P-wave (km/s) = 6.78117 7.58011 7.19175
#
# Compressibility (1/GPa) = 0.01898384
#
# Stress axis : x y z
#
# Youngs Moduli (GPa) = 82.12160 43.28964 65.34905
#
# Poissons Ratio (x) = 0.18376 0.35669
# Poissons Ratio (y) = 0.34860 0.39828
# Poissons Ratio (z) = 0.44824 0.26384
#
# Static dielectric constant tensor:
#      x y z
#    x 3.525630 0.000000 0.008180 
#    y 0.000000 3.490200 0.000000 
#    z 0.008180 0.000000 3.850420 
# 
# 
# High freq. dielectric constant tensor:
#      x y z
#    x 1.743710 0.000000 -0.001450 
#    y 0.000000 1.741100 0.000000 
#    z -0.001450 0.000000 1.759480 
# 
# From -- ./inp_files/378449.got.cif
#   From: 2010.06.25/outbox.cif.g09.slc.cpg/sg12_190_cif.got.tgz:378449.got - 2010.06.28 00:19:55.
