data_PCOD8099133
_publ_section_title
;
Structure prediction by ZEFSAII (Michael W. Deem and Ramdas Pophale) SiO2 
 PCOD8099133
Probable space group: C 2/M
;
_chemical_formula_sum "Si O2"
_cell_formula_units_Z 64
_cell_length_a 18.160814
_cell_length_b 9.145924
_cell_length_c 30.379079
_cell_angle_alpha 90.000000
_cell_angle_beta 138.241763
_cell_angle_gamma 90.000000
_cell_volume 3360.504662
_symmetry_space_group_name_H-M "C 2/M"
_symmetry_group_IT_number 12
_symmetry_cell_setting 'monoclinic'
loop_
_space_group_symop_operation_xyz
x,y,z
-x,y,-z
-x,-y,-z
x,-y,z
1/2+x,1/2+y,z
1/2-x,1/2+y,-z
1/2-x,1/2-y,-z
1/2+x,1/2-y,z
loop_
_atom_site_type_symbol
_atom_site_label
_atom_site_fract_x
_atom_site_fract_y
_atom_site_fract_z
Si Si1 0.283876 0.173214 0.190177
Si Si2 0.062300 0.170495 0.810462
Si Si3 0.772733 0.329827 0.577121
Si Si4 0.537531 0.326069 0.064172
Si Si5 0.579900 0.329769 0.424123
Si Si6 0.188813 0.168659 0.319129
Si Si7 0.135205 0.827938 0.940586
Si Si8 0.639967 0.169329 0.679834
O O1 0.359350 0.239296 0.186217
O O2 0.159638 0.233946 0.129243
O O3 0.328894 0.222966 0.257568
O O4 0.285939 0.000000 0.186329
O O5 0.089654 0.213412 0.872488
O O6 0.936720 0.216201 0.745056
O O7 0.081499 0.000000 0.810390
O O8 0.801703 0.500000 0.591892
O O9 0.659328 0.299483 0.500789
O O10 0.874624 0.248840 0.599189
O O11 0.757439 0.267202 0.618981
O O12 0.538625 0.500000 0.064956
O O13 0.452893 0.268036 0.063239
O O14 0.500000 0.265333 0.000000
O O15 0.569357 0.500000 0.408732
O O16 0.461428 0.264215 0.383670
O O17 0.254660 0.197947 0.303721
O O18 0.197392 0.000000 0.337275
O O19 0.153043 0.000000 0.953898
O O20 0.250000 0.750000 0.000000
O O21 0.605131 0.000000 0.663877
#
# Coordination Sequence:
#
# PCOD8099133 Si02
#       8
#     8   8   8   8   8   8   8   8
#     4  10  20  35  56  80 105 137 181 225 262 310
#     4  10  21  36  54  78 109 142 175 216 269 322
#     4  10  21  37  57  81 108 140 181 225 267 318
#     4   9  17  31  53  78 103 135 175 215 256 306
#     4  10  21  37  57  80 108 142 179 222 272 323
#     4  10  21  37  56  79 110 146 180 218 271 328
#     4  10  20  35  55  79 108 140 175 217 264 314
#     4  10  21  36  55  80 109 141 179 224 270 320
#
# _framework density 19.044758999999999
#
# number of rings (size 3 to 8) (size 9 to 14) (size 15 to 20)
#    0.000    2.125    0.000    3.000    0.000   10.000 
#    0.000    3.125    0.000    5.250    0.000    0.000 
#    0.000    0.000    0.000    0.000    0.000    0.000 
#
# Total GULP energy -396950.749552 kJ/mol
# GULP energy per Si atom -12404.710923 kJ/mol
# Density = 1.900141 g / cm^3
# Si number density = 19.044759 Si / 1000 Ang^3
#
#
#
# Elastic Constant Matrix: (Units=GPa)
#
#
# Indices 1 2 3 4 5 6 
#
# 1 153.4008 46.8719 74.3036 0.0000 3.4705 0.0000
# 2 46.8719 55.5515 49.7628 0.0000 0.8435 0.0000
# 3 74.3036 49.7628 125.1997 0.0000 3.3552 0.0000
# 4 0.0000 0.0000 0.0000 25.2250 0.0000 1.1282
# 5 3.4705 0.8435 3.3552 0.0000 41.9088 0.0000
# 6 0.0000 0.0000 0.0000 1.1282 0.0000 34.6733
#
#
#
# Elastic Compliance Matrix: (Units=1/GPa)
#
#
# Indices 1 2 3 4 5 6 
#
# 1 0.009918 -0.004813 -0.003962 0.000000 -0.000407 0.000000
# 2 -0.004813 0.030294 -0.009199 0.000000 0.000525 0.000000
# 3 -0.003962 -0.009199 0.014011 0.000000 -0.000608 0.000000
# 4 0.000000 0.000000 0.000000 0.039701 0.000000 -0.001292
# 5 -0.000407 0.000525 -0.000608 0.000000 0.023933 0.000000
# 6 0.000000 0.000000 0.000000 -0.001292 0.000000 0.028883
#
#
# Mechanical properties :
#
#
# Convention : Reuss Voigt Hill
#
# Bulk Modulus (GPa) = 54.71682 75.11429 64.91555
# Shear Modulus (GPa) = 26.48590 31.24236 28.86413
#
# Velocity S-wave (km/s) = 3.73328 4.05467 3.89729
# Velocity P-wave (km/s) = 6.88304 7.83881 7.37642
#
# Compressibility (1/GPa) = 0.01827592
#
# Stress axis : x y z
#
# Youngs Moduli (GPa) = 100.82871 33.00950 71.37099
#
# Poissons Ratio (x) = 0.15886 0.28279
# Poissons Ratio (y) = 0.48525 0.65653
# Poissons Ratio (z) = 0.39951 0.30365
#
# Static dielectric constant tensor:
#      x y z
#    x 3.544730 0.000000 -0.000320 
#    y 0.000000 3.302930 0.000000 
#    z -0.000320 0.000000 3.705930 
# 
# 
# High freq. dielectric constant tensor:
#      x y z
#    x 1.750230 0.000000 0.000020 
#    y 0.000000 1.720780 0.000000 
#    z 0.000020 0.000000 1.754640 
# 
# From -- ./inp_files/378477.got.cif
#   From: 2010.06.25/outbox.cif.g09.slc.cpg/sg12_190_cif.got.tgz:378477.got - 2010.06.28 00:19:55.
