data_PCOD8099833
_publ_section_title
;
Structure prediction by ZEFSAII (Michael W. Deem and Ramdas Pophale) SiO2 
 PCOD8099833
Probable space group: C 2/M
;
_chemical_formula_sum "Si O2"
_cell_formula_units_Z 64
_cell_length_a 18.615457
_cell_length_b 9.018964
_cell_length_c 20.269162
_cell_angle_alpha 90.000000
_cell_angle_beta 90.197037
_cell_angle_gamma 90.000000
_cell_volume 3403.012791
_symmetry_space_group_name_H-M "C 2/M"
_symmetry_group_IT_number 12
_symmetry_cell_setting 'monoclinic'
loop_
_space_group_symop_operation_xyz
x,y,z
-x,y,-z
-x,-y,-z
x,-y,z
1/2+x,1/2+y,z
1/2-x,1/2+y,-z
1/2-x,1/2-y,-z
1/2+x,1/2-y,z
loop_
_atom_site_type_symbol
_atom_site_label
_atom_site_fract_x
_atom_site_fract_y
_atom_site_fract_z
Si Si1 0.071945 0.672679 0.185235
Si Si2 0.824099 0.672802 0.079279
Si Si3 0.179440 0.329675 0.072359
Si Si4 0.920589 0.175463 0.184755
Si Si5 0.583918 0.175366 0.573888
Si Si6 0.830150 0.324079 0.693714
Si Si7 0.577875 0.175684 0.426073
Si Si8 0.331528 0.675703 0.311227
O O1 0.051685 0.500000 0.193480
O O2 0.109014 0.703610 0.115042
O O3 0.126359 0.726937 0.241931
O O4 0.001649 0.770806 0.190794
O O5 0.828142 0.500000 0.095112
O O6 0.745328 0.731122 0.098667
O O7 0.885246 0.755395 0.119962
O O8 0.840004 0.708254 0.002871
O O9 0.203751 0.500000 0.080452
O O10 0.877911 0.230443 0.249194
O O11 0.918515 0.000000 0.178034
O O12 0.603259 0.224011 0.499091
O O13 0.503027 0.230164 0.589395
O O14 0.638576 0.257198 0.621571
O O15 0.591395 0.000000 0.583555
O O16 0.828657 0.500000 0.689633
O O17 0.868392 0.257223 0.628459
O O18 0.749259 0.263266 0.698514
O O19 0.576984 0.000000 0.422667
O O20 0.333199 0.500000 0.317336
#
# Coordination Sequence:
#
# PCOD8099833 Si02
#       8
#     8   8   8   8   8   8   8   8
#     4  10  20  36  58  79 101 135 178 218 260 314
#     4  10  20  35  57  82 108 141 178 212 253 312
#     4   9  19  36  57  82 111 139 171 216 263 306
#     4  11  23  37  52  74 107 140 174 222 271 310
#     4   9  17  31  52  76 101 130 166 210 254 299
#     4   9  17  31  52  74  98 133 172 207 252 313
#     4   8  15  29  50  75 101 130 167 208 249 299
#     4  10  21  35  51  73 102 135 169 210 261 311
#
# _framework density 18.806864000000001
#
# number of rings (size 3 to 8) (size 9 to 14) (size 15 to 20)
#    0.000    2.500    0.000    3.000    0.000    6.000 
#    0.000    4.375    0.000    1.500    0.000    0.000 
#    0.000    0.000    0.000    0.000    0.000    0.000 
#
# Total GULP energy -396836.631084 kJ/mol
# GULP energy per Si atom -12401.144721 kJ/mol
# Density = 1.876406 g / cm^3
# Si number density = 18.806864 Si / 1000 Ang^3
#
#
#
# Elastic Constant Matrix: (Units=GPa)
#
#
# Indices 1 2 3 4 5 6 
#
# 1 140.4814 37.7866 74.7856 0.0000 4.0651 0.0000
# 2 37.7866 41.7679 33.1645 0.0000 4.2109 0.0000
# 3 74.7856 33.1645 118.7180 0.0000 2.1317 0.0000
# 4 0.0000 0.0000 0.0000 26.7714 0.0000 6.8905
# 5 4.0651 4.2109 2.1317 0.0000 39.5691 0.0000
# 6 0.0000 0.0000 0.0000 6.8905 0.0000 31.2891
#
#
#
# Elastic Compliance Matrix: (Units=1/GPa)
#
#
# Indices 1 2 3 4 5 6 
#
# 1 0.011824 -0.006118 -0.005735 0.000000 -0.000255 0.000000
# 2 -0.006118 0.034248 -0.005665 0.000000 -0.002711 0.000000
# 3 -0.005735 -0.005665 0.013610 0.000000 0.000459 0.000000
# 4 0.000000 0.000000 0.000000 0.039598 0.000000 -0.008720
# 5 -0.000255 -0.002711 0.000459 0.000000 0.025562 0.000000
# 6 0.000000 0.000000 0.000000 -0.008720 0.000000 0.033880
#
#
# Mechanical properties :
#
#
# Convention : Reuss Voigt Hill
#
# Bulk Modulus (GPa) = 40.57264 65.82676 53.19970
# Shear Modulus (GPa) = 24.75568 29.87462 27.31515
#
# Velocity S-wave (km/s) = 3.63204 3.98992 3.81518
# Velocity P-wave (km/s) = 6.26171 7.50356 6.91059
#
# Compressibility (1/GPa) = 0.02464715
#
# Stress axis : x y z
#
# Youngs Moduli (GPa) = 84.57077 29.19905 73.47361
#
# Poissons Ratio (x) = 0.17864 0.42138
# Poissons Ratio (y) = 0.51739 0.41621
# Poissons Ratio (z) = 0.48502 0.16540
#
# Static dielectric constant tensor:
#      x y z
#    x 3.552120 0.000000 -0.151510 
#    y 0.000000 3.149720 0.000000 
#    z -0.151510 0.000000 3.703440 
# 
# 
# High freq. dielectric constant tensor:
#      x y z
#    x 1.733780 0.000000 -0.001380 
#    y 0.000000 1.700000 0.000000 
#    z -0.001380 0.000000 1.745230 
# 
# From -- ./inp_files/314179.got.cif
#   From: 2010.06.25/outbox.cif.g09.slc.cpg/sg12_158_cif.got.tgz:314179.got - 2010.06.28 00:19:55.
