data_PCOD8099434
_publ_section_title
;
Structure prediction by ZEFSAII (Michael W. Deem and Ramdas Pophale) SiO2 
 PCOD8099434
Probable space group: C 2/M
;
_chemical_formula_sum "Si O2"
_cell_formula_units_Z 64
_cell_length_a 18.803730
_cell_length_b 8.661131
_cell_length_c 20.041397
_cell_angle_alpha 90.000000
_cell_angle_beta 89.832715
_cell_angle_gamma 90.000000
_cell_volume 3263.959445
_symmetry_space_group_name_H-M "C 2/M"
_symmetry_group_IT_number 12
_symmetry_cell_setting 'monoclinic'
loop_
_space_group_symop_operation_xyz
x,y,z
-x,y,-z
-x,-y,-z
x,-y,z
1/2+x,1/2+y,z
1/2-x,1/2+y,-z
1/2-x,1/2-y,-z
1/2+x,1/2-y,z
loop_
_atom_site_type_symbol
_atom_site_label
_atom_site_fract_x
_atom_site_fract_y
_atom_site_fract_z
Si Si1 0.849104 0.821889 0.237910
Si Si2 0.915845 0.670599 0.493390
Si Si3 0.417989 0.679948 0.992212
Si Si4 0.318887 0.179651 0.102367
Si Si5 0.408935 0.677352 0.625504
Si Si6 0.309868 0.823142 0.729026
Si Si7 0.332086 0.820313 0.880604
Si Si8 0.442028 0.819081 0.348900
O O1 0.857897 0.721286 0.171367
O O2 0.773810 0.788656 0.272768
O O3 0.910939 0.778646 0.288580
O O4 0.855556 0.000000 0.216945
O O5 0.882981 0.500000 0.504162
O O6 0.883819 0.783836 0.549685
O O7 0.901155 0.728960 0.417743
O O8 0.000000 0.661945 0.500000
O O9 0.406315 0.500000 0.006892
O O10 0.392590 0.721636 0.917605
O O11 0.500000 0.726509 0.000000
O O12 0.371724 0.780718 0.042672
O O13 0.246212 0.274460 0.093734
O O14 0.300123 0.000000 0.100780
O O15 0.431649 0.500000 0.628959
O O16 0.344250 0.709247 0.675425
O O17 0.474528 0.783649 0.646829
O O18 0.340421 0.785208 0.802187
O O19 0.326051 0.000000 0.709750
O O20 0.342874 0.000000 0.896056
O O21 0.432438 0.000000 0.335205
#
# Coordination Sequence:
#
# PCOD8099434 Si02
#       8
#     8   8   8   8   8   8   8   8
#     4  10  21  38  59  83 111 142 181 228 273 320
#     4   8  16  32  52  74 104 142 182 224 271 325
#     4  11  24  40  58  83 116 148 181 227 275 318
#     4  11  22  38  61  84 111 147 184 221 266 327
#     4  11  21  32  53  82 110 142 183 229 272 322
#     4   9  20  38  57  78 109 145 179 223 275 325
#     4  10  21  39  62  84 108 143 187 228 269 323
#     4  10  20  35  56  80 108 144 183 224 274 329
#
# _framework density 19.608087000000001
#
# number of rings (size 3 to 8) (size 9 to 14) (size 15 to 20)
#    0.000    2.000    0.000    5.625    0.000    7.750 
#    0.000    3.125    0.000    0.000    0.000    0.000 
#    0.000    0.000    0.000    0.000    0.000    0.000 
#
# Total GULP energy -396871.575669 kJ/mol
# GULP energy per Si atom -12402.236740 kJ/mol
# Density = 1.956346 g / cm^3
# Si number density = 19.608087 Si / 1000 Ang^3
#
#
#
# Elastic Constant Matrix: (Units=GPa)
#
#
# Indices 1 2 3 4 5 6 
#
# 1 23.5144 4.4598 -4.1270 0.0000 -1.2722 0.0000
# 2 4.4598 63.7430 13.2120 0.0000 -9.2699 0.0000
# 3 -4.1270 13.2120 42.3191 0.0000 -7.2363 0.0000
# 4 0.0000 0.0000 0.0000 33.4669 0.0000 1.9653
# 5 -1.2722 -9.2699 -7.2363 0.0000 31.9034 0.0000
# 6 0.0000 0.0000 0.0000 1.9653 0.0000 25.7012
#
#
#
# Elastic Compliance Matrix: (Units=1/GPa)
#
#
# Indices 1 2 3 4 5 6 
#
# 1 0.044443 -0.004057 0.005932 0.000000 0.001939 0.000000
# 2 -0.004057 0.017607 -0.005249 0.000000 0.003764 0.000000
# 3 0.005932 -0.005249 0.026661 0.000000 0.004759 0.000000
# 4 0.000000 0.000000 0.000000 0.030015 0.000000 -0.002295
# 5 0.001939 0.003764 0.004759 0.000000 0.033595 0.000000
# 6 0.000000 0.000000 0.000000 -0.002295 0.000000 0.039084
#
#
# Mechanical properties :
#
#
# Convention : Reuss Voigt Hill
#
# Bulk Modulus (GPa) = 12.20060 17.40733 14.80397
# Shear Modulus (GPa) = 22.17555 25.94974 24.06265
#
# Velocity S-wave (km/s) = 3.36659 3.64183 3.50691
# Velocity P-wave (km/s) = 4.62035 5.15566 4.89533
#
# Compressibility (1/GPa) = 0.08196315
#
# Stress axis : x y z
#
# Youngs Moduli (GPa) = 22.50089 56.79516 37.50805
#
# Poissons Ratio (x) = 0.23042 -0.22251
# Poissons Ratio (y) = 0.09129 0.19688
# Poissons Ratio (z) = -0.13348 0.29812
#
# Static dielectric constant tensor:
#      x y z
#    x 3.292350 0.000000 0.088000 
#    y 0.000000 3.530380 0.000000 
#    z 0.088000 0.000000 3.840020 
# 
# 
# High freq. dielectric constant tensor:
#      x y z
#    x 1.737750 0.000000 0.001570 
#    y 0.000000 1.768710 0.000000 
#    z 0.001570 0.000000 1.775670 
# 
# From -- ./inp_files/314200.got.cif
#   From: 2010.06.25/outbox.cif.g09.slc.cpg/sg12_158_cif.got.tgz:314200.got - 2010.06.28 00:19:55.
