data_PCOD8099732
_publ_section_title
;
Structure prediction by ZEFSAII (Michael W. Deem and Ramdas Pophale) SiO2 
 PCOD8099732
Probable space group: C 2/M
;
_chemical_formula_sum "Si O2"
_cell_formula_units_Z 64
_cell_length_a 16.705214
_cell_length_b 13.910906
_cell_length_c 14.879828
_cell_angle_alpha 90.000000
_cell_angle_beta 90.139299
_cell_angle_gamma 90.000000
_cell_volume 3457.833576
_symmetry_space_group_name_H-M "C 2/M"
_symmetry_group_IT_number 12
_symmetry_cell_setting 'monoclinic'
loop_
_space_group_symop_operation_xyz
x,y,z
-x,y,-z
-x,-y,-z
x,-y,z
1/2+x,1/2+y,z
1/2-x,1/2+y,-z
1/2-x,1/2-y,-z
1/2+x,1/2-y,z
loop_
_atom_site_type_symbol
_atom_site_label
_atom_site_fract_x
_atom_site_fract_y
_atom_site_fract_z
Si Si1 0.498380 0.610730 0.171291
Si Si2 0.170439 0.110493 0.098898
Si Si3 0.952298 0.392904 0.408802
Si Si4 0.063474 0.244252 0.316325
Si Si5 0.408222 0.392437 0.522835
Si Si6 0.225396 0.736147 0.232166
Si Si7 0.827747 0.886605 0.101738
Si Si8 0.813292 0.751129 0.420371
O O1 0.489732 0.500000 0.199488
O O2 0.574767 0.626077 0.107122
O O3 0.509268 0.669726 0.262188
O O4 0.418016 0.648709 0.123056
O O5 0.221915 0.166268 0.173770
O O6 0.192965 0.000000 0.113609
O O7 0.194375 0.146366 0.999382
O O8 0.938096 0.500000 0.368949
O O9 0.867522 0.343702 0.428601
O O10 0.000000 0.400585 0.500000
O O11 0.005271 0.330513 0.341522
O O12 0.104967 0.183727 0.396872
O O13 0.134776 0.292001 0.258673
O O14 0.500000 0.399398 0.500000
O O15 0.375156 0.500000 0.545720
O O16 0.364301 0.349142 0.434782
O O17 0.263307 0.653695 0.171236
O O18 0.277069 0.749996 0.321342
O O19 0.823816 0.000000 0.108911
O O20 0.750000 0.750000 0.500000
#
# Coordination Sequence:
#
# PCOD8099732 Si02
#       8
#     8   8   8   8   8   8   8   8
#     4   9  18  32  58  86 109 142 181 230 289 340
#     4   9  19  37  58  82 112 148 187 230 282 343
#     4  11  22  38  57  73 101 151 198 231 270 324
#     4  11  19  39  55  78 114 148 192 232 270 336
#     4  11  22  37  61  82 109 149 188 233 288 334
#     4  11  23  34  58  81 116 150 186 230 280 336
#     4  10  20  35  56  85 117 143 182 235 289 339
#     4  12  22  40  56  82 118 147 188 239 279 333
#
# _framework density 18.508697000000002
#
# number of rings (size 3 to 8) (size 9 to 14) (size 15 to 20)
#    0.000    1.500    3.750    1.875    0.000    4.000 
#    0.000    0.000    0.000    0.000    0.000    0.000 
#    0.000   14.000    0.000    0.000    0.000    0.000 
#
# Total GULP energy -396744.896291 kJ/mol
# GULP energy per Si atom -12398.278009 kJ/mol
# Density = 1.846657 g / cm^3
# Si number density = 18.508697 Si / 1000 Ang^3
#
#
#
# Elastic Constant Matrix: (Units=GPa)
#
#
# Indices 1 2 3 4 5 6 
#
# 1 93.2773 51.7968 56.7040 0.0000 1.8928 0.0000
# 2 51.7968 97.4828 52.5065 0.0000 -3.0602 0.0000
# 3 56.7040 52.5065 128.7726 0.0000 3.0406 0.0000
# 4 0.0000 0.0000 0.0000 32.4476 0.0000 -6.4485
# 5 1.8928 -3.0602 3.0406 0.0000 30.5567 0.0000
# 6 0.0000 0.0000 0.0000 -6.4485 0.0000 28.0940
#
#
#
# Elastic Compliance Matrix: (Units=1/GPa)
#
#
# Indices 1 2 3 4 5 6 
#
# 1 0.017439 -0.006645 -0.004940 0.000000 -0.001254 0.000000
# 2 -0.006645 0.015783 -0.003565 0.000000 0.002347 0.000000
# 3 -0.004940 -0.003565 0.011423 0.000000 -0.001188 0.000000
# 4 0.000000 0.000000 0.000000 0.032292 0.000000 0.007412
# 5 -0.001254 0.002347 -0.001188 0.000000 0.033157 0.000000
# 6 0.000000 0.000000 0.000000 0.007412 0.000000 0.037296
#
#
# Mechanical properties :
#
#
# Convention : Reuss Voigt Hill
#
# Bulk Modulus (GPa) = 69.71080 71.28304 70.49692
# Shear Modulus (GPa) = 27.40175 28.78803 28.09489
#
# Velocity S-wave (km/s) = 3.85187 3.94811 3.90029
# Velocity P-wave (km/s) = 7.58473 7.70586 7.64554
#
# Compressibility (1/GPa) = 0.01434498
#
# Stress axis : x y z
#
# Youngs Moduli (GPa) = 57.34228 63.36122 87.54568
#
# Poissons Ratio (x) = 0.42101 0.43250
# Poissons Ratio (y) = 0.38102 0.31208
# Poissons Ratio (z) = 0.28329 0.22587
#
# Static dielectric constant tensor:
#      x y z
#    x 3.598180 0.000000 0.079950 
#    y 0.000000 3.840440 0.000000 
#    z 0.079950 0.000000 3.557820 
# 
# 
# High freq. dielectric constant tensor:
#      x y z
#    x 1.720090 0.000000 -0.001830 
#    y 0.000000 1.708430 0.000000 
#    z -0.001830 0.000000 1.722470 
# 
# From -- ./inp_files/224758.got.cif
#   From: 2010.06.25/outbox.cif.g09.slc.cpg/sg12_113_cif.got.tgz:224758.got - 2010.06.28 00:19:55.
