data_PCOD8099254
_publ_section_title
;
Structure prediction by ZEFSAII (Michael W. Deem and Ramdas Pophale) SiO2 
 PCOD8099254
Probable space group: C 2/M
;
_chemical_formula_sum "Si O2"
_cell_formula_units_Z 64
_cell_length_a 25.039970
_cell_length_b 9.107879
_cell_length_c 31.901417
_cell_angle_alpha 90.000000
_cell_angle_beta 152.470571
_cell_angle_gamma 90.000000
_cell_volume 3362.752246
_symmetry_space_group_name_H-M "C 2/M"
_symmetry_group_IT_number 12
_symmetry_cell_setting 'monoclinic'
loop_
_space_group_symop_operation_xyz
x,y,z
-x,y,-z
-x,-y,-z
x,-y,z
1/2+x,1/2+y,z
1/2-x,1/2+y,-z
1/2-x,1/2-y,-z
1/2+x,1/2-y,z
loop_
_atom_site_type_symbol
_atom_site_label
_atom_site_fract_x
_atom_site_fract_y
_atom_site_fract_z
Si Si1 0.924969 0.169985 0.809585
Si Si2 0.567101 0.325506 0.680529
Si Si3 0.609519 0.828935 0.300481
Si Si4 0.350769 0.665160 0.986238
Si Si5 0.759691 0.827463 0.770655
Si Si6 0.805817 0.170963 0.499863
Si Si7 0.600960 0.168383 0.790454
Si Si8 0.871817 0.657678 0.920397
O O1 0.890599 0.254744 0.744342
O O2 0.837778 0.223648 0.785671
O O3 0.903960 0.000000 0.786490
O O4 0.061029 0.200490 0.914291
O O5 0.573615 0.500000 0.684508
O O6 0.637890 0.259945 0.689906
O O7 0.435683 0.270911 0.583675
O O8 0.620254 0.263954 0.761523
O O9 0.732713 0.794259 0.407290
O O10 0.507561 0.766973 0.259427
O O11 0.588546 0.000000 0.279009
O O12 0.380275 0.500000 0.990658
O O13 0.212893 0.676339 0.899476
O O14 0.374064 0.788035 0.968924
O O15 0.827272 0.786756 0.859811
O O16 0.735389 0.000000 0.752518
O O17 0.750000 0.250000 0.500000
O O18 0.804281 0.000000 0.509260
O O19 0.578033 0.000000 0.760586
O O20 0.802682 0.500000 0.867775
O O21 0.000000 0.617278 0.000000
#
# Coordination Sequence:
#
# PCOD8099254 Si02
#       8
#     8   8   8   8   8   8   8   8
#     4  10  23  40  57  80 113 159 206 238 279 339
#     4  11  22  35  57  92 122 145 184 243 299 345
#     4  10  22  40  60  84 115 152 195 237 288 351
#     4  10  20  35  55  81 116 156 195 235 284 341
#     4  11  22  37  57  81 115 158 198 239 289 344
#     4  10  21  38  62  91 119 147 185 235 296 353
#     4  10  20  35  58  86 117 153 189 231 289 350
#     4  11  21  31  50  83 116 146 192 245 288 334
#
# _framework density 19.032031
#
# number of rings (size 3 to 8) (size 9 to 14) (size 15 to 20)
#    0.000    1.625    3.750    1.125    0.000    4.000 
#    0.000    0.625    0.000    3.750    0.000    0.000 
#    0.000    0.000    0.000    0.000    0.000    0.000 
#
# Total GULP energy -396588.262257 kJ/mol
# GULP energy per Si atom -12393.383196 kJ/mol
# Density = 1.898871 g / cm^3
# Si number density = 19.032031 Si / 1000 Ang^3
#
#
#
# Elastic Constant Matrix: (Units=GPa)
#
#
# Indices 1 2 3 4 5 6 
#
# 1 81.0474 35.1627 47.4099 0.0000 2.7881 -0.0001
# 2 35.1627 59.0383 32.5420 0.0012 -1.8834 -0.0016
# 3 47.4099 32.5420 129.8385 -0.0003 11.7255 0.0000
# 4 0.0000 0.0012 -0.0003 27.7109 -0.0001 -2.0346
# 5 2.7881 -1.8834 11.7255 -0.0001 33.8222 0.0000
# 6 -0.0001 -0.0016 0.0000 -2.0346 0.0000 33.7393
#
#
#
# Elastic Compliance Matrix: (Units=1/GPa)
#
#
# Indices 1 2 3 4 5 6 
#
# 1 0.018843 -0.008661 -0.004672 0.000000 -0.000416 0.000000
# 2 -0.008661 0.023912 -0.003113 -0.000001 0.003125 0.000001
# 3 -0.004672 -0.003113 0.010498 0.000000 -0.003428 0.000000
# 4 0.000000 -0.000001 0.000000 0.036247 0.000000 0.002186
# 5 -0.000416 0.003125 -0.003428 0.000000 0.030963 0.000000
# 6 0.000000 0.000001 0.000000 0.002186 0.000000 0.029771
#
#
# Mechanical properties :
#
#
# Convention : Reuss Voigt Hill
#
# Bulk Modulus (GPa) = 49.11357 55.57261 52.34309
# Shear Modulus (GPa) = 26.32777 29.37511 27.85144
#
# Velocity S-wave (km/s) = 3.72336 3.93295 3.82959
# Velocity P-wave (km/s) = 6.65930 7.06307 6.86416
#
# Compressibility (1/GPa) = 0.02036097
#
# Stress axis : x y z
#
# Youngs Moduli (GPa) = 53.06872 41.82001 95.25901
#
# Poissons Ratio (x) = 0.36220 0.44508
# Poissons Ratio (y) = 0.45962 0.29653
# Poissons Ratio (z) = 0.24796 0.13018
#
# Static dielectric constant tensor:
#      x y z
#    x 3.546390 0.000000 0.384140 
#    y 0.000000 3.446890 0.000000 
#    z 0.384140 0.000000 3.763000 
# 
# 
# High freq. dielectric constant tensor:
#      x y z
#    x 1.723960 0.000000 0.024290 
#    y 0.000000 1.743240 0.000000 
#    z 0.024290 0.000000 1.743390 
# 
# From -- ./inp_files/382495.got.cif
#   From: 2010.06.25/outbox.cif.g09.slc.cpg/sg12_192_cif.got.tgz:382495.got - 2010.06.28 00:19:55.
