data_PCOD8099882
_publ_section_title
;
Structure prediction by ZEFSAII (Michael W. Deem and Ramdas Pophale) SiO2 
 PCOD8099882
Probable space group: C 2/M
;
_chemical_formula_sum "Si O2"
_cell_formula_units_Z 56
_cell_length_a 17.970048
_cell_length_b 8.976085
_cell_length_c 28.593151
_cell_angle_alpha 90.000000
_cell_angle_beta 141.086684
_cell_angle_gamma 90.000000
_cell_volume 2897.059170
_symmetry_space_group_name_H-M "C 2/M"
_symmetry_group_IT_number 12
_symmetry_cell_setting 'monoclinic'
loop_
_space_group_symop_operation_xyz
x,y,z
-x,y,-z
-x,-y,-z
x,-y,z
1/2+x,1/2+y,z
1/2-x,1/2+y,-z
1/2-x,1/2-y,-z
1/2+x,1/2-y,z
loop_
_atom_site_type_symbol
_atom_site_label
_atom_site_fract_x
_atom_site_fract_y
_atom_site_fract_z
Si Si1 0.723620 0.676163 0.345129
Si Si2 0.116640 0.825087 0.653761
Si Si3 0.876091 0.675430 0.067110
Si Si4 0.535722 0.672132 0.069887
Si Si5 0.422063 0.836171 0.507981
Si Si6 0.520851 0.827916 0.783638
Si Si7 0.308956 0.170529 0.218155
O O1 0.728231 0.500000 0.339494
O O2 0.782878 0.749890 0.328755
O O3 0.793140 0.720012 0.427187
O O4 0.590533 0.730309 0.286352
O O5 0.135956 0.779093 0.716517
O O6 0.983154 0.776957 0.573970
O O7 0.128264 0.000000 0.653773
O O8 0.857536 0.500000 0.057235
O O9 0.934244 0.727380 0.144158
O O10 0.961605 0.723304 0.067431
O O11 0.750000 0.750000 0.000000
O O12 0.507243 0.500000 0.067154
O O13 0.672595 0.709915 0.143903
O O14 0.500000 0.712543 0.000000
O O15 0.500000 0.848572 0.500000
O O16 0.413005 0.000000 0.527180
O O17 0.626194 0.799914 0.798928
O O18 0.482075 0.000000 0.766175
O O19 0.325189 0.000000 0.242492
#
# Coordination Sequence:
#
# PCOD8099882 Si02
#       7
#     8   8   8   8   8   8   8
#     4  10  20  35  57  83 111 145 184 227 278 334
#     4  11  21  33  54  83 112 143 185 233 276 326
#     4  11  23  39  60  87 116 146 184 228 275 326
#     4  10  21  39  62  86 113 147 186 225 271 329
#     4   8  16  32  53  78 108 142 182 227 276 331
#     4  10  22  39  58  82 112 146 186 231 275 325
#     4  10  21  38  58  79 110 150 185 224 278 331
#
# _framework density 19.329947000000001
#
# number of rings (size 3 to 8) (size 9 to 14) (size 15 to 20)
#    0.000    2.000    0.000    4.714    0.000   10.286 
#    0.000    2.143    0.000    0.000    0.000    0.000 
#    0.000    0.000    0.000    0.000    0.000    0.000 
#
# Total GULP energy -347265.690350 kJ/mol
# GULP energy per Si atom -12402.346084 kJ/mol
# Density = 1.928595 g / cm^3
# Si number density = 19.329947 Si / 1000 Ang^3
#
#
#
# Elastic Constant Matrix: (Units=GPa)
#
#
# Indices 1 2 3 4 5 6 
#
# 1 91.6196 39.3367 57.2695 0.0000 8.4668 0.0000
# 2 39.3367 88.6064 62.0889 0.0000 4.7993 -0.0001
# 3 57.2695 62.0889 156.6280 0.0000 10.1943 0.0000
# 4 0.0000 0.0000 0.0000 17.0140 0.0000 4.1739
# 5 8.4668 4.7993 10.1943 0.0000 32.4237 0.0000
# 6 0.0000 -0.0001 0.0000 4.1739 0.0000 31.0369
#
#
#
# Elastic Compliance Matrix: (Units=1/GPa)
#
#
# Indices 1 2 3 4 5 6 
#
# 1 0.015219 -0.003930 -0.003865 0.000000 -0.002177 0.000000
# 2 -0.003930 0.016646 -0.005174 0.000000 0.000189 0.000000
# 3 -0.003865 -0.005174 0.009937 0.000000 -0.001349 0.000000
# 4 0.000000 0.000000 0.000000 0.060780 0.000000 -0.008174
# 5 -0.002177 0.000189 -0.001349 0.000000 0.031806 0.000000
# 6 0.000000 0.000000 0.000000 -0.008174 0.000000 0.033319
#
#
# Mechanical properties :
#
#
# Convention : Reuss Voigt Hill
#
# Bulk Modulus (GPa) = 63.03833 72.69380 67.86607
# Shear Modulus (GPa) = 25.13400 27.97218 26.55309
#
# Velocity S-wave (km/s) = 3.60983 3.80819 3.71033
# Velocity P-wave (km/s) = 7.07510 7.55148 7.31717
#
# Compressibility (1/GPa) = 0.01586336
#
# Stress axis : x y z
#
# Youngs Moduli (GPa) = 65.70574 60.07481 100.63862
#
# Poissons Ratio (x) = 0.23611 0.38898
# Poissons Ratio (y) = 0.25824 0.52069
# Poissons Ratio (z) = 0.25396 0.31082
#
# Static dielectric constant tensor:
#      x y z
#    x 3.393950 0.000000 0.055820 
#    y 0.000000 3.524710 0.000000 
#    z 0.055820 0.000000 3.960650 
# 
# 
# High freq. dielectric constant tensor:
#      x y z
#    x 1.737130 0.000000 0.004420 
#    y 0.000000 1.749150 0.000000 
#    z 0.004420 0.000000 1.771900 
# 
# From -- ./inp_files/363151.got.cif
#   From: 2010.06.25/outbox.cif.g09.slc.cpg/sg12_182_cif.got.tgz:363151.got - 2010.06.28 00:19:55.
