data_PCOD8099033
_publ_section_title
;
Structure prediction by ZEFSAII (Michael W. Deem and Ramdas Pophale) SiO2 
 PCOD8099033
Probable space group: C 2/M
;
_chemical_formula_sum "Si O2"
_cell_formula_units_Z 56
_cell_length_a 19.522836
_cell_length_b 9.222865
_cell_length_c 31.591307
_cell_angle_alpha 90.000000
_cell_angle_beta 145.121550
_cell_angle_gamma 90.000000
_cell_volume 3252.736451
_symmetry_space_group_name_H-M "C 2/M"
_symmetry_group_IT_number 12
_symmetry_cell_setting 'monoclinic'
loop_
_space_group_symop_operation_xyz
x,y,z
-x,y,-z
-x,-y,-z
x,-y,z
1/2+x,1/2+y,z
1/2-x,1/2+y,-z
1/2-x,1/2-y,-z
1/2+x,1/2-y,z
loop_
_atom_site_type_symbol
_atom_site_label
_atom_site_fract_x
_atom_site_fract_y
_atom_site_fract_z
Si Si1 0.863637 0.665091 0.699536
Si Si2 0.643469 0.328600 0.922343
Si Si3 0.898905 0.329343 0.811333
Si Si4 0.742621 0.666282 0.556892
Si Si5 0.436091 0.330256 0.601270
Si Si6 0.099346 0.168505 0.805322
Si Si7 0.686462 0.328718 0.760448
O O1 0.906459 0.500000 0.718539
O O2 0.835290 0.703577 0.733844
O O3 0.747406 0.692124 0.610354
O O4 0.972235 0.756523 0.735983
O O5 0.645275 0.500000 0.932274
O O6 0.519970 0.262130 0.876925
O O7 0.660968 0.293661 0.881327
O O8 0.750000 0.250000 0.000000
O O9 0.928407 0.500000 0.831756
O O10 0.807811 0.268371 0.800685
O O11 0.773082 0.500000 0.561467
O O12 0.611572 0.704006 0.470791
O O13 0.844724 0.762706 0.587996
O O14 0.438803 0.500000 0.612133
O O15 0.569467 0.266753 0.676378
O O16 0.183565 0.216665 0.808626
O O17 0.071716 0.000000 0.788090
O O18 0.689962 0.500000 0.756526
#
# Coordination Sequence:
#
# PCOD8099033 Si02
#       7
#     8   8   8   8   8   8   8
#     4   9  16  27  43  66  94 123 157 196 236 275
#     4  10  20  35  55  76  96 119 150 187 227 274
#     4   9  18  32  50  70  96 127 154 187 232 278
#     4   9  16  25  39  64  93 121 158 200 238 271
#     4   9  16  26  42  63  90 124 160 198 234 269
#     4   9  17  30  50  72  91 119 159 193 221 267
#     4   9  16  29  48  70  94 123 160 195 229 271
#
# _framework density 17.216273999999999
#
# number of rings (size 3 to 8) (size 9 to 14) (size 15 to 20)
#    0.000    2.857    1.429    0.429    0.000    0.571 
#    0.000    2.857    0.000    8.571    0.000    0.000 
#    0.000    9.143    0.000    0.000    0.000    0.000 
#
# Total GULP energy -346931.885285 kJ/mol
# GULP energy per Si atom -12390.424474 kJ/mol
# Density = 1.717709 g / cm^3
# Si number density = 17.216274 Si / 1000 Ang^3
#
#
#
# Elastic Constant Matrix: (Units=GPa)
#
#
# Indices 1 2 3 4 5 6 
#
# 1 127.6060 31.9962 66.8535 0.0000 -0.1242 -0.0001
# 2 31.9962 39.2060 38.2364 -0.0001 -0.2910 -0.0002
# 3 66.8535 38.2364 135.2149 0.0000 -5.1943 0.0000
# 4 0.0000 -0.0001 0.0000 20.8990 0.0000 0.9093
# 5 -0.1242 -0.2910 -5.1943 0.0000 20.7384 0.0000
# 6 -0.0001 -0.0002 0.0000 0.9093 0.0000 18.2504
#
#
#
# Elastic Compliance Matrix: (Units=1/GPa)
#
#
# Indices 1 2 3 4 5 6 
#
# 1 0.011320 -0.005176 -0.004174 0.000000 -0.001050 0.000000
# 2 -0.005176 0.037670 -0.008153 0.000000 -0.001544 0.000000
# 3 -0.004174 -0.008153 0.011873 0.000000 0.002835 0.000000
# 4 0.000000 0.000000 0.000000 0.047953 0.000000 -0.002389
# 5 -0.001050 -0.001544 0.002835 0.000000 0.048902 0.000000
# 6 0.000000 0.000000 0.000000 -0.002389 0.000000 0.054912
#
#
# Mechanical properties :
#
#
# Convention : Reuss Voigt Hill
#
# Bulk Modulus (GPa) = 38.67086 64.02211 51.34648
# Shear Modulus (GPa) = 19.51189 22.97362 21.24276
#
# Velocity S-wave (km/s) = 3.37016 3.65692 3.51647
# Velocity P-wave (km/s) = 6.13633 7.42284 6.81003
#
# Compressibility (1/GPa) = 0.02585927
#
# Stress axis : x y z
#
# Youngs Moduli (GPa) = 88.33971 26.54648 84.22122
#
# Poissons Ratio (x) = 0.13740 0.35151
# Poissons Ratio (y) = 0.45722 0.68663
# Poissons Ratio (z) = 0.36869 0.21643
#
# Static dielectric constant tensor:
#      x y z
#    x 3.300030 0.000000 -0.219070 
#    y 0.000000 3.114690 0.000000 
#    z -0.219070 0.000000 3.415470 
# 
# 
# High freq. dielectric constant tensor:
#      x y z
#    x 1.643450 0.000000 -0.019850 
#    y 0.000000 1.649580 0.000000 
#    z -0.019850 0.000000 1.667160 
# 
# From -- ./inp_files/281625.got.cif
#   From: 2010.06.25/outbox.cif.g09.slc.cpg/sg12_141_cif.got.tgz:281625.got - 2010.06.28 00:19:55.
