data_PCOD8099667
_publ_section_title
;
Structure prediction by ZEFSAII (Michael W. Deem and Ramdas Pophale) SiO2 
 PCOD8099667
Probable space group: C 2/M
;
_chemical_formula_sum "Si O2"
_cell_formula_units_Z 64
_cell_length_a 23.744343
_cell_length_b 8.955945
_cell_length_c 28.665890
_cell_angle_alpha 90.000000
_cell_angle_beta 148.912523
_cell_angle_gamma 90.000000
_cell_volume 3147.588575
_symmetry_space_group_name_H-M "C 2/M"
_symmetry_group_IT_number 12
_symmetry_cell_setting 'monoclinic'
loop_
_space_group_symop_operation_xyz
x,y,z
-x,y,-z
-x,-y,-z
x,-y,z
1/2+x,1/2+y,z
1/2-x,1/2+y,-z
1/2-x,1/2-y,-z
1/2+x,1/2-y,z
loop_
_atom_site_type_symbol
_atom_site_label
_atom_site_fract_x
_atom_site_fract_y
_atom_site_fract_z
Si Si1 0.686257 0.677247 0.997735
Si Si2 0.276544 0.174908 0.782488
Si Si3 0.439083 0.328305 0.833064
Si Si4 0.787794 0.175427 0.159796
Si Si5 0.048137 0.176999 0.582481
Si Si6 0.143692 0.827236 0.325595
Si Si7 0.621985 0.169470 0.475633
Si Si8 0.991758 0.330279 0.697360
O O1 0.697600 0.500000 0.001321
O O2 0.734067 0.731278 0.080477
O O3 0.750000 0.750000 0.000000
O O4 0.560361 0.729546 0.907310
O O5 0.386757 0.243412 0.839678
O O6 0.272777 0.213508 0.834696
O O7 0.169609 0.239154 0.679620
O O8 0.281820 0.000000 0.778493
O O9 0.444585 0.500000 0.851289
O O10 0.362694 0.301302 0.734110
O O11 0.912159 0.226238 0.253451
O O12 0.782917 0.000000 0.144995
O O13 0.000000 0.242391 0.500000
O O14 0.969663 0.226611 0.567893
O O15 0.051028 0.000000 0.583409
O O16 0.260127 0.768804 0.426110
O O17 0.049186 0.730396 0.282232
O O18 0.125033 0.000000 0.325641
O O19 0.608300 0.177689 0.410140
O O20 0.607455 0.000000 0.483507
O O21 0.033500 0.500000 0.733255
#
# Coordination Sequence:
#
# PCOD8099667 Si02
#       8
#     8   8   8   8   8   8   8   8
#     4  11  24  43  67  97 126 158 202 249 304 367
#     4  10  22  39  60  88 120 158 204 250 303 361
#     4  10  23  41  62  88 120 156 196 245 303 361
#     4  11  23  41  64  89 121 163 204 251 309 364
#     4  10  20  35  56  83 117 159 207 255 300 353
#     4  10  21  38  58  84 120 161 201 247 306 370
#     4  10  21  35  54  84 119 156 202 248 301 364
#     4  11  22  36  57  88 120 157 204 253 304 363
#
# _framework density 20.333026
#
# number of rings (size 3 to 8) (size 9 to 14) (size 15 to 20)
#    0.000    1.625    1.250    3.000    0.000    5.750 
#    0.000    2.500    0.000    0.000    0.000    0.000 
#    0.000    0.000    0.000    0.000    0.000    0.000 
#
# Total GULP energy -396894.464880 kJ/mol
# GULP energy per Si atom -12402.952027 kJ/mol
# Density = 2.028675 g / cm^3
# Si number density = 20.333026 Si / 1000 Ang^3
#
#
#
# Elastic Constant Matrix: (Units=GPa)
#
#
# Indices 1 2 3 4 5 6 
#
# 1 144.9645 51.2631 54.0279 0.0000 12.4017 -0.0001
# 2 51.2631 46.8929 34.3200 -0.0001 2.2631 0.0001
# 3 54.0279 34.3200 113.6092 0.0006 2.3539 0.0001
# 4 0.0000 -0.0001 0.0006 28.1900 0.0002 3.4157
# 5 12.4017 2.2631 2.3539 0.0002 34.2640 0.0000
# 6 -0.0001 0.0001 0.0001 3.4157 0.0000 38.0079
#
#
#
# Elastic Compliance Matrix: (Units=1/GPa)
#
#
# Indices 1 2 3 4 5 6 
#
# 1 0.012043 -0.011375 -0.002220 0.000000 -0.003455 0.000000
# 2 -0.011375 0.038174 -0.006164 0.000000 0.002019 0.000000
# 3 -0.002220 -0.006164 0.011711 0.000000 0.000406 0.000000
# 4 0.000000 0.000000 0.000000 0.035864 0.000000 -0.003223
# 5 -0.003455 0.002019 0.000406 0.000000 0.030275 0.000000
# 6 0.000000 0.000000 0.000000 -0.003223 0.000000 0.026600
#
#
# Mechanical properties :
#
#
# Convention : Reuss Voigt Hill
#
# Bulk Modulus (GPa) = 44.61986 64.96540 54.79263
# Shear Modulus (GPa) = 24.79479 31.14942 27.97211
#
# Velocity S-wave (km/s) = 3.49583 3.91827 3.71306
# Velocity P-wave (km/s) = 6.18762 7.24504 6.73710
#
# Compressibility (1/GPa) = 0.02241155
#
# Stress axis : x y z
#
# Youngs Moduli (GPa) = 83.03292 26.19590 85.38632
#
# Poissons Ratio (x) = 0.29797 0.18953
# Poissons Ratio (y) = 0.94446 0.52636
# Poissons Ratio (z) = 0.18431 0.16148
#
# Static dielectric constant tensor:
#      x y z
#    x 3.618460 0.000000 -0.020660 
#    y 0.000000 3.575490 0.000000 
#    z -0.020660 0.000000 3.926250 
# 
# 
# High freq. dielectric constant tensor:
#      x y z
#    x 1.798780 0.000000 -0.003980 
#    y 0.000000 1.787540 0.000000 
#    z -0.003980 0.000000 1.801370 
# 
# From -- ./inp_files/382506.got.cif
#   From: 2010.06.25/outbox.cif.g09.slc.cpg/sg12_192_cif.got.tgz:382506.got - 2010.06.28 00:19:55.
