data_PCOD8099838
_publ_section_title
;
Structure prediction by ZEFSAII (Michael W. Deem and Ramdas Pophale) SiO2 
 PCOD8099838
Probable space group: C 2/M
;
_chemical_formula_sum "Si O2"
_cell_formula_units_Z 48
_cell_length_a 8.696426
_cell_length_b 18.868608
_cell_length_c 15.130302
_cell_angle_alpha 90.000000
_cell_angle_beta 90.000107
_cell_angle_gamma 90.000000
_cell_volume 2482.722982
_symmetry_space_group_name_H-M "C 2/M"
_symmetry_group_IT_number 12
_symmetry_cell_setting 'monoclinic'
loop_
_space_group_symop_operation_xyz
x,y,z
-x,y,-z
-x,-y,-z
x,-y,z
1/2+x,1/2+y,z
1/2-x,1/2+y,-z
1/2-x,1/2-y,-z
1/2+x,1/2-y,z
loop_
_atom_site_type_symbol
_atom_site_label
_atom_site_fract_x
_atom_site_fract_y
_atom_site_fract_z
Si Si1 0.430697 0.674690 0.907538
Si Si2 0.930861 0.324456 0.594242
Si Si3 0.428403 0.082232 0.258809
Si Si4 0.069303 0.674689 0.907538
Si Si5 0.428404 0.417768 0.741191
Si Si6 0.569139 0.675544 0.594242
O O1 0.250000 0.683581 0.918659
O O2 0.499999 0.750000 0.879076
O O3 0.475077 0.617614 0.833721
O O4 0.500000 0.647816 0.000000
O O5 0.750000 0.315921 0.584588
O O6 0.000000 0.346278 0.500000
O O7 0.969962 0.385620 0.663239
O O8 0.999999 0.250000 0.627844
O O9 0.475076 0.117613 0.166279
O O10 0.250000 0.095701 0.280588
O O11 0.467897 0.000000 0.251107
O O12 0.000000 0.647815 0.000000
O O13 0.467898 0.500000 0.748895
O O14 0.530040 0.385621 0.663239
O O15 0.500000 0.653721 0.500000
#
# Coordination Sequence:
#
# PCOD8099838 Si02
#       6
#     8   8   8   8   8   8
#     4  10  20  35  57  82 109 144 185 231 278 326
#     4  11  22  38  61  86 112 145 186 231 278 329
#     4  10  22  39  57  81 115 151 186 228 279 332
#     4  10  20  35  57  82 109 144 185 231 278 326
#     4  10  22  39  57  81 115 151 186 228 279 332
#     4  11  22  38  61  86 112 145 186 231 278 329
#
# _framework density 19.33361
#
# number of rings (size 3 to 8) (size 9 to 14) (size 15 to 20)
#    0.000    1.667    0.000    7.000    0.000    7.333 
#    0.000    0.000    0.000    0.000    0.000    0.000 
#    0.000    0.000    0.000    0.000    0.000    0.000 
#
# Total GULP energy -297732.292644 kJ/mol
# GULP energy per Si atom -12405.512194 kJ/mol
# Density = 1.928961 g / cm^3
# Si number density = 19.333610 Si / 1000 Ang^3
#
#
#
# Elastic Constant Matrix: (Units=GPa)
#
#
# Indices 1 2 3 4 5 6 
#
# 1 132.6085 61.1352 69.9595 0.0000 -0.0012 0.0000
# 2 61.1352 133.5612 94.0015 0.0000 0.0001 0.0000
# 3 69.9595 94.0015 136.5827 0.0000 -0.0015 0.0000
# 4 0.0000 0.0000 0.0000 7.6723 0.0000 0.0000
# 5 -0.0012 0.0001 -0.0015 0.0000 29.2974 0.0000
# 6 0.0000 0.0000 0.0000 0.0000 0.0000 26.1999
#
#
#
# Elastic Compliance Matrix: (Units=1/GPa)
#
#
# Indices 1 2 3 4 5 6 
#
# 1 0.010602 -0.001999 -0.004054 0.000000 0.000000 0.000000
# 2 -0.001999 0.014898 -0.009229 0.000000 -0.000001 0.000000
# 3 -0.004054 -0.009229 0.015750 0.000000 0.000001 0.000000
# 4 0.000000 0.000000 0.000000 0.130339 0.000000 0.000000
# 5 0.000000 -0.000001 0.000001 0.000000 0.034133 0.000000
# 6 0.000000 0.000000 0.000000 0.000000 0.000000 0.038168
#
#
# Mechanical properties :
#
#
# Convention : Reuss Voigt Hill
#
# Bulk Modulus (GPa) = 93.59756 94.77162 94.18459
# Shear Modulus (GPa) = 17.98451 24.47767 21.23109
#
# Velocity S-wave (km/s) = 3.05326 3.56205 3.31742
# Velocity P-wave (km/s) = 7.80684 8.12669 7.96837
#
# Compressibility (1/GPa) = 0.01068404
#
# Stress axis : x y z
#
# Youngs Moduli (GPa) = 94.32539 67.12310 63.49105
#
# Poissons Ratio (x) = 0.13419 0.25741
# Poissons Ratio (y) = 0.18858 0.58598
# Poissons Ratio (z) = 0.38243 0.61950
#
# Static dielectric constant tensor:
#      x y z
#    x 3.585820 0.000000 -0.000010 
#    y 0.000000 3.460810 0.000000 
#    z -0.000010 0.000000 3.642340 
# 
# 
# High freq. dielectric constant tensor:
#      x y z
#    x 1.761930 0.000000 0.000000 
#    y 0.000000 1.747400 0.000000 
#    z 0.000000 0.000000 1.764570 
# 
# From -- ./inp_files/195911.got.cif
#   From: 2010.06.25/outbox.cif.g09.slc.cpg/sg12_98_cif.got.tgz:195911.got - 2010.06.28 00:19:55.
