data_PCOD8099317
_publ_section_title
;
Structure prediction by ZEFSAII (Michael W. Deem and Ramdas Pophale) SiO2 
 PCOD8099317
Probable space group: C 2/M
;
_chemical_formula_sum "Si O2"
_cell_formula_units_Z 60
_cell_length_a 21.834599
_cell_length_b 19.154564
_cell_length_c 12.200521
_cell_angle_alpha 90.000000
_cell_angle_beta 144.394431
_cell_angle_gamma 90.000000
_cell_volume 2970.773629
_symmetry_space_group_name_H-M "C 2/M"
_symmetry_group_IT_number 12
_symmetry_cell_setting 'monoclinic'
loop_
_space_group_symop_operation_xyz
x,y,z
-x,y,-z
-x,-y,-z
x,-y,z
1/2+x,1/2+y,z
1/2-x,1/2+y,-z
1/2-x,1/2-y,-z
1/2+x,1/2-y,z
loop_
_atom_site_type_symbol
_atom_site_label
_atom_site_fract_x
_atom_site_fract_y
_atom_site_fract_z
Si Si1 0.904199 0.685532 0.144522
Si Si2 0.830067 0.800224 0.766064
Si Si3 0.217793 0.575482 0.503665
Si Si4 0.485556 0.078067 0.100223
Si Si5 0.295508 0.700142 0.265189
Si Si6 0.145010 0.919671 0.503625
Si Si7 0.515115 0.309414 0.194592
Si Si8 0.000000 0.285917 0.500000
O O1 0.945535 0.665125 0.326445
O O2 0.908627 0.624531 0.060875
O O3 0.981104 0.749618 0.228743
O O4 0.779610 0.704947 0.952584
O O5 0.753762 0.865528 0.639287
O O6 0.764348 0.735756 0.718403
O O7 0.886118 0.779248 0.732787
O O8 0.917891 0.828653 0.976510
O O9 0.257359 0.500000 0.605269
O O10 0.093212 0.576957 0.322412
O O11 0.257528 0.584890 0.437526
O O12 0.437414 0.000000 0.018432
O O13 0.500000 0.111214 0.000000
O O14 0.320671 0.620196 0.335480
O O15 0.405319 0.737600 0.403398
O O16 0.045996 0.879538 0.304719
O O17 0.114160 0.000000 0.485614
#
# Coordination Sequence:
#
# PCOD8099317 Si02
#       8
#     8   8   8   8   8   8   8   4
#     4  11  23  38  64  87 121 161 201 248 301 358
#     4   9  19  33  56  88 119 150 198 245 305 363
#     4   9  18  30  50  83 122 159 186 229 301 373
#     4  10  21  36  58  92 128 156 190 243 307 368
#     4  11  23  38  61  86 114 158 203 257 298 354
#     4  10  20  35  55  85 122 159 198 245 303 359
#     4   9  19  34  56  90 119 154 195 248 304 364
#     4  12  24  44  58  86 116 160 214 256 292 344
#
# _framework density 20.196760000000001
#
# number of rings (size 3 to 8) (size 9 to 14) (size 15 to 20)
#    0.000    2.000    1.333    2.000    5.600    3.200 
#    0.000    3.333    0.000    0.800    0.000    0.000 
#    0.000    0.000    0.000    0.000    0.000    0.000 
#
# Total GULP energy -371835.333379 kJ/mol
# GULP energy per Si atom -12394.511113 kJ/mol
# Density = 2.015079 g / cm^3
# Si number density = 20.196760 Si / 1000 Ang^3
#
#
#
# Elastic Constant Matrix: (Units=GPa)
#
#
# Indices 1 2 3 4 5 6 
#
# 1 46.5750 26.9666 39.3302 0.0000 -1.6980 0.0000
# 2 26.9666 95.5622 31.8236 0.0000 -6.8383 0.0000
# 3 39.3302 31.8236 107.1752 0.0000 -10.3782 0.0000
# 4 0.0000 0.0000 0.0000 27.3956 0.0000 -7.3889
# 5 -1.6980 -6.8383 -10.3782 0.0000 34.7673 0.0000
# 6 0.0000 0.0000 0.0000 -7.3889 0.0000 12.6520
#
#
#
# Elastic Compliance Matrix: (Units=1/GPa)
#
#
# Indices 1 2 3 4 5 6 
#
# 1 0.034249 -0.006204 -0.011000 0.000000 -0.002831 0.000000
# 2 -0.006204 0.012793 -0.001347 0.000000 0.001811 0.000000
# 3 -0.011000 -0.001347 0.014097 0.000000 0.003406 0.000000
# 4 0.000000 0.000000 0.000000 0.043327 0.000000 0.025303
# 5 -0.002831 0.001811 0.003406 0.000000 0.029997 0.000000
# 6 0.000000 0.000000 0.000000 0.025303 0.000000 0.093816
#
#
# Mechanical properties :
#
#
# Convention : Reuss Voigt Hill
#
# Bulk Modulus (GPa) = 41.60234 49.50591 45.55413
# Shear Modulus (GPa) = 18.28867 25.04244 21.66555
#
# Velocity S-wave (km/s) = 3.01246 3.52508 3.27880
# Velocity P-wave (km/s) = 5.72216 6.41352 6.07768
#
# Compressibility (1/GPa) = 0.02403711
#
# Stress axis : x y z
#
# Youngs Moduli (GPa) = 29.19812 78.16698 70.93716
#
# Poissons Ratio (x) = 0.48494 0.78033
# Poissons Ratio (y) = 0.18114 0.09552
# Poissons Ratio (z) = 0.32119 0.10526
#
# Static dielectric constant tensor:
#      x y z
#    x 3.546140 0.000000 0.040180 
#    y 0.000000 3.641060 0.000000 
#    z 0.040180 0.000000 3.822920 
# 
# 
# High freq. dielectric constant tensor:
#      x y z
#    x 1.758970 0.000000 0.007570 
#    y 0.000000 1.773090 0.000000 
#    z 0.007570 0.000000 1.809310 
# 
# From -- ./inp_files/168989.got.cif
#   From: 2010.06.25/outbox.cif.g09.slc.cpg/sg12_85_cif.got.tgz:168989.got - 2010.06.28 00:19:55.
