data_PCOD8099668
_publ_section_title
;
Structure prediction by ZEFSAII (Michael W. Deem and Ramdas Pophale) SiO2 
 PCOD8099668
Probable space group: C 2/M
;
_chemical_formula_sum "Si O2"
_cell_formula_units_Z 48
_cell_length_a 9.043296
_cell_length_b 19.335854
_cell_length_c 14.462474
_cell_angle_alpha 90.000000
_cell_angle_beta 69.027221
_cell_angle_gamma 90.000000
_cell_volume 2361.367492
_symmetry_space_group_name_H-M "C 2/M"
_symmetry_group_IT_number 12
_symmetry_cell_setting 'monoclinic'
loop_
_space_group_symop_operation_xyz
x,y,z
-x,y,-z
-x,-y,-z
x,-y,z
1/2+x,1/2+y,z
1/2-x,1/2+y,-z
1/2-x,1/2-y,-z
1/2+x,1/2-y,z
loop_
_atom_site_type_symbol
_atom_site_label
_atom_site_fract_x
_atom_site_fract_y
_atom_site_fract_z
Si Si1 0.679905 0.198210 0.438715
Si Si2 0.619934 0.576587 0.395417
Si Si3 0.636176 0.577654 0.691277
Si Si4 0.194524 0.305071 0.716581
Si Si5 0.416623 0.346232 0.104946
Si Si6 0.632081 0.248095 0.164026
O O1 0.500000 0.181519 0.500000
O O2 0.750000 0.250000 0.500000
O O3 0.764296 0.124282 0.403463
O O4 0.703729 0.238655 0.338252
O O5 0.500000 0.605589 0.500000
O O6 0.679106 0.500000 0.411134
O O7 0.538629 0.574830 0.313242
O O8 0.770511 0.627295 0.353707
O O9 0.708766 0.500000 0.678699
O O10 0.621387 0.605725 0.798941
O O11 0.268944 0.307853 0.803030
O O12 0.008799 0.290701 0.747771
O O13 0.543315 0.285919 0.100066
O O14 0.253186 0.311762 0.105446
O O15 0.500000 0.386978 0.000000
#
# Coordination Sequence:
#
# PCOD8099668 Si02
#       6
#     8   8   8   8   8   8
#     4  12  23  35  61  88 119 161 202 245 293 360
#     4  10  20  35  56  83 117 160 201 240 294 360
#     4  11  23  40  59  86 126 164 203 253 304 363
#     4  11  18  35  58  83 117 152 196 241 301 352
#     4  11  22  40  64  91 117 156 204 257 314 366
#     4  10  20  35  61  87 116 147 192 255 308 351
#
# _framework density 20.327203999999998
#
# number of rings (size 3 to 8) (size 9 to 14) (size 15 to 20)
#    0.000    1.167    5.000    4.000    0.000    0.667 
#    0.000    0.833    0.000    0.000    0.000    2.333 
#    0.000    0.000    0.000    0.000    0.000    0.000 
#
# Total GULP energy -297322.285082 kJ/mol
# GULP energy per Si atom -12388.428545 kJ/mol
# Density = 2.028094 g / cm^3
# Si number density = 20.327204 Si / 1000 Ang^3
#
#
#
# Elastic Constant Matrix: (Units=GPa)
#
#
# Indices 1 2 3 4 5 6 
#
# 1 89.6766 31.4788 30.1271 0.0000 -8.6807 0.0000
# 2 31.4788 117.4898 46.6876 0.0000 -14.5850 0.0000
# 3 30.1271 46.6876 100.4082 0.0000 -17.5823 0.0000
# 4 0.0000 0.0000 0.0000 -18.2295 0.0000 -41.9562
# 5 -8.6807 -14.5850 -17.5823 0.0000 22.3450 0.0000
# 6 0.0000 0.0000 0.0000 -41.9562 0.0000 -15.3822
#
#
#
# Elastic Compliance Matrix: (Units=1/GPa)
#
#
# Indices 1 2 3 4 5 6 
#
# 1 0.012956 -0.002260 -0.002567 0.000000 0.001538 0.000000
# 2 -0.002260 0.011073 -0.003895 0.000000 0.003284 0.000000
# 3 -0.002567 -0.003895 0.013826 0.000000 0.007339 0.000000
# 4 0.000000 0.000000 0.000000 0.010394 0.000000 -0.028350
# 5 0.001538 0.003284 0.007339 0.000000 0.053269 0.000000
# 6 0.000000 0.000000 0.000000 -0.028350 0.000000 0.012318
#
#
# Mechanical properties :
#
#
# Convention : Reuss Voigt Hill
#
# Bulk Modulus (GPa) = 48.99735 58.24018 53.61876
# Shear Modulus (GPa) = 36.21005 11.03206 23.62105
#
# Velocity S-wave (km/s) = 4.22519 2.33217 3.41257
# Velocity P-wave (km/s) = 6.92529 5.99713 6.47786
#
# Compressibility (1/GPa) = 0.02040927
#
# Stress axis : x y z
#
# Youngs Moduli (GPa) = 77.18505 90.31373 72.32775
#
# Poissons Ratio (x) = 0.20413 0.18567
# Poissons Ratio (y) = 0.17446 0.28173
# Poissons Ratio (z) = 0.19814 0.35179
#
# Static dielectric constant tensor:
#      x y z
#    x 3.411210 0.000000 -0.160720 
#    y 0.000000 3.654000 0.000000 
#    z -0.160720 0.000000 3.646160 
# 
# 
# High freq. dielectric constant tensor:
#      x y z
#    x 1.788910 0.000000 0.006840 
#    y 0.000000 1.772720 0.000000 
#    z 0.006840 0.000000 1.794410 
# 
# From -- ./inp_files/196925.got.cif
#   From: 2010.06.25/outbox.cif.g09.slc.cpg/sg12_99_cif.got.tgz:196925.got - 2010.06.28 00:19:55.
