data_PCOD8099973
_publ_section_title
;
Structure prediction by ZEFSAII (Michael W. Deem and Ramdas Pophale) SiO2 
 PCOD8099973
Probable space group: C 2/M
;
_chemical_formula_sum "Si O2"
_cell_formula_units_Z 44
_cell_length_a 17.947791
_cell_length_b 19.923935
_cell_length_c 6.517262
_cell_angle_alpha 90.000000
_cell_angle_beta 109.291170
_cell_angle_gamma 90.000000
_cell_volume 2199.657906
_symmetry_space_group_name_H-M "C 2/M"
_symmetry_group_IT_number 12
_symmetry_cell_setting 'monoclinic'
loop_
_space_group_symop_operation_xyz
x,y,z
-x,y,-z
-x,-y,-z
x,-y,z
1/2+x,1/2+y,z
1/2-x,1/2+y,-z
1/2-x,1/2-y,-z
1/2+x,1/2-y,z
loop_
_atom_site_type_symbol
_atom_site_label
_atom_site_fract_x
_atom_site_fract_y
_atom_site_fract_z
Si Si1 0.201627 0.802648 0.096262
Si Si2 0.734294 0.424881 0.868657
Si Si3 0.385716 0.072857 0.260500
Si Si4 0.207971 0.627051 0.471930
Si Si5 0.921769 0.715804 0.815990
Si Si6 0.500000 0.816213 0.500000
O O1 0.184342 0.870772 0.953549
O O2 0.250000 0.750000 0.000000
O O3 0.251597 0.816758 0.347537
O O4 0.115282 0.777676 0.090647
O O5 0.701234 0.500000 0.880241
O O6 0.728862 0.409167 0.619850
O O7 0.825948 0.419260 0.017547
O O8 0.335864 0.072934 0.426849
O O9 0.446308 0.134706 0.309951
O O10 0.428739 0.000000 0.286204
O O11 0.146001 0.660334 0.258550
O O12 0.948067 0.731021 0.602444
O O13 0.000000 0.689447 0.000000
#
# Coordination Sequence:
#
# PCOD8099973 Si02
#       6
#     8   8   8   8   8   4
#     4  11  23  38  62  87 118 153 198 243 292 344
#     4  10  20  35  58  84 114 149 197 244 289 343
#     4   9  18  32  50  78 114 156 194 231 274 340
#     4  10  20  35  57  84 115 154 193 238 288 345
#     4  11  23  35  56  85 119 152 192 242 289 346
#     4  10  21  32  50  78 119 158 196 230 284 342
#
# _framework density 20.00311
#
# number of rings (size 3 to 8) (size 9 to 14) (size 15 to 20)
#    0.000    1.818    1.818    2.455    5.091    0.727 
#    0.000    0.000    0.000    9.273    0.000    1.909 
#    0.000    0.000    0.000    0.000    0.000    0.000 
#
# Total GULP energy -272599.804755 kJ/mol
# GULP energy per Si atom -12390.900216 kJ/mol
# Density = 1.995758 g / cm^3
# Si number density = 20.003110 Si / 1000 Ang^3
#
#
#
# Elastic Constant Matrix: (Units=GPa)
#
#
# Indices 1 2 3 4 5 6 
#
# 1 83.1484 44.9435 27.5812 0.0000 -28.6842 0.0000
# 2 44.9435 110.0456 45.7841 0.0000 -25.9468 0.0000
# 3 27.5812 45.7841 83.0825 0.0000 -13.5917 0.0000
# 4 0.0000 0.0000 0.0000 21.2879 0.0000 -8.9493
# 5 -28.6842 -25.9468 -13.5917 0.0000 38.0225 0.0000
# 6 0.0000 0.0000 0.0000 -8.9493 0.0000 21.7350
#
#
#
# Elastic Compliance Matrix: (Units=1/GPa)
#
#
# Indices 1 2 3 4 5 6 
#
# 1 0.018620 -0.004274 -0.002130 0.000000 0.010370 0.000000
# 2 -0.004274 0.014261 -0.005709 0.000000 0.004467 0.000000
# 3 -0.002130 -0.005709 0.015920 0.000000 0.000188 0.000000
# 4 0.000000 0.000000 0.000000 0.056808 0.000000 0.023391
# 5 0.010370 0.004467 0.000188 0.000000 0.037238 0.000000
# 6 0.000000 0.000000 0.000000 0.023391 0.000000 0.055640
#
#
# Mechanical properties :
#
#
# Convention : Reuss Voigt Hill
#
# Bulk Modulus (GPa) = 40.69033 56.98821 48.83927
# Shear Modulus (GPa) = 21.65381 26.74027 24.19704
#
# Velocity S-wave (km/s) = 3.29374 3.66020 3.48180
# Velocity P-wave (km/s) = 5.90348 6.81280 6.37438
#
# Compressibility (1/GPa) = 0.02457586
#
# Stress axis : x y z
#
# Youngs Moduli (GPa) = 53.70436 70.12088 62.81270
#
# Poissons Ratio (x) = 0.29967 0.13380
# Poissons Ratio (y) = 0.22951 0.35862
# Poissons Ratio (z) = 0.11440 0.40034
#
# Static dielectric constant tensor:
#      x y z
#    x 3.480360 0.000000 -0.245910 
#    y 0.000000 3.578370 0.000000 
#    z -0.245910 0.000000 3.752780 
# 
# 
# High freq. dielectric constant tensor:
#      x y z
#    x 1.745910 0.000000 -0.029480 
#    y 0.000000 1.760040 0.000000 
#    z -0.029480 0.000000 1.792500 
# 
# From -- ./inp_files/21081.got.cif
#   From: 2010.06.25/outbox.cif.g09.slc.cpg/sg12_11_cif.got.tgz:21081.got - 2010.06.28 00:19:55.
