data_PCOD8099391
_publ_section_title
;
Structure prediction by ZEFSAII (Michael W. Deem and Ramdas Pophale) SiO2 
 PCOD8099391
Probable space group: C 2/M
;
_chemical_formula_sum "Si O2"
_cell_formula_units_Z 48
_cell_length_a 19.880002
_cell_length_b 9.243393
_cell_length_c 19.212891
_cell_angle_alpha 90.000000
_cell_angle_beta 130.600414
_cell_angle_gamma 90.000000
_cell_volume 2680.617568
_symmetry_space_group_name_H-M "C 2/M"
_symmetry_group_IT_number 12
_symmetry_cell_setting 'monoclinic'
loop_
_space_group_symop_operation_xyz
x,y,z
-x,y,-z
-x,-y,-z
x,-y,z
1/2+x,1/2+y,z
1/2-x,1/2+y,-z
1/2-x,1/2-y,-z
1/2+x,1/2-y,z
loop_
_atom_site_type_symbol
_atom_site_label
_atom_site_fract_x
_atom_site_fract_y
_atom_site_fract_z
Si Si1 0.281494 0.668836 0.453345
Si Si2 0.342010 0.671140 0.074686
Si Si3 0.043107 0.334685 0.743744
Si Si4 0.999114 0.830299 0.077920
Si Si5 0.111800 0.336135 0.256259
Si Si6 0.456164 0.164485 0.544623
O O1 0.287257 0.500000 0.474649
O O2 0.250000 0.750000 0.500000
O O3 0.212372 0.699281 0.344599
O O4 0.375671 0.725241 0.492133
O O5 0.327188 0.500000 0.070291
O O6 0.382764 0.728772 0.174613
O O7 0.408003 0.712413 0.055675
O O8 0.250000 0.750000 0.000000
O O9 0.075268 0.500000 0.775697
O O10 0.949087 0.307230 0.717454
O O11 0.028615 0.297392 0.652782
O O12 0.083867 0.764476 0.173659
O O13 0.012983 0.000000 0.087632
O O14 0.000000 0.769444 0.000000
O O15 0.101217 0.500000 0.223473
O O16 0.500000 0.183480 0.500000
O O17 0.422281 0.000000 0.533827
#
# Coordination Sequence:
#
# PCOD8099391 Si02
#       6
#     8   8   8   8   8   8
#     4  11  21  35  57  83 112 143 185 229 268 322
#     4  10  20  35  56  80 104 136 179 219 264 319
#     4   9  17  34  56  77 106 140 178 221 265 316
#     4   9  19  36  56  79 106 135 173 220 265 315
#     4   9  18  33  54  80 107 138 176 219 266 317
#     4  10  21  38  57  80 112 149 185 223 275 327
#
# _framework density 17.906320999999998
#
# number of rings (size 3 to 8) (size 9 to 14) (size 15 to 20)
#    0.000    2.333    1.667    1.000    0.000    3.333 
#    3.000    0.000    0.000    0.000    0.000    0.000 
#    0.000    0.000    0.000    0.000    0.000    0.000 
#
# Total GULP energy -297634.324975 kJ/mol
# GULP energy per Si atom -12401.430207 kJ/mol
# Density = 1.786557 g / cm^3
# Si number density = 17.906321 Si / 1000 Ang^3
#
#
#
# Elastic Constant Matrix: (Units=GPa)
#
#
# Indices 1 2 3 4 5 6 
#
# 1 71.1873 49.8608 70.3190 0.0000 -0.1656 0.0000
# 2 49.8608 87.7127 71.9812 0.0000 8.4917 0.0000
# 3 70.3190 71.9812 151.7659 0.0000 -4.6525 0.0000
# 4 0.0000 0.0000 0.0000 36.5086 0.0000 5.0692
# 5 -0.1656 8.4917 -4.6525 0.0000 35.3953 0.0000
# 6 0.0000 0.0000 0.0000 5.0692 0.0000 27.1405
#
#
#
# Elastic Compliance Matrix: (Units=1/GPa)
#
#
# Indices 1 2 3 4 5 6 
#
# 1 0.029880 -0.009444 -0.009330 0.000000 0.001179 0.000000
# 2 -0.009444 0.022855 -0.006661 0.000000 -0.006403 0.000000
# 3 -0.009330 -0.006661 0.014176 0.000000 0.003418 0.000000
# 4 0.000000 0.000000 0.000000 0.028120 0.000000 -0.005252
# 5 0.001179 -0.006403 0.003418 0.000000 0.030243 0.000000
# 6 0.000000 0.000000 0.000000 -0.005252 0.000000 0.037826
#
#
# Mechanical properties :
#
#
# Convention : Reuss Voigt Hill
#
# Bulk Modulus (GPa) = 62.33036 77.22087 69.77561
# Shear Modulus (GPa) = 22.79811 27.70919 25.25365
#
# Velocity S-wave (km/s) = 3.57205 3.93804 3.75950
# Velocity P-wave (km/s) = 7.20398 7.99350 7.60899
#
# Compressibility (1/GPa) = 0.01604355
#
# Stress axis : x y z
#
# Youngs Moduli (GPa) = 33.46667 43.75399 70.54306
#
# Poissons Ratio (x) = 0.41319 0.65814
# Poissons Ratio (y) = 0.31604 0.46986
# Poissons Ratio (z) = 0.31223 0.29143
#
# Static dielectric constant tensor:
#      x y z
#    x 3.123740 0.000000 -0.108240 
#    y 0.000000 3.405600 0.000000 
#    z -0.108240 0.000000 3.415250 
# 
# 
# High freq. dielectric constant tensor:
#      x y z
#    x 1.672990 0.000000 0.000750 
#    y 0.000000 1.696420 0.000000 
#    z 0.000750 0.000000 1.702780 
# 
# From -- ./inp_files/244620.got.cif
#   From: 2010.06.25/outbox.cif.g09.slc.cpg/sg12_123_cif.got.tgz:244620.got - 2010.06.28 00:19:55.
