data_PCOD8099455
_publ_section_title
;
Structure prediction by ZEFSAII (Michael W. Deem and Ramdas Pophale) SiO2 
 PCOD8099455
Probable space group: C 2/M
;
_chemical_formula_sum "Si O2"
_cell_formula_units_Z 52
_cell_length_a 21.673683
_cell_length_b 9.198137
_cell_length_c 19.029602
_cell_angle_alpha 90.000000
_cell_angle_beta 136.403139
_cell_angle_gamma 90.000000
_cell_volume 2616.054999
_symmetry_space_group_name_H-M "C 2/M"
_symmetry_group_IT_number 12
_symmetry_cell_setting 'monoclinic'
loop_
_space_group_symop_operation_xyz
x,y,z
-x,y,-z
-x,-y,-z
x,-y,z
1/2+x,1/2+y,z
1/2-x,1/2+y,-z
1/2-x,1/2-y,-z
1/2+x,1/2-y,z
loop_
_atom_site_type_symbol
_atom_site_label
_atom_site_fract_x
_atom_site_fract_y
_atom_site_fract_z
Si Si1 0.736083 0.667679 0.353108
Si Si2 0.731685 0.832422 0.878012
Si Si3 0.500000 0.744611 0.500000
Si Si4 0.546911 0.669994 0.264629
Si Si5 0.814901 0.838003 0.294926
Si Si6 0.580887 0.839188 0.427244
Si Si7 0.381881 0.167554 0.075905
O O1 0.739194 0.500000 0.331476
O O2 0.644473 0.707016 0.315873
O O3 0.745449 0.766977 0.292134
O O4 0.815829 0.701097 0.473279
O O5 0.681659 0.760603 0.771310
O O6 0.664965 0.816509 0.887757
O O7 0.753961 0.000000 0.880504
O O8 0.823828 0.747555 0.968530
O O9 0.585904 0.648018 0.590465
O O10 0.525646 0.842832 0.454300
O O11 0.524440 0.500000 0.244924
O O12 0.540074 0.723851 0.339333
O O13 0.477300 0.753732 0.157773
O O14 0.781458 0.000000 0.249101
O O15 0.573145 0.000000 0.387277
O O16 0.394235 0.000000 0.064548
#
# Coordination Sequence:
#
# PCOD8099455 Si02
#       7
#     8   8   4   8   8   8   8
#     4   9  21  39  55  76 110 150 188 226 273 327
#     4  10  21  38  59  83 113 146 178 221 279 330
#     4  10  22  36  54  84 118 148 182 222 272 328
#     4  11  22  36  56  82 112 146 184 228 277 326
#     4  11  22  36  57  83 112 146 184 228 273 322
#     4  10  20  35  56  80 110 149 189 228 270 322
#     4  10  21  37  59  85 111 142 183 227 270 325
#
# _framework density 19.877258000000001
#
# number of rings (size 3 to 8) (size 9 to 14) (size 15 to 20)
#    0.000    1.846    0.000    3.692    0.000   10.462 
#    0.000    0.769    0.000    4.615    0.000    0.000 
#    0.000    0.000    0.000    0.000    0.000    0.000 
#
# Total GULP energy -322479.630804 kJ/mol
# GULP energy per Si atom -12403.062723 kJ/mol
# Density = 1.983202 g / cm^3
# Si number density = 19.877258 Si / 1000 Ang^3
#
#
#
# Elastic Constant Matrix: (Units=GPa)
#
#
# Indices 1 2 3 4 5 6 
#
# 1 73.9985 32.2828 34.9054 0.0000 10.0740 0.0000
# 2 32.2828 133.7288 48.4022 0.0000 0.1313 0.0000
# 3 34.9054 48.4022 89.2092 0.0000 4.9884 0.0000
# 4 0.0000 0.0000 0.0000 35.3387 0.0000 -1.3493
# 5 10.0740 0.1313 4.9884 0.0000 30.7304 0.0000
# 6 0.0000 0.0000 0.0000 -1.3493 0.0000 24.6322
#
#
#
# Elastic Compliance Matrix: (Units=1/GPa)
#
#
# Indices 1 2 3 4 5 6 
#
# 1 0.017750 -0.002322 -0.005409 0.000000 -0.004931 0.000000
# 2 -0.002322 0.009628 -0.004395 0.000000 0.001434 0.000000
# 3 -0.005409 -0.004395 0.015754 0.000000 -0.000765 0.000000
# 4 0.000000 0.000000 0.000000 0.028357 0.000000 0.001553
# 5 -0.004931 0.001434 -0.000765 0.000000 0.034276 0.000000
# 6 0.000000 0.000000 0.000000 0.001553 0.000000 0.040682
#
#
# Mechanical properties :
#
#
# Convention : Reuss Voigt Hill
#
# Bulk Modulus (GPa) = 52.97295 58.67969 55.82632
# Shear Modulus (GPa) = 28.24979 30.23001 29.23990
#
# Velocity S-wave (km/s) = 3.77399 3.90402 3.83955
# Velocity P-wave (km/s) = 6.76007 7.06448 6.91395
#
# Compressibility (1/GPa) = 0.01887756
#
# Stress axis : x y z
#
# Youngs Moduli (GPa) = 56.33878 103.86535 63.47697
#
# Poissons Ratio (x) = 0.24119 0.34337
# Poissons Ratio (y) = 0.13083 0.27900
# Poissons Ratio (z) = 0.30476 0.45652
#
# Static dielectric constant tensor:
#      x y z
#    x 3.468030 0.000000 0.115130 
#    y 0.000000 3.603240 0.000000 
#    z 0.115130 0.000000 3.633270 
# 
# 
# High freq. dielectric constant tensor:
#      x y z
#    x 1.761210 0.000000 0.007490 
#    y 0.000000 1.782770 0.000000 
#    z 0.007490 0.000000 1.774740 
# 
# From -- ./inp_files/282300.got.cif
#   From: 2010.06.25/outbox.cif.g09.slc.cpg/sg12_142_cif.got.tgz:282300.got - 2010.06.28 00:19:55.
