data_PCOD8099240
_publ_section_title
;
Structure prediction by ZEFSAII (Michael W. Deem and Ramdas Pophale) SiO2 
 PCOD8099240
Probable space group: C 2/M
;
_chemical_formula_sum "Si O2"
_cell_formula_units_Z 56
_cell_length_a 19.223534
_cell_length_b 9.076600
_cell_length_c 27.344835
_cell_angle_alpha 90.000000
_cell_angle_beta 141.522083
_cell_angle_gamma 90.000000
_cell_volume 2968.730570
_symmetry_space_group_name_H-M "C 2/M"
_symmetry_group_IT_number 12
_symmetry_cell_setting 'monoclinic'
loop_
_space_group_symop_operation_xyz
x,y,z
-x,y,-z
-x,-y,-z
x,-y,z
1/2+x,1/2+y,z
1/2-x,1/2+y,-z
1/2-x,1/2-y,-z
1/2+x,1/2-y,z
loop_
_atom_site_type_symbol
_atom_site_label
_atom_site_fract_x
_atom_site_fract_y
_atom_site_fract_z
Si Si1 0.722450 0.830357 0.126511
Si Si2 0.824324 0.175817 0.998775
Si Si3 0.361774 0.165445 0.551996
Si Si4 0.940186 0.327860 0.874213
Si Si5 0.921457 0.170147 0.307433
Si Si6 0.381996 0.834080 0.448562
Si Si7 0.739770 0.672144 0.696134
O O1 0.719785 0.724220 0.078559
O O2 0.623304 0.790547 0.109982
O O3 0.842970 0.806213 0.217323
O O4 0.708136 0.000000 0.101985
O O5 0.817004 0.000000 0.999801
O O6 0.750000 0.250000 0.000000
O O7 0.952108 0.227226 0.073489
O O8 0.250000 0.250000 0.500000
O O9 0.465536 0.238518 0.637284
O O10 0.374972 0.171750 0.501937
O O11 0.351985 0.000000 0.566427
O O12 0.973491 0.500000 0.892105
O O13 0.860670 0.288746 0.784683
O O14 0.855932 0.227084 0.319207
O O15 0.953709 0.000000 0.330999
O O16 0.500000 0.758070 0.500000
O O17 0.278808 0.749463 0.366288
O O18 0.378524 0.000000 0.426312
O O19 0.729755 0.500000 0.682830
#
# Coordination Sequence:
#
# PCOD8099240 Si02
#       7
#     8   8   8   8   8   8   8
#     4   9  19  38  64  89 115 149 185 230 287 340
#     4  12  25  40  59  85 117 153 191 231 281 338
#     4  11  23  38  55  78 112 153 193 235 284 335
#     4   9  19  38  62  88 118 149 186 232 282 337
#     4   9  18  35  59  86 114 145 185 230 280 335
#     4  10  20  35  55  81 113 148 187 233 283 328
#     4   9  18  33  58  89 114 143 185 232 277 329
#
# _framework density 18.863282000000002
#
# number of rings (size 3 to 8) (size 9 to 14) (size 15 to 20)
#    0.000    2.143    1.429    3.857    0.000    4.857 
#    2.571    2.857    0.000    0.000    0.000    0.000 
#    0.000    0.000    0.000    0.000    0.000    0.000 
#
# Total GULP energy -347169.872843 kJ/mol
# GULP energy per Si atom -12398.924030 kJ/mol
# Density = 1.882035 g / cm^3
# Si number density = 18.863282 Si / 1000 Ang^3
#
#
#
# Elastic Constant Matrix: (Units=GPa)
#
#
# Indices 1 2 3 4 5 6 
#
# 1 78.1756 52.6251 45.4334 0.0000 15.6255 0.0000
# 2 52.6251 107.7649 65.1495 0.0000 13.2479 0.0001
# 3 45.4334 65.1495 127.3491 0.0000 12.1193 0.0000
# 4 0.0000 0.0000 0.0000 37.7862 0.0000 0.3788
# 5 15.6255 13.2479 12.1193 0.0000 30.7043 0.0000
# 6 0.0000 0.0001 0.0000 0.3788 0.0000 31.4394
#
#
#
# Elastic Compliance Matrix: (Units=1/GPa)
#
#
# Indices 1 2 3 4 5 6 
#
# 1 0.020896 -0.007665 -0.002947 0.000000 -0.006164 0.000000
# 2 -0.007665 0.016556 -0.005639 0.000000 -0.001017 0.000000
# 3 -0.002947 -0.005639 0.011860 0.000000 -0.000748 0.000000
# 4 0.000000 0.000000 0.000000 0.026468 0.000000 -0.000319
# 5 -0.006164 -0.001017 -0.000748 0.000000 0.036440 0.000000
# 6 0.000000 0.000000 0.000000 -0.000319 0.000000 0.031811
#
#
# Mechanical properties :
#
#
# Convention : Reuss Voigt Hill
#
# Bulk Modulus (GPa) = 59.48488 71.07841 65.28165
# Shear Modulus (GPa) = 27.45202 29.99143 28.72172
#
# Velocity S-wave (km/s) = 3.81900 3.99173 3.90632
# Velocity P-wave (km/s) = 7.14490 7.68165 7.41813
#
# Compressibility (1/GPa) = 0.01681099
#
# Stress axis : x y z
#
# Youngs Moduli (GPa) = 47.85550 60.39998 84.31909
#
# Poissons Ratio (x) = 0.46295 0.24851
# Poissons Ratio (y) = 0.36680 0.47544
# Poissons Ratio (z) = 0.14104 0.34057
#
# Static dielectric constant tensor:
#      x y z
#    x 3.417050 0.000000 0.022990 
#    y 0.000000 3.510990 0.000000 
#    z 0.022990 0.000000 3.560820 
# 
# 
# High freq. dielectric constant tensor:
#      x y z
#    x 1.716550 0.000000 0.000710 
#    y 0.000000 1.727330 0.000000 
#    z 0.000710 0.000000 1.748260 
# 
# From -- ./inp_files/363225.got.cif
#   From: 2010.06.25/outbox.cif.g09.slc.cpg/sg12_182_cif.got.tgz:363225.got - 2010.06.28 00:19:55.
