data_PCOD8099132
_publ_section_title
;
Structure prediction by ZEFSAII (Michael W. Deem and Ramdas Pophale) SiO2 
 PCOD8099132
Probable space group: C 2/M
;
_chemical_formula_sum "Si O2"
_cell_formula_units_Z 40
_cell_length_a 25.559094
_cell_length_b 8.919869
_cell_length_c 16.719560
_cell_angle_alpha 90.000000
_cell_angle_beta 31.244931
_cell_angle_gamma 90.000000
_cell_volume 1977.165538
_symmetry_space_group_name_H-M "C 2/M"
_symmetry_group_IT_number 12
_symmetry_cell_setting 'monoclinic'
loop_
_space_group_symop_operation_xyz
x,y,z
-x,y,-z
-x,-y,-z
x,-y,z
1/2+x,1/2+y,z
1/2-x,1/2+y,-z
1/2-x,1/2-y,-z
1/2+x,1/2-y,z
loop_
_atom_site_type_symbol
_atom_site_label
_atom_site_fract_x
_atom_site_fract_y
_atom_site_fract_z
Si Si1 0.877247 0.671320 0.373281
Si Si2 0.801886 0.670621 0.310789
Si Si3 0.307906 0.675898 0.851635
Si Si4 0.507688 0.169250 0.628633
Si Si5 0.225082 0.327511 0.267160
O O1 0.837370 0.500000 0.440864
O O2 0.893553 0.694989 0.255778
O O3 0.798335 0.793249 0.507849
O O4 0.979604 0.691929 0.291567
O O5 0.798163 0.500000 0.285650
O O6 0.808312 0.774888 0.223954
O O7 0.294456 0.500000 0.874681
O O8 0.425919 0.717452 0.700760
O O9 0.259003 0.732801 0.833494
O O10 0.250000 0.750000 0.000000
O O11 0.613804 0.202352 0.447355
O O12 0.471535 0.000000 0.656700
O O13 0.243862 0.500000 0.222743
#
# Coordination Sequence:
#
# PCOD8099132 Si02
#       5
#     8   8   8   8   8
#     4   8  15  27  45  72 107 141 168 203 254 303
#     4   9  15  25  45  75 107 137 171 208 248 298
#     4  12  25  39  55  75 101 135 175 218 264 312
#     4   9  18  34  55  79 108 140 172 209 255 305
#     4  10  20  35  55  79 108 140 172 211 259 306
#
# _framework density 20.230981
#
# number of rings (size 3 to 8) (size 9 to 14) (size 15 to 20)
#    0.000    2.400    0.000    4.800    0.000    7.200 
#    0.000    0.000    0.000    1.200    0.000    8.400 
#    0.000    0.000    0.000    0.000    0.000    0.000 
#
# Total GULP energy -247857.408770 kJ/mol
# GULP energy per Si atom -12392.870438 kJ/mol
# Density = 2.018493 g / cm^3
# Si number density = 20.230981 Si / 1000 Ang^3
#
#
#
# Elastic Constant Matrix: (Units=GPa)
#
#
# Indices 1 2 3 4 5 6 
#
# 1 148.0553 52.5291 18.0631 -0.0004 35.4729 0.0002
# 2 52.5291 121.2585 21.1723 -0.0010 18.5236 0.0007
# 3 18.0631 21.1723 26.0928 -0.0005 16.9753 0.0004
# 4 -0.0004 -0.0010 -0.0005 21.3718 0.0004 4.2857
# 5 35.4729 18.5236 16.9753 0.0004 19.5168 -0.0002
# 6 0.0002 0.0007 0.0004 4.2857 -0.0002 37.7869
#
#
#
# Elastic Compliance Matrix: (Units=1/GPa)
#
#
# Indices 1 2 3 4 5 6 
#
# 1 0.015827 -0.003835 0.019584 0.000002 -0.042160 -0.000001
# 2 -0.003835 0.010790 -0.009151 0.000000 0.004689 0.000000
# 3 0.019584 -0.009151 0.114477 0.000005 -0.126480 -0.000003
# 4 0.000002 0.000000 0.000005 0.047879 -0.000009 -0.005430
# 5 -0.042160 0.004689 -0.126480 -0.000009 0.233425 0.000004
# 6 -0.000001 0.000000 -0.000003 -0.005430 0.000004 0.027080
#
#
# Mechanical properties :
#
#
# Convention : Reuss Voigt Hill
#
# Bulk Modulus (GPa) = 6.48132 53.21506 29.84819
# Shear Modulus (GPa) = 10.25194 29.31126 19.78160
#
# Velocity S-wave (km/s) = 2.25354 3.81048 3.13035
# Velocity P-wave (km/s) = 3.15941 6.76170 5.27742
#
# Compressibility (1/GPa) = 0.15428964
#
# Stress axis : x y z
#
# Youngs Moduli (GPa) = 63.18386 92.68124 8.73534
#
# Poissons Ratio (x) = 0.35545 -0.17107
# Poissons Ratio (y) = 0.24232 0.07993
# Poissons Ratio (z) = -1.23737 0.84810
#
# Static dielectric constant tensor:
#      x y z
#    x 4.401810 0.000000 0.126750 
#    y 0.000000 3.666200 0.000000 
#    z 0.126750 0.000000 3.052460 
# 
# 
# High freq. dielectric constant tensor:
#      x y z
#    x 1.824060 0.000000 0.016000 
#    y 0.000000 1.793400 0.000000 
#    z 0.016000 0.000000 1.715780 
# 
# From -- ./inp_files/220550.got.cif
#   From: 2010.06.25/outbox.cif.g09.slc.cpg/sg12_111_cif.got.tgz:220550.got - 2010.06.28 00:19:55.
