data_PCOD8099421
_publ_section_title
;
Structure prediction by ZEFSAII (Michael W. Deem and Ramdas Pophale) SiO2 
 PCOD8099421
Probable space group: C 2/M
;
_chemical_formula_sum "Si O2"
_cell_formula_units_Z 44
_cell_length_a 16.400016
_cell_length_b 19.412433
_cell_length_c 8.545768
_cell_angle_alpha 90.000000
_cell_angle_beta 126.778078
_cell_angle_gamma 90.000000
_cell_volume 2179.146570
_symmetry_space_group_name_H-M "C 2/M"
_symmetry_group_IT_number 12
_symmetry_cell_setting 'monoclinic'
loop_
_space_group_symop_operation_xyz
x,y,z
-x,y,-z
-x,-y,-z
x,-y,z
1/2+x,1/2+y,z
1/2-x,1/2+y,-z
1/2-x,1/2-y,-z
1/2+x,1/2-y,z
loop_
_atom_site_type_symbol
_atom_site_label
_atom_site_fract_x
_atom_site_fract_y
_atom_site_fract_z
Si Si1 0.819523 0.167463 0.446551
Si Si2 0.812536 0.578936 0.285274
Si Si3 0.000000 0.362357 0.000000
Si Si4 0.599902 0.420239 0.198550
Si Si5 0.382280 0.188949 0.588639
Si Si6 0.697373 0.920890 0.085943
O O1 0.891741 0.116485 0.625364
O O2 0.719914 0.183203 0.430801
O O3 0.881348 0.238874 0.491486
O O4 0.787244 0.130135 0.247911
O O5 0.842061 0.500000 0.355526
O O6 0.696263 0.594308 0.198440
O O7 0.889656 0.626582 0.472622
O O8 0.826029 0.597164 0.119761
O O9 0.975536 0.314994 0.819711
O O10 0.903977 0.410831 0.927356
O O11 0.586660 0.500000 0.220493
O O12 0.500000 0.390249 0.000000
O O13 0.733467 0.000000 0.146004
#
# Coordination Sequence:
#
# PCOD8099421 Si02
#       6
#     8   8   4   8   8   8
#     4   9  18  33  53  76 105 140 175 215 262 318
#     4   9  19  35  54  77 108 141 173 216 269 315
#     4  10  21  34  54  80 107 138 182 222 257 316
#     4   9  17  31  54  80 103 136 179 218 259 312
#     4   9  19  34  52  77 105 142 175 215 264 312
#     4  10  20  35  56  80 108 141 177 221 266 313
#
# _framework density 20.191389999999998
#
# number of rings (size 3 to 8) (size 9 to 14) (size 15 to 20)
#    0.000    2.727    0.000    0.818    1.273    6.545 
#    0.000    2.727    4.000    4.364    0.000    0.000 
#    0.000    0.000    0.000    0.000    0.000    0.000 
#
# Total GULP energy -272758.185980 kJ/mol
# GULP energy per Si atom -12398.099363 kJ/mol
# Density = 2.014543 g / cm^3
# Si number density = 20.191390 Si / 1000 Ang^3
#
#
#
# Elastic Constant Matrix: (Units=GPa)
#
#
# Indices 1 2 3 4 5 6 
#
# 1 29.9759 21.5458 23.3685 0.0000 -9.1161 0.0000
# 2 21.5458 119.5932 81.6003 0.0000 -12.5189 0.0000
# 3 23.3685 81.6003 164.1559 0.0000 -6.9154 0.0000
# 4 0.0000 0.0000 0.0000 33.8628 0.0000 -4.2680
# 5 -9.1161 -12.5189 -6.9154 0.0000 27.2119 0.0000
# 6 0.0000 0.0000 0.0000 -4.2680 0.0000 12.1423
#
#
#
# Elastic Compliance Matrix: (Units=1/GPa)
#
#
# Indices 1 2 3 4 5 6 
#
# 1 0.042529 -0.004023 -0.003570 0.000000 0.011489 0.000000
# 2 -0.004023 0.013544 -0.006019 0.000000 0.003354 0.000000
# 3 -0.003570 -0.006019 0.009527 0.000000 -0.001544 0.000000
# 4 0.000000 0.000000 0.000000 0.030900 0.000000 0.010861
# 5 0.011489 0.003354 -0.001544 0.000000 0.041748 0.000000
# 6 0.000000 0.000000 0.000000 0.010861 0.000000 0.086175
#
#
# Mechanical properties :
#
#
# Convention : Reuss Voigt Hill
#
# Bulk Modulus (GPa) = 26.05812 62.97266 44.51539
# Shear Modulus (GPa) = 18.90791 27.12408 23.01600
#
# Velocity S-wave (km/s) = 3.06344 3.66915 3.37989
# Velocity P-wave (km/s) = 5.04445 7.01468 6.10951
#
# Compressibility (1/GPa) = 0.03837575
#
# Stress axis : x y z
#
# Youngs Moduli (GPa) = 23.51322 73.83232 104.96695
#
# Poissons Ratio (x) = 0.29705 0.37477
# Poissons Ratio (y) = 0.09460 0.63176
# Poissons Ratio (z) = 0.08395 0.44437
#
# Static dielectric constant tensor:
#      x y z
#    x 3.279100 0.000000 0.020480 
#    y 0.000000 3.844620 0.000000 
#    z 0.020480 0.000000 3.918860 
# 
# 
# High freq. dielectric constant tensor:
#      x y z
#    x 1.750550 0.000000 -0.001350 
#    y 0.000000 1.789130 0.000000 
#    z -0.001350 0.000000 1.798060 
# 
# From -- ./inp_files/61235.got.cif
#   From: 2010.06.25/outbox.cif.g09.slc.cpg/sg12_31_cif.got.tgz:61235.got - 2010.06.28 00:19:55.
