data_PCOD8099852
_publ_section_title
;
Structure prediction by ZEFSAII (Michael W. Deem and Ramdas Pophale) SiO2 
 PCOD8099852
Probable space group: C 2/M
;
_chemical_formula_sum "Si O2"
_cell_formula_units_Z 56
_cell_length_a 13.601515
_cell_length_b 24.097467
_cell_length_c 9.349148
_cell_angle_alpha 90.000000
_cell_angle_beta 69.347537
_cell_angle_gamma 90.000000
_cell_volume 2867.375079
_symmetry_space_group_name_H-M "C 2/M"
_symmetry_group_IT_number 12
_symmetry_cell_setting 'monoclinic'
loop_
_space_group_symop_operation_xyz
x,y,z
-x,y,-z
-x,-y,-z
x,-y,z
1/2+x,1/2+y,z
1/2-x,1/2+y,-z
1/2-x,1/2-y,-z
1/2+x,1/2-y,z
loop_
_atom_site_type_symbol
_atom_site_label
_atom_site_fract_x
_atom_site_fract_y
_atom_site_fract_z
Si Si1 0.672172 0.561989 0.581641
Si Si2 0.476270 0.435141 0.857909
Si Si3 0.785705 0.937929 0.761899
Si Si4 0.583722 0.252481 0.338951
Si Si5 0.276351 0.177145 0.259140
Si Si6 0.256883 0.826634 0.599614
Si Si7 0.064915 0.764827 0.835085
O O1 0.704088 0.500000 0.618285
O O2 0.562837 0.584024 0.700409
O O3 0.654206 0.562041 0.420447
O O4 0.760317 0.605790 0.590950
O O5 0.485310 0.500000 0.872575
O O6 0.361965 0.421053 0.853226
O O7 0.500000 0.406664 0.000000
O O8 0.701745 0.887582 0.792071
O O9 0.736140 0.000000 0.812413
O O10 0.500000 0.271292 0.500000
O O11 0.661674 0.303685 0.263077
O O12 0.648903 0.197350 0.352154
O O13 0.519947 0.239158 0.229388
O O14 0.274537 0.194066 0.428335
O O15 0.368088 0.212685 0.138770
O O16 0.143338 0.808638 0.720390
O O17 0.000000 0.792135 0.000000
#
# Coordination Sequence:
#
# PCOD8099852 Si02
#       7
#     8   8   8   8   8   8   8
#     4   9  18  32  51  75 106 137 176 221 256 311
#     4   9  17  29  44  69 106 143 172 207 263 316
#     4   9  18  32  52  77 104 138 179 218 257 311
#     4  11  19  36  60  76 103 147 178 220 268 317
#     4  10  20  35  58  83 104 143 184 214 266 327
#     4  10  20  35  57  83 105 142 184 212 270 324
#     4  11  23  38  55  82 111 135 178 232 267 310
#
# _framework density 19.530059000000001
#
# number of rings (size 3 to 8) (size 9 to 14) (size 15 to 20)
#    0.000    2.143    2.857    1.286    2.000    4.571 
#    2.571    0.000    0.000    1.714    0.000    0.000 
#    0.000    0.000    0.000    0.000    0.000    0.000 
#
# Total GULP energy -346883.004111 kJ/mol
# GULP energy per Si atom -12388.678718 kJ/mol
# Density = 1.948561 g / cm^3
# Si number density = 19.530059 Si / 1000 Ang^3
#
#
#
# Elastic Constant Matrix: (Units=GPa)
#
#
# Indices 1 2 3 4 5 6 
#
# 1 84.2657 31.2889 17.7936 0.0000 6.9698 0.0000
# 2 31.2889 109.0203 5.5431 0.0000 1.4141 0.0000
# 3 17.7936 5.5431 61.5262 0.0000 4.1974 0.0000
# 4 0.0000 0.0000 0.0000 10.5473 0.0000 -1.0352
# 5 6.9698 1.4141 4.1974 0.0000 24.4983 0.0000
# 6 0.0000 0.0000 0.0000 -1.0352 0.0000 15.3742
#
#
#
# Elastic Compliance Matrix: (Units=1/GPa)
#
#
# Indices 1 2 3 4 5 6 
#
# 1 0.014334 -0.003890 -0.003574 0.000000 -0.003241 0.000000
# 2 -0.003890 0.010274 0.000166 0.000000 0.000485 0.000000
# 3 -0.003574 0.000166 0.017407 0.000000 -0.001975 0.000000
# 4 0.000000 0.000000 0.000000 0.095442 0.000000 0.006427
# 5 -0.003241 0.000485 -0.001975 0.000000 0.042052 0.000000
# 6 0.000000 0.000000 0.000000 0.006427 0.000000 0.065477
#
#
# Mechanical properties :
#
#
# Convention : Reuss Voigt Hill
#
# Bulk Modulus (GPa) = 36.47017 40.45148 38.46083
# Shear Modulus (GPa) = 18.60661 23.42973 21.01817
#
# Velocity S-wave (km/s) = 3.08996 3.46739 3.28410
# Velocity P-wave (km/s) = 5.60757 6.06529 5.84092
#
# Compressibility (1/GPa) = 0.02741967
#
# Stress axis : x y z
#
# Youngs Moduli (GPa) = 69.76179 97.32966 57.44943
#
# Poissons Ratio (x) = 0.37864 0.20532
# Poissons Ratio (y) = 0.27139 -0.00955
# Poissons Ratio (z) = 0.24933 -0.01619
#
# Static dielectric constant tensor:
#      x y z
#    x 3.373140 0.000000 0.131620 
#    y 0.000000 3.667330 0.000000 
#    z 0.131620 0.000000 3.653520 
# 
# 
# High freq. dielectric constant tensor:
#      x y z
#    x 1.727570 0.000000 0.015330 
#    y 0.000000 1.765220 0.000000 
#    z 0.015330 0.000000 1.746720 
# 
# From -- ./inp_files/53130.got.cif
#   From: 2010.06.25/outbox.cif.g09.slc.cpg/sg12_27_cif.got.tgz:53130.got - 2010.06.28 00:19:55.
