data_PCOD8099216
_publ_section_title
;
Structure prediction by ZEFSAII (Michael W. Deem and Ramdas Pophale) SiO2 
 PCOD8099216
Probable space group: C 2/M
;
_chemical_formula_sum "Si O2"
_cell_formula_units_Z 64
_cell_length_a 23.801809
_cell_length_b 9.156133
_cell_length_c 14.835812
_cell_angle_alpha 90.000000
_cell_angle_beta 86.333182
_cell_angle_gamma 90.000000
_cell_volume 3226.587084
_symmetry_space_group_name_H-M "C 2/M"
_symmetry_group_IT_number 12
_symmetry_cell_setting 'monoclinic'
loop_
_space_group_symop_operation_xyz
x,y,z
-x,y,-z
-x,-y,-z
x,-y,z
1/2+x,1/2+y,z
1/2-x,1/2+y,-z
1/2-x,1/2-y,-z
1/2+x,1/2-y,z
loop_
_atom_site_type_symbol
_atom_site_label
_atom_site_fract_x
_atom_site_fract_y
_atom_site_fract_z
Si Si1 0.142775 0.326875 0.321403
Si Si2 0.375153 0.827234 0.335727
Si Si3 0.753964 0.671219 0.283646
Si Si4 0.045239 0.163986 0.802310
Si Si5 0.935946 0.326487 0.508073
Si Si6 0.418118 0.670059 0.826108
Si Si7 0.608337 0.665118 0.969776
Si Si8 0.781848 0.329093 0.077361
O O1 0.148354 0.500000 0.319398
O O2 0.203702 0.258823 0.337208
O O3 0.096859 0.273865 0.399430
O O4 0.124124 0.268539 0.226330
O O5 0.311503 0.772604 0.325000
O O6 0.414514 0.775713 0.251264
O O7 0.400305 0.765904 0.426854
O O8 0.376028 0.000000 0.334318
O O9 0.745317 0.500000 0.301504
O O10 0.753772 0.705778 0.176751
O O11 0.054922 0.173152 0.908840
O O12 0.981169 0.206521 0.788560
O O13 0.057992 0.000000 0.766656
O O14 0.938568 0.500000 0.504123
O O15 0.000000 0.263453 0.500000
O O16 0.403569 0.500000 0.812914
O O17 0.410945 0.716465 0.930154
O O18 0.632695 0.500000 0.971200
O O19 0.654669 0.773387 0.925478
O O20 0.781196 0.500000 0.057843
O O21 0.750000 0.250000 0.000000
#
# Coordination Sequence:
#
# PCOD8099216 Si02
#       8
#     8   8   8   8   8   8   8   8
#     4  11  23  38  59  87 113 145 192 240 280 332
#     4  10  20  38  62  84 113 154 193 232 285 346
#     4  10  22  39  57  80 114 153 189 232 289 343
#     4  10  20  35  57  85 116 148 189 238 285 336
#     4   9  19  37  61  88 116 146 183 230 287 345
#     4  10  21  37  56  81 116 156 189 228 289 350
#     4  10  20  35  55  80 112 150 191 233 282 340
#     4  11  22  36  54  79 111 151 197 239 283 335
#
# _framework density 19.8352
#
# number of rings (size 3 to 8) (size 9 to 14) (size 15 to 20)
#    0.000    1.875    1.250    2.625    0.000    8.500 
#    0.000    1.250    0.000    5.625    0.000    0.000 
#    0.000    0.000    0.000    0.000    0.000    0.000 
#
# Total GULP energy -396847.107393 kJ/mol
# GULP energy per Si atom -12401.472106 kJ/mol
# Density = 1.979005 g / cm^3
# Si number density = 19.835200 Si / 1000 Ang^3
#
#
#
# Elastic Constant Matrix: (Units=GPa)
#
#
# Indices 1 2 3 4 5 6 
#
# 1 130.0097 39.4939 45.5420 0.0000 -1.5658 0.0000
# 2 39.4939 45.9308 29.8123 0.0000 -2.4892 0.0000
# 3 45.5420 29.8123 103.8259 0.0000 3.4260 0.0000
# 4 0.0000 0.0000 0.0000 20.6061 0.0000 -2.1454
# 5 -1.5658 -2.4892 3.4260 0.0000 36.9668 0.0000
# 6 0.0000 0.0000 0.0000 -2.1454 0.0000 30.8289
#
#
#
# Elastic Compliance Matrix: (Units=1/GPa)
#
#
# Indices 1 2 3 4 5 6 
#
# 1 0.010947 -0.007721 -0.002591 0.000000 0.000184 0.000000
# 2 -0.007721 0.032442 -0.006008 0.000000 0.002414 0.000000
# 3 -0.002591 -0.006008 0.012548 0.000000 -0.001677 0.000000
# 4 0.000000 0.000000 0.000000 0.048884 0.000000 0.003402
# 5 0.000184 0.002414 -0.001677 0.000000 0.027377 0.000000
# 6 0.000000 0.000000 0.000000 0.003402 0.000000 0.032674
#
#
# Mechanical properties :
#
#
# Convention : Reuss Voigt Hill
#
# Bulk Modulus (GPa) = 42.92430 56.60696 49.76563
# Shear Modulus (GPa) = 24.35730 28.67491 26.51611
#
# Velocity S-wave (km/s) = 3.50806 3.80631 3.66022
# Velocity P-wave (km/s) = 6.17220 6.92227 6.55797
#
# Compressibility (1/GPa) = 0.02329683
#
# Stress axis : x y z
#
# Youngs Moduli (GPa) = 91.34878 30.82464 79.69157
#
# Poissons Ratio (x) = 0.23801 0.20646
# Poissons Ratio (y) = 0.70534 0.47879
# Poissons Ratio (z) = 0.23666 0.18519
#
# Static dielectric constant tensor:
#      x y z
#    x 3.825990 0.000000 0.114820 
#    y 0.000000 3.408800 0.000000 
#    z 0.114820 0.000000 3.684380 
# 
# 
# High freq. dielectric constant tensor:
#      x y z
#    x 1.786970 0.000000 0.006420 
#    y 0.000000 1.752210 0.000000 
#    z 0.006420 0.000000 1.775200 
# 
# From -- ./inp_files/238783.got.cif
#   From: 2010.06.25/outbox.cif.g09.slc.cpg/sg12_120_cif.got.tgz:238783.got - 2010.06.28 00:19:55.
