data_PCOD8099674
_publ_section_title
;
Structure prediction by ZEFSAII (Michael W. Deem and Ramdas Pophale) SiO2 
 PCOD8099674
Probable space group: C 2/M
;
_chemical_formula_sum "Si O2"
_cell_formula_units_Z 56
_cell_length_a 20.512921
_cell_length_b 9.107136
_cell_length_c 27.890515
_cell_angle_alpha 90.000000
_cell_angle_beta 145.399143
_cell_angle_gamma 90.000000
_cell_volume 2958.721760
_symmetry_space_group_name_H-M "C 2/M"
_symmetry_group_IT_number 12
_symmetry_cell_setting 'monoclinic'
loop_
_space_group_symop_operation_xyz
x,y,z
-x,y,-z
-x,-y,-z
x,-y,z
1/2+x,1/2+y,z
1/2-x,1/2+y,-z
1/2-x,1/2-y,-z
1/2+x,1/2-y,z
loop_
_atom_site_type_symbol
_atom_site_label
_atom_site_fract_x
_atom_site_fract_y
_atom_site_fract_z
Si Si1 0.703155 0.826387 0.338910
Si Si2 0.927696 0.672044 0.501886
Si Si3 0.691017 0.173790 0.221336
Si Si4 0.908840 0.672690 0.312417
Si Si5 0.968704 0.325847 0.243016
Si Si6 0.987590 0.170268 0.047446
Si Si7 0.245182 0.328833 0.946793
O O1 0.807436 0.755271 0.431020
O O2 0.707474 0.777358 0.286264
O O3 0.586408 0.764789 0.291809
O O4 0.711822 0.000000 0.349527
O O5 0.902916 0.500000 0.483607
O O6 0.000000 0.726784 0.500000
O O7 0.996922 0.715552 0.591223
O O8 0.790682 0.243768 0.249918
O O9 0.568975 0.232014 0.129763
O O10 0.693905 0.000000 0.217576
O O11 0.881627 0.500000 0.296646
O O12 0.958056 0.726511 0.291396
O O13 0.967452 0.500000 0.240001
O O14 0.862046 0.264002 0.147883
O O15 0.020765 0.000000 0.074258
O O16 0.000000 0.218709 0.000000
O O17 0.858030 0.203160 0.984305
O O18 0.229168 0.500000 0.947110
O O19 0.250000 0.250000 0.000000
#
# Coordination Sequence:
#
# PCOD8099674 Si02
#       7
#     8   8   8   8   8   8   8
#     4  10  21  36  56  81 111 145 182 223 270 329
#     4  10  20  35  56  84 112 141 181 228 275 320
#     4  11  22  35  55  83 112 143 180 229 281 324
#     4  10  20  37  60  80 108 148 186 226 271 327
#     4   9  19  37  58  80 107 145 186 221 267 326
#     4  10  21  37  58  82 107 144 190 229 269 325
#     4  10  20  36  58  81 109 144 184 226 270 324
#
# _framework density 18.927092999999999
#
# number of rings (size 3 to 8) (size 9 to 14) (size 15 to 20)
#    0.000    2.000    1.429    2.143    0.000    6.286 
#    0.000    3.571    0.000    0.000    0.000    0.000 
#    0.000    0.000    0.000    0.000    0.000    0.000 
#
# Total GULP energy -347329.923674 kJ/mol
# GULP energy per Si atom -12404.640131 kJ/mol
# Density = 1.888401 g / cm^3
# Si number density = 18.927093 Si / 1000 Ang^3
#
#
#
# Elastic Constant Matrix: (Units=GPa)
#
#
# Indices 1 2 3 4 5 6 
#
# 1 136.9225 27.4902 62.5430 0.0000 2.4343 0.0001
# 2 27.4902 34.2482 35.9411 0.0000 2.4921 0.0002
# 3 62.5430 35.9411 149.4007 0.0001 4.7883 0.0000
# 4 0.0000 0.0000 0.0001 35.0385 0.0000 3.2634
# 5 2.4343 2.4921 4.7883 0.0000 38.6746 0.0000
# 6 0.0001 0.0002 0.0000 3.2634 0.0000 23.3443
#
#
#
# Elastic Compliance Matrix: (Units=1/GPa)
#
#
# Indices 1 2 3 4 5 6 
#
# 1 0.009552 -0.004646 -0.002883 0.000000 0.000055 0.000000
# 2 -0.004646 0.041390 -0.007968 0.000000 -0.001388 0.000000
# 3 -0.002883 -0.007968 0.009834 0.000000 -0.000523 0.000000
# 4 0.000000 0.000000 0.000000 0.028917 0.000000 -0.004042
# 5 0.000055 -0.001388 -0.000523 0.000000 0.026007 0.000000
# 6 0.000000 0.000000 0.000000 -0.004042 0.000000 0.043402
#
#
# Mechanical properties :
#
#
# Convention : Reuss Voigt Hill
#
# Bulk Modulus (GPa) = 33.57605 63.61334 48.59469
# Shear Modulus (GPa) = 24.99711 32.38460 28.69086
#
# Velocity S-wave (km/s) = 3.63809 4.14093 3.89763
# Velocity P-wave (km/s) = 5.95196 7.51969 6.78128
#
# Compressibility (1/GPa) = 0.02978313
#
# Stress axis : x y z
#
# Youngs Moduli (GPa) = 104.69028 24.16018 101.69001
#
# Poissons Ratio (x) = 0.11224 0.29316
# Poissons Ratio (y) = 0.48637 0.81025
# Poissons Ratio (z) = 0.30180 0.19251
#
# Static dielectric constant tensor:
#      x y z
#    x 3.488610 0.000000 -0.030520 
#    y 0.000000 3.219950 0.000000 
#    z -0.030520 0.000000 3.585340 
# 
# 
# High freq. dielectric constant tensor:
#      x y z
#    x 1.746900 0.000000 0.000750 
#    y 0.000000 1.711230 0.000000 
#    z 0.000750 0.000000 1.750580 
# 
# From -- ./inp_files/231034.got.cif
#   From: 2010.06.25/outbox.cif.g09.slc.cpg/sg12_116_cif.got.tgz:231034.got - 2010.06.28 00:19:55.
