data_PCOD8099201
_publ_section_title
;
Structure prediction by ZEFSAII (Michael W. Deem and Ramdas Pophale) SiO2 
 PCOD8099201
Probable space group: C 2/M
;
_chemical_formula_sum "Si O2"
_cell_formula_units_Z 56
_cell_length_a 23.031379
_cell_length_b 8.875206
_cell_length_c 15.171924
_cell_angle_alpha 90.000000
_cell_angle_beta 93.315895
_cell_angle_gamma 90.000000
_cell_volume 3096.074065
_symmetry_space_group_name_H-M "C 2/M"
_symmetry_group_IT_number 12
_symmetry_cell_setting 'monoclinic'
loop_
_space_group_symop_operation_xyz
x,y,z
-x,y,-z
-x,-y,-z
x,-y,z
1/2+x,1/2+y,z
1/2-x,1/2+y,-z
1/2-x,1/2-y,-z
1/2+x,1/2-y,z
loop_
_atom_site_type_symbol
_atom_site_label
_atom_site_fract_x
_atom_site_fract_y
_atom_site_fract_z
Si Si1 0.505236 0.178469 0.602567
Si Si2 0.376067 0.320944 0.360312
Si Si3 0.694877 0.821496 0.802422
Si Si4 0.310992 0.324502 0.024719
Si Si5 0.687604 0.823579 0.486643
Si Si6 0.888631 0.673889 0.684155
Si Si7 0.328455 0.672852 0.834029
O O1 0.500000 0.223674 0.500000
O O2 0.558756 0.264882 0.652634
O O3 0.448009 0.238672 0.647834
O O4 0.514475 0.000000 0.613060
O O5 0.372705 0.500000 0.359528
O O6 0.332611 0.255890 0.284304
O O7 0.357416 0.257093 0.453026
O O8 0.661949 0.759217 0.887582
O O9 0.762385 0.770844 0.812016
O O10 0.687059 0.000000 0.796981
O O11 0.302904 0.500000 0.045588
O O12 0.250000 0.250000 0.000000
O O13 0.348148 0.302586 0.937921
O O14 0.750000 0.750000 0.500000
O O15 0.665240 0.796216 0.385858
O O16 0.690499 0.000000 0.510390
O O17 0.898479 0.500000 0.701066
O O18 0.874931 0.743855 0.777470
O O19 0.331011 0.500000 0.807645
#
# Coordination Sequence:
#
# PCOD8099201 Si02
#       7
#     8   8   8   8   8   8   8
#     4  10  20  40  60  74 100 141 185 230 274 317
#     4  12  24  36  54  81 108 141 181 226 273 327
#     4  10  20  35  55  80 110 147 182 221 272 324
#     4   9  17  31  51  78 111 146 180 218 266 323
#     4  11  22  37  53  77 110 145 179 220 270 322
#     4  10  21  35  55  77 102 140 182 221 266 317
#     4   9  19  33  52  80 113 143 173 215 269 320
#
# _framework density 18.087422
#
# number of rings (size 3 to 8) (size 9 to 14) (size 15 to 20)
#    0.000    1.857    1.429    4.286    0.000    7.714 
#    0.000    0.000    0.000    0.857    0.000    6.000 
#    0.000    0.000    0.000    0.000    0.000    0.000 
#
# Total GULP energy -347167.477202 kJ/mol
# GULP energy per Si atom -12398.838471 kJ/mol
# Density = 1.804625 g / cm^3
# Si number density = 18.087422 Si / 1000 Ang^3
#
#
#
# Elastic Constant Matrix: (Units=GPa)
#
#
# Indices 1 2 3 4 5 6 
#
# 1 77.5336 27.1662 18.4587 0.0000 -21.2813 0.0000
# 2 27.1662 83.9440 33.6450 0.0000 -10.3007 0.0000
# 3 18.4587 33.6450 87.6059 0.0000 -25.0125 0.0000
# 4 0.0000 0.0000 0.0000 35.8415 0.0000 -2.5838
# 5 -21.2813 -10.3007 -25.0125 0.0000 24.2077 0.0000
# 6 0.0000 0.0000 0.0000 -2.5838 0.0000 28.7550
#
#
#
# Elastic Compliance Matrix: (Units=1/GPa)
#
#
# Indices 1 2 3 4 5 6 
#
# 1 0.018759 -0.005133 0.002984 0.000000 0.017390 0.000000
# 2 -0.005133 0.015490 -0.006062 0.000000 -0.004185 0.000000
# 3 0.002984 -0.006062 0.018620 0.000000 0.019282 0.000000
# 4 0.000000 0.000000 0.000000 0.028083 0.000000 0.002523
# 5 0.017390 -0.004185 0.019282 0.000000 0.074739 0.000000
# 6 0.000000 0.000000 0.000000 0.002523 0.000000 0.035003
#
#
# Mechanical properties :
#
#
# Convention : Reuss Voigt Hill
#
# Bulk Modulus (GPa) = 27.43793 45.29147 36.36470
# Shear Modulus (GPa) = 22.80345 29.08174 25.94259
#
# Velocity S-wave (km/s) = 3.55454 4.01414 3.79131
# Velocity P-wave (km/s) = 5.66117 6.82489 6.27009
#
# Compressibility (1/GPa) = 0.03644590
#
# Stress axis : x y z
#
# Youngs Moduli (GPa) = 53.30793 64.55752 53.70702
#
# Poissons Ratio (x) = 0.33136 -0.16025
# Poissons Ratio (y) = 0.27362 0.32559
# Poissons Ratio (z) = -0.15906 0.39137
#
# Static dielectric constant tensor:
#      x y z
#    x 3.253520 0.000000 -0.161860 
#    y 0.000000 3.465120 0.000000 
#    z -0.161860 0.000000 3.687200 
# 
# 
# High freq. dielectric constant tensor:
#      x y z
#    x 1.674460 0.000000 -0.007700 
#    y 0.000000 1.706450 0.000000 
#    z -0.007700 0.000000 1.708050 
# 
# From -- ./inp_files/231008.got.cif
#   From: 2010.06.25/outbox.cif.g09.slc.cpg/sg12_116_cif.got.tgz:231008.got - 2010.06.28 00:19:55.
