data_PCOD8099404
_publ_section_title
;
Structure prediction by ZEFSAII (Michael W. Deem and Ramdas Pophale) SiO2 
 PCOD8099404
Probable space group: C 2/M
;
_chemical_formula_sum "Si O2"
_cell_formula_units_Z 48
_cell_length_a 9.999991
_cell_length_b 10.183651
_cell_length_c 29.066678
_cell_angle_alpha 90.000000
_cell_angle_beta 126.178722
_cell_angle_gamma 90.000000
_cell_volume 2389.289025
_symmetry_space_group_name_H-M "C 2/M"
_symmetry_group_IT_number 12
_symmetry_cell_setting 'monoclinic'
loop_
_space_group_symop_operation_xyz
x,y,z
-x,y,-z
-x,-y,-z
x,-y,z
1/2+x,1/2+y,z
1/2-x,1/2+y,-z
1/2-x,1/2-y,-z
1/2+x,1/2-y,z
loop_
_atom_site_type_symbol
_atom_site_label
_atom_site_fract_x
_atom_site_fract_y
_atom_site_fract_z
Si Si1 0.097770 0.651247 0.066530
Si Si2 0.421291 0.140712 0.545465
Si Si3 0.896878 0.650053 0.116499
Si Si4 0.752987 0.714384 0.421839
Si Si5 0.001747 0.853734 0.703754
Si Si6 0.131506 0.650015 0.249380
O O1 0.159919 0.500000 0.082869
O O2 0.252126 0.749254 0.099781
O O3 0.972903 0.685461 0.082445
O O4 0.000000 0.676194 0.000000
O O5 0.339803 0.154109 0.579510
O O6 0.283039 0.141229 0.477036
O O7 0.570850 0.244534 0.566861
O O8 0.511460 0.000000 0.562469
O O9 0.828459 0.500000 0.102945
O O10 0.042339 0.667569 0.182682
O O11 0.632081 0.635681 0.364018
O O12 0.948912 0.747195 0.730294
O O13 0.177470 0.810705 0.718437
O O14 0.016425 0.000000 0.728927
O O15 0.114441 0.500000 0.263838
#
# Coordination Sequence:
#
# PCOD8099404 Si02
#       6
#     8   8   8   8   8   8
#     4  10  21  37  60  90 120 150 187 230 275 327
#     4  10  20  36  54  77 110 141 175 223 279 337
#     4  10  21  38  57  81 116 152 188 231 277 327
#     4  10  20  35  56  80 106 141 181 224 278 338
#     4  11  22  38  59  82 110 146 189 235 284 334
#     4  10  23  39  56  81 112 147 189 235 278 327
#
# _framework density 20.089659000000001
#
# number of rings (size 3 to 8) (size 9 to 14) (size 15 to 20)
#    0.000    1.833    0.000    4.500    0.000    4.333 
#    0.000    8.333    0.000    0.000    0.000    0.000 
#    0.000    0.000    0.000    0.000    0.000    0.000 
#
# Total GULP energy -297441.240199 kJ/mol
# GULP energy per Si atom -12393.385008 kJ/mol
# Density = 2.004393 g / cm^3
# Si number density = 20.089659 Si / 1000 Ang^3
#
#
#
# Elastic Constant Matrix: (Units=GPa)
#
#
# Indices 1 2 3 4 5 6 
#
# 1 94.8546 53.1671 16.4052 0.0000 -4.9487 0.0000
# 2 53.1671 90.0361 22.4827 0.0000 -6.3497 0.0000
# 3 16.4052 22.4827 63.6923 0.0000 0.9816 0.0000
# 4 0.0000 0.0000 0.0000 13.6461 0.0000 2.3116
# 5 -4.9487 -6.3497 0.9816 0.0000 34.0239 0.0000
# 6 0.0000 0.0000 0.0000 2.3116 0.0000 31.7097
#
#
#
# Elastic Compliance Matrix: (Units=1/GPa)
#
#
# Indices 1 2 3 4 5 6 
#
# 1 0.015814 -0.009074 -0.000880 0.000000 0.000632 0.000000
# 2 -0.009074 0.017586 -0.003902 0.000000 0.002075 0.000000
# 3 -0.000880 -0.003902 0.017326 0.000000 -0.001356 0.000000
# 4 0.000000 0.000000 0.000000 0.074197 0.000000 -0.005409
# 5 0.000632 0.002075 -0.001356 0.000000 0.029909 0.000000
# 6 0.000000 0.000000 0.000000 -0.005409 0.000000 0.031930
#
#
# Mechanical properties :
#
#
# Convention : Reuss Voigt Hill
#
# Bulk Modulus (GPa) = 43.45444 48.07699 45.76572
# Shear Modulus (GPa) = 22.50789 26.31114 24.40951
#
# Velocity S-wave (km/s) = 3.35083 3.62288 3.48951
# Velocity P-wave (km/s) = 6.05375 6.44077 6.25026
#
# Compressibility (1/GPa) = 0.02301261
#
# Stress axis : x y z
#
# Youngs Moduli (GPa) = 63.23695 56.86496 57.71831
#
# Poissons Ratio (x) = 0.51598 0.05079
# Poissons Ratio (y) = 0.57379 0.22524
# Poissons Ratio (z) = 0.05564 0.22191
#
# Static dielectric constant tensor:
#      x y z
#    x 3.661120 0.000000 -0.006780 
#    y 0.000000 3.716400 0.000000 
#    z -0.006780 0.000000 3.713290 
# 
# 
# High freq. dielectric constant tensor:
#      x y z
#    x 1.791440 0.000000 0.001750 
#    y 0.000000 1.775720 0.000000 
#    z 0.001750 0.000000 1.788910 
# 
# From -- ./inp_files/355600.got.cif
#   From: 2010.06.25/outbox.cif.g09.slc.cpg/sg12_178_cif.got.tgz:355600.got - 2010.06.28 00:19:55.
