data_PCOD8099224
_publ_section_title
;
Structure prediction by ZEFSAII (Michael W. Deem and Ramdas Pophale) SiO2 
 PCOD8099224
Probable space group: C 2/M
;
_chemical_formula_sum "Si O2"
_cell_formula_units_Z 48
_cell_length_a 18.276399
_cell_length_b 13.466980
_cell_length_c 18.011961
_cell_angle_alpha 90.000000
_cell_angle_beta 147.016175
_cell_angle_gamma 90.000000
_cell_volume 2413.469172
_symmetry_space_group_name_H-M "C 2/M"
_symmetry_group_IT_number 12
_symmetry_cell_setting 'monoclinic'
loop_
_space_group_symop_operation_xyz
x,y,z
-x,y,-z
-x,-y,-z
x,-y,z
1/2+x,1/2+y,z
1/2-x,1/2+y,-z
1/2-x,1/2-y,-z
1/2+x,1/2-y,z
loop_
_atom_site_type_symbol
_atom_site_label
_atom_site_fract_x
_atom_site_fract_y
_atom_site_fract_z
Si Si1 0.765767 0.800249 0.412687
Si Si2 0.024257 0.767926 0.293440
Si Si3 0.354040 0.612627 0.346945
Si Si4 0.446147 0.613428 0.088213
Si Si5 0.204584 0.708868 0.801142
Si Si6 0.751461 0.889104 0.691710
O O1 0.887358 0.829484 0.571175
O O2 0.622853 0.805835 0.332292
O O3 0.756391 0.874609 0.335044
O O4 0.799277 0.687858 0.413359
O O5 0.958167 0.849182 0.183157
O O6 0.913381 0.698496 0.238534
O O7 0.500000 0.648553 0.500000
O O8 0.355404 0.500000 0.320229
O O9 0.299549 0.677940 0.232444
O O10 0.392626 0.500000 0.043352
O O11 0.587083 0.619651 0.164648
O O12 0.345065 0.686204 0.959891
O O13 0.184919 0.634857 0.714857
O O14 0.708475 0.000000 0.631261
#
# Coordination Sequence:
#
# PCOD8099224 Si02
#       6
#     8   8   8   8   8   8
#     4   9  19  37  58  81 113 143 183 230 283 323
#     4  10  20  35  55  80 114 151 178 223 278 331
#     4  10  20  36  59  82 103 139 189 230 269 324
#     4  10  21  37  58  83 111 150 191 223 269 334
#     4  11  20  34  58  84 113 142 183 234 275 319
#     4   9  19  36  60  84 109 146 190 229 273 330
#
# _framework density 19.888383999999999
#
# number of rings (size 3 to 8) (size 9 to 14) (size 15 to 20)
#    0.000    2.167    1.667    1.500    0.000    2.667 
#    0.000    6.667    0.000   19.000    0.000    0.000 
#    0.000    0.000    0.000    0.000    0.000    0.000 
#
# Total GULP energy -297566.817842 kJ/mol
# GULP energy per Si atom -12398.617410 kJ/mol
# Density = 1.984312 g / cm^3
# Si number density = 19.888384 Si / 1000 Ang^3
#
#
#
# Elastic Constant Matrix: (Units=GPa)
#
#
# Indices 1 2 3 4 5 6 
#
# 1 124.4344 33.3983 23.8359 0.0000 1.3721 0.0000
# 2 33.3983 102.2209 52.7913 0.0001 -6.6403 0.0000
# 3 23.8359 52.7913 84.5571 0.0000 -18.7871 0.0000
# 4 0.0000 0.0001 0.0000 26.3079 0.0000 -0.7109
# 5 1.3721 -6.6403 -18.7871 0.0000 27.2201 0.0000
# 6 0.0000 0.0000 0.0000 -0.7109 0.0000 19.1416
#
#
#
# Elastic Compliance Matrix: (Units=1/GPa)
#
#
# Indices 1 2 3 4 5 6 
#
# 1 0.008967 -0.002243 -0.001594 0.000000 -0.002099 0.000000
# 2 -0.002243 0.015237 -0.009484 0.000000 -0.002716 0.000000
# 3 -0.001594 -0.009484 0.020906 0.000000 0.012196 0.000000
# 4 0.000000 0.000000 0.000000 0.038050 0.000000 0.001413
# 5 -0.002099 -0.002716 0.012196 0.000000 0.044599 0.000000
# 6 0.000000 0.000000 0.000000 0.001413 0.000000 0.052295
#
#
# Mechanical properties :
#
#
# Convention : Reuss Voigt Hill
#
# Bulk Modulus (GPa) = 54.14487 59.02927 56.58707
# Shear Modulus (GPa) = 23.49058 27.94637 25.71847
#
# Velocity S-wave (km/s) = 3.44047 3.75261 3.59993
# Velocity P-wave (km/s) = 6.56246 6.96569 6.76708
#
# Compressibility (1/GPa) = 0.01846897
#
# Stress axis : x y z
#
# Youngs Moduli (GPa) = 111.52236 65.62911 47.83209
#
# Poissons Ratio (x) = 0.14721 0.07623
# Poissons Ratio (y) = 0.25015 0.45364
# Poissons Ratio (z) = 0.17773 0.62243
#
# Static dielectric constant tensor:
#      x y z
#    x 3.896640 0.000000 -0.011380 
#    y 0.000000 3.380990 0.000000 
#    z -0.011380 0.000000 3.463890 
# 
# 
# High freq. dielectric constant tensor:
#      x y z
#    x 1.794240 0.000000 -0.005000 
#    y 0.000000 1.748940 0.000000 
#    z -0.005000 0.000000 1.759750 
# 
# From -- ./inp_files/278244.got.cif
#   From: 2010.06.25/outbox.cif.g09.slc.cpg/sg12_140_cif.got.tgz:278244.got - 2010.06.28 00:19:55.
