data_PCOD8099925
_publ_section_title
;
Structure prediction by ZEFSAII (Michael W. Deem and Ramdas Pophale) SiO2 
 PCOD8099925
Probable space group: C 2/M
;
_chemical_formula_sum "Si O2"
_cell_formula_units_Z 64
_cell_length_a 15.936206
_cell_length_b 17.726786
_cell_length_c 18.491154
_cell_angle_alpha 90.000000
_cell_angle_beta 39.121357
_cell_angle_gamma 90.000000
_cell_volume 3295.977557
_symmetry_space_group_name_H-M "C 2/M"
_symmetry_group_IT_number 12
_symmetry_cell_setting 'monoclinic'
loop_
_space_group_symop_operation_xyz
x,y,z
-x,y,-z
-x,-y,-z
x,-y,z
1/2+x,1/2+y,z
1/2-x,1/2+y,-z
1/2-x,1/2-y,-z
1/2+x,1/2-y,z
loop_
_atom_site_type_symbol
_atom_site_label
_atom_site_fract_x
_atom_site_fract_y
_atom_site_fract_z
Si Si1 0.532092 0.721729 0.644627
Si Si2 0.104797 0.263187 0.827350
Si Si3 0.839730 0.180072 0.961854
Si Si4 0.880736 0.420262 0.130727
Si Si5 0.627588 0.412090 0.203167
Si Si6 0.769023 0.722054 0.593900
Si Si7 0.277874 0.177518 0.812137
Si Si8 0.653197 0.915068 0.376157
O O1 0.493643 0.633818 0.678368
O O2 0.649372 0.742206 0.620929
O O3 0.590365 0.743396 0.526890
O O4 0.405321 0.772564 0.747867
O O5 0.068239 0.351541 0.853928
O O6 0.238310 0.262126 0.689919
O O7 0.153955 0.231031 0.871561
O O8 0.988931 0.211332 0.872949
O O9 0.843783 0.117148 0.897022
O O10 0.750000 0.250000 0.000000
O O11 0.777929 0.141221 0.075763
O O12 0.851007 0.500000 0.193266
O O13 0.753967 0.396170 0.168650
O O14 0.000000 0.440346 0.000000
O O15 0.589312 0.500000 0.225158
O O16 0.775718 0.632707 0.607912
O O17 0.316556 0.116428 0.725004
O O18 0.500000 0.913109 0.500000
O O19 0.709277 0.000000 0.340944
#
# Coordination Sequence:
#
# PCOD8099925 Si02
#       8
#     8   8   8   8   8   8   8   8
#     4  11  20  40  57  87 111 151 200 241 287 351
#     4  11  20  36  58  88 111 151 195 240 288 349
#     4  12  21  36  59  88 119 156 198 242 290 355
#     4  10  20  35  57  83 116 155 194 239 291 350
#     4  11  23  39  58  87 124 159 195 246 306 353
#     4  10  22  36  63  83 111 153 199 239 287 354
#     4  11  21  35  61  84 117 151 196 244 282 351
#     4  10  21  38  59  88 119 151 191 240 298 351
#
# _framework density 19.417608999999999
#
# number of rings (size 3 to 8) (size 9 to 14) (size 15 to 20)
#    0.000    1.250    5.000    1.875    0.000    1.000 
#    0.000    0.625    0.000    6.750    0.000    0.000 
#    0.000    0.000    0.000    0.000    0.000    0.000 
#
# Total GULP energy -396521.063359 kJ/mol
# GULP energy per Si atom -12391.283230 kJ/mol
# Density = 1.937341 g / cm^3
# Si number density = 19.417609 Si / 1000 Ang^3
#
#
#
# Elastic Constant Matrix: (Units=GPa)
#
#
# Indices 1 2 3 4 5 6 
#
# 1 36.3798 10.7761 5.5978 -0.0002 -5.8413 0.0002
# 2 10.7761 125.1560 36.5224 0.0001 8.0690 0.0000
# 3 5.5978 36.5224 99.1423 0.0003 10.2181 0.0000
# 4 -0.0002 0.0001 0.0003 28.3615 0.0000 1.3001
# 5 -5.8413 8.0690 10.2181 0.0000 31.0937 -0.0001
# 6 0.0002 0.0000 0.0000 1.3001 -0.0001 29.9085
#
#
#
# Elastic Compliance Matrix: (Units=1/GPa)
#
#
# Indices 1 2 3 4 5 6 
#
# 1 0.029536 -0.002561 -0.001412 0.000000 0.006678 0.000000
# 2 -0.002561 0.009224 -0.003061 0.000000 -0.001869 0.000000
# 3 -0.001412 -0.003061 0.011633 0.000000 -0.003294 0.000000
# 4 0.000000 0.000000 0.000000 0.035329 0.000000 -0.001536
# 5 0.006678 -0.001869 -0.003294 0.000000 0.034983 0.000000
# 6 0.000000 0.000000 0.000000 -0.001536 0.000000 0.033502
#
#
# Mechanical properties :
#
#
# Convention : Reuss Voigt Hill
#
# Bulk Modulus (GPa) = 27.52967 40.71897 34.12432
# Shear Modulus (GPa) = 27.71846 31.72486 29.72166
#
# Velocity S-wave (km/s) = 3.78231 4.04644 3.91660
# Velocity P-wave (km/s) = 5.76914 6.54578 6.16969
#
# Compressibility (1/GPa) = 0.03632445
#
# Stress axis : x y z
#
# Youngs Moduli (GPa) = 33.85699 108.40972 85.96010
#
# Poissons Ratio (x) = 0.27769 0.12140
# Poissons Ratio (y) = 0.08672 0.26311
# Poissons Ratio (z) = 0.04782 0.33182
#
# Static dielectric constant tensor:
#      x y z
#    x 3.550320 0.000000 0.116100 
#    y 0.000000 3.705480 0.000000 
#    z 0.116100 0.000000 3.897280 
# 
# 
# High freq. dielectric constant tensor:
#      x y z
#    x 1.754800 0.000000 -0.007720 
#    y 0.000000 1.743900 0.000000 
#    z -0.007720 0.000000 1.766120 
# 
# From -- ./inp_files/271674.got.cif
#   From: 2010.06.25/outbox.cif.g09.slc.cpg/sg12_136_cif.got.tgz:271674.got - 2010.06.28 00:19:55.
