data_PCOD8099181
_publ_section_title
;
Structure prediction by ZEFSAII (Michael W. Deem and Ramdas Pophale) SiO2 
 PCOD8099181
Probable space group: C 2/M
;
_chemical_formula_sum "Si O2"
_cell_formula_units_Z 48
_cell_length_a 29.872862
_cell_length_b 8.856850
_cell_length_c 11.760324
_cell_angle_alpha 90.000000
_cell_angle_beta 59.172308
_cell_angle_gamma 90.000000
_cell_volume 2671.917852
_symmetry_space_group_name_H-M "C 2/M"
_symmetry_group_IT_number 12
_symmetry_cell_setting 'monoclinic'
loop_
_space_group_symop_operation_xyz
x,y,z
-x,y,-z
-x,-y,-z
x,-y,z
1/2+x,1/2+y,z
1/2-x,1/2+y,-z
1/2-x,1/2-y,-z
1/2+x,1/2-y,z
loop_
_atom_site_type_symbol
_atom_site_label
_atom_site_fract_x
_atom_site_fract_y
_atom_site_fract_z
Si Si1 0.560238 0.823652 0.914784
Si Si2 0.695035 0.822345 0.105277
Si Si3 0.127952 0.174704 0.650089
Si Si4 0.636643 0.670282 0.988529
Si Si5 0.682297 0.673423 0.357562
Si Si6 0.280235 0.669275 0.310137
O O1 0.580858 0.771314 0.763928
O O2 0.589217 0.740512 0.979788
O O3 0.570118 0.000000 0.915652
O O4 0.500000 0.780577 0.000000
O O5 0.677714 0.781196 0.255457
O O6 0.701302 0.000000 0.086287
O O7 0.750000 0.750000 0.000000
O O8 0.647976 0.766248 0.086786
O O9 0.133267 0.199296 0.507173
O O10 0.181897 0.225750 0.639148
O O11 0.117745 0.000000 0.694243
O O12 0.621158 0.500000 0.043028
O O13 0.689534 0.670998 0.848223
O O14 0.684965 0.500000 0.314064
O O15 0.733794 0.711467 0.362803
O O16 0.258975 0.500000 0.361226
#
# Coordination Sequence:
#
# PCOD8099181 Si02
#       6
#     8   8   8   8   8   8
#     4  10  21  37  59  85 109 136 174 222 275 325
#     4  12  23  35  52  75 108 150 188 221 260 311
#     4   9  20  35  51  75 106 140 180 220 266 322
#     4  10  20  35  55  80 108 140 182 225 266 316
#     4  11  21  32  49  74 107 146 182 219 262 312
#     4   9  17  30  48  72 104 140 178 218 259 312
#
# _framework density 17.964625000000002
#
# number of rings (size 3 to 8) (size 9 to 14) (size 15 to 20)
#    0.000    1.833    1.667    4.500    0.000    5.333 
#    0.000    0.000    0.000    1.000    0.000    7.000 
#    0.000    0.000    0.000    0.000    0.000    0.000 
#
# Total GULP energy -297614.145315 kJ/mol
# GULP energy per Si atom -12400.589388 kJ/mol
# Density = 1.792374 g / cm^3
# Si number density = 17.964625 Si / 1000 Ang^3
#
#
#
# Elastic Constant Matrix: (Units=GPa)
#
#
# Indices 1 2 3 4 5 6 
#
# 1 69.8753 52.0408 52.1127 0.0000 -4.1849 0.0000
# 2 52.0408 118.7958 49.8761 0.0000 -1.6535 0.0000
# 3 52.1127 49.8761 100.4146 0.0000 10.0027 0.0000
# 4 0.0000 0.0000 0.0000 27.9590 0.0000 3.7279
# 5 -4.1849 -1.6535 10.0027 0.0000 21.6420 0.0000
# 6 0.0000 0.0000 0.0000 3.7279 0.0000 28.2546
#
#
#
# Elastic Compliance Matrix: (Units=1/GPa)
#
#
# Indices 1 2 3 4 5 6 
#
# 1 0.030543 -0.007694 -0.013165 0.000000 0.011403 0.000000
# 2 -0.007694 0.012820 -0.002436 0.000000 0.000618 0.000000
# 3 -0.013165 -0.002436 0.019155 0.000000 -0.011585 0.000000
# 4 0.000000 0.000000 0.000000 0.036407 0.000000 -0.004804
# 5 0.011403 0.000618 -0.011585 0.000000 0.053813 0.000000
# 6 0.000000 0.000000 0.000000 -0.004804 0.000000 0.036026
#
#
# Mechanical properties :
#
#
# Convention : Reuss Voigt Hill
#
# Bulk Modulus (GPa) = 62.78580 66.34943 64.56762
# Shear Modulus (GPa) = 20.77580 24.57486 22.67533
#
# Velocity S-wave (km/s) = 3.40440 3.70260 3.55663
# Velocity P-wave (km/s) = 7.10485 7.43590 7.27226
#
# Compressibility (1/GPa) = 0.01592717
#
# Stress axis : x y z
#
# Youngs Moduli (GPa) = 32.74076 78.00534 52.20466
#
# Poissons Ratio (x) = 0.60015 0.68730
# Poissons Ratio (y) = 0.25190 0.12718
# Poissons Ratio (z) = 0.43105 0.19004
#
# Static dielectric constant tensor:
#      x y z
#    x 3.096640 0.000000 0.174120 
#    y 0.000000 3.393600 0.000000 
#    z 0.174120 0.000000 3.363310 
# 
# 
# High freq. dielectric constant tensor:
#      x y z
#    x 1.664590 0.000000 0.019380 
#    y 0.000000 1.706900 0.000000 
#    z 0.019380 0.000000 1.689990 
# 
# From -- ./inp_files/172427.got.cif
#   From: 2010.06.25/outbox.cif.g09.slc.cpg/sg12_87_cif.got.tgz:172427.got - 2010.06.28 00:19:55.
