data_PCOD8099083
_publ_section_title
;
Structure prediction by ZEFSAII (Michael W. Deem and Ramdas Pophale) SiO2 
 PCOD8099083
Probable space group: C 2/M
;
_chemical_formula_sum "Si O2"
_cell_formula_units_Z 48
_cell_length_a 17.877533
_cell_length_b 8.971590
_cell_length_c 15.541792
_cell_angle_alpha 90.000000
_cell_angle_beta 90.193755
_cell_angle_gamma 90.000000
_cell_volume 2492.732154
_symmetry_space_group_name_H-M "C 2/M"
_symmetry_group_IT_number 12
_symmetry_cell_setting 'monoclinic'
loop_
_space_group_symop_operation_xyz
x,y,z
-x,y,-z
-x,-y,-z
x,-y,z
1/2+x,1/2+y,z
1/2-x,1/2+y,-z
1/2-x,1/2-y,-z
1/2+x,1/2-y,z
loop_
_atom_site_type_symbol
_atom_site_label
_atom_site_fract_x
_atom_site_fract_y
_atom_site_fract_z
Si Si1 0.208666 0.323068 0.751822
Si Si2 0.207546 0.176729 0.078426
Si Si3 0.289070 0.676391 0.580674
Si Si4 0.460403 0.324342 0.586962
Si Si5 0.049909 0.672559 0.082960
Si Si6 0.460241 0.824551 0.252727
O O1 0.209055 0.500000 0.752576
O O2 0.253686 0.263403 0.834419
O O3 0.249124 0.263009 0.666426
O O4 0.124095 0.261970 0.754433
O O5 0.121730 0.223707 0.078563
O O6 0.213595 0.000000 0.070425
O O7 0.250000 0.250000 0.000000
O O8 0.281887 0.500000 0.572027
O O9 0.250000 0.750000 0.500000
O O10 0.374808 0.727771 0.583721
O O11 0.500000 0.269577 0.500000
O O12 0.467538 0.500000 0.598556
O O13 0.499681 0.249273 0.667189
O O14 0.074578 0.500000 0.086262
O O15 0.002842 0.719363 0.166091
O O16 0.000000 0.705135 0.000000
O O17 0.459592 0.000000 0.267409
#
# Coordination Sequence:
#
# PCOD8099083 Si02
#       6
#     8   8   8   8   8   8
#     4   9  19  36  56  78 107 144 181 221 275 330
#     4  11  22  38  60  84 113 148 186 228 275 330
#     4  10  20  35  55  78 106 141 180 221 268 324
#     4  10  21  36  53  77 111 146 178 222 282 333
#     4  10  21  38  58  81 113 149 184 228 282 335
#     4  10  20  35  57  81 105 140 185 227 269 324
#
# _framework density 19.255980000000001
#
# number of rings (size 3 to 8) (size 9 to 14) (size 15 to 20)
#    0.000    2.000    0.000    3.500    0.000    6.000 
#    0.000    5.000    0.000    0.000    0.000    0.000 
#    0.000    0.000    0.000    0.000    0.000    0.000 
#
# Total GULP energy -297695.027548 kJ/mol
# GULP energy per Si atom -12403.959481 kJ/mol
# Density = 1.921215 g / cm^3
# Si number density = 19.255980 Si / 1000 Ang^3
#
#
#
# Elastic Constant Matrix: (Units=GPa)
#
#
# Indices 1 2 3 4 5 6 
#
# 1 179.4869 45.1036 102.6969 0.0000 -6.0336 0.0000
# 2 45.1036 39.5145 47.1555 0.0000 1.2642 0.0000
# 3 102.6969 47.1555 207.6180 0.0000 -2.9287 0.0000
# 4 0.0000 0.0000 0.0000 33.3070 0.0000 8.2308
# 5 -6.0336 1.2642 -2.9287 0.0000 38.6779 0.0000
# 6 0.0000 0.0000 0.0000 8.2308 0.0000 30.8091
#
#
#
# Elastic Compliance Matrix: (Units=1/GPa)
#
#
# Indices 1 2 3 4 5 6 
#
# 1 0.008987 -0.006889 -0.002861 0.000000 0.001410 0.000000
# 2 -0.006889 0.040115 -0.005743 0.000000 -0.002821 0.000000
# 3 -0.002861 -0.005743 0.007540 0.000000 0.000312 0.000000
# 4 0.000000 0.000000 0.000000 0.032146 0.000000 -0.008588
# 5 0.001410 -0.002821 0.000312 0.000000 0.026190 0.000000
# 6 0.000000 0.000000 0.000000 -0.008588 0.000000 0.034752
#
#
# Mechanical properties :
#
#
# Convention : Reuss Voigt Hill
#
# Bulk Modulus (GPa) = 38.97744 90.72572 64.85158
# Shear Modulus (GPa) = 26.41742 36.00303 31.21023
#
# Velocity S-wave (km/s) = 3.70795 4.32870 4.03029
# Velocity P-wave (km/s) = 6.21430 8.49714 7.44375
#
# Compressibility (1/GPa) = 0.02565587
#
# Stress axis : x y z
#
# Youngs Moduli (GPa) = 111.27360 24.92838 132.61933
#
# Poissons Ratio (x) = 0.17174 0.37938
# Poissons Ratio (y) = 0.76660 0.76166
# Poissons Ratio (z) = 0.31832 0.14317
#
# Static dielectric constant tensor:
#      x y z
#    x 3.779350 0.000000 -0.113290 
#    y 0.000000 3.271070 0.000000 
#    z -0.113290 0.000000 3.735560 
# 
# 
# High freq. dielectric constant tensor:
#      x y z
#    x 1.769370 0.000000 -0.002420 
#    y 0.000000 1.724490 0.000000 
#    z -0.002420 0.000000 1.770790 
# 
# From -- ./inp_files/221669.got.cif
#   From: 2010.06.25/outbox.cif.g09.slc.cpg/sg12_111_cif.got.tgz:221669.got - 2010.06.28 00:19:55.
