data_PCOD8099554
_publ_section_title
;
Structure prediction by ZEFSAII (Michael W. Deem and Ramdas Pophale) SiO2 
 PCOD8099554
Probable space group: C 2/M
;
_chemical_formula_sum "Si O2"
_cell_formula_units_Z 64
_cell_length_a 18.621341
_cell_length_b 8.831920
_cell_length_c 29.766571
_cell_angle_alpha 90.000000
_cell_angle_beta 137.187302
_cell_angle_gamma 90.000000
_cell_volume 3326.984284
_symmetry_space_group_name_H-M "C 2/M"
_symmetry_group_IT_number 12
_symmetry_cell_setting 'monoclinic'
loop_
_space_group_symop_operation_xyz
x,y,z
-x,y,-z
-x,-y,-z
x,-y,z
1/2+x,1/2+y,z
1/2-x,1/2+y,-z
1/2-x,1/2-y,-z
1/2+x,1/2-y,z
loop_
_atom_site_type_symbol
_atom_site_label
_atom_site_fract_x
_atom_site_fract_y
_atom_site_fract_z
Si Si1 0.654023 0.672985 0.220817
Si Si2 0.942201 0.321269 0.097871
Si Si3 0.179967 0.173052 0.337878
Si Si4 0.402849 0.678086 0.985719
Si Si5 0.167498 0.677988 0.862658
Si Si6 0.369000 0.324296 0.312072
Si Si7 0.981633 0.678438 0.285163
Si Si8 0.605494 0.675748 0.573183
O O1 0.637206 0.500000 0.197997
O O2 0.563696 0.775378 0.158173
O O3 0.653269 0.692256 0.273595
O O4 0.764268 0.730819 0.251651
O O5 0.932865 0.500000 0.090478
O O6 0.897041 0.252027 0.031729
O O7 0.875160 0.255660 0.109412
O O8 0.298470 0.226896 0.402704
O O9 0.101583 0.282611 0.328302
O O10 0.166621 0.000000 0.347468
O O11 0.416650 0.500000 0.998678
O O12 0.500000 0.741676 0.000000
O O13 0.290695 0.718360 0.910857
O O14 0.149709 0.500000 0.856304
O O15 0.097970 0.743027 0.789700
O O16 0.345484 0.500000 0.293594
O O17 0.460149 0.265162 0.321465
O O18 0.408190 0.292248 0.380386
O O19 0.968744 0.500000 0.285968
O O20 0.500000 0.730797 0.500000
O O21 0.628797 0.500000 0.574376
#
# Coordination Sequence:
#
# PCOD8099554 Si02
#       8
#     8   8   8   8   8   8   8   8
#     4  10  20  35  56  82 110 146 189 230 283 344
#     4  11  21  36  57  80 109 143 188 238 286 339
#     4  10  20  35  57  87 118 147 189 239 281 329
#     4  10  22  39  57  78 108 146 189 237 291 350
#     4   9  20  37  56  79 108 148 189 229 282 342
#     4  10  21  36  56  86 120 148 185 235 283 330
#     4  11  21  36  58  83 118 156 192 232 285 344
#     4   9  19  38  63  87 116 156 194 228 277 341
#
# _framework density 19.236640999999999
#
# number of rings (size 3 to 8) (size 9 to 14) (size 15 to 20)
#    0.000    2.000    1.250    2.250    1.750    2.000 
#    0.000    2.500    0.000    0.000    0.000    0.000 
#    0.000    0.000    0.000    0.000    0.000    0.000 
#
# Total GULP energy -396893.788219 kJ/mol
# GULP energy per Si atom -12402.930882 kJ/mol
# Density = 1.919286 g / cm^3
# Si number density = 19.236641 Si / 1000 Ang^3
#
#
#
# Elastic Constant Matrix: (Units=GPa)
#
#
# Indices 1 2 3 4 5 6 
#
# 1 112.8524 29.7452 41.1658 0.0000 7.1035 0.0000
# 2 29.7452 42.8353 24.4329 -0.0001 1.2795 0.0002
# 3 41.1658 24.4329 102.7642 0.0000 14.8336 0.0000
# 4 0.0000 -0.0001 0.0000 24.9040 0.0000 -0.0447
# 5 7.1035 1.2795 14.8336 0.0000 22.1898 0.0000
# 6 0.0000 0.0002 0.0000 -0.0447 0.0000 31.6158
#
#
#
# Elastic Compliance Matrix: (Units=1/GPa)
#
#
# Indices 1 2 3 4 5 6 
#
# 1 0.011720 -0.006402 -0.002971 0.000000 -0.001397 0.000000
# 2 -0.006402 0.030690 -0.005282 0.000000 0.003811 0.000000
# 3 -0.002971 -0.005282 0.013277 0.000000 -0.007620 0.000000
# 4 0.000000 0.000000 0.000000 0.040154 0.000000 0.000057
# 5 -0.001397 0.003811 -0.007620 0.000000 0.050387 0.000000
# 6 0.000000 0.000000 0.000000 0.000057 0.000000 0.031630
#
#
# Mechanical properties :
#
#
# Convention : Reuss Voigt Hill
#
# Bulk Modulus (GPa) = 37.91316 49.90442 43.90879
# Shear Modulus (GPa) = 23.15221 26.61577 24.88399
#
# Velocity S-wave (km/s) = 3.47298 3.72371 3.60053
# Velocity P-wave (km/s) = 5.98613 6.66984 6.33721
#
# Compressibility (1/GPa) = 0.02637606
#
# Stress axis : x y z
#
# Youngs Moduli (GPa) = 85.32174 32.58376 75.31806
#
# Poissons Ratio (x) = 0.20861 0.22379
# Poissons Ratio (y) = 0.54625 0.39785
# Poissons Ratio (z) = 0.25351 0.17212
#
# Static dielectric constant tensor:
#      x y z
#    x 3.570220 0.000000 0.057990 
#    y 0.000000 3.409280 0.000000 
#    z 0.057990 0.000000 3.524960 
# 
# 
# High freq. dielectric constant tensor:
#      x y z
#    x 1.752460 0.000000 0.009050 
#    y 0.000000 1.740580 0.000000 
#    z 0.009050 0.000000 1.740870 
# 
# From -- ./inp_files/378163.got.cif
#   From: 2010.06.25/outbox.cif.g09.slc.cpg/sg12_190_cif.got.tgz:378163.got - 2010.06.28 00:19:55.
