data_PCOD8099336
_publ_section_title
;
Structure prediction by ZEFSAII (Michael W. Deem and Ramdas Pophale) SiO2 
 PCOD8099336
Probable space group: C 2/M
;
_chemical_formula_sum "Si O2"
_cell_formula_units_Z 64
_cell_length_a 19.230000
_cell_length_b 9.208124
_cell_length_c 31.027025
_cell_angle_alpha 90.000000
_cell_angle_beta 39.409939
_cell_angle_gamma 90.000000
_cell_volume 3487.961280
_symmetry_space_group_name_H-M "C 2/M"
_symmetry_group_IT_number 12
_symmetry_cell_setting 'monoclinic'
loop_
_space_group_symop_operation_xyz
x,y,z
-x,y,-z
-x,-y,-z
x,-y,z
1/2+x,1/2+y,z
1/2-x,1/2+y,-z
1/2-x,1/2-y,-z
1/2+x,1/2-y,z
loop_
_atom_site_type_symbol
_atom_site_label
_atom_site_fract_x
_atom_site_fract_y
_atom_site_fract_z
Si Si1 0.047314 0.169686 0.704413
Si Si2 0.175122 0.330806 0.195897
Si Si3 0.913767 0.831274 0.923761
Si Si4 0.875553 0.164690 0.550372
Si Si5 0.162915 0.830919 0.804961
Si Si6 0.722057 0.831255 0.076995
Si Si7 0.313068 0.168204 0.293666
Si Si8 0.756787 0.832492 0.452511
O O1 0.091379 0.250103 0.725899
O O2 0.127484 0.197042 0.625850
O O3 0.932029 0.234956 0.745098
O O4 0.036152 0.000000 0.720704
O O5 0.143001 0.500000 0.214089
O O6 0.263754 0.287859 0.189305
O O7 0.228146 0.292272 0.124368
O O8 0.880183 0.750020 0.895964
O O9 0.037796 0.792503 0.876875
O O10 0.899508 0.000000 0.921013
O O11 0.836271 0.781294 0.000445
O O12 0.804009 0.188290 0.627460
O O13 0.840649 0.275723 0.530481
O O14 0.000000 0.202262 0.500000
O O15 0.861443 0.000000 0.540183
O O16 0.201770 0.736421 0.746103
O O17 0.175890 0.000000 0.786978
O O18 0.701179 0.000000 0.079630
O O19 0.346783 0.000000 0.273896
O O20 0.750000 0.750000 0.500000
O O21 0.736929 0.000000 0.471164
#
# Coordination Sequence:
#
# PCOD8099336 Si02
#       8
#     8   8   8   8   8   8   8   8
#     4  10  21  37  56  77 103 137 176 215 256 306
#     4  10  21  35  52  77 107 138 173 215 261 306
#     4   9  18  33  53  75 100 134 173 212 256 305
#     4   9  19  36  56  78 105 136 171 212 258 309
#     4  10  21  35  51  75 107 139 172 213 260 308
#     4   9  18  33  53  76 101 132 173 215 254 303
#     4  10  20  35  56  78 102 136 175 214 257 306
#     4  10  21  36  55  79 106 137 173 213 257 306
#
# _framework density 18.348827
#
# number of rings (size 3 to 8) (size 9 to 14) (size 15 to 20)
#    0.000    2.375    0.000    1.875    0.000    7.250 
#    0.000    6.250    0.000    0.000    0.000    5.250 
#    0.000    0.000    0.000    0.000    0.000    0.000 
#
# Total GULP energy -396901.585680 kJ/mol
# GULP energy per Si atom -12403.174552 kJ/mol
# Density = 1.830706 g / cm^3
# Si number density = 18.348827 Si / 1000 Ang^3
#
#
#
# Elastic Constant Matrix: (Units=GPa)
#
#
# Indices 1 2 3 4 5 6 
#
# 1 160.5737 79.2852 86.4919 0.0009 0.9367 0.0134
# 2 79.2852 94.7498 64.1501 0.0024 5.0682 0.0020
# 3 86.4919 64.1501 100.0076 -0.0002 -1.4942 -0.0014
# 4 0.0009 0.0024 -0.0002 29.7456 -0.0002 2.0360
# 5 0.9367 5.0682 -1.4942 -0.0002 36.1509 0.0040
# 6 0.0134 0.0020 -0.0014 2.0360 0.0040 33.8394
#
#
#
# Elastic Compliance Matrix: (Units=1/GPa)
#
#
# Indices 1 2 3 4 5 6 
#
# 1 0.013299 -0.005925 -0.007699 0.000000 0.000168 -0.000005
# 2 -0.005925 0.021653 -0.008813 -0.000002 -0.003246 0.000001
# 3 -0.007699 -0.008813 0.022346 0.000001 0.002359 0.000004
# 4 0.000000 -0.000002 0.000001 0.033757 0.000001 -0.002031
# 5 0.000168 -0.003246 0.002359 0.000001 0.028210 -0.000003
# 6 -0.000005 0.000001 0.000004 -0.002031 -0.000003 0.029674
#
#
# Mechanical properties :
#
#
# Convention : Reuss Voigt Hill
#
# Bulk Modulus (GPa) = 80.49105 90.57616 85.53360
# Shear Modulus (GPa) = 25.25831 28.30743 26.78287
#
# Velocity S-wave (km/s) = 3.71423 3.93203 3.82468
# Velocity P-wave (km/s) = 7.89661 8.37169 8.13761
#
# Compressibility (1/GPa) = 0.01242374
#
# Stress axis : x y z
#
# Youngs Moduli (GPa) = 75.19315 46.18308 44.75074
#
# Poissons Ratio (x) = 0.27364 0.34452
# Poissons Ratio (y) = 0.44553 0.39441
# Poissons Ratio (z) = 0.57888 0.40703
#
# Static dielectric constant tensor:
#      x y z
#    x 3.474430 0.000000 0.019310 
#    y 0.000000 3.435960 0.000000 
#    z 0.019310 0.000000 3.528670 
# 
# 
# High freq. dielectric constant tensor:
#      x y z
#    x 1.705900 0.000000 -0.000020 
#    y 0.000000 1.714170 0.000000 
#    z -0.000020 0.000000 1.720000 
# 
# From -- ./inp_files/378219.got.cif
#   From: 2010.06.25/outbox.cif.g09.slc.cpg/sg12_190_cif.got.tgz:378219.got - 2010.06.28 00:19:55.
