data_PCOD8099230
_publ_section_title
;
Structure prediction by ZEFSAII (Michael W. Deem and Ramdas Pophale) SiO2 
 PCOD8099230
Probable space group: C 2/M
;
_chemical_formula_sum "Si O2"
_cell_formula_units_Z 64
_cell_length_a 22.834578
_cell_length_b 9.093959
_cell_length_c 16.110880
_cell_angle_alpha 90.000000
_cell_angle_beta 87.317475
_cell_angle_gamma 90.000000
_cell_volume 3341.866386
_symmetry_space_group_name_H-M "C 2/M"
_symmetry_group_IT_number 12
_symmetry_cell_setting 'monoclinic'
loop_
_space_group_symop_operation_xyz
x,y,z
-x,y,-z
-x,-y,-z
x,-y,z
1/2+x,1/2+y,z
1/2-x,1/2+y,-z
1/2-x,1/2-y,-z
1/2+x,1/2-y,z
loop_
_atom_site_type_symbol
_atom_site_label
_atom_site_fract_x
_atom_site_fract_y
_atom_site_fract_z
Si Si1 0.601525 0.829046 0.774595
Si Si2 0.223210 0.834157 0.762508
Si Si3 0.499709 0.830036 0.095382
Si Si4 0.288269 0.165637 0.931688
Si Si5 0.962186 0.327009 0.384383
Si Si6 0.390632 0.671721 0.848608
Si Si7 0.172887 0.828235 0.318371
Si Si8 0.085939 0.673583 0.437965
O O1 0.660772 0.739946 0.778389
O O2 0.564535 0.805629 0.861260
O O3 0.565122 0.764710 0.698647
O O4 0.616550 0.000000 0.759950
O O5 0.254345 0.833094 0.848298
O O6 0.263065 0.744194 0.695137
O O7 0.215360 0.000000 0.730009
O O8 0.544156 0.733738 0.146741
O O9 0.518787 0.000000 0.100868
O O10 0.500000 0.776905 0.000000
O O11 0.350260 0.247282 0.919008
O O12 0.300119 0.000000 0.962062
O O13 0.250000 0.250000 0.000000
O O14 0.969107 0.500000 0.377959
O O15 0.920045 0.287099 0.464321
O O16 0.027844 0.265746 0.394620
O O17 0.389438 0.500000 0.868383
O O18 0.367927 0.706346 0.757963
O O19 0.142413 0.758806 0.400792
O O20 0.182196 0.000000 0.331391
O O21 0.094497 0.500000 0.423500
#
# Coordination Sequence:
#
# PCOD8099230 Si02
#       8
#     8   8   8   8   8   8   8   8
#     4  10  20  36  56  77 111 149 181 220 271 327
#     4  10  22  38  55  78 105 141 186 225 269 323
#     4  10  22  37  54  81 110 143 182 222 270 323
#     4  10  21  36  56  79 104 135 177 228 276 322
#     4   8  16  31  54  84 111 145 183 218 267 324
#     4  10  21  36  54  78 107 140 177 219 268 322
#     4  10  20  35  55  81 110 140 178 223 276 324
#     4   9  16  31  57  84 111 140 181 227 266 317
#
# _framework density 19.150974000000001
#
# number of rings (size 3 to 8) (size 9 to 14) (size 15 to 20)
#    0.000    2.375    0.000    3.000    1.750    4.750 
#    0.000    3.125    0.000    0.000    0.000    0.000 
#    0.000    0.000    0.000    0.000    0.000    0.000 
#
# Total GULP energy -396848.009099 kJ/mol
# GULP energy per Si atom -12401.500284 kJ/mol
# Density = 1.910739 g / cm^3
# Si number density = 19.150974 Si / 1000 Ang^3
#
#
#
# Elastic Constant Matrix: (Units=GPa)
#
#
# Indices 1 2 3 4 5 6 
#
# 1 106.5878 50.0227 34.8960 0.0000 -20.2600 0.0000
# 2 50.0227 94.5745 35.8516 0.0000 -13.5997 0.0000
# 3 34.8960 35.8516 74.9558 0.0000 -23.2302 0.0000
# 4 0.0000 0.0000 0.0000 24.2578 0.0000 -5.0381
# 5 -20.2600 -13.5997 -23.2302 0.0000 33.9525 0.0000
# 6 0.0000 0.0000 0.0000 -5.0381 0.0000 35.7370
#
#
#
# Elastic Compliance Matrix: (Units=1/GPa)
#
#
# Indices 1 2 3 4 5 6 
#
# 1 0.013631 -0.005730 -0.002279 0.000000 0.004279 0.000000
# 2 -0.005730 0.015363 -0.004865 0.000000 -0.000594 0.000000
# 3 -0.002279 -0.004865 0.019929 0.000000 0.010327 0.000000
# 4 0.000000 0.000000 0.000000 0.042467 0.000000 0.005987
# 5 0.004279 -0.000594 0.010327 0.000000 0.038835 0.000000
# 6 0.000000 0.000000 0.000000 0.005987 0.000000 0.028826
#
#
# Mechanical properties :
#
#
# Convention : Reuss Voigt Hill
#
# Bulk Modulus (GPa) = 43.14808 57.51764 50.33286
# Shear Modulus (GPa) = 25.97073 29.14597 27.55835
#
# Velocity S-wave (km/s) = 3.68653 3.90539 3.79754
# Velocity P-wave (km/s) = 6.37966 7.10177 6.75038
#
# Compressibility (1/GPa) = 0.02317600
#
# Stress axis : x y z
#
# Youngs Moduli (GPa) = 73.36377 65.09024 50.17688
#
# Poissons Ratio (x) = 0.37299 0.11434
# Poissons Ratio (y) = 0.42041 0.24409
# Poissons Ratio (z) = 0.16718 0.31664
#
# Static dielectric constant tensor:
#      x y z
#    x 3.475270 0.000000 0.039820 
#    y 0.000000 3.427200 0.000000 
#    z 0.039820 0.000000 3.549970 
# 
# 
# High freq. dielectric constant tensor:
#      x y z
#    x 1.744890 0.000000 -0.015200 
#    y 0.000000 1.733850 0.000000 
#    z -0.015200 0.000000 1.738970 
# 
# From -- ./inp_files/281234.got.cif
#   From: 2010.06.25/outbox.cif.g09.slc.cpg/sg12_141_cif.got.tgz:281234.got - 2010.06.28 00:19:55.
