data_PCOD8099031
_publ_section_title
;
Structure prediction by ZEFSAII (Michael W. Deem and Ramdas Pophale) SiO2 
 PCOD8099031
Probable space group: C 2/M
;
_chemical_formula_sum "Si O2"
_cell_formula_units_Z 56
_cell_length_a 32.104745
_cell_length_b 9.123903
_cell_length_c 13.762026
_cell_angle_alpha 90.000000
_cell_angle_beta 48.957186
_cell_angle_gamma 90.000000
_cell_volume 3040.393556
_symmetry_space_group_name_H-M "C 2/M"
_symmetry_group_IT_number 12
_symmetry_cell_setting 'monoclinic'
loop_
_space_group_symop_operation_xyz
x,y,z
-x,y,-z
-x,-y,-z
x,-y,z
1/2+x,1/2+y,z
1/2-x,1/2+y,-z
1/2-x,1/2-y,-z
1/2+x,1/2-y,z
loop_
_atom_site_type_symbol
_atom_site_label
_atom_site_fract_x
_atom_site_fract_y
_atom_site_fract_z
Si Si1 0.914453 0.332654 0.173996
Si Si2 0.031288 0.174278 0.732423
Si Si3 0.195824 0.665625 0.555950
Si Si4 0.810335 0.671719 0.012018
Si Si5 0.374595 0.827318 0.517040
Si Si6 0.700315 0.829205 0.192751
Si Si7 0.423126 0.172172 0.937138
O O1 0.932704 0.500000 0.169183
O O2 0.947655 0.226438 0.194394
O O3 0.848873 0.315919 0.289807
O O4 0.927855 0.290210 0.043575
O O5 0.069187 0.238068 0.587605
O O6 0.969881 0.236556 0.809310
O O7 0.031190 0.000000 0.727926
O O8 0.214495 0.500000 0.513935
O O9 0.250000 0.750000 0.500000
O O10 0.169891 0.723566 0.495152
O O11 0.801777 0.500000 0.037751
O O12 0.756247 0.748003 0.139461
O O13 0.817614 0.716326 0.888070
O O14 0.864103 0.726021 0.987443
O O15 0.350263 0.785517 0.659376
O O16 0.387471 0.000000 0.486651
O O17 0.713092 0.000000 0.181902
O O18 0.431164 0.000000 0.904689
#
# Coordination Sequence:
#
# PCOD8099031 Si02
#       7
#     8   8   8   8   8   8   8
#     4   9  19  35  52  71 102 143 177 205 252 313
#     4  11  22  35  52  78 105 133 175 224 263 302
#     4   9  18  30  45  70 101 132 169 208 246 297
#     4   9  19  34  55  83 108 134 172 214 257 309
#     4   9  19  36  55  72 100 143 177 205 256 317
#     4   9  18  35  57  80 107 137 171 213 261 309
#     4  10  20  35  55  76 104 142 177 210 254 312
#
# _framework density 18.418666999999999
#
# number of rings (size 3 to 8) (size 9 to 14) (size 15 to 20)
#    0.000    2.571    0.000    2.571    2.000    5.714 
#    0.000    0.714    0.000    4.286    0.000    0.000 
#    0.000    0.000    0.000    0.000    0.000    0.000 
#
# Total GULP energy -347219.495616 kJ/mol
# GULP energy per Si atom -12400.696272 kJ/mol
# Density = 1.837675 g / cm^3
# Si number density = 18.418667 Si / 1000 Ang^3
#
#
#
# Elastic Constant Matrix: (Units=GPa)
#
#
# Indices 1 2 3 4 5 6 
#
# 1 71.6846 37.3975 35.1335 0.0000 -17.4783 0.0000
# 2 37.3975 66.4598 43.1149 0.0000 -10.5750 0.0000
# 3 35.1335 43.1149 115.5101 0.0000 -11.8285 0.0000
# 4 0.0000 0.0000 0.0000 24.0669 0.0000 -7.7439
# 5 -17.4783 -10.5750 -11.8285 0.0000 21.2340 0.0000
# 6 0.0000 0.0000 0.0000 -7.7439 0.0000 29.8065
#
#
#
# Elastic Compliance Matrix: (Units=1/GPa)
#
#
# Indices 1 2 3 4 5 6 
#
# 1 0.023195 -0.009577 -0.002135 0.000000 0.013133 0.000000
# 2 -0.009577 0.024585 -0.006169 0.000000 0.000924 0.000000
# 3 -0.002135 -0.006169 0.011787 0.000000 0.001736 0.000000
# 4 0.000000 0.000000 0.000000 0.045341 0.000000 0.011780
# 5 0.013133 0.000924 0.001736 0.000000 0.059332 0.000000
# 6 0.000000 0.000000 0.000000 0.011780 0.000000 0.036610
#
#
# Mechanical properties :
#
#
# Convention : Reuss Voigt Hill
#
# Bulk Modulus (GPa) = 42.00901 53.88291 47.94596
# Shear Modulus (GPa) = 20.44590 24.22206 22.33398
#
# Velocity S-wave (km/s) = 3.33538 3.63034 3.48598
# Velocity P-wave (km/s) = 6.13925 6.84766 6.50311
#
# Compressibility (1/GPa) = 0.02380442
#
# Stress axis : x y z
#
# Youngs Moduli (GPa) = 43.11261 40.67557 84.83845
#
# Poissons Ratio (x) = 0.38955 0.18117
# Poissons Ratio (y) = 0.41289 0.52336
# Poissons Ratio (z) = 0.09206 0.25092
#
# Static dielectric constant tensor:
#      x y z
#    x 3.312840 0.000000 -0.065320 
#    y 0.000000 3.232920 0.000000 
#    z -0.065320 0.000000 3.613880 
# 
# 
# High freq. dielectric constant tensor:
#      x y z
#    x 1.702770 0.000000 -0.012060 
#    y 0.000000 1.700030 0.000000 
#    z -0.012060 0.000000 1.720260 
# 
# From -- ./inp_files/187212.got.cif
#   From: 2010.06.25/outbox.cif.g09.slc.cpg/sg12_94_cif.got.tgz:187212.got - 2010.06.28 00:19:55.
