data_PCOD8099980
_publ_section_title
;
Structure prediction by ZEFSAII (Michael W. Deem and Ramdas Pophale) SiO2 
 PCOD8099980
Probable space group: C 2/M
;
_chemical_formula_sum "Si O2"
_cell_formula_units_Z 64
_cell_length_a 29.202183
_cell_length_b 9.316290
_cell_length_c 12.575360
_cell_angle_alpha 90.000000
_cell_angle_beta 87.802545
_cell_angle_gamma 90.000000
_cell_volume 3418.686327
_symmetry_space_group_name_H-M "C 2/M"
_symmetry_group_IT_number 12
_symmetry_cell_setting 'monoclinic'
loop_
_space_group_symop_operation_xyz
x,y,z
-x,y,-z
-x,-y,-z
x,-y,z
1/2+x,1/2+y,z
1/2-x,1/2+y,-z
1/2-x,1/2-y,-z
1/2+x,1/2-y,z
loop_
_atom_site_type_symbol
_atom_site_label
_atom_site_fract_x
_atom_site_fract_y
_atom_site_fract_z
Si Si1 0.240309 0.669733 0.895257
Si Si2 0.746762 0.344557 0.599839
Si Si3 0.172726 0.167681 0.774659
Si Si4 0.446022 0.838968 0.504666
Si Si5 0.007838 0.830176 0.123508
Si Si6 0.072329 0.167176 0.706795
Si Si7 0.419738 0.830934 0.741491
Si Si8 0.814239 0.340359 0.768866
O O1 0.238202 0.500000 0.906628
O O2 0.190222 0.729838 0.867067
O O3 0.283019 0.715072 0.818838
O O4 0.250000 0.750000 0.000000
O O5 0.731819 0.500000 0.561129
O O6 0.750000 0.250000 0.500000
O O7 0.705850 0.285983 0.676200
O O8 0.796844 0.350363 0.649390
O O9 0.120655 0.205119 0.754926
O O10 0.179425 0.000000 0.803892
O O11 0.500000 0.841219 0.500000
O O12 0.429892 0.745747 0.406103
O O13 0.430354 0.774694 0.620581
O O14 0.426204 0.000000 0.492662
O O15 0.051641 0.750593 0.169876
O O16 0.965084 0.784541 0.202229
O O17 0.016491 0.000000 0.127390
O O18 0.000000 0.783787 0.000000
O O19 0.067382 0.000000 0.681826
O O20 0.367009 0.795989 0.770459
O O21 0.430934 0.000000 0.747393
O O22 0.806960 0.500000 0.822171
#
# Coordination Sequence:
#
# PCOD8099980 Si02
#       8
#     8   8   8   8   8   8   8   8
#     4  11  22  38  61  86 112 147 190 236 286 339
#     4   9  18  32  50  73 106 142 176 221 272 324
#     4   9  20  38  55  78 112 148 188 235 281 332
#     4  10  20  35  57  84 117 153 192 239 288 342
#     4  10  22  39  57  81 114 149 189 239 290 342
#     4  10  21  37  58  83 114 153 193 237 289 343
#     4  10  21  38  59  85 116 153 192 236 288 340
#     4   9  20  38  56  79 114 149 186 232 281 330
#
# _framework density 18.720641000000001
#
# number of rings (size 3 to 8) (size 9 to 14) (size 15 to 20)
#    0.000    2.250    1.250    1.875    1.750    5.000 
#    0.000    1.250    0.000    0.000    0.000    0.000 
#    0.000    0.000    0.000    0.000    0.000    0.000 
#
# Total GULP energy -396531.727697 kJ/mol
# GULP energy per Si atom -12391.616491 kJ/mol
# Density = 1.867803 g / cm^3
# Si number density = 18.720641 Si / 1000 Ang^3
#
#
#
# Elastic Constant Matrix: (Units=GPa)
#
#
# Indices 1 2 3 4 5 6 
#
# 1 125.9069 39.0296 39.2333 0.0000 14.0439 0.0000
# 2 39.0296 77.3478 51.1116 0.0000 15.0287 0.0000
# 3 39.2333 51.1116 112.9512 0.0000 16.0798 0.0000
# 4 0.0000 0.0000 0.0000 36.8753 0.0000 5.6969
# 5 14.0439 15.0287 16.0798 0.0000 16.1990 0.0000
# 6 0.0000 0.0000 0.0000 5.6969 0.0000 21.9668
#
#
#
# Elastic Compliance Matrix: (Units=1/GPa)
#
#
# Indices 1 2 3 4 5 6 
#
# 1 0.009839 -0.003266 -0.001347 0.000000 -0.004163 0.000000
# 2 -0.003266 0.021125 -0.007031 0.000000 -0.009788 0.000000
# 3 -0.001347 -0.007031 0.013286 0.000000 -0.005496 0.000000
# 4 0.000000 0.000000 0.000000 0.028250 0.000000 -0.007326
# 5 -0.004163 -0.009788 -0.005496 0.000000 0.079878 0.000000
# 6 0.000000 0.000000 0.000000 -0.007326 0.000000 0.047423
#
#
# Mechanical properties :
#
#
# Convention : Reuss Voigt Hill
#
# Bulk Modulus (GPa) = 47.70847 63.88387 55.79617
# Shear Modulus (GPa) = 21.73200 27.46365 24.59782
#
# Velocity S-wave (km/s) = 3.41083 3.83433 3.62877
# Velocity P-wave (km/s) = 6.40714 7.33496 6.88670
#
# Compressibility (1/GPa) = 0.02096064
#
# Stress axis : x y z
#
# Youngs Moduli (GPa) = 101.63855 47.33827 75.26964
#
# Poissons Ratio (x) = 0.15459 0.10140
# Poissons Ratio (y) = 0.33191 0.52925
# Poissons Ratio (z) = 0.13692 0.33286
#
# Static dielectric constant tensor:
#      x y z
#    x 3.682400 0.000000 0.010710 
#    y 0.000000 3.415100 0.000000 
#    z 0.010710 0.000000 3.655660 
# 
# 
# High freq. dielectric constant tensor:
#      x y z
#    x 1.733080 0.000000 0.004430 
#    y 0.000000 1.720080 0.000000 
#    z 0.004430 0.000000 1.726760 
# 
# From -- ./inp_files/187393.got.cif
#   From: 2010.06.25/outbox.cif.g09.slc.cpg/sg12_94_cif.got.tgz:187393.got - 2010.06.28 00:19:55.
