data_PCOD8099347
_publ_section_title
;
Structure prediction by ZEFSAII (Michael W. Deem and Ramdas Pophale) SiO2 
 PCOD8099347
Probable space group: C 2/M
;
_chemical_formula_sum "Si O2"
_cell_formula_units_Z 36
_cell_length_a 12.443045
_cell_length_b 13.061453
_cell_length_c 11.127452
_cell_angle_alpha 90.000000
_cell_angle_beta 79.429188
_cell_angle_gamma 90.000000
_cell_volume 1777.788911
_symmetry_space_group_name_H-M "C 2/M"
_symmetry_group_IT_number 12
_symmetry_cell_setting 'monoclinic'
loop_
_space_group_symop_operation_xyz
x,y,z
-x,y,-z
-x,-y,-z
x,-y,z
1/2+x,1/2+y,z
1/2-x,1/2+y,-z
1/2-x,1/2-y,-z
1/2+x,1/2-y,z
loop_
_atom_site_type_symbol
_atom_site_label
_atom_site_fract_x
_atom_site_fract_y
_atom_site_fract_z
Si Si1 0.000000 0.827483 0.500000
Si Si2 0.108431 0.257102 0.114622
Si Si3 0.191030 0.113001 0.306214
Si Si4 0.602791 0.757744 0.713441
Si Si5 0.816330 0.879164 0.106845
O O1 0.101187 0.894234 0.430790
O O2 0.046752 0.758142 0.597024
O O3 0.146159 0.177019 0.206083
O O4 0.191265 0.353423 0.095109
O O5 0.988713 0.299762 0.173743
O O6 0.106082 0.192022 0.991979
O O7 0.304581 0.158741 0.330225
O O8 0.215089 0.000000 0.253378
O O9 0.656038 0.654296 0.761146
O O10 0.838883 0.000000 0.086448
#
# Coordination Sequence:
#
# PCOD8099347 Si02
#       5
#     4   8   8   8   8
#     4  10  21  38  53  74 108 140 173 220 263 302
#     4   9  20  36  53  79 111 137 168 216 264 307
#     4  10  20  35  56  79 104 137 175 215 262 313
#     4  10  21  36  54  77 107 139 175 217 259 307
#     4  10  20  35  56  80 106 139 176 212 257 312
#
# _framework density 20.249873000000001
#
# number of rings (size 3 to 8) (size 9 to 14) (size 15 to 20)
#    0.000    2.222    0.000    2.333    0.000    7.111 
#    0.000    0.556    0.000    8.000    0.000    0.000 
#    0.000    0.000    0.000    0.000    0.000    0.000 
#
# Total GULP energy -223088.640094 kJ/mol
# GULP energy per Si atom -12393.813339 kJ/mol
# Density = 2.020378 g / cm^3
# Si number density = 20.249873 Si / 1000 Ang^3
#
#
#
# Elastic Constant Matrix: (Units=GPa)
#
#
# Indices 1 2 3 4 5 6 
#
# 1 121.9696 40.0710 36.6374 0.0000 -16.0130 0.0000
# 2 40.0710 64.6882 23.3720 0.0000 -10.4680 0.0000
# 3 36.6374 23.3720 84.5671 0.0000 -1.1748 0.0000
# 4 0.0000 0.0000 0.0000 13.2292 0.0000 -0.7715
# 5 -16.0130 -10.4680 -1.1748 0.0000 31.8872 0.0000
# 6 0.0000 0.0000 0.0000 -0.7715 0.0000 9.6759
#
#
#
# Elastic Compliance Matrix: (Units=1/GPa)
#
#
# Indices 1 2 3 4 5 6 
#
# 1 0.011470 -0.005216 -0.003473 0.000000 0.003920 0.000000
# 2 -0.005216 0.020554 -0.003365 0.000000 0.004004 0.000000
# 3 -0.003473 -0.003365 0.014227 0.000000 -0.002325 0.000000
# 4 0.000000 0.000000 0.000000 0.075944 0.000000 0.006055
# 5 0.003920 0.004004 -0.002325 0.000000 0.034558 0.000000
# 6 0.000000 0.000000 0.000000 0.006055 0.000000 0.103833
#
#
# Mechanical properties :
#
#
# Convention : Reuss Voigt Hill
#
# Bulk Modulus (GPa) = 45.16203 52.37619 48.76911
# Shear Modulus (GPa) = 17.11889 22.36809 19.74349
#
# Velocity S-wave (km/s) = 2.91070 3.32716 3.12588
# Velocity P-wave (km/s) = 5.80061 6.37818 6.09623
#
# Compressibility (1/GPa) = 0.02214250
#
# Stress axis : x y z
#
# Youngs Moduli (GPa) = 87.18124 48.65336 70.28696
#
# Poissons Ratio (x) = 0.25378 0.24413
# Poissons Ratio (y) = 0.45474 0.23652
# Poissons Ratio (z) = 0.30281 0.16372
#
# Static dielectric constant tensor:
#      x y z
#    x 4.177060 0.000000 -0.303790 
#    y 0.000000 3.247390 0.000000 
#    z -0.303790 0.000000 3.931620 
# 
# 
# High freq. dielectric constant tensor:
#      x y z
#    x 1.810960 0.000000 -0.003490 
#    y 0.000000 1.752090 0.000000 
#    z -0.003490 0.000000 1.798210 
# 
# From -- ./inp_files/127774.got.cif
#   From: 2010.06.25/outbox.cif.g09.slc.cpg/sg12_64_cif.got.tgz:127774.got - 2010.06.28 00:19:55.
