data_PCOD8099205
_publ_section_title
;
Structure prediction by ZEFSAII (Michael W. Deem and Ramdas Pophale) SiO2 
 PCOD8099205
Probable space group: C 2/M
;
_chemical_formula_sum "Si O2"
_cell_formula_units_Z 56
_cell_length_a 28.172897
_cell_length_b 8.848053
_cell_length_c 17.459605
_cell_angle_alpha 90.000000
_cell_angle_beta 43.961651
_cell_angle_gamma 90.000000
_cell_volume 3021.229386
_symmetry_space_group_name_H-M "C 2/M"
_symmetry_group_IT_number 12
_symmetry_cell_setting 'monoclinic'
loop_
_space_group_symop_operation_xyz
x,y,z
-x,y,-z
-x,-y,-z
x,-y,z
1/2+x,1/2+y,z
1/2-x,1/2+y,-z
1/2-x,1/2-y,-z
1/2+x,1/2-y,z
loop_
_atom_site_type_symbol
_atom_site_label
_atom_site_fract_x
_atom_site_fract_y
_atom_site_fract_z
Si Si1 0.315675 0.678566 0.575564
Si Si2 0.148552 0.325312 0.909233
Si Si3 0.087197 0.177733 0.669891
Si Si4 0.065801 0.176924 0.131095
Si Si5 0.661890 0.172205 0.720592
Si Si6 0.207233 0.678759 0.240481
Si Si7 0.183057 0.177651 0.114209
O O1 0.320888 0.500000 0.584516
O O2 0.371274 0.742659 0.451107
O O3 0.241236 0.720453 0.628972
O O4 0.328406 0.762039 0.640969
O O5 0.165749 0.500000 0.906355
O O6 0.130004 0.303207 0.841806
O O7 0.213780 0.226491 0.856798
O O8 0.084501 0.269168 0.032946
O O9 0.120894 0.224472 0.710276
O O10 0.009069 0.233019 0.756010
O O11 0.091840 0.000000 0.659765
O O12 0.117862 0.216745 0.138168
O O13 0.066082 0.000000 0.110874
O O14 0.654186 0.000000 0.702635
O O15 0.202067 0.500000 0.242217
O O16 0.167417 0.751042 0.215124
O O17 0.194854 0.000000 0.108065
O O18 0.250000 0.250000 0.000000
#
# Coordination Sequence:
#
# PCOD8099205 Si02
#       7
#     8   8   8   8   8   8   8
#     4   9  19  37  58  80 109 144 185 226 268 321
#     4  10  20  35  55  80 111 145 181 223 273 325
#     4  10  21  37  56  79 109 147 185 225 271 320
#     4  10  22  37  54  80 112 144 182 224 270 327
#     4   9  19  34  54  81 108 140 184 229 272 320
#     4  11  21  34  56  85 111 138 179 229 277 322
#     4  11  21  35  57  83 111 142 181 224 273 327
#
# _framework density 18.535499999999999
#
# number of rings (size 3 to 8) (size 9 to 14) (size 15 to 20)
#    0.000    2.000    1.429    3.429    0.000    5.143 
#    0.000    3.571    0.000    4.286    0.000    0.000 
#    0.000    0.000    0.000    0.000    0.000    0.000 
#
# Total GULP energy -347284.268048 kJ/mol
# GULP energy per Si atom -12403.009573 kJ/mol
# Density = 1.849331 g / cm^3
# Si number density = 18.535500 Si / 1000 Ang^3
#
#
#
# Elastic Constant Matrix: (Units=GPa)
#
#
# Indices 1 2 3 4 5 6 
#
# 1 103.3772 41.1163 92.0422 -0.0014 11.4802 0.0006
# 2 41.1163 66.1367 50.7427 0.0097 5.4570 -0.0082
# 3 92.0422 50.7427 149.6348 0.0051 4.1996 -0.0060
# 4 -0.0014 0.0097 0.0051 27.9291 -0.0013 6.0447
# 5 11.4802 5.4570 4.1996 -0.0013 24.3735 0.0011
# 6 0.0006 -0.0082 -0.0060 6.0447 0.0011 30.7726
#
#
#
# Elastic Compliance Matrix: (Units=1/GPa)
#
#
# Indices 1 2 3 4 5 6 
#
# 1 0.023794 -0.004154 -0.013002 0.000006 -0.008037 -0.000005
# 2 -0.004154 0.021447 -0.004660 -0.000008 -0.002042 0.000007
# 3 -0.013002 -0.004660 0.016138 -0.000002 0.004387 0.000002
# 4 0.000006 -0.000008 -0.000002 0.037395 0.000002 -0.007345
# 5 -0.008037 -0.002042 0.004387 0.000002 0.044515 -0.000002
# 6 -0.000005 0.000007 0.000002 -0.007345 -0.000002 0.033939
#
#
# Mechanical properties :
#
#
# Convention : Reuss Voigt Hill
#
# Bulk Modulus (GPa) = 56.34923 76.32787 66.33855
# Shear Modulus (GPa) = 22.04820 25.63156 23.83988
#
# Velocity S-wave (km/s) = 3.45267 3.72268 3.59022
# Velocity P-wave (km/s) = 6.80891 7.72959 7.28381
#
# Compressibility (1/GPa) = 0.01774647
#
# Stress axis : x y z
#
# Youngs Moduli (GPa) = 42.02685 46.62715 61.96589
#
# Poissons Ratio (x) = 0.19368 0.80568
# Poissons Ratio (y) = 0.17457 0.28879
# Poissons Ratio (z) = 0.54643 0.21730
#
# Static dielectric constant tensor:
#      x y z
#    x 3.402570 0.000000 0.120940 
#    y 0.000000 3.341210 0.000010 
#    z 0.120940 0.000010 3.638710 
# 
# 
# High freq. dielectric constant tensor:
#      x y z
#    x 1.714110 0.000000 0.016080 
#    y 0.000000 1.718260 0.000000 
#    z 0.016080 0.000000 1.718510 
# 
# From -- ./inp_files/288198.got.cif
#   From: 2010.06.25/outbox.cif.g09.slc.cpg/sg12_145_cif.got.tgz:288198.got - 2010.06.28 00:19:55.
