data_PCOD8099835
_publ_section_title
;
Structure prediction by ZEFSAII (Michael W. Deem and Ramdas Pophale) SiO2 
 PCOD8099835
Probable space group: C 2/M
;
_chemical_formula_sum "Si O2"
_cell_formula_units_Z 64
_cell_length_a 21.399385
_cell_length_b 12.878218
_cell_length_c 21.145612
_cell_angle_alpha 90.000000
_cell_angle_beta 35.164784
_cell_angle_gamma 90.000000
_cell_volume 3356.193532
_symmetry_space_group_name_H-M "C 2/M"
_symmetry_group_IT_number 12
_symmetry_cell_setting 'monoclinic'
loop_
_space_group_symop_operation_xyz
x,y,z
-x,y,-z
-x,-y,-z
x,-y,z
1/2+x,1/2+y,z
1/2-x,1/2+y,-z
1/2-x,1/2-y,-z
1/2+x,1/2-y,z
loop_
_atom_site_type_symbol
_atom_site_label
_atom_site_fract_x
_atom_site_fract_y
_atom_site_fract_z
Si Si1 0.978879 0.220735 0.447809
Si Si2 0.859300 0.242193 0.329967
Si Si3 0.742100 0.618007 0.942954
Si Si4 0.887385 0.380155 0.060178
Si Si5 0.288618 0.212835 0.771441
Si Si6 0.165460 0.118509 0.527937
Si Si7 0.407119 0.197644 0.903833
Si Si8 0.296977 0.121444 0.628654
O O1 0.917068 0.130381 0.461842
O O2 0.906447 0.325286 0.511881
O O3 0.000000 0.175973 0.500000
O O4 0.090065 0.244851 0.319843
O O5 0.887320 0.177021 0.369081
O O6 0.781918 0.336871 0.412779
O O7 0.806533 0.166516 0.322040
O O8 0.966145 0.293198 0.213401
O O9 0.703422 0.500000 0.981424
O O10 0.761516 0.642305 0.853629
O O11 0.851358 0.634824 0.892975
O O12 0.644882 0.687939 0.050168
O O13 0.860510 0.500000 0.097347
O O14 0.792704 0.310006 0.168382
O O15 0.891312 0.364637 0.981763
O O16 0.000000 0.346974 0.000000
O O17 0.280323 0.141532 0.716526
O O18 0.181962 0.000000 0.532292
O O19 0.307726 0.000000 0.606350
#
# Coordination Sequence:
#
# PCOD8099835 Si02
#       8
#     8   8   8   8   8   8   8   8
#     4   9  20  36  53  79 111 141 178 220 263 317
#     4  10  21  38  56  80 110 140 178 221 265 318
#     4  10  21  35  54  80 106 137 178 222 268 316
#     4  10  21  37  57  80 107 142 182 222 267 317
#     4  10  20  36  55  80 111 141 177 223 267 316
#     4  10  21  36  55  80 109 141 177 218 266 319
#     4  10  21  38  56  77 108 140 177 223 266 317
#     4  10  20  35  57  82 109 143 180 219 266 318
#
# _framework density 19.069223000000001
#
# number of rings (size 3 to 8) (size 9 to 14) (size 15 to 20)
#    0.000    2.125    0.000    2.625    0.000    5.500 
#    0.000    7.500    0.000    4.125    0.000    0.000 
#    0.000    0.000    0.000    0.000    0.000    0.000 
#
# Total GULP energy -396931.765167 kJ/mol
# GULP energy per Si atom -12404.117661 kJ/mol
# Density = 1.902582 g / cm^3
# Si number density = 19.069223 Si / 1000 Ang^3
#
#
#
# Elastic Constant Matrix: (Units=GPa)
#
#
# Indices 1 2 3 4 5 6 
#
# 1 78.6156 4.8135 -7.0376 0.0000 -2.9022 0.0000
# 2 4.8135 78.6844 3.1316 0.0000 -5.9591 0.0000
# 3 -7.0376 3.1316 54.6772 0.0000 -6.9885 0.0000
# 4 0.0000 0.0000 0.0000 16.3736 0.0000 2.5348
# 5 -2.9022 -5.9591 -6.9885 0.0000 22.7363 0.0000
# 6 0.0000 0.0000 0.0000 2.5348 0.0000 17.3175
#
#
#
# Elastic Compliance Matrix: (Units=1/GPa)
#
#
# Indices 1 2 3 4 5 6 
#
# 1 0.013018 -0.000718 0.001983 0.000000 0.002083 0.000000
# 2 -0.000718 0.013011 -0.000430 0.000000 0.003186 0.000000
# 3 0.001983 -0.000430 0.019347 0.000000 0.006087 0.000000
# 4 0.000000 0.000000 0.000000 0.062490 0.000000 -0.009147
# 5 0.002083 0.003186 0.006087 0.000000 0.046954 0.000000
# 6 0.000000 0.000000 0.000000 -0.009147 0.000000 0.059084
#
#
# Mechanical properties :
#
#
# Convention : Reuss Voigt Hill
#
# Bulk Modulus (GPa) = 21.25530 23.75469 22.50499
# Shear Modulus (GPa) = 21.93779 25.35679 23.64729
#
# Velocity S-wave (km/s) = 3.39548 3.65049 3.52529
# Velocity P-wave (km/s) = 5.15198 5.50021 5.32894
#
# Compressibility (1/GPa) = 0.04704710
#
# Stress axis : x y z
#
# Youngs Moduli (GPa) = 76.81393 76.85599 51.68746
#
# Poissons Ratio (x) = 0.05515 -0.10250
# Poissons Ratio (y) = 0.05512 0.02224
# Poissons Ratio (z) = -0.15232 0.03307
#
# Static dielectric constant tensor:
#      x y z
#    x 3.711500 0.000000 0.031620 
#    y 0.000000 3.305090 0.000000 
#    z 0.031620 0.000000 3.410490 
# 
# 
# High freq. dielectric constant tensor:
#      x y z
#    x 1.761410 0.000000 0.004200 
#    y 0.000000 1.733870 0.000000 
#    z 0.004200 0.000000 1.739590 
# 
# From -- ./inp_files/321232.got.cif
#   From: 2010.06.25/outbox.cif.g09.slc.cpg/sg12_161_cif.got.tgz:321232.got - 2010.06.28 00:19:55.
