data_PCOD8099011
_publ_section_title
;
Structure prediction by ZEFSAII (Michael W. Deem and Ramdas Pophale) SiO2 
 PCOD8099011
Probable space group: C 2/M
;
_chemical_formula_sum "Si O2"
_cell_formula_units_Z 64
_cell_length_a 29.392633
_cell_length_b 9.280275
_cell_length_c 18.313672
_cell_angle_alpha 90.000000
_cell_angle_beta 140.171573
_cell_angle_gamma 90.000000
_cell_volume 3199.540897
_symmetry_space_group_name_H-M "C 2/M"
_symmetry_group_IT_number 12
_symmetry_cell_setting 'monoclinic'
loop_
_space_group_symop_operation_xyz
x,y,z
-x,y,-z
-x,-y,-z
x,-y,z
1/2+x,1/2+y,z
1/2-x,1/2+y,-z
1/2-x,1/2-y,-z
1/2+x,1/2-y,z
loop_
_atom_site_type_symbol
_atom_site_label
_atom_site_fract_x
_atom_site_fract_y
_atom_site_fract_z
Si Si1 0.310789 0.661925 0.929384
Si Si2 0.565341 0.163773 0.298416
Si Si3 0.908670 0.665724 0.145906
Si Si4 0.791962 0.830011 0.740807
Si Si5 0.345918 0.669192 0.481880
Si Si6 0.068119 0.666851 0.132388
Si Si7 0.659572 0.165462 0.791680
Si Si8 0.922198 0.832136 0.427407
O O1 0.340042 0.500000 0.965544
O O2 0.284542 0.705168 0.816911
O O3 0.244508 0.679811 0.902695
O O4 0.375617 0.760267 0.034140
O O5 0.492293 0.190578 0.251225
O O6 0.622947 0.271708 0.403490
O O7 0.550814 0.194419 0.195727
O O8 0.591828 0.000000 0.342713
O O9 0.887544 0.500000 0.113539
O O10 0.875900 0.732382 0.179544
O O11 0.728344 0.748966 0.621856
O O12 0.866915 0.769584 0.806701
O O13 0.787315 0.000000 0.718402
O O14 0.330796 0.500000 0.470975
O O15 0.403174 0.701134 0.488289
O O16 0.088041 0.500000 0.142123
O O17 0.000000 0.711436 0.000000
O O18 0.635633 0.252241 0.691822
O O19 0.636193 0.000000 0.752271
O O20 0.000000 0.774345 0.500000
O O21 0.916303 0.000000 0.402979
#
# Coordination Sequence:
#
# PCOD8099011 Si02
#       8
#     8   8   8   8   8   8   8   8
#     4  10  21  36  55  83 119 155 193 243 297 348
#     4  10  22  40  61  88 120 153 193 243 297 351
#     4  10  21  36  58  86 116 156 200 241 293 355
#     4  11  23  40  63  89 121 158 199 249 300 354
#     4  11  23  39  61  88 119 158 202 245 295 355
#     4  10  22  42  67  93 122 155 195 244 297 357
#     4  10  20  35  54  82 117 153 197 241 290 351
#     4  10  21  36  55  82 116 156 202 248 293 345
#
# _framework density 20.002870000000001
#
# number of rings (size 3 to 8) (size 9 to 14) (size 15 to 20)
#    0.000    1.750    1.250    2.625    0.000    5.500 
#    0.000    0.000    0.000    0.000    0.000    0.000 
#    0.000    0.000    0.000    0.000    0.000    0.000 
#
# Total GULP energy -396898.895653 kJ/mol
# GULP energy per Si atom -12403.090489 kJ/mol
# Density = 1.995734 g / cm^3
# Si number density = 20.002870 Si / 1000 Ang^3
#
#
#
# Elastic Constant Matrix: (Units=GPa)
#
#
# Indices 1 2 3 4 5 6 
#
# 1 91.2834 36.8980 33.0196 0.0000 1.0379 0.0000
# 2 36.8980 78.3910 61.5804 0.0000 -3.1706 0.0000
# 3 33.0196 61.5804 126.3470 0.0000 -8.9224 0.0000
# 4 0.0000 0.0000 0.0000 40.1338 0.0000 1.0896
# 5 1.0379 -3.1706 -8.9224 0.0000 26.2431 0.0000
# 6 0.0000 0.0000 0.0000 1.0896 0.0000 28.7493
#
#
#
# Elastic Compliance Matrix: (Units=1/GPa)
#
#
# Indices 1 2 3 4 5 6 
#
# 1 0.013626 -0.005823 -0.000831 0.000000 -0.001525 0.000000
# 2 -0.005823 0.023182 -0.009798 0.000000 -0.000300 0.000000
# 3 -0.000831 -0.009798 0.013142 0.000000 0.003317 0.000000
# 4 0.000000 0.000000 0.000000 0.024942 0.000000 -0.000945
# 5 -0.001525 -0.000300 0.003317 0.000000 0.039257 0.000000
# 6 0.000000 0.000000 0.000000 -0.000945 0.000000 0.034819
#
#
# Mechanical properties :
#
#
# Convention : Reuss Voigt Hill
#
# Bulk Modulus (GPa) = 58.66318 62.11303 60.38810
# Shear Modulus (GPa) = 26.65880 29.99345 28.32613
#
# Velocity S-wave (km/s) = 3.65464 3.87648 3.76720
# Velocity P-wave (km/s) = 6.87020 7.15232 7.01268
#
# Compressibility (1/GPa) = 0.01704647
#
# Stress axis : x y z
#
# Youngs Moduli (GPa) = 73.38670 43.13635 76.09369
#
# Poissons Ratio (x) = 0.25118 0.06322
# Poissons Ratio (y) = 0.42732 0.74559
# Poissons Ratio (z) = 0.06097 0.42266
#
# Static dielectric constant tensor:
#      x y z
#    x 3.787670 0.000000 -0.035170 
#    y 0.000000 3.592090 0.000000 
#    z -0.035170 0.000000 3.489630 
# 
# 
# High freq. dielectric constant tensor:
#      x y z
#    x 1.786680 0.000000 0.000490 
#    y 0.000000 1.775630 0.000000 
#    z 0.000490 0.000000 1.781760 
# 
# From -- ./inp_files/295869.got.cif
#   From: 2010.06.25/outbox.cif.g09.slc.cpg/sg12_148_cif.got.tgz:295869.got - 2010.06.28 00:19:55.
