data_PCOD8099528
_publ_section_title
;
Structure prediction by ZEFSAII (Michael W. Deem and Ramdas Pophale) SiO2 
 PCOD8099528
Probable space group: C 2/M
;
_chemical_formula_sum "Si O2"
_cell_formula_units_Z 56
_cell_length_a 12.489490
_cell_length_b 13.148744
_cell_length_c 18.956088
_cell_angle_alpha 90.000000
_cell_angle_beta 111.836599
_cell_angle_gamma 90.000000
_cell_volume 2889.627810
_symmetry_space_group_name_H-M "C 2/M"
_symmetry_group_IT_number 12
_symmetry_cell_setting 'monoclinic'
loop_
_space_group_symop_operation_xyz
x,y,z
-x,y,-z
-x,-y,-z
x,-y,z
1/2+x,1/2+y,z
1/2-x,1/2+y,-z
1/2-x,1/2-y,-z
1/2+x,1/2-y,z
loop_
_atom_site_type_symbol
_atom_site_label
_atom_site_fract_x
_atom_site_fract_y
_atom_site_fract_z
Si Si1 0.873173 0.187913 0.447706
Si Si2 0.093272 0.884446 0.296389
Si Si3 0.711486 0.618834 0.053476
Si Si4 0.655929 0.620415 0.717814
Si Si5 0.435227 0.786836 0.052368
Si Si6 0.340537 0.736261 0.818625
Si Si7 0.266297 0.886662 0.461536
O O1 0.844650 0.167287 0.359984
O O2 0.775291 0.129691 0.468502
O O3 0.865927 0.308329 0.463302
O O4 0.000000 0.148004 0.500000
O O5 0.163338 0.822298 0.255747
O O6 0.153679 0.868919 0.386180
O O7 0.961821 0.847990 0.272078
O O8 0.096594 0.000000 0.271938
O O9 0.679557 0.500000 0.045896
O O10 0.840130 0.633303 0.054924
O O11 0.705386 0.664070 0.130448
O O12 0.621414 0.677534 0.980946
O O13 0.671510 0.500000 0.716735
O O14 0.758447 0.665868 0.790594
O O15 0.528506 0.771422 0.136445
O O16 0.500000 0.833170 0.000000
O O17 0.317056 0.000000 0.465294
#
# Coordination Sequence:
#
# PCOD8099528 Si02
#       7
#     8   8   8   8   8   8   8
#     4  11  21  37  60  81 111 151 195 246 288 340
#     4  10  20  35  56  81 112 148 188 235 284 338
#     4  10  21  39  63  90 116 150 192 229 275 336
#     4  11  23  37  56  84 114 151 196 239 289 340
#     4   9  21  39  60  87 119 150 185 232 276 333
#     4  11  21  38  57  84 121 151 187 231 284 338
#     4  10  21  36  56  84 111 144 192 240 292 343
#
# _framework density 19.379657999999999
#
# number of rings (size 3 to 8) (size 9 to 14) (size 15 to 20)
#    0.000    1.714    2.857    1.714    0.000    4.857 
#    0.000    8.571    0.000    0.857    0.000    0.000 
#    0.000    0.000    0.000    0.000    0.000    0.000 
#
# Total GULP energy -347264.751882 kJ/mol
# GULP energy per Si atom -12402.312567 kJ/mol
# Density = 1.933555 g / cm^3
# Si number density = 19.379658 Si / 1000 Ang^3
#
#
#
# Elastic Constant Matrix: (Units=GPa)
#
#
# Indices 1 2 3 4 5 6 
#
# 1 84.9474 21.3432 19.0733 0.0000 -2.5239 0.0000
# 2 21.3432 80.7582 24.4692 0.0000 -6.1263 0.0000
# 3 19.0733 24.4692 64.8348 0.0000 2.1346 0.0000
# 4 0.0000 0.0000 0.0000 23.0717 0.0000 2.3961
# 5 -2.5239 -6.1263 2.1346 0.0000 30.1232 0.0000
# 6 0.0000 0.0000 0.0000 2.3961 0.0000 23.2007
#
#
#
# Elastic Compliance Matrix: (Units=1/GPa)
#
#
# Indices 1 2 3 4 5 6 
#
# 1 0.013084 -0.002511 -0.002928 0.000000 0.000793 0.000000
# 2 -0.002511 0.014783 -0.004944 0.000000 0.003146 0.000000
# 3 -0.002928 -0.004944 0.018235 0.000000 -0.002543 0.000000
# 4 0.000000 0.000000 0.000000 0.043813 0.000000 -0.004525
# 5 0.000793 0.003146 -0.002543 0.000000 0.034084 0.000000
# 6 0.000000 0.000000 0.000000 -0.004525 0.000000 0.043570
#
#
# Mechanical properties :
#
#
# Convention : Reuss Voigt Hill
#
# Bulk Modulus (GPa) = 39.46867 40.03464 39.75166
# Shear Modulus (GPa) = 25.40935 26.32275 25.86605
#
# Velocity S-wave (km/s) = 3.62489 3.68947 3.65732
# Velocity P-wave (km/s) = 6.15873 6.23317 6.19607
#
# Compressibility (1/GPa) = 0.02533655
#
# Stress axis : x y z
#
# Youngs Moduli (GPa) = 76.43101 67.64560 54.84027
#
# Poissons Ratio (x) = 0.16983 0.16055
# Poissons Ratio (y) = 0.19189 0.27114
# Poissons Ratio (z) = 0.22376 0.33445
#
# Static dielectric constant tensor:
#      x y z
#    x 3.579640 0.000000 -0.032030 
#    y 0.000000 3.429680 0.000000 
#    z -0.032030 0.000000 3.468100 
# 
# 
# High freq. dielectric constant tensor:
#      x y z
#    x 1.759930 0.000000 -0.006700 
#    y 0.000000 1.744930 0.000000 
#    z -0.006700 0.000000 1.756710 
# 
# From -- ./inp_files/262825.got.cif
#   From: 2010.06.25/outbox.cif.g09.slc.cpg/sg12_132_cif.got.tgz:262825.got - 2010.06.28 00:19:55.
