data_PCOD8099548
_publ_section_title
;
Structure prediction by ZEFSAII (Michael W. Deem and Ramdas Pophale) SiO2 
 PCOD8099548
Probable space group: C 2/M
;
_chemical_formula_sum "Si O2"
_cell_formula_units_Z 64
_cell_length_a 14.543663
_cell_length_b 9.156601
_cell_length_c 32.730591
_cell_angle_alpha 90.000000
_cell_angle_beta 47.926796
_cell_angle_gamma 90.000000
_cell_volume 3235.453352
_symmetry_space_group_name_H-M "C 2/M"
_symmetry_group_IT_number 12
_symmetry_cell_setting 'monoclinic'
loop_
_space_group_symop_operation_xyz
x,y,z
-x,y,-z
-x,-y,-z
x,-y,z
1/2+x,1/2+y,z
1/2-x,1/2+y,-z
1/2-x,1/2-y,-z
1/2+x,1/2-y,z
loop_
_atom_site_type_symbol
_atom_site_label
_atom_site_fract_x
_atom_site_fract_y
_atom_site_fract_z
Si Si1 0.349654 0.169101 0.943430
Si Si2 0.589290 0.170056 0.352654
Si Si3 0.128179 0.670309 0.869288
Si Si4 0.384932 0.171357 0.562495
Si Si5 0.638853 0.826945 0.635241
Si Si6 0.340984 0.826539 0.852589
Si Si7 0.266445 0.339285 0.751620
Si Si8 0.497916 0.334721 0.742884
O O1 0.485171 0.200997 0.921776
O O2 0.343600 0.222800 0.898694
O O3 0.317569 0.000000 0.955041
O O4 0.250000 0.250000 0.000000
O O5 0.582541 0.222330 0.401283
O O6 0.462796 0.218974 0.368204
O O7 0.710294 0.235300 0.293928
O O8 0.607266 0.000000 0.344216
O O9 0.163869 0.500000 0.865959
O O10 0.210231 0.772304 0.873637
O O11 0.150239 0.708265 0.814487
O O12 0.500000 0.212529 0.500000
O O13 0.268734 0.263499 0.580598
O O14 0.353568 0.000000 0.569490
O O15 0.609549 0.751427 0.687577
O O16 0.645612 0.000000 0.639082
O O17 0.458342 0.750773 0.795611
O O18 0.352505 0.000000 0.843345
O O19 0.245158 0.500000 0.739735
O O20 0.382504 0.335825 0.747184
O O21 0.540713 0.500000 0.740547
#
# Coordination Sequence:
#
# PCOD8099548 Si02
#       8
#     8   8   8   8   8   8   8   8
#     4  10  23  40  56  77 108 144 186 229 269 318
#     4   9  19  35  54  78 108 139 173 216 266 317
#     4   9  19  37  57  78 107 144 179 214 265 329
#     4  10  22  39  55  74 105 145 186 224 266 322
#     4  10  20  35  56  82 110 138 174 224 272 314
#     4  10  20  35  56  84 113 140 175 225 274 313
#     4   8  15  29  52  80 107 135 170 211 260 319
#     4   9  17  32  55  83 112 142 175 211 262 330
#
# _framework density 19.780844999999999
#
# number of rings (size 3 to 8) (size 9 to 14) (size 15 to 20)
#    0.000    2.625    0.000    1.875    0.000    7.750 
#    0.000    3.750    0.000    0.000    0.000    0.000 
#    0.000    0.000    0.000    0.000    0.000    0.000 
#
# Total GULP energy -396789.569250 kJ/mol
# GULP energy per Si atom -12399.674039 kJ/mol
# Density = 1.973582 g / cm^3
# Si number density = 19.780845 Si / 1000 Ang^3
#
#
#
# Elastic Constant Matrix: (Units=GPa)
#
#
# Indices 1 2 3 4 5 6 
#
# 1 29.9977 15.0892 14.1275 0.0003 1.7985 0.0003
# 2 15.0892 57.3487 29.5594 0.0005 0.2339 0.0005
# 3 14.1275 29.5594 104.9809 0.0004 -4.6684 0.0004
# 4 0.0003 0.0005 0.0004 38.7780 0.0001 -3.8271
# 5 1.7985 0.2339 -4.6684 0.0001 32.9948 0.0001
# 6 0.0003 0.0005 0.0004 -3.8271 0.0001 23.6547
#
#
#
# Elastic Compliance Matrix: (Units=1/GPa)
#
#
# Indices 1 2 3 4 5 6 
#
# 1 0.039298 -0.008828 -0.002914 0.000000 -0.002492 0.000000
# 2 -0.008828 0.022411 -0.005140 0.000000 -0.000405 0.000000
# 3 -0.002914 -0.005140 0.011446 0.000000 0.001815 0.000000
# 4 0.000000 0.000000 0.000000 0.026206 0.000000 0.004240
# 5 -0.002492 -0.000405 0.001815 0.000000 0.030703 0.000000
# 6 0.000000 0.000000 0.000000 0.004240 0.000000 0.042961
#
#
# Mechanical properties :
#
#
# Convention : Reuss Voigt Hill
#
# Bulk Modulus (GPa) = 25.38635 34.43103 29.90869
# Shear Modulus (GPa) = 22.73565 27.98892 25.36229
#
# Velocity S-wave (km/s) = 3.39392 3.76566 3.58462
# Velocity P-wave (km/s) = 5.31225 6.02918 5.68203
#
# Compressibility (1/GPa) = 0.03939125
#
# Stress axis : x y z
#
# Youngs Moduli (GPa) = 25.44660 44.62084 87.36937
#
# Poissons Ratio (x) = 0.39391 0.25455
# Poissons Ratio (y) = 0.22464 0.44910
# Poissons Ratio (z) = 0.07414 0.22936
#
# Static dielectric constant tensor:
#      x y z
#    x 3.541180 0.000000 -0.021760 
#    y 0.000000 3.568820 0.000000 
#    z -0.021760 0.000000 3.746220 
# 
# 
# High freq. dielectric constant tensor:
#      x y z
#    x 1.765500 0.000000 -0.005000 
#    y 0.000000 1.766830 0.000000 
#    z -0.005000 0.000000 1.771930 
# 
# From -- ./inp_files/375505.got.cif
#   From: 2010.06.25/outbox.cif.g09.slc.cpg/sg12_188_cif.got.tgz:375505.got - 2010.06.28 00:19:55.
