data_PCOD8099812
_publ_section_title
;
Structure prediction by ZEFSAII (Michael W. Deem and Ramdas Pophale) SiO2 
 PCOD8099812
Probable space group: C 2/M
;
_chemical_formula_sum "Si O2"
_cell_formula_units_Z 56
_cell_length_a 14.456316
_cell_length_b 8.488189
_cell_length_c 30.113641
_cell_angle_alpha 90.000000
_cell_angle_beta 127.310790
_cell_angle_gamma 90.000000
_cell_volume 2938.998277
_symmetry_space_group_name_H-M "C 2/M"
_symmetry_group_IT_number 12
_symmetry_cell_setting 'monoclinic'
loop_
_space_group_symop_operation_xyz
x,y,z
-x,y,-z
-x,-y,-z
x,-y,z
1/2+x,1/2+y,z
1/2-x,1/2+y,-z
1/2-x,1/2-y,-z
1/2+x,1/2-y,z
loop_
_atom_site_type_symbol
_atom_site_label
_atom_site_fract_x
_atom_site_fract_y
_atom_site_fract_z
Si Si1 0.079462 0.686272 0.561865
Si Si2 0.660363 0.685354 0.351157
Si Si3 0.691435 0.319313 0.939273
Si Si4 0.096202 0.681202 0.060027
Si Si5 0.553906 0.815424 0.143404
Si Si6 0.702617 0.186032 0.268355
Si Si7 0.548734 0.814917 0.652028
O O1 0.076624 0.500000 0.557034
O O2 0.212889 0.742896 0.594780
O O3 0.028385 0.737784 0.594889
O O4 0.000000 0.763121 0.500000
O O5 0.643281 0.500000 0.352076
O O6 0.651520 0.728529 0.296862
O O7 0.562578 0.772677 0.351116
O O8 0.658220 0.500000 0.938664
O O9 0.777130 0.301474 0.923017
O O10 0.581561 0.220998 0.891245
O O11 0.750000 0.250000 0.000000
O O12 0.057799 0.500000 0.054789
O O13 0.096260 0.759968 0.108851
O O14 0.000000 0.763202 0.000000
O O15 0.627420 0.744593 0.205523
O O16 0.575891 0.000000 0.150296
O O17 0.836746 0.226480 0.297030
O O18 0.688222 0.000000 0.270484
O O19 0.573074 0.000000 0.661762
#
# Coordination Sequence:
#
# PCOD8099812 Si02
#       7
#     8   8   8   8   8   8   8
#     4   8  16  32  53  80 114 150 187 229 276 326
#     4  10  20  35  57  81 111 150 189 230 277 332
#     4  11  21  34  55  79 105 139 175 214 261 319
#     4   9  17  33  55  74 100 136 167 201 254 320
#     4  10  21  38  57  79 105 136 175 220 272 328
#     4  10  21  37  57  80 109 143 184 234 283 335
#     4  10  20  35  57  82 112 148 187 232 278 329
#
# _framework density 19.054112
#
# number of rings (size 3 to 8) (size 9 to 14) (size 15 to 20)
#    0.000    2.286    1.429    2.571    0.000    2.857 
#    0.000    3.571    0.000   14.571    0.000    0.000 
#    0.000    0.000    0.000    0.000    0.000    0.000 
#
# Total GULP energy -347137.191910 kJ/mol
# GULP energy per Si atom -12397.756854 kJ/mol
# Density = 1.901074 g / cm^3
# Si number density = 19.054112 Si / 1000 Ang^3
#
#
#
# Elastic Constant Matrix: (Units=GPa)
#
#
# Indices 1 2 3 4 5 6 
#
# 1 119.8447 0.5526 62.0742 0.0000 -2.7915 0.0000
# 2 0.5526 21.7615 8.8218 0.0000 -2.7212 0.0000
# 3 62.0742 8.8218 179.4233 0.0000 -3.1254 0.0000
# 4 0.0000 0.0000 0.0000 21.7936 0.0000 3.1356
# 5 -2.7915 -2.7212 -3.1254 0.0000 20.8588 0.0000
# 6 0.0000 0.0000 0.0000 3.1356 0.0000 28.2916
#
#
#
# Elastic Compliance Matrix: (Units=1/GPa)
#
#
# Indices 1 2 3 4 5 6 
#
# 1 0.010217 0.001318 -0.003582 0.000000 0.001003 0.000000
# 2 0.001318 0.047764 -0.002700 0.000000 0.006003 0.000000
# 3 -0.003582 -0.002700 0.006949 0.000000 0.000210 0.000000
# 4 0.000000 0.000000 0.000000 0.046629 0.000000 -0.005168
# 5 0.001003 0.006003 0.000210 0.000000 0.048890 0.000000
# 6 0.000000 0.000000 0.000000 -0.005168 0.000000 0.035919
#
#
# Mechanical properties :
#
#
# Convention : Reuss Voigt Hill
#
# Bulk Modulus (GPa) = 18.18099 51.54740 34.86419
# Shear Modulus (GPa) = 22.25885 30.82753 26.54319
#
# Velocity S-wave (km/s) = 3.42159 4.02667 3.73640
# Velocity P-wave (km/s) = 5.01719 6.98073 6.07877
#
# Compressibility (1/GPa) = 0.05500252
#
# Stress axis : x y z
#
# Youngs Moduli (GPa) = 97.87899 20.93608 143.90474
#
# Poissons Ratio (x) = -0.02759 0.51546
# Poissons Ratio (y) = -0.12900 0.38852
# Poissons Ratio (z) = 0.35060 0.05652
#
# Static dielectric constant tensor:
#      x y z
#    x 3.516260 0.000000 -0.123380 
#    y 0.000000 3.277850 0.000000 
#    z -0.123380 0.000000 3.853250 
# 
# 
# High freq. dielectric constant tensor:
#      x y z
#    x 1.746920 0.000000 -0.003200 
#    y 0.000000 1.719090 0.000000 
#    z -0.003200 0.000000 1.746480 
# 
# From -- ./inp_files/375125.got.cif
#   From: 2010.06.25/outbox.cif.g09.slc.cpg/sg12_188_cif.got.tgz:375125.got - 2010.06.28 00:19:55.
