data_PCOD8099811
_publ_section_title
;
Structure prediction by ZEFSAII (Michael W. Deem and Ramdas Pophale) SiO2 
 PCOD8099811
Probable space group: C 2/M
;
_chemical_formula_sum "Si O2"
_cell_formula_units_Z 64
_cell_length_a 25.889600
_cell_length_b 8.407397
_cell_length_c 15.874520
_cell_angle_alpha 90.000000
_cell_angle_beta 108.033743
_cell_angle_gamma 90.000000
_cell_volume 3285.569336
_symmetry_space_group_name_H-M "C 2/M"
_symmetry_group_IT_number 12
_symmetry_cell_setting 'monoclinic'
loop_
_space_group_symop_operation_xyz
x,y,z
-x,y,-z
-x,-y,-z
x,-y,z
1/2+x,1/2+y,z
1/2-x,1/2+y,-z
1/2-x,1/2-y,-z
1/2+x,1/2-y,z
loop_
_atom_site_type_symbol
_atom_site_label
_atom_site_fract_x
_atom_site_fract_y
_atom_site_fract_z
Si Si1 0.297206 0.186530 0.268637
Si Si2 0.357037 0.317235 0.445506
Si Si3 0.572195 0.186540 0.097325
Si Si4 0.457468 0.181456 0.416336
Si Si5 0.803881 0.311272 0.570709
Si Si6 0.904599 0.688627 0.225551
Si Si7 0.963246 0.184292 0.095898
Si Si8 0.685991 0.812099 0.232739
O O1 0.304077 0.284554 0.360289
O O2 0.343242 0.237863 0.223264
O O3 0.236434 0.233111 0.206685
O O4 0.301366 0.000000 0.288718
O O5 0.375389 0.500000 0.446325
O O6 0.399822 0.192426 0.431467
O O7 0.350882 0.272368 0.539998
O O8 0.520926 0.223555 0.132719
O O9 0.628456 0.245935 0.166616
O O10 0.573559 0.000000 0.079217
O O11 0.565279 0.279745 0.006935
O O12 0.500000 0.272554 0.500000
O O13 0.448897 0.251004 0.317635
O O14 0.476104 0.000000 0.416392
O O15 0.807353 0.500000 0.566061
O O16 0.750000 0.250000 0.500000
O O17 0.811394 0.252649 0.669626
O O18 0.907893 0.500000 0.218404
O O19 0.920260 0.767407 0.145708
O O20 0.976452 0.000000 0.109568
O O21 0.691134 0.000000 0.227982
#
# Coordination Sequence:
#
# PCOD8099811 Si02
#       8
#     8   8   8   8   8   8   8   8
#     4  10  20  35  57  81 110 148 188 230 275 328
#     4  11  21  33  50  74 108 148 188 228 272 327
#     4  10  21  40  63  85 112 149 182 227 286 343
#     4   9  19  36  56  78 107 144 187 234 279 326
#     4  11  21  34  52  78 109 146 187 228 274 326
#     4   9  19  36  58  83 109 147 189 225 277 340
#     4  11  22  38  61  88 114 143 184 235 282 334
#     4  10  22  37  57  84 114 146 188 234 283 338
#
# _framework density 19.479120000000002
#
# number of rings (size 3 to 8) (size 9 to 14) (size 15 to 20)
#    0.000    1.875    1.250    4.875    0.000    5.250 
#    0.000    5.625    0.000    0.000    0.000    0.000 
#    0.000    0.000    0.000    0.000    0.000    0.000 
#
# Total GULP energy -396605.262121 kJ/mol
# GULP energy per Si atom -12393.914441 kJ/mol
# Density = 1.943478 g / cm^3
# Si number density = 19.479120 Si / 1000 Ang^3
#
#
#
# Elastic Constant Matrix: (Units=GPa)
#
#
# Indices 1 2 3 4 5 6 
#
# 1 110.0772 20.3568 69.6209 0.0000 2.1057 0.0000
# 2 20.3568 49.4551 18.8720 0.0000 -0.7324 0.0000
# 3 69.6209 18.8720 95.5274 0.0000 1.8316 0.0000
# 4 0.0000 0.0000 0.0000 18.2571 0.0000 1.0230
# 5 2.1057 -0.7324 1.8316 0.0000 37.9395 0.0000
# 6 0.0000 0.0000 0.0000 1.0230 0.0000 28.5715
#
#
#
# Elastic Compliance Matrix: (Units=1/GPa)
#
#
# Indices 1 2 3 4 5 6 
#
# 1 0.017135 -0.002484 -0.011989 0.000000 -0.000420 0.000000
# 2 -0.002484 0.022244 -0.002597 0.000000 0.000693 0.000000
# 3 -0.011989 -0.002597 0.019725 0.000000 -0.000337 0.000000
# 4 0.000000 0.000000 0.000000 0.054883 0.000000 -0.001965
# 5 -0.000420 0.000693 -0.000337 0.000000 0.026411 0.000000
# 6 0.000000 0.000000 0.000000 -0.001965 0.000000 0.035070
#
#
# Mechanical properties :
#
#
# Convention : Reuss Voigt Hill
#
# Bulk Modulus (GPa) = 40.05866 52.52879 46.29372
# Shear Modulus (GPa) = 22.94305 26.70096 24.82200
#
# Velocity S-wave (km/s) = 3.43567 3.70638 3.57359
# Velocity P-wave (km/s) = 6.02893 6.73361 6.39099
#
# Compressibility (1/GPa) = 0.02496339
#
# Stress axis : x y z
#
# Youngs Moduli (GPa) = 58.36089 44.95537 50.69594
#
# Poissons Ratio (x) = 0.11168 0.60780
# Poissons Ratio (y) = 0.14498 0.13167
# Poissons Ratio (z) = 0.69969 0.11676
#
# Static dielectric constant tensor:
#      x y z
#    x 3.743170 0.000000 0.011570 
#    y 0.000000 3.386620 0.000000 
#    z 0.011570 0.000000 3.717540 
# 
# 
# High freq. dielectric constant tensor:
#      x y z
#    x 1.762620 0.000000 -0.001890 
#    y 0.000000 1.752720 0.000000 
#    z -0.001890 0.000000 1.743630 
# 
# From -- ./inp_files/244251.got.cif
#   From: 2010.06.25/outbox.cif.g09.slc.cpg/sg12_123_cif.got.tgz:244251.got - 2010.06.28 00:19:55.
