data_PCOD8099849
_publ_section_title
;
Structure prediction by ZEFSAII (Michael W. Deem and Ramdas Pophale) SiO2 
 PCOD8099849
Probable space group: C 2/M
;
_chemical_formula_sum "Si O2"
_cell_formula_units_Z 64
_cell_length_a 20.483643
_cell_length_b 8.819570
_cell_length_c 20.801379
_cell_angle_alpha 90.000000
_cell_angle_beta 124.411941
_cell_angle_gamma 90.000000
_cell_volume 3100.262308
_symmetry_space_group_name_H-M "C 2/M"
_symmetry_group_IT_number 12
_symmetry_cell_setting 'monoclinic'
loop_
_space_group_symop_operation_xyz
x,y,z
-x,y,-z
-x,-y,-z
x,-y,z
1/2+x,1/2+y,z
1/2-x,1/2+y,-z
1/2-x,1/2-y,-z
1/2+x,1/2-y,z
loop_
_atom_site_type_symbol
_atom_site_label
_atom_site_fract_x
_atom_site_fract_y
_atom_site_fract_z
Si Si1 0.192134 0.319823 0.137106
Si Si2 0.674129 0.320283 0.991395
Si Si3 0.871795 0.820669 0.258323
Si Si4 0.128147 0.820251 0.225979
Si Si5 0.356137 0.827615 0.533831
Si Si6 0.525090 0.173556 0.582954
Si Si7 0.540217 0.678987 0.818075
Si Si8 0.231078 0.322710 0.387002
O O1 0.186576 0.500000 0.130628
O O2 0.160974 0.249042 0.053970
O O3 0.282085 0.264914 0.199178
O O4 0.134754 0.256937 0.160295
O O5 0.684806 0.500000 0.001180
O O6 0.750000 0.250000 0.000000
O O7 0.597560 0.273083 0.907827
O O8 0.902627 0.762078 0.344340
O O9 0.925568 0.753825 0.229996
O O10 0.875089 0.000000 0.260882
O O11 0.203593 0.768852 0.309469
O O12 0.047807 0.759942 0.215477
O O13 0.127471 0.000000 0.217199
O O14 0.450094 0.810263 0.588121
O O15 0.319849 0.725954 0.456087
O O16 0.325695 0.772987 0.585984
O O17 0.329588 0.000000 0.505964
O O18 0.500000 0.242973 0.500000
O O19 0.551735 0.000000 0.588205
O O20 0.537787 0.500000 0.809924
O O21 0.228068 0.500000 0.369533
#
# Coordination Sequence:
#
# PCOD8099849 Si02
#       8
#     8   8   8   8   8   8   8   8
#     4  11  24  42  62  91 129 162 201 253 305 362
#     4  11  21  40  67  95 126 162 205 248 301 361
#     4  10  21  40  63  86 117 159 204 248 298 362
#     4  11  23  39  61  88 120 160 203 248 305 364
#     4   9  19  36  55  79 112 153 196 243 299 359
#     4  10  22  37  54  82 118 152 193 249 300 348
#     4   9  20  40  65  91 121 159 202 249 298 359
#     4  10  20  35  57  82 113 151 197 247 298 357
#
# _framework density 20.643415000000001
#
# number of rings (size 3 to 8) (size 9 to 14) (size 15 to 20)
#    0.000    1.875    1.250    2.250    1.750    2.750 
#    0.000    5.625    0.000    0.000    0.000    0.000 
#    0.000    0.000    0.000    0.000    0.000    0.000 
#
# Total GULP energy -396884.315965 kJ/mol
# GULP energy per Si atom -12402.634874 kJ/mol
# Density = 2.059643 g / cm^3
# Si number density = 20.643415 Si / 1000 Ang^3
#
#
#
# Elastic Constant Matrix: (Units=GPa)
#
#
# Indices 1 2 3 4 5 6 
#
# 1 60.5143 16.2871 16.2213 0.0000 -6.6025 0.0000
# 2 16.2871 57.3682 28.8080 0.0000 -0.3772 0.0000
# 3 16.2213 28.8080 118.9874 0.0000 -8.0615 0.0000
# 4 0.0000 0.0000 0.0000 36.9202 0.0000 -3.3963
# 5 -6.6025 -0.3772 -8.0615 0.0000 32.8963 0.0000
# 6 0.0000 0.0000 0.0000 -3.3963 0.0000 26.6821
#
#
#
# Elastic Compliance Matrix: (Units=1/GPa)
#
#
# Indices 1 2 3 4 5 6 
#
# 1 0.018451 -0.004631 -0.001166 0.000000 0.003364 0.000000
# 2 -0.004631 0.021036 -0.004585 0.000000 -0.001812 0.000000
# 3 -0.001166 -0.004585 0.009817 0.000000 0.002119 0.000000
# 4 0.000000 0.000000 0.000000 0.027406 0.000000 0.003489
# 5 0.003364 -0.001812 0.002119 0.000000 0.031572 0.000000
# 6 0.000000 0.000000 0.000000 0.003489 0.000000 0.037922
#
#
# Mechanical properties :
#
#
# Convention : Reuss Voigt Hill
#
# Bulk Modulus (GPa) = 35.03714 39.94474 37.49094
# Shear Modulus (GPa) = 28.33158 31.00329 29.66743
#
# Velocity S-wave (km/s) = 3.70865 3.87957 3.79507
# Velocity P-wave (km/s) = 5.94543 6.28172 6.11589
#
# Compressibility (1/GPa) = 0.02854114
#
# Stress axis : x y z
#
# Youngs Moduli (GPa) = 54.19755 47.53720 101.86642
#
# Poissons Ratio (x) = 0.22012 0.11881
# Poissons Ratio (y) = 0.25096 0.46701
# Poissons Ratio (z) = 0.06321 0.21794
#
# Static dielectric constant tensor:
#      x y z
#    x 3.863160 0.000000 -0.004740 
#    y 0.000000 3.527650 0.000000 
#    z -0.004740 0.000000 3.848230 
# 
# 
# High freq. dielectric constant tensor:
#      x y z
#    x 1.811430 0.000000 -0.004990 
#    y 0.000000 1.791110 0.000000 
#    z -0.004990 0.000000 1.815960 
# 
# From -- ./inp_files/320154.got.cif
#   From: 2010.06.25/outbox.cif.g09.slc.cpg/sg12_161_cif.got.tgz:320154.got - 2010.06.28 00:19:55.
