data_PCOD8099775
_publ_section_title
;
Structure prediction by ZEFSAII (Michael W. Deem and Ramdas Pophale) SiO2 
 PCOD8099775
Probable space group: C 2/M
;
_chemical_formula_sum "Si O2"
_cell_formula_units_Z 40
_cell_length_a 29.851160
_cell_length_b 8.549606
_cell_length_c 14.907399
_cell_angle_alpha 90.000000
_cell_angle_beta 30.578584
_cell_angle_gamma 90.000000
_cell_volume 1935.475616
_symmetry_space_group_name_H-M "C 2/M"
_symmetry_group_IT_number 12
_symmetry_cell_setting 'monoclinic'
loop_
_space_group_symop_operation_xyz
x,y,z
-x,y,-z
-x,-y,-z
x,-y,z
1/2+x,1/2+y,z
1/2-x,1/2+y,-z
1/2-x,1/2-y,-z
1/2+x,1/2-y,z
loop_
_atom_site_type_symbol
_atom_site_label
_atom_site_fract_x
_atom_site_fract_y
_atom_site_fract_z
Si Si1 0.968094 0.814934 0.773561
Si Si2 0.854307 0.683610 0.583640
Si Si3 0.554890 0.685782 0.988229
Si Si4 0.219909 0.684426 0.957521
Si Si5 0.257528 0.317003 0.388895
O O1 0.043845 0.734416 0.582751
O O2 0.982930 0.759147 0.850894
O O3 0.872419 0.763890 0.906545
O O4 0.976112 0.000000 0.749622
O O5 0.843542 0.500000 0.621003
O O6 0.823178 0.729497 0.536565
O O7 0.794944 0.775715 0.756382
O O8 0.552339 0.500000 0.987712
O O9 0.500000 0.758669 0.000000
O O10 0.654245 0.748885 0.809525
O O11 0.206474 0.500000 0.985586
O O12 0.250000 0.750000 0.000000
O O13 0.264916 0.500000 0.387375
O O14 0.250000 0.250000 0.500000
#
# Coordination Sequence:
#
# PCOD8099775 Si02
#       5
#     8   8   8   8   8
#     4  11  22  41  67  96 132 172 217 269 327 389
#     4  11  23  42  65  95 134 173 217 270 325 386
#     4   9  17  32  56  86 125 170 213 258 315 377
#     4  12  26  46  71  98 129 169 217 271 332 392
#     4  10  20  35  56  87 128 172 215 266 320 380
#
# _framework density 20.666754000000001
#
# number of rings (size 3 to 8) (size 9 to 14) (size 15 to 20)
#    0.000    1.400    2.000    4.200    0.000    4.000 
#    0.000    4.000    0.000    4.200    0.000    0.000 
#    0.000    0.000    0.000    0.000    0.000    0.000 
#
# Total GULP energy -248003.254448 kJ/mol
# GULP energy per Si atom -12400.162722 kJ/mol
# Density = 2.061972 g / cm^3
# Si number density = 20.666754 Si / 1000 Ang^3
#
#
#
# Elastic Constant Matrix: (Units=GPa)
#
#
# Indices 1 2 3 4 5 6 
#
# 1 113.0238 17.0298 34.8104 0.0000 3.0133 0.0000
# 2 17.0298 50.1679 11.2758 0.0000 7.9796 0.0000
# 3 34.8104 11.2758 128.1502 0.0000 -10.3364 0.0000
# 4 0.0000 0.0000 0.0000 33.5855 0.0000 0.1969
# 5 3.0133 7.9796 -10.3364 0.0000 31.2666 0.0000
# 6 0.0000 0.0000 0.0000 0.1969 0.0000 31.4000
#
#
#
# Elastic Compliance Matrix: (Units=1/GPa)
#
#
# Indices 1 2 3 4 5 6 
#
# 1 0.010078 -0.002654 -0.002597 0.000000 -0.001152 0.000000
# 2 -0.002654 0.022168 -0.001711 0.000000 -0.005967 0.000000
# 3 -0.002597 -0.001711 0.008953 0.000000 0.003647 0.000000
# 4 0.000000 0.000000 0.000000 0.029776 0.000000 -0.000187
# 5 -0.001152 -0.005967 0.003647 0.000000 0.034823 0.000000
# 6 0.000000 0.000000 0.000000 -0.000187 0.000000 0.031848
#
#
# Mechanical properties :
#
#
# Convention : Reuss Voigt Hill
#
# Bulk Modulus (GPa) = 36.66312 46.39711 41.53011
# Shear Modulus (GPa) = 31.12124 34.46547 32.79336
#
# Velocity S-wave (km/s) = 3.88475 4.08815 3.98775
# Velocity P-wave (km/s) = 6.15633 6.69200 6.42974
#
# Compressibility (1/GPa) = 0.02727537
#
# Stress axis : x y z
#
# Youngs Moduli (GPa) = 99.22418 45.11071 111.68833
#
# Poissons Ratio (x) = 0.11973 0.29006
# Poissons Ratio (y) = 0.26335 0.19109
# Poissons Ratio (z) = 0.25769 0.07718
#
# Static dielectric constant tensor:
#      x y z
#    x 4.049560 -0.000010 0.440720 
#    y -0.000010 1.045280 -0.000040 
#    z 0.440720 -0.000040 6.023880 
# 
# 
# High freq. dielectric constant tensor:
#      x y z
#    x 1.814870 0.000000 -0.003850 
#    y 0.000000 1.793440 0.000000 
#    z -0.003850 0.000000 1.823580 
# 
# From -- ./inp_files/211202.got.cif
#   From: 2010.06.25/outbox.cif.g09.slc.cpg/sg12_106_cif.got.tgz:211202.got - 2010.06.28 00:19:55.
