data_PCOD8099184
_publ_section_title
;
Structure prediction by ZEFSAII (Michael W. Deem and Ramdas Pophale) SiO2 
 PCOD8099184
Probable space group: C 2/M
;
_chemical_formula_sum "Si O2"
_cell_formula_units_Z 36
_cell_length_a 18.587788
_cell_length_b 9.863867
_cell_length_c 10.331545
_cell_angle_alpha 90.000000
_cell_angle_beta 112.181218
_cell_angle_gamma 90.000000
_cell_volume 1754.076570
_symmetry_space_group_name_H-M "C 2/M"
_symmetry_group_IT_number 12
_symmetry_cell_setting 'monoclinic'
loop_
_space_group_symop_operation_xyz
x,y,z
-x,y,-z
-x,-y,-z
x,-y,z
1/2+x,1/2+y,z
1/2-x,1/2+y,-z
1/2-x,1/2-y,-z
1/2+x,1/2-y,z
loop_
_atom_site_type_symbol
_atom_site_label
_atom_site_fract_x
_atom_site_fract_y
_atom_site_fract_z
Si Si1 0.896561 0.342703 0.566155
Si Si2 0.678129 0.657767 0.698837
Si Si3 0.500000 0.703136 0.000000
Si Si4 0.651833 0.151713 0.176002
Si Si5 0.474759 0.354383 0.266775
O O1 0.908117 0.500000 0.531079
O O2 0.845090 0.257921 0.432404
O O3 0.853886 0.333991 0.673746
O O4 0.980469 0.269761 0.635501
O O5 0.683177 0.500000 0.654163
O O6 0.762906 0.708266 0.805838
O O7 0.616859 0.673258 0.774427
O O8 0.580433 0.783916 0.051890
O O9 0.495704 0.621403 0.130396
O O10 0.646460 0.000000 0.124803
O O11 0.496810 0.500000 0.347513
#
# Coordination Sequence:
#
# PCOD8099184 Si02
#       5
#     8   8   4   8   8
#     4  10  20  35  56  82 110 139 173 215 264 316
#     4  10  20  35  55  80 109 140 175 216 264 315
#     4  10  20  36  56  76 103 140 183 222 259 310
#     4   9  19  35  55  79 108 141 175 216 265 314
#     4  10  21  36  55  78 107 143 178 216 262 313
#
# _framework density 20.523620000000001
#
# number of rings (size 3 to 8) (size 9 to 14) (size 15 to 20)
#    0.000    2.222    0.000    2.667    0.000    5.333 
#    0.000    5.556    0.000    0.000    0.000    0.000 
#    0.000    0.000    0.000    0.000    0.000    0.000 
#
# Total GULP energy -222986.939170 kJ/mol
# GULP energy per Si atom -12388.163287 kJ/mol
# Density = 2.047691 g / cm^3
# Si number density = 20.523620 Si / 1000 Ang^3
#
#
#
# Elastic Constant Matrix: (Units=GPa)
#
#
# Indices 1 2 3 4 5 6 
#
# 1 145.1365 54.3811 23.6004 0.0000 39.8360 0.0000
# 2 54.3811 114.4894 36.1288 0.0000 24.0029 0.0000
# 3 23.6004 36.1288 57.8938 0.0000 21.9210 0.0000
# 4 0.0000 0.0000 0.0000 65.0560 0.0000 -18.7618
# 5 39.8360 24.0029 21.9210 0.0000 32.7841 0.0000
# 6 0.0000 0.0000 0.0000 -18.7618 0.0000 33.7086
#
#
#
# Elastic Compliance Matrix: (Units=1/GPa)
#
#
# Indices 1 2 3 4 5 6 
#
# 1 0.011309 -0.003438 0.002390 0.000000 -0.012823 0.000000
# 2 -0.003438 0.012462 -0.006029 0.000000 -0.000916 0.000000
# 3 0.002390 -0.006029 0.026096 0.000000 -0.015940 0.000000
# 4 0.000000 0.000000 0.000000 0.018311 0.000000 0.010191
# 5 -0.012823 -0.000916 -0.015940 0.000000 0.057413 0.000000
# 6 0.000000 0.000000 0.000000 0.010191 0.000000 0.035338
#
#
# Mechanical properties :
#
#
# Convention : Reuss Voigt Hill
#
# Bulk Modulus (GPa) = 27.99915 60.63781 44.31848
# Shear Modulus (GPa) = 26.74008 39.87035 33.30522
#
# Velocity S-wave (km/s) = 3.61348 4.41234 4.03274
# Velocity P-wave (km/s) = 5.57509 7.45438 6.58215
#
# Compressibility (1/GPa) = 0.03571537
#
# Stress axis : x y z
#
# Youngs Moduli (GPa) = 88.42537 80.24604 38.31965
#
# Poissons Ratio (x) = 0.27585 -0.09160
# Poissons Ratio (y) = 0.30397 0.23102
# Poissons Ratio (z) = -0.21138 0.48378
#
# Static dielectric constant tensor:
#      x y z
#    x 4.032880 0.000000 0.130770 
#    y 0.000000 3.761730 0.000000 
#    z 0.130770 0.000000 3.575010 
# 
# 
# High freq. dielectric constant tensor:
#      x y z
#    x 1.820160 0.000000 0.002810 
#    y 0.000000 1.800090 0.000000 
#    z 0.002810 0.000000 1.778720 
# 
# From -- ./inp_files/152062.got.cif
#   From: 2010.06.25/outbox.cif.g09.slc.cpg/sg12_77_cif.got.tgz:152062.got - 2010.06.28 00:19:55.
