data_PCOD8099447
_publ_section_title
;
Structure prediction by ZEFSAII (Michael W. Deem and Ramdas Pophale) SiO2 
 PCOD8099447
Probable space group: C 2/M
;
_chemical_formula_sum "Si O2"
_cell_formula_units_Z 56
_cell_length_a 27.944109
_cell_length_b 9.292711
_cell_length_c 14.852692
_cell_angle_alpha 90.000000
_cell_angle_beta 42.201670
_cell_angle_gamma 90.000000
_cell_volume 2590.839400
_symmetry_space_group_name_H-M "C 2/M"
_symmetry_group_IT_number 12
_symmetry_cell_setting 'monoclinic'
loop_
_space_group_symop_operation_xyz
x,y,z
-x,y,-z
-x,-y,-z
x,-y,z
1/2+x,1/2+y,z
1/2-x,1/2+y,-z
1/2-x,1/2-y,-z
1/2+x,1/2-y,z
loop_
_atom_site_type_symbol
_atom_site_label
_atom_site_fract_x
_atom_site_fract_y
_atom_site_fract_z
Si Si1 0.741649 0.164691 0.760482
Si Si2 0.748381 0.843333 0.089906
Si Si3 0.915016 0.656696 0.687739
Si Si4 0.473456 0.338487 0.760505
Si Si5 0.813388 0.670843 0.357648
Si Si6 0.096559 0.160655 0.457544
Si Si7 0.038259 0.830258 0.853779
O O1 0.711470 0.263396 0.883691
O O2 0.698108 0.197325 0.731911
O O3 0.823706 0.205939 0.627842
O O4 0.733395 0.000000 0.802570
O O5 0.666268 0.862495 0.227032
O O6 0.784564 0.000000 0.025513
O O7 0.750000 0.750000 0.000000
O O8 0.952042 0.500000 0.644044
O O9 0.944711 0.743871 0.559936
O O10 0.921142 0.736833 0.775680
O O11 0.443356 0.500000 0.793650
O O12 0.552940 0.326800 0.610071
O O13 0.480934 0.294427 0.854742
O O14 0.813079 0.500000 0.381609
O O15 0.750000 0.750000 0.500000
O O16 0.890508 0.740314 0.268193
O O17 0.096273 0.000000 0.417850
O O18 0.057534 0.000000 0.827566
O O19 0.000000 0.783013 0.000000
#
# Coordination Sequence:
#
# PCOD8099447 Si02
#       7
#     8   8   8   8   8   8   8
#     4   9  19  36  57  82 113 148 186 235 291 346
#     4  10  21  36  54  78 109 145 185 230 280 340
#     4  10  21  34  50  78 111 139 176 227 279 334
#     4  10  20  35  56  80 109 149 190 227 277 343
#     4  11  23  40  65  94 123 157 202 255 309 366
#     4   9  17  32  54  79 110 146 182 221 273 340
#     4  10  23  43  63  86 120 160 205 255 304 359
#
# _framework density 21.614616000000002
#
# number of rings (size 3 to 8) (size 9 to 14) (size 15 to 20)
#    0.000    2.143    0.000    2.571    0.000    9.429 
#    0.000    5.714    0.000    0.000    0.000    0.000 
#    0.000    0.000    0.000    0.000    0.000    0.000 
#
# Total GULP energy -347041.632507 kJ/mol
# GULP energy per Si atom -12394.344018 kJ/mol
# Density = 2.156542 g / cm^3
# Si number density = 21.614616 Si / 1000 Ang^3
#
#
#
# Elastic Constant Matrix: (Units=GPa)
#
#
# Indices 1 2 3 4 5 6 
#
# 1 94.0371 44.8301 15.1591 0.0001 22.7425 0.0000
# 2 44.8301 115.5285 24.2118 0.0009 19.9274 -0.0004
# 3 15.1591 24.2118 65.5359 0.0002 21.8209 -0.0001
# 4 0.0001 0.0009 0.0002 24.7343 -0.0001 2.4765
# 5 22.7425 19.9274 21.8209 -0.0001 42.0231 0.0000
# 6 0.0000 -0.0004 -0.0001 2.4765 0.0000 33.8444
#
#
#
# Elastic Compliance Matrix: (Units=1/GPa)
#
#
# Indices 1 2 3 4 5 6 
#
# 1 0.014128 -0.004573 0.000297 0.000000 -0.005632 0.000000
# 2 -0.004573 0.011233 -0.002591 0.000000 -0.001507 0.000000
# 3 0.000297 -0.002591 0.019093 0.000000 -0.008846 0.000000
# 4 0.000000 0.000000 0.000000 0.040728 0.000000 -0.002980
# 5 -0.005632 -0.001507 -0.008846 0.000000 0.032152 0.000000
# 6 0.000000 0.000000 0.000000 -0.002980 0.000000 0.029765
#
#
# Mechanical properties :
#
#
# Convention : Reuss Voigt Hill
#
# Bulk Modulus (GPa) = 32.55205 49.27818 40.91511
# Shear Modulus (GPa) = 29.22710 32.84706 31.03708
#
# Velocity S-wave (km/s) = 3.68121 3.90252 3.79348
# Velocity P-wave (km/s) = 5.75858 6.56919 6.17720
#
# Compressibility (1/GPa) = 0.03072003
#
# Stress axis : x y z
#
# Youngs Moduli (GPa) = 70.77922 89.02119 52.37601
#
# Poissons Ratio (x) = 0.40711 -0.01553
# Poissons Ratio (y) = 0.32369 0.13568
# Poissons Ratio (z) = -0.02099 0.23062
#
# Static dielectric constant tensor:
#      x y z
#    x 3.905750 0.000000 0.002330 
#    y 0.000000 4.162420 0.000000 
#    z 0.002330 0.000000 3.892420 
# 
# 
# High freq. dielectric constant tensor:
#      x y z
#    x 1.849860 0.000000 0.004510 
#    y 0.000000 1.847720 0.000000 
#    z 0.004510 0.000000 1.844780 
# 
# From -- ./inp_files/248878.got.cif
#   From: 2010.06.25/outbox.cif.g09.slc.cpg/sg12_125_cif.got.tgz:248878.got - 2010.06.28 00:19:55.
