data_PCOD8099009
_publ_section_title
;
Structure prediction by ZEFSAII (Michael W. Deem and Ramdas Pophale) SiO2 
 PCOD8099009
Probable space group: C 2/M
;
_chemical_formula_sum "Si O2"
_cell_formula_units_Z 56
_cell_length_a 31.907559
_cell_length_b 9.216379
_cell_length_c 20.292186
_cell_angle_alpha 90.000000
_cell_angle_beta 150.203745
_cell_angle_gamma 90.000000
_cell_volume 2965.287494
_symmetry_space_group_name_H-M "C 2/M"
_symmetry_group_IT_number 12
_symmetry_cell_setting 'monoclinic'
loop_
_space_group_symop_operation_xyz
x,y,z
-x,y,-z
-x,-y,-z
x,-y,z
1/2+x,1/2+y,z
1/2-x,1/2+y,-z
1/2-x,1/2-y,-z
1/2+x,1/2-y,z
loop_
_atom_site_type_symbol
_atom_site_label
_atom_site_fract_x
_atom_site_fract_y
_atom_site_fract_z
Si Si1 0.012967 0.327886 0.688689
Si Si2 0.576083 0.329266 0.651406
Si Si3 0.423459 0.827961 0.083891
Si Si4 0.740296 0.671092 0.796030
Si Si5 0.288277 0.334062 0.613102
Si Si6 0.322245 0.835965 0.410633
Si Si7 0.542206 0.169402 0.127731
O O1 0.023823 0.500000 0.699065
O O2 0.071807 0.253685 0.714611
O O3 0.040392 0.268975 0.797811
O O4 0.917476 0.278008 0.545814
O O5 0.500000 0.280043 0.500000
O O6 0.572232 0.500000 0.659657
O O7 0.663909 0.280470 0.738706
O O8 0.480584 0.772468 0.101247
O O9 0.424010 0.000000 0.084430
O O10 0.327908 0.770523 0.945628
O O11 0.741704 0.500000 0.788821
O O12 0.730249 0.736676 0.710099
O O13 0.307556 0.500000 0.619738
O O14 0.250000 0.250000 0.500000
O O15 0.217741 0.326372 0.572447
O O16 0.372624 0.259696 0.753890
O O17 0.321217 0.000000 0.382319
O O18 0.563353 0.000000 0.166278
O O19 0.500000 0.198965 0.000000
#
# Coordination Sequence:
#
# PCOD8099009 Si02
#       7
#     8   8   8   8   8   8   8
#     4  10  20  35  56  78 107 146 183 222 271 327
#     4  10  20  35  54  82 114 140 175 229 279 322
#     4   9  19  36  56  81 111 145 186 228 271 325
#     4  10  20  36  59  81 107 144 184 223 270 329
#     4  11  23  38  57  83 115 149 188 237 287 336
#     4  10  21  36  55  80 109 141 180 229 275 322
#     4  10  20  37  61  85 113 151 194 236 282 339
#
# _framework density 18.885183000000001
#
# number of rings (size 3 to 8) (size 9 to 14) (size 15 to 20)
#    0.000    2.000    1.429    2.143    0.000    6.286 
#    0.000    3.571    0.000    0.000    0.000    0.000 
#    0.000    0.000    0.000    0.000    0.000    0.000 
#
# Total GULP energy -347300.376767 kJ/mol
# GULP energy per Si atom -12403.584885 kJ/mol
# Density = 1.884220 g / cm^3
# Si number density = 18.885183 Si / 1000 Ang^3
#
#
#
# Elastic Constant Matrix: (Units=GPa)
#
#
# Indices 1 2 3 4 5 6 
#
# 1 102.7248 31.1449 26.2866 0.0000 -13.2192 0.0000
# 2 31.1449 51.1990 33.1630 0.0000 -4.6749 0.0000
# 3 26.2866 33.1630 92.4592 0.0000 -8.0919 0.0000
# 4 0.0000 0.0000 0.0000 19.8536 0.0000 -2.3375
# 5 -13.2192 -4.6749 -8.0919 0.0000 36.9893 0.0000
# 6 0.0000 0.0000 0.0000 -2.3375 0.0000 30.6986
#
#
#
# Elastic Compliance Matrix: (Units=1/GPa)
#
#
# Indices 1 2 3 4 5 6 
#
# 1 0.012419 -0.006708 -0.000826 0.000000 0.003410 0.000000
# 2 -0.006708 0.029122 -0.008590 0.000000 -0.000596 0.000000
# 3 -0.000826 -0.008590 0.014284 0.000000 0.001744 0.000000
# 4 0.000000 0.000000 0.000000 0.050824 0.000000 0.003870
# 5 0.003410 -0.000596 0.001744 0.000000 0.028560 0.000000
# 6 0.000000 0.000000 0.000000 0.003870 0.000000 0.032869
#
#
# Mechanical properties :
#
#
# Convention : Reuss Voigt Hill
#
# Bulk Modulus (GPa) = 42.41657 47.50800 44.96228
# Shear Modulus (GPa) = 24.01698 27.89422 25.95560
#
# Velocity S-wave (km/s) = 3.57001 3.84740 3.71130
# Velocity P-wave (km/s) = 6.28508 6.70429 6.49807
#
# Compressibility (1/GPa) = 0.02357569
#
# Stress axis : x y z
#
# Youngs Moduli (GPa) = 80.52363 34.33834 70.00681
#
# Poissons Ratio (x) = 0.23034 0.05785
# Poissons Ratio (y) = 0.54014 0.60139
# Poissons Ratio (z) = 0.06654 0.29498
#
# Static dielectric constant tensor:
#      x y z
#    x 3.549620 0.000000 0.046750 
#    y 0.000000 3.284900 0.000000 
#    z 0.046750 0.000000 3.571550 
# 
# 
# High freq. dielectric constant tensor:
#      x y z
#    x 1.746710 0.000000 0.002460 
#    y 0.000000 1.712260 0.000000 
#    z 0.002460 0.000000 1.744010 
# 
# From -- ./inp_files/275571.got.cif
#   From: 2010.06.25/outbox.cif.g09.slc.cpg/sg12_138_cif.got.tgz:275571.got - 2010.06.28 00:19:55.
