data_PCOD8099431
_publ_section_title
;
Structure prediction by ZEFSAII (Michael W. Deem and Ramdas Pophale) SiO2 
 PCOD8099431
Probable space group: C 2/M
;
_chemical_formula_sum "Si O2"
_cell_formula_units_Z 64
_cell_length_a 8.620506
_cell_length_b 10.895876
_cell_length_c 32.185394
_cell_angle_alpha 90.000000
_cell_angle_beta 91.376629
_cell_angle_gamma 90.000000
_cell_volume 3022.235991
_symmetry_space_group_name_H-M "C 2/M"
_symmetry_group_IT_number 12
_symmetry_cell_setting 'monoclinic'
loop_
_space_group_symop_operation_xyz
x,y,z
-x,y,-z
-x,-y,-z
x,-y,z
1/2+x,1/2+y,z
1/2-x,1/2+y,-z
1/2-x,1/2-y,-z
1/2+x,1/2-y,z
loop_
_atom_site_type_symbol
_atom_site_label
_atom_site_fract_x
_atom_site_fract_y
_atom_site_fract_z
Si Si1 0.708347 0.228030 0.226125
Si Si2 0.306040 0.772086 0.597342
Si Si3 0.056004 0.360048 0.718865
Si Si4 0.093163 0.135057 0.919309
Si Si5 0.040984 0.139931 0.652243
Si Si6 0.467953 0.361648 0.171980
Si Si7 0.065210 0.638623 0.543313
Si Si8 0.124798 0.692470 0.029323
O O1 0.600145 0.146261 0.254982
O O2 0.614374 0.283797 0.187268
O O3 0.790928 0.337388 0.252494
O O4 0.836714 0.141005 0.206594
O O5 0.195538 0.854146 0.625427
O O6 0.386370 0.662596 0.624160
O O7 0.214055 0.715132 0.558121
O O8 0.437712 0.859307 0.579135
O O9 0.065914 0.500000 0.700332
O O10 0.049589 0.249901 0.685567
O O11 0.273357 0.122199 0.935706
O O12 0.092041 0.191539 0.872703
O O13 0.980793 0.206970 0.949019
O O14 0.021855 0.000000 0.917632
O O15 0.031677 0.000000 0.670825
O O16 0.523685 0.500000 0.166980
O O17 0.118738 0.500000 0.535679
O O18 0.000000 0.695870 0.500000
O O19 0.250000 0.750000 0.000000
O O20 0.000000 0.614660 0.000000
#
# Coordination Sequence:
#
# PCOD8099431 Si02
#       8
#     8   8   8   8   8   8   8   8
#     4  10  22  38  59  83 115 147 183 232 285 342
#     4  10  22  38  58  84 118 151 192 239 287 340
#     4  11  24  40  60  87 117 151 193 240 289 345
#     4  10  20  35  56  80 108 143 183 227 276 329
#     4  11  24  40  60  86 118 156 196 240 289 343
#     4  10  20  36  58  82 109 144 183 226 279 337
#     4  10  20  36  59  85 114 150 191 235 285 341
#     4   9  19  34  52  77 109 142 181 226 270 326
#
# _framework density 21.176375
#
# number of rings (size 3 to 8) (size 9 to 14) (size 15 to 20)
#    0.000    1.875    0.000    3.375    0.000   10.500 
#    0.000    1.875    0.000   16.500    0.000    0.000 
#    0.000    0.000    0.000    0.000    0.000    0.000 
#
# Total GULP energy -396535.995482 kJ/mol
# GULP energy per Si atom -12391.749859 kJ/mol
# Density = 2.112818 g / cm^3
# Si number density = 21.176375 Si / 1000 Ang^3
#
#
#
# Elastic Constant Matrix: (Units=GPa)
#
#
# Indices 1 2 3 4 5 6 
#
# 1 92.0908 21.8468 28.5048 0.0000 12.3823 0.0000
# 2 21.8468 112.5447 37.7885 0.0000 8.2007 0.0000
# 3 28.5048 37.7885 107.2855 0.0000 18.7146 0.0000
# 4 0.0000 0.0000 0.0000 122.9734 0.0000 24.1499
# 5 12.3823 8.2007 18.7146 0.0000 30.8996 0.0000
# 6 0.0000 0.0000 0.0000 24.1499 0.0000 19.0343
#
#
#
# Elastic Compliance Matrix: (Units=1/GPa)
#
#
# Indices 1 2 3 4 5 6 
#
# 1 0.012311 -0.001413 -0.002212 0.000000 -0.003219 0.000000
# 2 -0.001413 0.010249 -0.003197 0.000000 -0.000218 0.000000
# 3 -0.002212 -0.003197 0.012000 0.000000 -0.005533 0.000000
# 4 0.000000 0.000000 0.000000 0.010830 0.000000 -0.013741
# 5 -0.003219 -0.000218 -0.005533 0.000000 0.037062 0.000000
# 6 0.000000 0.000000 0.000000 -0.013741 0.000000 0.069971
#
#
# Mechanical properties :
#
#
# Convention : Reuss Voigt Hill
#
# Bulk Modulus (GPa) = 47.80656 54.24456 51.02556
# Shear Modulus (GPa) = 28.89544 49.50019 39.19781
#
# Velocity S-wave (km/s) = 3.69794 4.84004 4.30701
# Velocity P-wave (km/s) = 6.39198 7.54359 6.99154
#
# Compressibility (1/GPa) = 0.02091763
#
# Stress axis : x y z
#
# Youngs Moduli (GPa) = 81.22525 97.57317 83.33568
#
# Poissons Ratio (x) = 0.13783 0.18434
# Poissons Ratio (y) = 0.11474 0.26638
# Poissons Ratio (z) = 0.17967 0.31189
#
# Static dielectric constant tensor:
#      x y z
#    x 4.122910 0.000000 0.310930 
#    y 0.000000 3.453130 0.000000 
#    z 0.310930 0.000000 4.101550 
# 
# 
# High freq. dielectric constant tensor:
#      x y z
#    x 1.843520 0.000000 0.010120 
#    y 0.000000 1.807430 0.000000 
#    z 0.010120 0.000000 1.841000 
# 
# From -- ./inp_files/372166.got.cif
#   From: 2010.06.25/outbox.cif.g09.slc.cpg/sg12_187_cif.got.tgz:372166.got - 2010.06.28 00:19:55.
