data_PCOD8099998
_publ_section_title
;
Structure prediction by ZEFSAII (Michael W. Deem and Ramdas Pophale) SiO2 
 PCOD8099998
Probable space group: C 2/M
;
_chemical_formula_sum "Si O2"
_cell_formula_units_Z 56
_cell_length_a 29.690985
_cell_length_b 8.790630
_cell_length_c 21.787061
_cell_angle_alpha 90.000000
_cell_angle_beta 31.036972
_cell_angle_gamma 90.000000
_cell_volume 2931.896626
_symmetry_space_group_name_H-M "C 2/M"
_symmetry_group_IT_number 12
_symmetry_cell_setting 'monoclinic'
loop_
_space_group_symop_operation_xyz
x,y,z
-x,y,-z
-x,-y,-z
x,-y,z
1/2+x,1/2+y,z
1/2-x,1/2+y,-z
1/2-x,1/2-y,-z
1/2+x,1/2-y,z
loop_
_atom_site_type_symbol
_atom_site_label
_atom_site_fract_x
_atom_site_fract_y
_atom_site_fract_z
Si Si1 0.419638 0.678958 0.357899
Si Si2 0.382345 0.321688 0.851328
Si Si3 0.960315 0.823374 0.980024
Si Si4 0.773676 0.679589 0.191812
Si Si5 0.612506 0.180100 0.729072
Si Si6 0.774527 0.178807 0.619675
Si Si7 0.229071 0.321793 0.119813
O O1 0.412058 0.500000 0.352273
O O2 0.519619 0.730696 0.248600
O O3 0.373772 0.774025 0.357545
O O4 0.367258 0.721827 0.481137
O O5 0.376698 0.500000 0.844645
O O6 0.351848 0.236016 0.825872
O O7 0.320717 0.275445 0.980505
O O8 0.026814 0.768194 0.850969
O O9 0.938518 0.000000 0.994783
O O10 0.873976 0.726283 0.072763
O O11 0.000000 0.790865 0.000000
O O12 0.766385 0.500000 0.196513
O O13 0.730532 0.744241 0.305181
O O14 0.721745 0.748211 0.195218
O O15 0.694815 0.242537 0.671674
O O16 0.600077 0.000000 0.750452
O O17 0.762188 0.000000 0.637301
O O18 0.221594 0.500000 0.136259
#
# Coordination Sequence:
#
# PCOD8099998 Si02
#       7
#     8   8   8   8   8   8   8
#     4  10  20  37  58  80 109 145 189 234 275 323
#     4   9  19  36  58  81 106 138 179 226 277 331
#     4  11  22  35  53  79 110 144 183 226 273 321
#     4  11  21  36  57  81 113 149 185 223 275 332
#     4  11  21  35  55  81 112 147 188 229 277 328
#     4   9  20  36  54  78 111 150 188 228 270 325
#     4  10  20  35  57  85 113 138 175 226 281 336
#
# _framework density 19.100265
#
# number of rings (size 3 to 8) (size 9 to 14) (size 15 to 20)
#    0.000    1.857    1.429    3.000    0.000    2.857 
#    0.000    2.857    0.000    4.286    0.000    0.000 
#    0.000    0.000    0.000    0.000    0.000    0.000 
#
# Total GULP energy -347284.157529 kJ/mol
# GULP energy per Si atom -12403.005626 kJ/mol
# Density = 1.905679 g / cm^3
# Si number density = 19.100265 Si / 1000 Ang^3
#
#
#
# Elastic Constant Matrix: (Units=GPa)
#
#
# Indices 1 2 3 4 5 6 
#
# 1 137.9105 45.9964 55.5959 0.0027 21.1069 0.0023
# 2 45.9964 41.9376 15.9775 -0.0120 6.1133 0.0063
# 3 55.5959 15.9775 97.1193 0.0098 12.5179 0.0047
# 4 0.0027 -0.0120 0.0098 -11.5873 0.0024 10.5668
# 5 21.1069 6.1133 12.5179 0.0024 26.6940 -0.0034
# 6 0.0023 0.0063 0.0047 10.5668 -0.0034 32.9464
#
#
#
# Elastic Compliance Matrix: (Units=1/GPa)
#
#
# Indices 1 2 3 4 5 6 
#
# 1 0.014843 -0.013285 -0.005525 0.000010 -0.006103 -0.000002
# 2 -0.013285 0.037762 0.001228 -0.000036 0.001281 0.000005
# 3 -0.005525 0.001228 0.013549 0.000005 -0.002267 -0.000004
# 4 0.000010 -0.000036 0.000005 -0.066772 0.000007 0.021415
# 5 -0.006103 0.001281 -0.002267 0.000007 0.043057 0.000003
# 6 -0.000002 0.000005 -0.000004 0.021415 0.000003 0.023484
#
#
# Mechanical properties :
#
#
# Convention : Reuss Voigt Hill
#
# Bulk Modulus (GPa) = 32.26882 56.90078 44.58480
# Shear Modulus (GPa) = 44.87611 20.23714 32.55663
#
# Velocity S-wave (km/s) = 4.85242 3.25856 4.13305
# Velocity P-wave (km/s) = 6.95168 6.63422 6.79480
#
# Compressibility (1/GPa) = 0.03098966
#
# Stress axis : x y z
#
# Youngs Moduli (GPa) = 67.37008 26.48191 73.80382
#
# Poissons Ratio (x) = 0.35182 0.40775
# Poissons Ratio (y) = 0.89504 -0.09062
# Poissons Ratio (z) = 0.37221 -0.03252
#
# Static dielectric constant tensor:
#      x y z
#    x 3.636900 -0.000010 0.171580 
#    y -0.000010 3.349330 0.000020 
#    z 0.171580 0.000020 3.572340 
# 
# 
# High freq. dielectric constant tensor:
#      x y z
#    x 1.747340 0.000000 0.009260 
#    y 0.000000 1.732840 0.000000 
#    z 0.009260 0.000000 1.738770 
# 
# From -- ./inp_files/237413.got.cif
#   From: 2010.06.25/outbox.cif.g09.slc.cpg/sg12_119_cif.got.tgz:237413.got - 2010.06.28 00:19:55.
