data_PCOD8099555
_publ_section_title
;
Structure prediction by ZEFSAII (Michael W. Deem and Ramdas Pophale) SiO2 
 PCOD8099555
Probable space group: C 2/M
;
_chemical_formula_sum "Si O2"
_cell_formula_units_Z 56
_cell_length_a 29.841472
_cell_length_b 9.394493
_cell_length_c 10.918108
_cell_angle_alpha 90.000000
_cell_angle_beta 66.099789
_cell_angle_gamma 90.000000
_cell_volume 2798.382744
_symmetry_space_group_name_H-M "C 2/M"
_symmetry_group_IT_number 12
_symmetry_cell_setting 'monoclinic'
loop_
_space_group_symop_operation_xyz
x,y,z
-x,y,-z
-x,-y,-z
x,-y,z
1/2+x,1/2+y,z
1/2-x,1/2+y,-z
1/2-x,1/2-y,-z
1/2+x,1/2-y,z
loop_
_atom_site_type_symbol
_atom_site_label
_atom_site_fract_x
_atom_site_fract_y
_atom_site_fract_z
Si Si1 0.428712 0.836474 0.414406
Si Si2 0.122494 0.834671 0.344721
Si Si3 0.047442 0.159723 0.009112
Si Si4 0.024874 0.159378 0.314537
Si Si5 0.116936 0.339508 0.792415
Si Si6 0.272075 0.832369 0.359522
Si Si7 0.271220 0.666903 0.858300
O O1 0.381389 0.760834 0.528716
O O2 0.479361 0.760307 0.397439
O O3 0.420203 0.822306 0.279536
O O4 0.431431 0.000000 0.452876
O O5 0.074065 0.789002 0.325373
O O6 0.170807 0.798588 0.212792
O O7 0.123242 0.000000 0.381306
O O8 0.096749 0.244731 0.925070
O O9 0.053984 0.000000 0.950371
O O10 0.039261 0.162692 0.159730
O O11 0.000000 0.232510 0.000000
O O12 0.009574 0.000000 0.371579
O O13 0.118392 0.500000 0.839137
O O14 0.171141 0.290162 0.698802
O O15 0.250000 0.750000 0.500000
O O16 0.251327 0.784992 0.248583
O O17 0.262584 0.000000 0.389404
O O18 0.261069 0.500000 0.891152
O O19 0.250000 0.750000 0.000000
#
# Coordination Sequence:
#
# PCOD8099555 Si02
#       7
#     8   8   8   8   8   8   8
#     4  11  22  36  56  85 116 148 188 231 279 339
#     4  10  22  39  59  81 112 151 189 232 283 338
#     4  10  20  35  56  82 110 146 192 233 273 333
#     4  10  21  37  56  81 114 149 187 231 279 334
#     4  10  22  37  56  83 117 150 183 231 289 340
#     4  10  22  41  63  90 120 154 199 248 298 353
#     4  10  23  42  63  89 120 155 199 248 299 354
#
# _framework density 20.011558000000001
#
# number of rings (size 3 to 8) (size 9 to 14) (size 15 to 20)
#    0.000    1.857    1.429    1.714    2.000    5.429 
#    0.000    0.000    0.000    0.000    0.000    0.000 
#    0.000    0.000    0.000    0.000    0.000    0.000 
#
# Total GULP energy -347120.846355 kJ/mol
# GULP energy per Si atom -12397.173084 kJ/mol
# Density = 1.996601 g / cm^3
# Si number density = 20.011558 Si / 1000 Ang^3
#
#
#
# Elastic Constant Matrix: (Units=GPa)
#
#
# Indices 1 2 3 4 5 6 
#
# 1 100.3242 43.5960 50.7860 0.0000 -12.9309 0.0000
# 2 43.5960 81.2651 65.1480 0.0000 -17.7014 0.0000
# 3 50.7860 65.1480 139.8370 0.0000 -15.5469 0.0000
# 4 0.0000 0.0000 0.0000 46.7578 0.0000 -2.7163
# 5 -12.9309 -17.7014 -15.5469 0.0000 37.0351 0.0000
# 6 0.0000 0.0000 0.0000 -2.7163 0.0000 26.7096
#
#
#
# Elastic Compliance Matrix: (Units=1/GPa)
#
#
# Indices 1 2 3 4 5 6 
#
# 1 0.013556 -0.005040 -0.002430 0.000000 0.001304 0.000000
# 2 -0.005040 0.022788 -0.008151 0.000000 0.005710 0.000000
# 3 -0.002430 -0.008151 0.011857 0.000000 0.000233 0.000000
# 4 0.000000 0.000000 0.000000 0.021514 0.000000 0.002188
# 5 0.001304 0.005710 0.000233 0.000000 0.030284 0.000000
# 6 0.000000 0.000000 0.000000 0.002188 0.000000 0.037662
#
#
# Mechanical properties :
#
#
# Convention : Reuss Voigt Hill
#
# Bulk Modulus (GPa) = 58.96915 71.16513 65.06714
# Shear Modulus (GPa) = 28.64406 32.89359 30.76882
#
# Velocity S-wave (km/s) = 3.78746 4.05869 3.92542
# Velocity P-wave (km/s) = 6.97553 7.58968 7.28907
#
# Compressibility (1/GPa) = 0.01695802
#
# Stress axis : x y z
#
# Youngs Moduli (GPa) = 73.76702 43.88367 84.33729
#
# Poissons Ratio (x) = 0.22118 0.20496
# Poissons Ratio (y) = 0.37180 0.68744
# Poissons Ratio (z) = 0.17927 0.35770
#
# Static dielectric constant tensor:
#      x y z
#    x 2.824850 0.000000 -0.799160 
#    y 0.000000 3.668240 0.000000 
#    z -0.799160 0.000000 2.989700 
# 
# 
# High freq. dielectric constant tensor:
#      x y z
#    x 1.787330 0.000000 -0.002180 
#    y 0.000000 1.769760 0.000000 
#    z -0.002180 0.000000 1.792420 
# 
# From -- ./inp_files/180746.got.cif
#   From: 2010.06.25/outbox.cif.g09.slc.cpg/sg12_91_cif.got.tgz:180746.got - 2010.06.28 00:19:55.
