data_PCOD8099729
_publ_section_title
;
Structure prediction by ZEFSAII (Michael W. Deem and Ramdas Pophale) SiO2 
 PCOD8099729
Probable space group: C 2/M
;
_chemical_formula_sum "Si O2"
_cell_formula_units_Z 64
_cell_length_a 24.279951
_cell_length_b 8.662305
_cell_length_c 16.197560
_cell_angle_alpha 90.000000
_cell_angle_beta 92.079023
_cell_angle_gamma 90.000000
_cell_volume 3404.433872
_symmetry_space_group_name_H-M "C 2/M"
_symmetry_group_IT_number 12
_symmetry_cell_setting 'monoclinic'
loop_
_space_group_symop_operation_xyz
x,y,z
-x,y,-z
-x,-y,-z
x,-y,z
1/2+x,1/2+y,z
1/2-x,1/2+y,-z
1/2-x,1/2-y,-z
1/2+x,1/2-y,z
loop_
_atom_site_type_symbol
_atom_site_label
_atom_site_fract_x
_atom_site_fract_y
_atom_site_fract_z
Si Si1 0.442012 0.818087 0.028845
Si Si2 0.632629 0.182035 0.375992
Si Si3 0.307921 0.681236 0.476215
Si Si4 0.070561 0.681391 0.786599
Si Si5 0.176653 0.179152 0.713990
Si Si6 0.886146 0.178345 0.878315
Si Si7 0.788978 0.180137 0.755930
Si Si8 0.040258 0.181888 0.269855
O O1 0.429156 0.755053 0.119487
O O2 0.445243 0.000000 0.031161
O O3 0.500000 0.747642 0.000000
O O4 0.393349 0.769292 0.964097
O O5 0.643135 0.236806 0.470122
O O6 0.678259 0.264579 0.322454
O O7 0.571280 0.232987 0.346685
O O8 0.639804 0.000000 0.368148
O O9 0.308103 0.500000 0.493458
O O10 0.250000 0.750000 0.500000
O O11 0.318385 0.719423 0.381690
O O12 0.058859 0.500000 0.782966
O O13 0.128473 0.718163 0.748804
O O14 0.023125 0.768185 0.732683
O O15 0.232920 0.224879 0.763305
O O16 0.164130 0.000000 0.728740
O O17 0.825272 0.211352 0.839671
O O18 0.931566 0.235263 0.814398
O O19 0.894973 0.000000 0.897838
O O20 0.775832 0.000000 0.744495
O O21 0.046641 0.000000 0.283405
#
# Coordination Sequence:
#
# PCOD8099729 Si02
#       8
#     8   8   8   8   8   8   8   8
#     4  10  20  35  56  85 116 148 190 238 283 336
#     4  11  21  34  57  88 118 150 190 237 288 340
#     4  11  22  37  59  87 117 149 192 241 289 338
#     4  11  23  39  59  84 117 156 192 234 290 346
#     4  11  24  40  59  85 116 154 194 234 287 347
#     4   9  19  33  55  86 114 146 187 237 288 334
#     4  10  20  36  57  84 117 151 191 237 288 341
#     4  10  20  36  57  84 117 152 191 237 288 340
#
# _framework density 18.799014
#
# number of rings (size 3 to 8) (size 9 to 14) (size 15 to 20)
#    0.000    1.625    2.500    3.750    0.000    5.250 
#    0.000    1.250    0.000    3.750    0.000    0.000 
#    0.000    0.000    0.000    0.000    0.000    0.000 
#
# Total GULP energy -396936.683953 kJ/mol
# GULP energy per Si atom -12404.271374 kJ/mol
# Density = 1.875623 g / cm^3
# Si number density = 18.799014 Si / 1000 Ang^3
#
#
#
# Elastic Constant Matrix: (Units=GPa)
#
#
# Indices 1 2 3 4 5 6 
#
# 1 99.9461 12.3495 49.3509 0.0000 12.5634 0.0000
# 2 12.3495 49.6838 36.6187 0.0000 6.1912 0.0000
# 3 49.3509 36.6187 98.2795 0.0000 14.5681 0.0000
# 4 0.0000 0.0000 0.0000 30.7017 0.0000 5.6522
# 5 12.5634 6.1912 14.5681 0.0000 31.0385 0.0000
# 6 0.0000 0.0000 0.0000 5.6522 0.0000 35.1956
#
#
#
# Elastic Compliance Matrix: (Units=1/GPa)
#
#
# Indices 1 2 3 4 5 6 
#
# 1 0.013670 0.002344 -0.007361 0.000000 -0.002546 0.000000
# 2 0.002344 0.028165 -0.011498 0.000000 -0.001170 0.000000
# 3 -0.007361 -0.011498 0.018673 0.000000 -0.003491 0.000000
# 4 0.000000 0.000000 0.000000 0.033564 0.000000 -0.005390
# 5 -0.002546 -0.001170 -0.003491 0.000000 0.035121 0.000000
# 6 0.000000 0.000000 0.000000 -0.005390 0.000000 0.029278
#
#
# Mechanical properties :
#
#
# Convention : Reuss Voigt Hill
#
# Bulk Modulus (GPa) = 36.39058 49.39418 42.89238
# Shear Modulus (GPa) = 24.91794 29.35984 27.13889
#
# Velocity S-wave (km/s) = 3.64468 3.95622 3.80364
# Velocity P-wave (km/s) = 6.09191 6.87028 6.49277
#
# Compressibility (1/GPa) = 0.02747964
#
# Stress axis : x y z
#
# Youngs Moduli (GPa) = 73.15162 35.50544 53.55392
#
# Poissons Ratio (x) = -0.08324 0.39419
# Poissons Ratio (y) = -0.17150 0.61575
# Poissons Ratio (z) = 0.53844 0.40824
#
# Static dielectric constant tensor:
#      x y z
#    x 3.395110 0.000000 0.244940 
#    y 0.000000 3.422800 0.000000 
#    z 0.244940 0.000000 3.543300 
# 
# 
# High freq. dielectric constant tensor:
#      x y z
#    x 1.722720 0.000000 0.024610 
#    y 0.000000 1.738520 0.000000 
#    z 0.024610 0.000000 1.721830 
# 
# From -- ./inp_files/238647.got.cif
#   From: 2010.06.25/outbox.cif.g09.slc.cpg/sg12_120_cif.got.tgz:238647.got - 2010.06.28 00:19:55.
