data_PCOD8099809
_publ_section_title
;
Structure prediction by ZEFSAII (Michael W. Deem and Ramdas Pophale) SiO2 
 PCOD8099809
Probable space group: C 2/M
;
_chemical_formula_sum "Si O2"
_cell_formula_units_Z 56
_cell_length_a 16.355633
_cell_length_b 9.113663
_cell_length_c 22.988662
_cell_angle_alpha 90.000000
_cell_angle_beta 57.403933
_cell_angle_gamma 90.000000
_cell_volume 2886.944611
_symmetry_space_group_name_H-M "C 2/M"
_symmetry_group_IT_number 12
_symmetry_cell_setting 'monoclinic'
loop_
_space_group_symop_operation_xyz
x,y,z
-x,y,-z
-x,-y,-z
x,-y,z
1/2+x,1/2+y,z
1/2-x,1/2+y,-z
1/2-x,1/2-y,-z
1/2+x,1/2-y,z
loop_
_atom_site_type_symbol
_atom_site_label
_atom_site_fract_x
_atom_site_fract_y
_atom_site_fract_z
Si Si1 0.561120 0.173933 0.921063
Si Si2 0.453486 0.172276 0.845903
Si Si3 0.756860 0.830580 0.436734
Si Si4 0.927227 0.330406 0.313298
Si Si5 0.218769 0.170005 0.150975
Si Si6 0.892899 0.160174 0.564772
Si Si7 0.411583 0.664255 0.691229
O O1 0.503433 0.233208 0.886039
O O2 0.671235 0.234663 0.887843
O O3 0.567615 0.000000 0.912948
O O4 0.500000 0.225598 0.000000
O O5 0.532250 0.207190 0.765990
O O6 0.350152 0.249165 0.870260
O O7 0.431093 0.000000 0.858882
O O8 0.750000 0.750000 0.500000
O O9 0.832597 0.763658 0.362170
O O10 0.654054 0.801436 0.446761
O O11 0.778420 0.000000 0.438739
O O12 0.901788 0.500000 0.330134
O O13 0.006485 0.285362 0.330480
O O14 0.178350 0.193061 0.231447
O O15 0.220540 0.000000 0.131814
O O16 0.878145 0.182344 0.638634
O O17 0.000000 0.158797 0.500000
O O18 0.846507 0.000000 0.566354
O O19 0.453731 0.500000 0.686027
#
# Coordination Sequence:
#
# PCOD8099809 Si02
#       7
#     8   8   8   8   8   8   8
#     4   9  18  33  55  83 114 152 197 238 280 342
#     4   9  19  35  57  83 114 150 190 237 288 341
#     4  12  25  39  56  79 109 144 183 228 276 329
#     4  10  20  35  57  81 109 142 182 230 280 335
#     4   9  18  33  55  81 111 150 193 236 284 341
#     4  10  21  36  55  79 107 142 181 224 275 332
#     4   9  18  33  55  79 108 142 181 228 279 337
#
# _framework density 19.397670000000002
#
# number of rings (size 3 to 8) (size 9 to 14) (size 15 to 20)
#    0.000    2.286    0.000    2.571    2.000    3.143 
#    0.000    0.714    0.000    0.857    0.000    0.000 
#    0.000    0.000    0.000    0.000    0.000    0.000 
#
# Total GULP energy -347027.075070 kJ/mol
# GULP energy per Si atom -12393.824110 kJ/mol
# Density = 1.935352 g / cm^3
# Si number density = 19.397670 Si / 1000 Ang^3
#
#
#
# Elastic Constant Matrix: (Units=GPa)
#
#
# Indices 1 2 3 4 5 6 
#
# 1 143.4812 48.2582 69.5004 0.0000 2.4631 0.0000
# 2 48.2582 78.5998 41.2504 0.0000 1.5575 0.0000
# 3 69.5004 41.2504 104.0986 0.0000 3.4136 0.0000
# 4 0.0000 0.0000 0.0000 20.5424 0.0000 -1.6683
# 5 2.4631 1.5575 3.4136 0.0000 27.0704 0.0000
# 6 0.0000 0.0000 0.0000 -1.6683 0.0000 34.4171
#
#
#
# Elastic Compliance Matrix: (Units=1/GPa)
#
#
# Indices 1 2 3 4 5 6 
#
# 1 0.011088 -0.003690 -0.005939 0.000000 -0.000048 0.000000
# 2 -0.003690 0.017292 -0.004385 0.000000 -0.000106 0.000000
# 3 -0.005939 -0.004385 0.015347 0.000000 -0.001143 0.000000
# 4 0.000000 0.000000 0.000000 0.048872 0.000000 0.002369
# 5 -0.000048 -0.000106 -0.001143 0.000000 0.037095 0.000000
# 6 0.000000 0.000000 0.000000 0.002369 0.000000 0.029170
#
#
# Mechanical properties :
#
#
# Convention : Reuss Voigt Hill
#
# Bulk Modulus (GPa) = 63.70161 71.57752 67.63956
# Shear Modulus (GPa) = 26.02467 27.55069 26.78768
#
# Velocity S-wave (km/s) = 3.66681 3.77279 3.72018
# Velocity P-wave (km/s) = 7.13011 7.48056 7.30744
#
# Compressibility (1/GPa) = 0.01569819
#
# Stress axis : x y z
#
# Youngs Moduli (GPa) = 90.18463 57.83139 65.16091
#
# Poissons Ratio (x) = 0.21340 0.38701
# Poissons Ratio (y) = 0.33278 0.28573
# Poissons Ratio (z) = 0.53563 0.25359
#
# Static dielectric constant tensor:
#      x y z
#    x 3.577510 0.000000 -0.124230 
#    y 0.000000 3.566680 0.000000 
#    z -0.124230 0.000000 3.445150 
# 
# 
# High freq. dielectric constant tensor:
#      x y z
#    x 1.756000 0.000000 -0.001110 
#    y 0.000000 1.733200 0.000000 
#    z -0.001110 0.000000 1.763220 
# 
# From -- ./inp_files/338452.got.cif
#   From: 2010.06.25/outbox.cif.g09.slc.cpg/sg12_170_cif.got.tgz:338452.got - 2010.06.28 00:19:55.
