data_PCOD8099014
_publ_section_title
;
Structure prediction by ZEFSAII (Michael W. Deem and Ramdas Pophale) SiO2 
 PCOD8099014
Probable space group: C 2/M
;
_chemical_formula_sum "Si O2"
_cell_formula_units_Z 64
_cell_length_a 25.897813
_cell_length_b 24.957281
_cell_length_c 7.691185
_cell_angle_alpha 90.000000
_cell_angle_beta 41.027948
_cell_angle_gamma 90.000000
_cell_volume 3263.173088
_symmetry_space_group_name_H-M "C 2/M"
_symmetry_group_IT_number 12
_symmetry_cell_setting 'monoclinic'
loop_
_space_group_symop_operation_xyz
x,y,z
-x,y,-z
-x,-y,-z
x,-y,z
1/2+x,1/2+y,z
1/2-x,1/2+y,-z
1/2-x,1/2-y,-z
1/2+x,1/2-y,z
loop_
_atom_site_type_symbol
_atom_site_label
_atom_site_fract_x
_atom_site_fract_y
_atom_site_fract_z
Si Si1 0.701088 0.861578 0.981193
Si Si2 0.939194 0.295340 0.020052
Si Si3 0.865707 0.186395 0.168266
Si Si4 0.585238 0.386517 0.261037
Si Si5 0.362329 0.310161 0.575084
Si Si6 0.936029 0.709109 0.543030
Si Si7 0.704018 0.134803 0.578658
Si Si8 0.748588 0.561985 0.847297
O O1 0.769178 0.817807 0.838985
O O2 0.705442 0.885238 0.774848
O O3 0.618152 0.831710 0.212677
O O4 0.709991 0.909714 0.094390
O O5 0.888198 0.247457 0.060850
O O6 0.879375 0.337931 0.255478
O O7 0.000000 0.267932 0.000000
O O8 0.001098 0.324716 0.733295
O O9 0.772529 0.178609 0.370252
O O10 0.912754 0.145629 0.925995
O O11 0.113241 0.174715 0.683772
O O12 0.500000 0.414899 0.500000
O O13 0.591586 0.347038 0.408180
O O14 0.654264 0.430427 0.091294
O O15 0.382559 0.248466 0.563508
O O16 0.000000 0.741501 0.500000
O O17 0.715717 0.084515 0.422763
O O18 0.769189 0.500000 0.805494
#
# Coordination Sequence:
#
# PCOD8099014 Si02
#       8
#     8   8   8   8   8   8   8   8
#     4  10  22  39  59  83 114 152 191 239 281 341
#     4  12  21  32  53  84 120 157 188 225 271 329
#     4  10  21  35  53  79 122 163 190 216 261 337
#     4  10  21  35  57  88 121 150 185 229 280 335
#     4  10  20  35  54  82 122 164 192 213 264 338
#     4  12  21  33  53  84 121 155 188 229 276 335
#     4  10  22  40  58  82 113 152 192 235 284 336
#     4  10  23  43  64  84 105 143 199 248 294 341
#
# _framework density 19.612811000000001
#
# number of rings (size 3 to 8) (size 9 to 14) (size 15 to 20)
#    0.000    1.500    2.500    3.375    0.000    0.750 
#    0.000    0.000    0.000    3.750    0.000    7.000 
#    0.000    0.000    0.000    0.000    0.000    0.000 
#
# Total GULP energy -396533.493845 kJ/mol
# GULP energy per Si atom -12391.671683 kJ/mol
# Density = 1.956817 g / cm^3
# Si number density = 19.612811 Si / 1000 Ang^3
#
#
#
# Elastic Constant Matrix: (Units=GPa)
#
#
# Indices 1 2 3 4 5 6 
#
# 1 104.2784 45.2013 48.6524 0.0000 2.1809 0.0000
# 2 45.2013 91.1735 48.7333 0.0000 -3.2717 0.0000
# 3 48.6524 48.7333 134.2591 0.0000 -2.1620 0.0000
# 4 0.0000 0.0000 0.0000 14.9864 0.0000 3.8673
# 5 2.1809 -3.2717 -2.1620 0.0000 34.5226 0.0000
# 6 0.0000 0.0000 0.0000 3.8673 0.0000 15.9769
#
#
#
# Elastic Compliance Matrix: (Units=1/GPa)
#
#
# Indices 1 2 3 4 5 6 
#
# 1 0.013178 -0.004990 -0.002988 0.000000 -0.001492 0.000000
# 2 -0.004990 0.015531 -0.003804 0.000000 0.001549 0.000000
# 3 -0.002988 -0.003804 0.009919 0.000000 0.000449 0.000000
# 4 0.000000 0.000000 0.000000 0.071173 0.000000 -0.017228
# 5 -0.001492 0.001549 0.000449 0.000000 0.029236 0.000000
# 6 0.000000 0.000000 0.000000 -0.017228 0.000000 0.066760
#
#
# Mechanical properties :
#
#
# Convention : Reuss Voigt Hill
#
# Bulk Modulus (GPa) = 66.38471 68.32055 67.35263
# Shear Modulus (GPa) = 21.33264 25.57211 23.45238
#
# Velocity S-wave (km/s) = 3.30159 3.61480 3.46174
# Velocity P-wave (km/s) = 6.96097 7.23413 7.09886
#
# Compressibility (1/GPa) = 0.01506371
#
# Stress axis : x y z
#
# Youngs Moduli (GPa) = 75.88418 64.38817 100.81338
#
# Poissons Ratio (x) = 0.32127 0.30126
# Poissons Ratio (y) = 0.37863 0.38353
# Poissons Ratio (z) = 0.22677 0.24495
#
# Static dielectric constant tensor:
#      x y z
#    x 3.900540 0.000000 0.168880 
#    y 0.000000 2.927640 0.000000 
#    z 0.168880 0.000000 4.008930 
# 
# 
# High freq. dielectric constant tensor:
#      x y z
#    x 1.783150 0.000000 0.005330 
#    y 0.000000 1.691240 0.000000 
#    z 0.005330 0.000000 1.792950 
# 
# From -- ./inp_files/113619.got.cif
#   From: 2010.06.25/outbox.cif.g09.slc.cpg/sg12_57_cif.got.tgz:113619.got - 2010.06.28 00:19:55.
