data_PCOD8099557
_publ_section_title
;
Structure prediction by ZEFSAII (Michael W. Deem and Ramdas Pophale) SiO2 
 PCOD8099557
Probable space group: C 2/M
;
_chemical_formula_sum "Si O2"
_cell_formula_units_Z 64
_cell_length_a 19.486338
_cell_length_b 9.287053
_cell_length_c 21.187836
_cell_angle_alpha 90.000000
_cell_angle_beta 119.462274
_cell_angle_gamma 90.000000
_cell_volume 3338.513963
_symmetry_space_group_name_H-M "C 2/M"
_symmetry_group_IT_number 12
_symmetry_cell_setting 'monoclinic'
loop_
_space_group_symop_operation_xyz
x,y,z
-x,y,-z
-x,-y,-z
x,-y,z
1/2+x,1/2+y,z
1/2-x,1/2+y,-z
1/2-x,1/2-y,-z
1/2+x,1/2-y,z
loop_
_atom_site_type_symbol
_atom_site_label
_atom_site_fract_x
_atom_site_fract_y
_atom_site_fract_z
Si Si1 0.410617 0.336579 0.290614
Si Si2 0.719714 0.829045 0.924830
Si Si3 0.156061 0.659281 0.497796
Si Si4 0.417276 0.341837 0.431328
Si Si5 0.046981 0.335061 0.805491
Si Si6 0.232052 0.335015 0.172862
Si Si7 0.335241 0.338769 0.613545
Si Si8 0.372960 0.167877 0.756589
O O1 0.438198 0.500000 0.295940
O O2 0.430243 0.274503 0.368203
O O3 0.462066 0.250348 0.263605
O O4 0.317726 0.318749 0.240821
O O5 0.626732 0.787355 0.877700
O O6 0.771330 0.768735 0.889612
O O7 0.732524 0.000000 0.935583
O O8 0.750000 0.750000 0.000000
O O9 0.118598 0.500000 0.477138
O O10 0.135360 0.734078 0.553708
O O11 0.249437 0.647297 0.544522
O O12 0.121111 0.745745 0.421203
O O13 0.500000 0.362927 0.500000
O O14 0.375592 0.500000 0.407206
O O15 0.055374 0.500000 0.790494
O O16 0.967115 0.306139 0.809087
O O17 0.214877 0.500000 0.144351
O O18 0.169092 0.284008 0.197305
O O19 0.371640 0.500000 0.636594
O O20 0.338956 0.259686 0.682844
O O21 0.355142 0.000000 0.734629
#
# Coordination Sequence:
#
# PCOD8099557 Si02
#       8
#     8   8   8   8   8   8   8   8
#     4   9  18  33  52  74 103 142 182 222 270 325
#     4  10  20  37  61  86 114 146 181 216 257 313
#     4  10  21  36  51  71  98 134 182 229 278 331
#     4  10  21  34  49  72 103 137 178 228 281 330
#     4   9  20  36  55  82 112 142 177 221 269 320
#     4   9  18  34  57  82 108 142 182 219 261 317
#     4  10  21  35  53  74 101 138 178 225 277 329
#     4  10  20  35  56  82 111 141 178 223 273 323
#
# _framework density 19.170206
#
# number of rings (size 3 to 8) (size 9 to 14) (size 15 to 20)
#    0.000    2.375    0.000    1.875    1.750    4.750 
#    0.000    3.125    0.000    3.750    0.000    0.000 
#    0.000    0.000    0.000    0.000    0.000    0.000 
#
# Total GULP energy -396655.904633 kJ/mol
# GULP energy per Si atom -12395.497020 kJ/mol
# Density = 1.912657 g / cm^3
# Si number density = 19.170206 Si / 1000 Ang^3
#
#
#
# Elastic Constant Matrix: (Units=GPa)
#
#
# Indices 1 2 3 4 5 6 
#
# 1 92.8867 32.9718 33.4185 0.0000 -22.0155 0.0000
# 2 32.9718 97.1632 49.9545 0.0000 -17.5129 0.0000
# 3 33.4185 49.9545 112.2656 0.0000 -28.1788 0.0000
# 4 0.0000 0.0000 0.0000 30.4617 0.0000 -9.0445
# 5 -22.0155 -17.5129 -28.1788 0.0000 22.3522 0.0000
# 6 0.0000 0.0000 0.0000 -9.0445 0.0000 27.3484
#
#
#
# Elastic Compliance Matrix: (Units=1/GPa)
#
#
# Indices 1 2 3 4 5 6 
#
# 1 0.014655 -0.002731 -0.000089 0.000000 0.012181 0.000000
# 2 -0.002731 0.014149 -0.004938 0.000000 0.002170 0.000000
# 3 -0.000089 -0.004938 0.014831 0.000000 0.014740 0.000000
# 4 0.000000 0.000000 0.000000 0.036403 0.000000 0.012039
# 5 0.012181 0.002170 0.014740 0.000000 0.077019 0.000000
# 6 0.000000 0.000000 0.000000 0.012039 0.000000 0.040547
#
#
# Mechanical properties :
#
#
# Convention : Reuss Voigt Hill
#
# Bulk Modulus (GPa) = 35.56592 59.44503 47.50547
# Shear Modulus (GPa) = 22.47268 28.43050 25.45159
#
# Velocity S-wave (km/s) = 3.42756 3.85523 3.64767
# Velocity P-wave (km/s) = 5.85296 7.13396 6.52498
#
# Compressibility (1/GPa) = 0.02811680
#
# Stress axis : x y z
#
# Youngs Moduli (GPa) = 68.23767 70.67759 67.42585
#
# Poissons Ratio (x) = 0.19305 0.00603
# Poissons Ratio (y) = 0.18639 0.33295
# Poissons Ratio (z) = 0.00610 0.34900
#
# Static dielectric constant tensor:
#      x y z
#    x 3.459380 0.000000 -0.035690 
#    y 0.000000 3.813950 0.000000 
#    z -0.035690 0.000000 3.393710 
# 
# 
# High freq. dielectric constant tensor:
#      x y z
#    x 1.742560 0.000000 -0.004920 
#    y 0.000000 1.748180 0.000000 
#    z -0.004920 0.000000 1.731790 
# 
# From -- ./inp_files/320064.got.cif
#   From: 2010.06.25/outbox.cif.g09.slc.cpg/sg12_161_cif.got.tgz:320064.got - 2010.06.28 00:19:55.
