data_PCOD8099090
_publ_section_title
;
Structure prediction by ZEFSAII (Michael W. Deem and Ramdas Pophale) SiO2 
 PCOD8099090
Probable space group: C 2/M
;
_chemical_formula_sum "Si O2"
_cell_formula_units_Z 48
_cell_length_a 15.102916
_cell_length_b 9.261279
_cell_length_c 17.206118
_cell_angle_alpha 90.000000
_cell_angle_beta 89.690207
_cell_angle_gamma 90.000000
_cell_volume 2406.624443
_symmetry_space_group_name_H-M "C 2/M"
_symmetry_group_IT_number 12
_symmetry_cell_setting 'monoclinic'
loop_
_space_group_symop_operation_xyz
x,y,z
-x,y,-z
-x,-y,-z
x,-y,z
1/2+x,1/2+y,z
1/2-x,1/2+y,-z
1/2-x,1/2-y,-z
1/2+x,1/2-y,z
loop_
_atom_site_type_symbol
_atom_site_label
_atom_site_fract_x
_atom_site_fract_y
_atom_site_fract_z
Si Si1 0.857666 0.167767 0.702182
Si Si2 0.153775 0.329293 0.686271
Si Si3 0.859462 0.160286 0.164591
Si Si4 0.654132 0.840681 0.151128
Si Si5 0.515815 0.332077 0.589310
Si Si6 0.601966 0.159427 0.986067
O O1 0.757847 0.210777 0.676686
O O2 0.890098 0.243847 0.781786
O O3 0.926073 0.212969 0.634719
O O4 0.861150 0.000000 0.720516
O O5 0.139396 0.500000 0.689223
O O6 0.109942 0.260437 0.764112
O O7 0.100315 0.261911 0.614636
O O8 0.755526 0.145776 0.171363
O O9 0.902685 0.000000 0.170563
O O10 0.884248 0.230370 0.083171
O O11 0.643683 0.773047 0.064917
O O12 0.609281 0.000000 0.151716
O O13 0.500000 0.296687 0.500000
O O14 0.538185 0.500000 0.602902
O O15 0.643901 0.000000 0.967895
O O16 0.500000 0.139035 0.000000
#
# Coordination Sequence:
#
# PCOD8099090 Si02
#       6
#     8   8   8   8   8   8
#     4   9  20  38  59  84 114 151 190 232 283 339
#     4  10  21  38  60  85 115 150 191 235 282 337
#     4  10  20  35  55  78 106 144 190 232 277 331
#     4   9  19  35  54  77 107 146 187 230 279 331
#     4  10  22  40  61  87 119 151 184 230 287 342
#     4  10  21  34  49  76 112 146 184 231 281 325
#
# _framework density 19.944949000000001
#
# number of rings (size 3 to 8) (size 9 to 14) (size 15 to 20)
#    0.000    2.333    0.000    1.500    2.333    4.000 
#    0.000    0.000    0.000    0.000    0.000    0.000 
#    0.000    0.000    0.000    0.000    0.000    0.000 
#
# Total GULP energy -297545.799547 kJ/mol
# GULP energy per Si atom -12397.741648 kJ/mol
# Density = 1.989955 g / cm^3
# Si number density = 19.944949 Si / 1000 Ang^3
#
#
#
# Elastic Constant Matrix: (Units=GPa)
#
#
# Indices 1 2 3 4 5 6 
#
# 1 46.3124 25.3653 21.7776 0.0000 0.0589 0.0000
# 2 25.3653 78.2450 39.8146 0.0000 -0.1888 0.0000
# 3 21.7776 39.8146 113.3615 0.0000 -1.2414 0.0000
# 4 0.0000 0.0000 0.0000 35.8987 0.0000 9.9828
# 5 0.0589 -0.1888 -1.2414 0.0000 33.9907 0.0000
# 6 0.0000 0.0000 0.0000 9.9828 0.0000 18.2331
#
#
#
# Elastic Compliance Matrix: (Units=1/GPa)
#
#
# Indices 1 2 3 4 5 6 
#
# 1 0.026851 -0.007402 -0.002561 0.000000 -0.000181 0.000000
# 2 -0.007402 0.017602 -0.004761 0.000000 -0.000063 0.000000
# 3 -0.002561 -0.004761 0.010990 0.000000 0.000379 0.000000
# 4 0.000000 0.000000 0.000000 0.032859 0.000000 -0.017991
# 5 -0.000181 -0.000063 0.000379 0.000000 0.029434 0.000000
# 6 0.000000 0.000000 0.000000 -0.017991 0.000000 0.064695
#
#
# Mechanical properties :
#
#
# Convention : Reuss Voigt Hill
#
# Bulk Modulus (GPa) = 38.46781 45.75933 42.11357
# Shear Modulus (GPa) = 22.67132 27.68860 25.17996
#
# Velocity S-wave (km/s) = 3.37515 3.72997 3.55698
# Velocity P-wave (km/s) = 5.87518 6.44537 6.16687
#
# Compressibility (1/GPa) = 0.02599576
#
# Stress axis : x y z
#
# Youngs Moduli (GPa) = 37.24282 56.81048 90.99566
#
# Poissons Ratio (x) = 0.42051 0.23300
# Poissons Ratio (y) = 0.27567 0.43323
# Poissons Ratio (z) = 0.09536 0.27047
#
# Static dielectric constant tensor:
#      x y z
#    x 3.535910 0.000000 0.171190 
#    y 0.000000 3.880620 0.000000 
#    z 0.171190 0.000000 3.308420 
# 
# 
# High freq. dielectric constant tensor:
#      x y z
#    x 1.772250 0.000000 0.007220 
#    y 0.000000 1.776410 0.000000 
#    z 0.007220 0.000000 1.778290 
# 
# From -- ./inp_files/267691.got.cif
#   From: 2010.06.25/outbox.cif.g09.slc.cpg/sg12_134_cif.got.tgz:267691.got - 2010.06.28 00:19:55.
