data_PCOD8099112
_publ_section_title
;
Structure prediction by ZEFSAII (Michael W. Deem and Ramdas Pophale) SiO2 
 PCOD8099112
Probable space group: C 2/M
;
_chemical_formula_sum "Si O2"
_cell_formula_units_Z 64
_cell_length_a 13.573730
_cell_length_b 10.357240
_cell_length_c 26.745453
_cell_angle_alpha 90.000000
_cell_angle_beta 68.358429
_cell_angle_gamma 90.000000
_cell_volume 3494.997526
_symmetry_space_group_name_H-M "C 2/M"
_symmetry_group_IT_number 12
_symmetry_cell_setting 'monoclinic'
loop_
_space_group_symop_operation_xyz
x,y,z
-x,y,-z
-x,-y,-z
x,-y,z
1/2+x,1/2+y,z
1/2-x,1/2+y,-z
1/2-x,1/2-y,-z
1/2+x,1/2-y,z
loop_
_atom_site_type_symbol
_atom_site_label
_atom_site_fract_x
_atom_site_fract_y
_atom_site_fract_z
Si Si1 0.332117 0.151226 0.204988
Si Si2 0.427122 0.146955 0.292341
Si Si3 0.840627 0.347676 0.998760
Si Si4 0.938713 0.350584 0.084863
Si Si5 0.976407 0.852960 0.558548
Si Si6 0.296229 0.640167 0.456392
Si Si7 0.776187 0.289526 0.633388
Si Si8 0.662862 0.854992 0.271201
O O1 0.413949 0.166155 0.235266
O O2 0.390519 0.206981 0.144799
O O3 0.232045 0.244942 0.231431
O O4 0.295761 0.000000 0.206530
O O5 0.334385 0.216589 0.339436
O O6 0.542855 0.196464 0.287202
O O7 0.416303 0.000000 0.310274
O O8 0.814378 0.500000 0.993324
O O9 0.944089 0.297964 0.949284
O O10 0.750000 0.250000 0.000000
O O11 0.858831 0.325405 0.054225
O O12 0.954691 0.500000 0.090623
O O13 0.078831 0.832476 0.574576
O O14 0.000000 0.785583 0.500000
O O15 0.875397 0.802904 0.606868
O O16 0.949545 0.000000 0.552814
O O17 0.281297 0.500000 0.485696
O O18 0.250000 0.750000 0.500000
O O19 0.238405 0.627432 0.413899
O O20 0.803481 0.372172 0.677230
O O21 0.675970 0.000000 0.245032
#
# Coordination Sequence:
#
# PCOD8099112 Si02
#       8
#     8   8   8   8   8   8   8   8
#     4   9  18  35  57  79 102 139 187 222 256 314
#     4   9  19  34  55  79 103 135 172 210 260 317
#     4   9  17  31  51  76 108 149 187 223 267 312
#     4   8  16  32  52  74 107 146 184 223 264 314
#     4  10  20  35  55  79 105 132 168 213 252 294
#     4  11  23  38  55  78 104 133 166 204 250 302
#     4  11  20  36  57  77 103 138 171 206 254 316
#     4  10  21  37  54  79 111 135 165 216 273 316
#
# _framework density 18.311886000000001
#
# number of rings (size 3 to 8) (size 9 to 14) (size 15 to 20)
#    0.000    2.375    1.250    2.250    0.000    2.000 
#    0.000    8.750    0.000    0.000    0.000    0.000 
#    0.000    0.000    0.000    0.000    0.000    0.000 
#
# Total GULP energy -396515.206462 kJ/mol
# GULP energy per Si atom -12391.100202 kJ/mol
# Density = 1.827021 g / cm^3
# Si number density = 18.311886 Si / 1000 Ang^3
#
#
#
# Elastic Constant Matrix: (Units=GPa)
#
#
# Indices 1 2 3 4 5 6 
#
# 1 133.5078 58.7164 42.7404 0.0000 -6.5109 0.0000
# 2 58.7164 83.7443 39.3296 0.0000 -8.9532 0.0000
# 3 42.7404 39.3296 100.1710 0.0000 -10.4042 0.0000
# 4 0.0000 0.0000 0.0000 14.0156 0.0000 0.0521
# 5 -6.5109 -8.9532 -10.4042 0.0000 20.0486 0.0000
# 6 0.0000 0.0000 0.0000 0.0521 0.0000 31.1201
#
#
#
# Elastic Compliance Matrix: (Units=1/GPa)
#
#
# Indices 1 2 3 4 5 6 
#
# 1 0.011176 -0.006901 -0.002116 0.000000 -0.000551 0.000000
# 2 -0.006901 0.019175 -0.004151 0.000000 0.004168 0.000000
# 3 -0.002116 -0.004151 0.012950 0.000000 0.004179 0.000000
# 4 0.000000 0.000000 0.000000 0.071349 0.000000 -0.000119
# 5 -0.000551 0.004168 0.004179 0.000000 0.053730 0.000000
# 6 0.000000 0.000000 0.000000 -0.000119 0.000000 0.032134
#
#
# Mechanical properties :
#
#
# Convention : Reuss Voigt Hill
#
# Bulk Modulus (GPa) = 58.94873 66.55510 62.75192
# Shear Modulus (GPa) = 21.50500 24.81264 23.15882
#
# Velocity S-wave (km/s) = 3.43063 3.68503 3.56010
# Velocity P-wave (km/s) = 6.92486 7.38445 7.15835
#
# Compressibility (1/GPa) = 0.01696389
#
# Stress axis : x y z
#
# Youngs Moduli (GPa) = 89.47938 52.15223 77.22137
#
# Poissons Ratio (x) = 0.35989 0.16341
# Poissons Ratio (y) = 0.61748 0.32056
# Poissons Ratio (z) = 0.18935 0.21649
#
# Static dielectric constant tensor:
#      x y z
#    x 3.509470 0.000000 -0.084510 
#    y 0.000000 3.132700 0.000000 
#    z -0.084510 0.000000 4.122330 
# 
# 
# High freq. dielectric constant tensor:
#      x y z
#    x 1.718310 0.000000 0.004690 
#    y 0.000000 1.691960 0.000000 
#    z 0.004690 0.000000 1.706130 
# 
# From -- ./inp_files/335169.got.cif
#   From: 2010.06.25/outbox.cif.g09.slc.cpg/sg12_168_cif.got.tgz:335169.got - 2010.06.28 00:19:55.
