data_PCOD8099821
_publ_section_title
;
Structure prediction by ZEFSAII (Michael W. Deem and Ramdas Pophale) SiO2 
 PCOD8099821
Probable space group: C 2/M
;
_chemical_formula_sum "Si O2"
_cell_formula_units_Z 64
_cell_length_a 18.775919
_cell_length_b 9.025992
_cell_length_c 20.589914
_cell_angle_alpha 90.000000
_cell_angle_beta 87.882388
_cell_angle_gamma 90.000000
_cell_volume 3487.016412
_symmetry_space_group_name_H-M "C 2/M"
_symmetry_group_IT_number 12
_symmetry_cell_setting 'monoclinic'
loop_
_space_group_symop_operation_xyz
x,y,z
-x,y,-z
-x,-y,-z
x,-y,z
1/2+x,1/2+y,z
1/2-x,1/2+y,-z
1/2-x,1/2-y,-z
1/2+x,1/2-y,z
loop_
_atom_site_type_symbol
_atom_site_label
_atom_site_fract_x
_atom_site_fract_y
_atom_site_fract_z
Si Si1 0.327108 0.672302 0.571789
Si Si2 0.082779 0.676308 0.326643
Si Si3 0.157075 0.825438 0.806881
Si Si4 0.686968 0.170302 0.069167
Si Si5 0.682638 0.171111 0.210555
Si Si6 0.566408 0.326620 0.686796
Si Si7 0.316977 0.329417 0.422587
Si Si8 0.833558 0.330419 0.067954
O O1 0.332443 0.500000 0.588310
O O2 0.389227 0.759229 0.606555
O O3 0.339478 0.704296 0.495469
O O4 0.249987 0.730847 0.596751
O O5 0.083377 0.500000 0.329401
O O6 0.132099 0.743088 0.266861
O O7 0.003349 0.729775 0.317473
O O8 0.236959 0.762316 0.790589
O O9 0.105303 0.774952 0.751273
O O10 0.127486 0.763059 0.876855
O O11 0.159864 0.000000 0.812850
O O12 0.647258 0.194562 0.139849
O O13 0.751077 0.286282 0.065746
O O14 0.716290 0.000000 0.066056
O O15 0.636308 0.196544 0.007195
O O16 0.688623 0.000000 0.228308
O O17 0.547195 0.500000 0.688962
O O18 0.616652 0.288391 0.624466
O O19 0.294159 0.500000 0.414126
O O20 0.841192 0.500000 0.088194
#
# Coordination Sequence:
#
# PCOD8099821 Si02
#       8
#     8   8   8   8   8   8   8   8
#     4  10  20  35  57  82 105 129 162 205 249 296
#     4  11  22  35  52  74 103 136 170 209 250 293
#     4   9  17  31  51  70  93 128 164 200 246 300
#     4   8  14  26  43  64  93 127 160 194 239 294
#     4   8  15  30  51  71  92 126 168 202 239 292
#     4  10  21  37  54  72  99 136 174 207 245 295
#     4   9  19  37  59  79 101 132 167 203 245 295
#     4   9  15  23  41  70  98 120 151 201 249 289
#
# _framework density 18.3538
#
# number of rings (size 3 to 8) (size 9 to 14) (size 15 to 20)
#    0.000    2.750    0.000    2.625    0.000    4.500 
#    0.000   10.000    0.000    0.750    0.000    5.250 
#    0.000    0.000    0.000    0.000    0.000    0.000 
#
# Total GULP energy -396570.846798 kJ/mol
# GULP energy per Si atom -12392.838962 kJ/mol
# Density = 1.831203 g / cm^3
# Si number density = 18.353800 Si / 1000 Ang^3
#
#
#
# Elastic Constant Matrix: (Units=GPa)
#
#
# Indices 1 2 3 4 5 6 
#
# 1 89.3777 40.6725 64.3382 0.0000 17.6663 0.0000
# 2 40.6725 55.4087 46.2990 0.0000 9.4116 0.0000
# 3 64.3382 46.2990 133.4042 0.0000 21.9280 0.0000
# 4 0.0000 0.0000 0.0000 27.8161 0.0000 3.9502
# 5 17.6663 9.4116 21.9280 0.0000 12.3647 0.0000
# 6 0.0000 0.0000 0.0000 3.9502 0.0000 26.4799
#
#
#
# Elastic Compliance Matrix: (Units=1/GPa)
#
#
# Indices 1 2 3 4 5 6 
#
# 1 0.022079 -0.009567 -0.004714 0.000000 -0.015904 0.000000
# 2 -0.009567 0.029806 -0.005996 0.000000 0.001615 0.000000
# 3 -0.004714 -0.005996 0.014105 0.000000 -0.013715 0.000000
# 4 0.000000 0.000000 0.000000 0.036728 0.000000 -0.005479
# 5 -0.015904 0.001615 -0.013715 0.000000 0.126692 0.000000
# 6 0.000000 0.000000 0.000000 -0.005479 0.000000 0.038582
#
#
# Mechanical properties :
#
#
# Convention : Reuss Voigt Hill
#
# Bulk Modulus (GPa) = 39.31341 64.53443 51.92392
# Shear Modulus (GPa) = 15.77172 21.79086 18.78129
#
# Velocity S-wave (km/s) = 2.93459 3.44941 3.20236
# Velocity P-wave (km/s) = 5.74009 7.14858 6.48271
#
# Compressibility (1/GPa) = 0.02543661
#
# Stress axis : x y z
#
# Youngs Moduli (GPa) = 45.29270 33.55030 70.89847
#
# Poissons Ratio (x) = 0.32096 0.33420
# Poissons Ratio (y) = 0.43329 0.42511
# Poissons Ratio (z) = 0.21350 0.20117
#
# Static dielectric constant tensor:
#      x y z
#    x 3.043360 0.000000 0.022900 
#    y 0.000000 3.259120 0.000000 
#    z 0.022900 0.000000 3.930280 
# 
# 
# High freq. dielectric constant tensor:
#      x y z
#    x 1.664760 0.000000 0.008110 
#    y 0.000000 1.700280 0.000000 
#    z 0.008110 0.000000 1.738330 
# 
# From -- ./inp_files/314134.got.cif
#   From: 2010.06.25/outbox.cif.g09.slc.cpg/sg12_158_cif.got.tgz:314134.got - 2010.06.28 00:19:55.
