data_PCOD8099445
_publ_section_title
;
Structure prediction by ZEFSAII (Michael W. Deem and Ramdas Pophale) SiO2 
 PCOD8099445
Probable space group: C 2/M
;
_chemical_formula_sum "Si O2"
_cell_formula_units_Z 56
_cell_length_a 18.491020
_cell_length_b 8.903068
_cell_length_c 29.336107
_cell_angle_alpha 90.000000
_cell_angle_beta 142.392793
_cell_angle_gamma 90.000000
_cell_volume 2947.183248
_symmetry_space_group_name_H-M "C 2/M"
_symmetry_group_IT_number 12
_symmetry_cell_setting 'monoclinic'
loop_
_space_group_symop_operation_xyz
x,y,z
-x,y,-z
-x,-y,-z
x,-y,z
1/2+x,1/2+y,z
1/2-x,1/2+y,-z
1/2-x,1/2-y,-z
1/2+x,1/2-y,z
loop_
_atom_site_type_symbol
_atom_site_label
_atom_site_fract_x
_atom_site_fract_y
_atom_site_fract_z
Si Si1 0.745339 0.826794 0.128123
Si Si2 0.828276 0.176042 0.000486
Si Si3 0.215054 0.177800 0.435172
Si Si4 0.923906 0.327734 0.871624
Si Si5 0.949328 0.178171 0.294559
Si Si6 0.360107 0.673595 0.429173
Si Si7 0.707510 0.677350 0.703049
O O1 0.718838 0.723662 0.072178
O O2 0.642124 0.805293 0.113526
O O3 0.870566 0.771645 0.211889
O O4 0.751399 0.000000 0.115471
O O5 0.816351 0.000000 0.999365
O O6 0.750000 0.250000 0.000000
O O7 0.964323 0.220391 0.074969
O O8 0.250000 0.250000 0.500000
O O9 0.306000 0.228402 0.442266
O O10 0.083439 0.234799 0.355798
O O11 0.218289 0.000000 0.442112
O O12 0.965491 0.500000 0.887462
O O13 0.837566 0.281785 0.786852
O O14 0.892496 0.244903 0.312838
O O15 0.942021 0.000000 0.294132
O O16 0.500000 0.693382 0.500000
O O17 0.324164 0.500000 0.418226
O O18 0.310166 0.740713 0.356640
O O19 0.690011 0.500000 0.692636
#
# Coordination Sequence:
#
# PCOD8099445 Si02
#       7
#     8   8   8   8   8   8   8
#     4   9  18  36  61  84 108 140 177 216 264 322
#     4  12  25  38  53  76 109 144 181 225 270 317
#     4  11  22  36  55  80 111 144 181 223 267 316
#     4   9  18  35  59  83 108 140 177 217 263 319
#     4   8  16  33  57  82 107 139 177 217 263 317
#     4  10  20  35  56  80 109 145 182 221 267 318
#     4   8  15  31  56  82 106 137 178 218 260 317
#
# _framework density 19.001194000000002
#
# number of rings (size 3 to 8) (size 9 to 14) (size 15 to 20)
#    0.000    2.429    0.000    4.714    0.000    6.000 
#    0.000    5.000    0.000    4.286    0.000    0.000 
#    0.000    0.000    0.000    0.000    0.000    0.000 
#
# Total GULP energy -347182.884078 kJ/mol
# GULP energy per Si atom -12399.388717 kJ/mol
# Density = 1.895795 g / cm^3
# Si number density = 19.001194 Si / 1000 Ang^3
#
#
#
# Elastic Constant Matrix: (Units=GPa)
#
#
# Indices 1 2 3 4 5 6 
#
# 1 105.6697 49.5215 73.3105 0.0000 -4.4128 0.0000
# 2 49.5215 83.2416 52.3231 0.0001 0.4928 0.0000
# 3 73.3105 52.3231 145.9472 0.0000 -9.3689 0.0000
# 4 0.0000 0.0001 0.0000 19.3748 0.0000 -3.1609
# 5 -4.4128 0.4928 -9.3689 0.0000 35.0830 0.0000
# 6 0.0000 0.0000 0.0000 -3.1609 0.0000 28.0914
#
#
#
# Elastic Compliance Matrix: (Units=1/GPa)
#
#
# Indices 1 2 3 4 5 6 
#
# 1 0.016547 -0.005995 -0.006128 0.000000 0.000529 0.000000
# 2 -0.005995 0.017784 -0.003489 0.000000 -0.001936 0.000000
# 3 -0.006128 -0.003489 0.011329 0.000000 0.002303 0.000000
# 4 0.000000 0.000000 0.000000 0.052579 0.000000 0.005916
# 5 0.000529 -0.001936 0.002303 0.000000 0.029213 0.000000
# 6 0.000000 0.000000 0.000000 0.005916 0.000000 0.036264
#
#
# Mechanical properties :
#
#
# Convention : Reuss Voigt Hill
#
# Bulk Modulus (GPa) = 69.27337 76.12986 72.70161
# Shear Modulus (GPa) = 25.03128 27.15674 26.09401
#
# Velocity S-wave (km/s) = 3.63347 3.78459 3.70980
# Velocity P-wave (km/s) = 7.35795 7.69742 7.52960
#
# Compressibility (1/GPa) = 0.01443556
#
# Stress axis : x y z
#
# Youngs Moduli (GPa) = 60.43511 56.23042 88.27132
#
# Poissons Ratio (x) = 0.33709 0.54096
# Poissons Ratio (y) = 0.36230 0.30795
# Poissons Ratio (z) = 0.37037 0.19617
#
# Static dielectric constant tensor:
#      x y z
#    x 3.592080 0.000000 -0.022310 
#    y 0.000000 3.136020 0.000000 
#    z -0.022310 0.000000 3.840910 
# 
# 
# High freq. dielectric constant tensor:
#      x y z
#    x 1.739930 0.000000 -0.000760 
#    y 0.000000 1.704770 0.000000 
#    z -0.000760 0.000000 1.758000 
# 
# From -- ./inp_files/363224.got.cif
#   From: 2010.06.25/outbox.cif.g09.slc.cpg/sg12_182_cif.got.tgz:363224.got - 2010.06.28 00:19:55.
