data_PCOD8099018
_publ_section_title
;
Structure prediction by ZEFSAII (Michael W. Deem and Ramdas Pophale) SiO2 
 PCOD8099018
Probable space group: C 2/M
;
_chemical_formula_sum "Si O2"
_cell_formula_units_Z 64
_cell_length_a 15.977384
_cell_length_b 28.672938
_cell_length_c 9.020975
_cell_angle_alpha 90.000000
_cell_angle_beta 56.274683
_cell_angle_gamma 90.000000
_cell_volume 3437.183225
_symmetry_space_group_name_H-M "C 2/M"
_symmetry_group_IT_number 12
_symmetry_cell_setting 'monoclinic'
loop_
_space_group_symop_operation_xyz
x,y,z
-x,y,-z
-x,-y,-z
x,-y,z
1/2+x,1/2+y,z
1/2-x,1/2+y,-z
1/2-x,1/2-y,-z
1/2+x,1/2-y,z
loop_
_atom_site_type_symbol
_atom_site_label
_atom_site_fract_x
_atom_site_fract_y
_atom_site_fract_z
Si Si1 0.392883 0.051368 0.163267
Si Si2 0.430794 0.178640 0.356604
Si Si3 0.923754 0.778171 0.459194
Si Si4 0.699924 0.216113 0.764977
Si Si5 0.294130 0.870962 0.720652
Si Si6 0.869650 0.363286 0.967959
Si Si7 0.896388 0.186521 0.174665
Si Si8 0.905409 0.445856 0.491583
O O1 0.408490 0.070000 0.316194
O O2 0.334232 0.000000 0.215200
O O3 0.500000 0.038011 0.000000
O O4 0.350898 0.093101 0.099197
O O5 0.474904 0.229195 0.358684
O O6 0.334290 0.188266 0.347709
O O7 0.389791 0.153683 0.544806
O O8 0.512849 0.147934 0.184518
O O9 0.815470 0.768442 0.639016
O O10 0.910635 0.813707 0.337181
O O11 0.000000 0.802095 0.500000
O O12 0.634540 0.262539 0.853502
O O13 0.682438 0.183205 0.920888
O O14 0.307533 0.872176 0.882058
O O15 0.186597 0.851209 0.785168
O O16 0.302570 0.924410 0.658791
O O17 0.000000 0.170530 0.000000
O O18 0.895546 0.500000 0.515069
O O19 0.000000 0.428550 0.500000
#
# Coordination Sequence:
#
# PCOD8099018 Si02
#       8
#     8   8   8   8   8   8   8   8
#     4  10  20  35  54  83 120 151 183 229 283 341
#     4  11  20  38  52  81 114 155 195 235 287 338
#     4  11  22  38  59  78 109 155 198 248 288 341
#     4  11  21  39  56  80 114 155 196 243 289 340
#     4  12  22  36  56  83 119 150 195 236 286 349
#     4  12  24  32  59  86 115 157 197 235 282 352
#     4  11  24  40  56  79 115 153 194 251 293 332
#     4  10  21  37  60  87 118 153 187 230 292 356
#
# _framework density 18.619897000000002
#
# number of rings (size 3 to 8) (size 9 to 14) (size 15 to 20)
#    0.000    1.000    2.500    7.500    1.750    2.000 
#    0.000    0.000    0.000    0.375    0.000    0.000 
#    0.000    3.000    0.000    0.000    0.000    0.000 
#
# Total GULP energy -396586.200463 kJ/mol
# GULP energy per Si atom -12393.318764 kJ/mol
# Density = 1.857752 g / cm^3
# Si number density = 18.619897 Si / 1000 Ang^3
#
#
#
# Elastic Constant Matrix: (Units=GPa)
#
#
# Indices 1 2 3 4 5 6 
#
# 1 117.3983 50.4488 58.2251 0.0000 14.2354 0.0000
# 2 50.4488 63.9049 45.1084 0.0000 4.4177 0.0000
# 3 58.2251 45.1084 106.9087 0.0000 14.0709 0.0000
# 4 0.0000 0.0000 0.0000 32.1076 0.0000 4.9573
# 5 14.2354 4.4177 14.0709 0.0000 37.2576 0.0000
# 6 0.0000 0.0000 0.0000 4.9573 0.0000 23.5434
#
#
#
# Elastic Compliance Matrix: (Units=1/GPa)
#
#
# Indices 1 2 3 4 5 6 
#
# 1 0.014453 -0.008439 -0.003910 0.000000 -0.003045 0.000000
# 2 -0.008439 0.027246 -0.007260 0.000000 0.002736 0.000000
# 3 -0.003910 -0.007260 0.014981 0.000000 -0.003303 0.000000
# 4 0.000000 0.000000 0.000000 0.032192 0.000000 -0.006778
# 5 -0.003045 0.002736 -0.003303 0.000000 0.028927 0.000000
# 6 0.000000 0.000000 0.000000 -0.006778 0.000000 0.043902
#
#
# Mechanical properties :
#
#
# Convention : Reuss Voigt Hill
#
# Bulk Modulus (GPa) = 57.26707 66.19737 61.73222
# Shear Modulus (GPa) = 24.18512 27.54371 25.86441
#
# Velocity S-wave (km/s) = 3.60792 3.85029 3.73107
# Velocity P-wave (km/s) = 6.94109 7.44281 7.19632
#
# Compressibility (1/GPa) = 0.01746204
#
# Stress axis : x y z
#
# Youngs Moduli (GPa) = 69.19012 36.70283 66.75112
#
# Poissons Ratio (x) = 0.30975 0.26098
# Poissons Ratio (y) = 0.58392 0.48459
# Poissons Ratio (z) = 0.27052 0.26645
#
# Static dielectric constant tensor:
#      x y z
#    x 3.358580 0.000000 0.343690 
#    y 0.000000 3.535510 0.000000 
#    z 0.343690 0.000000 3.835360 
# 
# 
# High freq. dielectric constant tensor:
#      x y z
#    x 1.701700 0.000000 0.029010 
#    y 0.000000 1.717850 0.000000 
#    z 0.029010 0.000000 1.724680 
# 
# From -- ./inp_files/68203.got.cif
#   From: 2010.06.25/outbox.cif.g09.slc.cpg/sg12_35_cif.got.tgz:68203.got - 2010.06.28 00:19:55.
