data_PCOD8099883
_publ_section_title
;
Structure prediction by ZEFSAII (Michael W. Deem and Ramdas Pophale) SiO2 
 PCOD8099883
Probable space group: C 2/M
;
_chemical_formula_sum "Si O2"
_cell_formula_units_Z 48
_cell_length_a 27.959447
_cell_length_b 13.936428
_cell_length_c 6.849333
_cell_angle_alpha 90.000000
_cell_angle_beta 97.457322
_cell_angle_gamma 90.000000
_cell_volume 2646.301765
_symmetry_space_group_name_H-M "C 2/M"
_symmetry_group_IT_number 12
_symmetry_cell_setting 'monoclinic'
loop_
_space_group_symop_operation_xyz
x,y,z
-x,y,-z
-x,-y,-z
x,-y,z
1/2+x,1/2+y,z
1/2-x,1/2+y,-z
1/2-x,1/2-y,-z
1/2+x,1/2-y,z
loop_
_atom_site_type_symbol
_atom_site_label
_atom_site_fract_x
_atom_site_fract_y
_atom_site_fract_z
Si Si1 0.110055 0.610406 0.407920
Si Si2 0.946685 0.261021 0.911344
Si Si3 0.776981 0.235198 0.213733
Si Si4 0.220709 0.390534 0.465236
Si Si5 0.611183 0.264932 0.726252
Si Si6 0.050113 0.888303 0.422157
O O1 0.096571 0.500000 0.437045
O O2 0.076516 0.651328 0.219605
O O3 0.165334 0.623307 0.369685
O O4 0.101182 0.665566 0.606621
O O5 0.948186 0.164691 0.784025
O O6 0.915589 0.237616 0.083664
O O7 0.000000 0.293516 0.000000
O O8 0.767802 0.329972 0.336137
O O9 0.754910 0.142283 0.307622
O O10 0.832909 0.217167 0.203399
O O11 0.750000 0.250000 0.000000
O O12 0.232256 0.500000 0.522996
O O13 0.592900 0.353195 0.585121
O O14 0.000000 0.864011 0.500000
O O15 0.056688 0.000000 0.383109
#
# Coordination Sequence:
#
# PCOD8099883 Si02
#       6
#     8   8   8   8   8   8
#     4   9  20  37  57  80 110 147 183 222 272 329
#     4  11  21  35  57  83 111 144 184 231 271 323
#     4  10  20  35  57  83 111 146 181 228 279 326
#     4   9  19  37  57  79 110 147 183 221 272 332
#     4  10  21  37  55  81 114 144 184 230 274 326
#     4  10  21  38  58  78 106 147 186 225 276 328
#
# _framework density 18.138521000000001
#
# number of rings (size 3 to 8) (size 9 to 14) (size 15 to 20)
#    0.000    2.167    1.667    1.000    0.000    4.667 
#    0.000    4.167    0.000    0.000    0.000    0.000 
#    0.000    0.000    0.000    0.000    0.000    0.000 
#
# Total GULP energy -297696.977209 kJ/mol
# GULP energy per Si atom -12404.040717 kJ/mol
# Density = 1.809724 g / cm^3
# Si number density = 18.138521 Si / 1000 Ang^3
#
#
#
# Elastic Constant Matrix: (Units=GPa)
#
#
# Indices 1 2 3 4 5 6 
#
# 1 124.6805 52.8024 76.9203 0.0000 4.0088 0.0000
# 2 52.8024 121.8146 53.4953 0.0000 0.7086 0.0000
# 3 76.9203 53.4953 131.2489 0.0000 1.5407 0.0000
# 4 0.0000 0.0000 0.0000 13.5078 0.0000 -1.4111
# 5 4.0088 0.7086 1.5407 0.0000 41.7653 0.0000
# 6 0.0000 0.0000 0.0000 -1.4111 0.0000 27.8123
#
#
#
# Elastic Compliance Matrix: (Units=1/GPa)
#
#
# Indices 1 2 3 4 5 6 
#
# 1 0.013374 -0.002868 -0.006658 0.000000 -0.000989 0.000000
# 2 -0.002868 0.010614 -0.002648 0.000000 0.000193 0.000000
# 3 -0.006658 -0.002648 0.012598 0.000000 0.000219 0.000000
# 4 0.000000 0.000000 0.000000 0.074426 0.000000 0.003776
# 5 -0.000989 0.000193 0.000219 0.000000 0.024027 0.000000
# 6 0.000000 0.000000 0.000000 0.003776 0.000000 0.036147
#
#
# Mechanical properties :
#
#
# Convention : Reuss Voigt Hill
#
# Bulk Modulus (GPa) = 81.70314 82.68668 82.19491
# Shear Modulus (GPa) = 25.04870 29.58547 27.31708
#
# Velocity S-wave (km/s) = 3.72017 4.04305 3.88497
# Velocity P-wave (km/s) = 7.97462 8.21463 8.09552
#
# Compressibility (1/GPa) = 0.01223943
#
# Stress axis : x y z
#
# Youngs Moduli (GPa) = 74.77092 94.21634 79.38080
#
# Poissons Ratio (x) = 0.27019 0.52849
# Poissons Ratio (y) = 0.21442 0.21017
# Poissons Ratio (z) = 0.49780 0.24945
#
# Static dielectric constant tensor:
#      x y z
#    x 2.728150 0.000000 0.713490 
#    y 0.000000 3.354720 0.000000 
#    z 0.713490 0.000000 2.753570 
# 
# 
# High freq. dielectric constant tensor:
#      x y z
#    x 1.714180 0.000000 0.001900 
#    y 0.000000 1.700090 0.000000 
#    z 0.001900 0.000000 1.708160 
# 
# From -- ./inp_files/28144.got.cif
#   From: 2010.06.25/outbox.cif.g09.slc.cpg/sg12_15_cif.got.tgz:28144.got - 2010.06.28 00:19:55.
