data_PCOD8099146
_publ_section_title
;
Structure prediction by ZEFSAII (Michael W. Deem and Ramdas Pophale) SiO2 
 PCOD8099146
Probable space group: C 2/M
;
_chemical_formula_sum "Si O2"
_cell_formula_units_Z 56
_cell_length_a 18.180158
_cell_length_b 9.066741
_cell_length_c 25.285411
_cell_angle_alpha 90.000000
_cell_angle_beta 44.408365
_cell_angle_gamma 90.000000
_cell_volume 2916.572240
_symmetry_space_group_name_H-M "C 2/M"
_symmetry_group_IT_number 12
_symmetry_cell_setting 'monoclinic'
loop_
_space_group_symop_operation_xyz
x,y,z
-x,y,-z
-x,-y,-z
x,-y,z
1/2+x,1/2+y,z
1/2-x,1/2+y,-z
1/2-x,1/2-y,-z
1/2+x,1/2-y,z
loop_
_atom_site_type_symbol
_atom_site_label
_atom_site_fract_x
_atom_site_fract_y
_atom_site_fract_z
Si Si1 0.294250 0.825249 0.286643
Si Si2 0.405869 0.830061 0.415984
Si Si3 0.472771 0.175109 0.857967
Si Si4 0.196170 0.329637 0.139491
Si Si5 0.856323 0.331526 0.713493
Si Si6 0.411365 0.825055 0.005002
Si Si7 0.236802 0.171748 0.589734
O O1 0.412214 0.765447 0.216619
O O2 0.224454 0.777971 0.272735
O O3 0.246852 0.753732 0.363520
O O4 0.291168 0.000000 0.293751
O O5 0.526497 0.791860 0.366025
O O6 0.341037 0.795116 0.502213
O O7 0.365306 0.732080 0.388201
O O8 0.392884 0.000000 0.405290
O O9 0.388516 0.233021 0.858752
O O10 0.440450 0.236357 0.932079
O O11 0.475775 0.000000 0.857119
O O12 0.221435 0.500000 0.114910
O O13 0.147509 0.306628 0.222012
O O14 0.301552 0.237927 0.080375
O O15 0.827825 0.500000 0.713369
O O16 0.403066 0.000000 0.009199
O O17 0.500000 0.769733 0.000000
O O18 0.220832 0.000000 0.608596
#
# Coordination Sequence:
#
# PCOD8099146 Si02
#       7
#     8   8   8   8   8   8   8
#     4  11  22  37  57  79 108 145 183 223 273 328
#     4   9  19  37  59  80 108 148 184 218 268 326
#     4   9  19  36  56  77 104 142 182 218 264 324
#     4  10  20  35  56  79 104 137 178 222 267 317
#     4  10  21  37  55  77 108 144 183 226 273 324
#     4  10  20  35  55  79 109 141 174 215 264 319
#     4  10  20  35  57  84 111 140 181 228 270 319
#
# _framework density 19.200621000000002
#
# number of rings (size 3 to 8) (size 9 to 14) (size 15 to 20)
#    0.000    2.143    0.000    3.000    0.000    6.000 
#    0.000    7.143    0.000    0.000    0.000    0.000 
#    0.000    0.000    0.000    0.000    0.000    0.000 
#
# Total GULP energy -347327.580842 kJ/mol
# GULP energy per Si atom -12404.556459 kJ/mol
# Density = 1.915692 g / cm^3
# Si number density = 19.200621 Si / 1000 Ang^3
#
#
#
# Elastic Constant Matrix: (Units=GPa)
#
#
# Indices 1 2 3 4 5 6 
#
# 1 136.9563 38.1700 54.3358 0.0000 -10.1912 0.0001
# 2 38.1700 52.0087 30.8082 0.0000 -1.6764 0.0002
# 3 54.3358 30.8082 103.6117 0.0000 -12.1542 0.0000
# 4 0.0000 0.0000 0.0000 26.2530 0.0000 -0.3989
# 5 -10.1912 -1.6764 -12.1542 0.0000 35.5061 0.0000
# 6 0.0001 0.0002 0.0000 -0.3989 0.0000 32.6076
#
#
#
# Elastic Compliance Matrix: (Units=1/GPa)
#
#
# Indices 1 2 3 4 5 6 
#
# 1 0.010366 -0.005392 -0.003661 0.000000 0.001468 0.000000
# 2 -0.005392 0.026203 -0.005209 0.000000 -0.002094 0.000000
# 3 -0.003661 -0.005209 0.013510 0.000000 0.003328 0.000000
# 4 0.000000 0.000000 0.000000 0.038098 0.000000 0.000466
# 5 0.001468 -0.002094 0.003328 0.000000 0.029626 0.000000
# 6 0.000000 0.000000 0.000000 0.000466 0.000000 0.030673
#
#
# Mechanical properties :
#
#
# Convention : Reuss Voigt Hill
#
# Bulk Modulus (GPa) = 46.39132 59.91162 53.15147
# Shear Modulus (GPa) = 27.14654 30.15753 28.65204
#
# Velocity S-wave (km/s) = 3.76418 3.96745 3.86715
# Velocity P-wave (km/s) = 6.56551 7.22898 6.90522
#
# Compressibility (1/GPa) = 0.02155576
#
# Stress axis : x y z
#
# Youngs Moduli (GPa) = 96.47051 38.16344 74.01671
#
# Poissons Ratio (x) = 0.20577 0.27095
# Poissons Ratio (y) = 0.52016 0.38557
# Poissons Ratio (z) = 0.35314 0.19880
#
# Static dielectric constant tensor:
#      x y z
#    x 3.587650 0.000000 0.038960 
#    y 0.000000 3.348990 0.000000 
#    z 0.038960 0.000000 3.647340 
# 
# 
# High freq. dielectric constant tensor:
#      x y z
#    x 1.754340 0.000000 0.001960 
#    y 0.000000 1.728790 0.000000 
#    z 0.001960 0.000000 1.760200 
# 
# From -- ./inp_files/342534.got.cif
#   From: 2010.06.25/outbox.cif.g09.slc.cpg/sg12_172_cif.got.tgz:342534.got - 2010.06.28 00:19:55.
