data_PCOD8099764
_publ_section_title
;
Structure prediction by ZEFSAII (Michael W. Deem and Ramdas Pophale) SiO2 
 PCOD8099764
Probable space group: C 2/M
;
_chemical_formula_sum "Si O2"
_cell_formula_units_Z 48
_cell_length_a 17.626656
_cell_length_b 14.926715
_cell_length_c 15.723775
_cell_angle_alpha 90.000000
_cell_angle_beta 151.529944
_cell_angle_gamma 90.000000
_cell_volume 1972.130281
_symmetry_space_group_name_H-M "C 2/M"
_symmetry_group_IT_number 12
_symmetry_cell_setting 'monoclinic'
loop_
_space_group_symop_operation_xyz
x,y,z
-x,y,-z
-x,-y,-z
x,-y,z
1/2+x,1/2+y,z
1/2-x,1/2+y,-z
1/2-x,1/2-y,-z
1/2+x,1/2-y,z
loop_
_atom_site_type_symbol
_atom_site_label
_atom_site_fract_x
_atom_site_fract_y
_atom_site_fract_z
Si Si1 0.859097 0.401176 0.292081
Si Si2 0.826412 0.101869 0.567731
Si Si3 0.194321 0.176542 0.274547
Si Si4 0.506979 0.269118 0.633511
Si Si5 0.069167 0.648164 0.184167
Si Si6 0.249402 0.402378 0.196668
O O1 0.836408 0.500000 0.227910
O O2 0.699737 0.375181 0.189267
O O3 0.897890 0.325929 0.258026
O O4 0.000000 0.403862 0.500000
O O5 0.804659 0.105605 0.647679
O O6 0.656591 0.130987 0.360323
O O7 0.964753 0.172705 0.676280
O O8 0.872015 0.000000 0.587576
O O9 0.343853 0.245307 0.425666
O O10 0.048075 0.245710 0.139895
O O11 0.612231 0.329970 0.675378
O O12 0.172532 0.599027 0.214131
O O13 0.889810 0.611542 0.010919
O O14 0.325968 0.500000 0.257555
#
# Coordination Sequence:
#
# PCOD8099764 Si02
#       6
#     8   8   8   8   8   8
#     4   9  17  32  56  82 110 146 189 237 284 333
#     4  11  22  37  59  88 120 153 189 236 289 348
#     4  10  20  37  56  84 117 153 190 236 288 344
#     4  10  20  35  56  87 112 144 196 243 285 328
#     4  10  20  36  55  83 117 155 193 230 289 340
#     4  11  21  35  56  84 120 155 190 235 286 345
#
# _framework density 24.339162000000002
#
# number of rings (size 3 to 8) (size 9 to 14) (size 15 to 20)
#    0.000    1.833    1.667    5.000    2.333    0.667 
#    0.000    5.833    0.000    3.000    0.000    0.000 
#    0.000    0.000    0.000    0.000    0.000    0.000 
#
# Total GULP energy -297375.935778 kJ/mol
# GULP energy per Si atom -12390.663991 kJ/mol
# Density = 2.428377 g / cm^3
# Si number density = 24.339162 Si / 1000 Ang^3
#
#
#
# Elastic Constant Matrix: (Units=GPa)
#
#
# Indices 1 2 3 4 5 6 
#
# 1 71.7322 34.2142 20.2796 0.0015 6.8037 0.0006
# 2 34.2142 203.2107 12.5022 0.0043 8.2317 0.0019
# 3 20.2796 12.5022 17.3602 0.0072 3.9624 0.0034
# 4 0.0015 0.0043 0.0072 19.0960 0.0035 0.2902
# 5 6.8037 8.2317 3.9624 0.0035 22.3233 0.0015
# 6 0.0006 0.0019 0.0034 0.2902 0.0015 35.3467
#
#
#
# Elastic Compliance Matrix: (Units=1/GPa)
#
#
# Indices 1 2 3 4 5 6 
#
# 1 0.021769 -0.002152 -0.023499 0.000008 -0.001670 0.000002
# 2 -0.002152 0.005398 -0.001114 0.000000 -0.001137 0.000000
# 3 -0.023499 -0.001114 0.087680 -0.000030 -0.007990 -0.000007
# 4 0.000008 0.000000 -0.000030 0.052374 -0.000005 -0.000430
# 5 -0.001670 -0.001137 -0.007990 -0.000005 0.047143 -0.000001
# 6 0.000002 0.000000 -0.000007 -0.000430 -0.000001 0.028295
#
#
# Mechanical properties :
#
#
# Convention : Reuss Voigt Hill
#
# Bulk Modulus (GPa) = 16.30868 47.36612 31.83740
# Shear Modulus (GPa) = 15.79145 30.37368 23.08256
#
# Velocity S-wave (km/s) = 2.54993 3.53644 3.08290
# Velocity P-wave (km/s) = 3.92233 6.01484 5.07755
#
# Compressibility (1/GPa) = 0.06131704
#
# Stress axis : x y z
#
# Youngs Moduli (GPa) = 45.93699 185.25732 11.40509
#
# Poissons Ratio (x) = 0.39864 0.26801
# Poissons Ratio (y) = 0.09885 0.01271
# Poissons Ratio (z) = 1.07947 0.20642
#
# Static dielectric constant tensor:
#      x y z
#    x 4.167320 0.000000 0.379500 
#    y 0.000000 4.873200 -0.000010 
#    z 0.379500 -0.000010 4.070590 
# 
# 
# High freq. dielectric constant tensor:
#      x y z
#    x 1.942880 0.000000 0.021300 
#    y 0.000000 1.987220 0.000000 
#    z 0.021300 0.000000 1.917640 
# 
# From -- ./inp_files/278247.got.cif
#   From: 2010.06.25/outbox.cif.g09.slc.cpg/sg12_140_cif.got.tgz:278247.got - 2010.06.28 00:19:55.
