data_PCOD8099503
_publ_section_title
;
Structure prediction by ZEFSAII (Michael W. Deem and Ramdas Pophale) SiO2 
 PCOD8099503
Probable space group: C 2/M
;
_chemical_formula_sum "Si O2"
_cell_formula_units_Z 48
_cell_length_a 14.328452
_cell_length_b 17.964446
_cell_length_c 17.161566
_cell_angle_alpha 90.000000
_cell_angle_beta 146.371408
_cell_angle_gamma 90.000000
_cell_volume 2446.406141
_symmetry_space_group_name_H-M "C 2/M"
_symmetry_group_IT_number 12
_symmetry_cell_setting 'monoclinic'
loop_
_space_group_symop_operation_xyz
x,y,z
-x,y,-z
-x,-y,-z
x,-y,z
1/2+x,1/2+y,z
1/2-x,1/2+y,-z
1/2-x,1/2-y,-z
1/2+x,1/2-y,z
loop_
_atom_site_type_symbol
_atom_site_label
_atom_site_fract_x
_atom_site_fract_y
_atom_site_fract_z
Si Si1 0.434839 0.913454 0.297347
Si Si2 0.222346 0.168967 0.444767
Si Si3 0.366379 0.161549 0.842369
Si Si4 0.624419 0.914114 0.918038
Si Si5 0.816730 0.695118 0.342923
Si Si6 0.885412 0.914442 0.227872
O O1 0.624967 0.883956 0.423880
O O2 0.343984 0.899294 0.151264
O O3 0.327075 0.872450 0.288799
O O4 0.439199 0.000000 0.322259
O O5 0.250000 0.250000 0.500000
O O6 0.205794 0.170638 0.339603
O O7 0.048351 0.136133 0.355637
O O8 0.460361 0.131990 0.830887
O O9 0.261145 0.234493 0.752518
O O10 0.242247 0.097906 0.789073
O O11 0.500000 0.184496 0.000000
O O12 0.583223 0.000000 0.906355
O O13 0.791685 0.890947 0.082162
O O14 0.000000 0.718761 0.500000
O O15 0.941795 0.000000 0.264795
#
# Coordination Sequence:
#
# PCOD8099503 Si02
#       6
#     8   8   8   8   8   8
#     4  10  21  38  58  79 108 146 184 223 270 322
#     4  11  22  37  57  81 110 143 181 225 270 321
#     4  10  20  35  56  81 110 143 179 221 272 326
#     4   9  19  36  57  81 110 143 179 221 270 325
#     4  10  22  37  55  78 108 143 182 225 267 320
#     4  10  20  35  57  84 111 141 179 224 272 321
#
# _framework density 19.620616999999999
#
# number of rings (size 3 to 8) (size 9 to 14) (size 15 to 20)
#    0.000    2.000    0.000    4.000    0.000    7.000 
#    0.000    4.167    0.000    8.500    0.000    0.000 
#    0.000    0.000    0.000    0.000    0.000    0.000 
#
# Total GULP energy -297657.063544 kJ/mol
# GULP energy per Si atom -12402.377648 kJ/mol
# Density = 1.957596 g / cm^3
# Si number density = 19.620617 Si / 1000 Ang^3
#
#
#
# Elastic Constant Matrix: (Units=GPa)
#
#
# Indices 1 2 3 4 5 6 
#
# 1 89.9953 48.8144 29.1363 -0.0109 -7.9275 -0.0065
# 2 48.8144 127.1527 52.7116 -0.0052 -0.0829 -0.0036
# 3 29.1363 52.7116 59.3761 -0.0151 1.0262 -0.0083
# 4 -0.0109 -0.0052 -0.0151 28.6891 -0.0056 -4.3874
# 5 -7.9275 -0.0829 1.0262 -0.0056 25.5687 -0.0022
# 6 -0.0065 -0.0036 -0.0083 -4.3874 -0.0022 26.1726
#
#
#
# Elastic Compliance Matrix: (Units=1/GPa)
#
#
# Indices 1 2 3 4 5 6 
#
# 1 0.015027 -0.004232 -0.003700 0.000004 0.004794 0.000003
# 2 -0.004232 0.013642 -0.010019 -0.000005 -0.000866 -0.000003
# 3 -0.003700 -0.010019 0.027592 0.000012 -0.002287 0.000008
# 4 0.000004 -0.000005 0.000012 0.035774 0.000009 0.005997
# 5 0.004794 -0.000866 -0.002287 0.000009 0.040686 0.000005
# 6 0.000003 -0.000003 0.000008 0.005997 0.000005 0.039213
#
#
# Mechanical properties :
#
#
# Convention : Reuss Voigt Hill
#
# Bulk Modulus (GPa) = 49.11902 59.76098 54.44000
# Shear Modulus (GPa) = 23.29675 25.81021 24.55348
#
# Velocity S-wave (km/s) = 3.44955 3.63087 3.54137
# Velocity P-wave (km/s) = 6.39958 6.93556 6.67295
#
# Compressibility (1/GPa) = 0.02035871
#
# Stress axis : x y z
#
# Youngs Moduli (GPa) = 66.54526 73.30136 36.24296
#
# Poissons Ratio (x) = 0.31023 0.13409
# Poissons Ratio (y) = 0.28163 0.36313
# Poissons Ratio (z) = 0.24620 0.73443
#
# Static dielectric constant tensor:
#      x y z
#    x 3.706470 0.000000 -0.134000 
#    y 0.000000 3.503980 0.000000 
#    z -0.134000 0.000000 3.593530 
# 
# 
# High freq. dielectric constant tensor:
#      x y z
#    x 1.767520 0.000000 -0.007250 
#    y 0.000000 1.766960 0.000000 
#    z -0.007250 0.000000 1.764280 
# 
# From -- ./inp_files/61689.got.cif
#   From: 2010.06.25/outbox.cif.g09.slc.cpg/sg12_31_cif.got.tgz:61689.got - 2010.06.28 00:19:55.
