data_PCOD8099831
_publ_section_title
;
Structure prediction by ZEFSAII (Michael W. Deem and Ramdas Pophale) SiO2 
 PCOD8099831
Probable space group: C 2/M
;
_chemical_formula_sum "Si O2"
_cell_formula_units_Z 56
_cell_length_a 10.138907
_cell_length_b 29.080889
_cell_length_c 12.047908
_cell_angle_alpha 90.000000
_cell_angle_beta 128.861270
_cell_angle_gamma 90.000000
_cell_volume 2766.065645
_symmetry_space_group_name_H-M "C 2/M"
_symmetry_group_IT_number 12
_symmetry_cell_setting 'monoclinic'
loop_
_space_group_symop_operation_xyz
x,y,z
-x,y,-z
-x,-y,-z
x,-y,z
1/2+x,1/2+y,z
1/2-x,1/2+y,-z
1/2-x,1/2-y,-z
1/2+x,1/2-y,z
loop_
_atom_site_type_symbol
_atom_site_label
_atom_site_fract_x
_atom_site_fract_y
_atom_site_fract_z
Si Si1 0.317415 0.448641 0.352522
Si Si2 0.304840 0.144003 0.640268
Si Si3 0.624541 0.380541 0.974357
Si Si4 0.169475 0.683097 0.769873
Si Si5 0.322882 0.051107 0.951486
Si Si6 0.121870 0.841696 0.324378
Si Si7 0.402529 0.720170 0.340371
O O1 0.500000 0.435992 0.500000
O O2 0.261169 0.500000 0.365295
O O3 0.180476 0.408490 0.308484
O O4 0.320903 0.449687 0.220378
O O5 0.480758 0.166815 0.698063
O O6 0.187923 0.135558 0.471490
O O7 0.217718 0.177418 0.686564
O O8 0.769364 0.417440 0.026443
O O9 0.528641 0.371135 0.808991
O O10 0.500000 0.402356 0.000000
O O11 0.705527 0.333645 0.066518
O O12 0.224676 0.662199 0.681033
O O13 0.194810 0.737886 0.770110
O O14 0.352418 0.000000 0.014833
O O15 0.500000 0.070955 0.000000
O O16 0.039862 0.793504 0.319478
O O17 0.500000 0.739584 0.500000
#
# Coordination Sequence:
#
# PCOD8099831 Si02
#       7
#     8   8   8   8   8   8   8
#     4  10  20  35  58  87 113 139 179 231 280 323
#     4  11  20  35  61  84 107 143 186 229 271 323
#     4  10  22  37  52  76 112 147 177 216 275 332
#     4  11  22  35  53  79 111 145 184 228 269 317
#     4  10  20  36  58  81 106 138 181 231 274 319
#     4  10  21  37  54  76 111 146 178 219 274 326
#     4  10  20  35  57  82 107 142 188 227 269 326
#
# _framework density 20.245360999999999
#
# number of rings (size 3 to 8) (size 9 to 14) (size 15 to 20)
#    0.000    1.714    0.000    6.000    0.000    3.143 
#    0.000    1.429    0.000    3.429    0.000    0.000 
#    0.000    0.000    0.000    0.000    0.000    0.000 
#
# Total GULP energy -346981.334787 kJ/mol
# GULP energy per Si atom -12392.190528 kJ/mol
# Density = 2.019928 g / cm^3
# Si number density = 20.245361 Si / 1000 Ang^3
#
#
#
# Elastic Constant Matrix: (Units=GPa)
#
#
# Indices 1 2 3 4 5 6 
#
# 1 120.3204 65.2829 37.2201 0.0000 3.6933 0.0000
# 2 65.2829 126.9210 22.3256 0.0000 -4.2467 0.0000
# 3 37.2201 22.3256 67.6687 0.0000 -1.2190 0.0000
# 4 0.0000 0.0000 0.0000 21.6247 0.0000 1.0391
# 5 3.6933 -4.2467 -1.2190 0.0000 23.1084 0.0000
# 6 0.0000 0.0000 0.0000 1.0391 0.0000 23.5677
#
#
#
# Elastic Compliance Matrix: (Units=1/GPa)
#
#
# Indices 1 2 3 4 5 6 
#
# 1 0.013379 -0.006045 -0.005428 0.000000 -0.003535 0.000000
# 2 -0.006045 0.011141 -0.000297 0.000000 0.002998 0.000000
# 3 -0.005428 -0.000297 0.017893 0.000000 0.001757 0.000000
# 4 0.000000 0.000000 0.000000 0.046342 0.000000 -0.002043
# 5 -0.003535 0.002998 0.001757 0.000000 0.044483 0.000000
# 6 0.000000 0.000000 0.000000 -0.002043 0.000000 0.042521
#
#
# Mechanical properties :
#
#
# Convention : Reuss Voigt Hill
#
# Bulk Modulus (GPa) = 52.98550 62.72970 57.85760
# Shear Modulus (GPa) = 24.32050 26.33227 25.32638
#
# Velocity S-wave (km/s) = 3.46972 3.61037 3.54075
# Velocity P-wave (km/s) = 6.50234 6.95929 6.73469
#
# Compressibility (1/GPa) = 0.01887309
#
# Stress axis : x y z
#
# Youngs Moduli (GPa) = 74.74638 89.76144 55.88775
#
# Poissons Ratio (x) = 0.54260 0.30336
# Poissons Ratio (y) = 0.45183 0.01658
# Poissons Ratio (z) = 0.40572 0.02663
#
# Static dielectric constant tensor:
#      x y z
#    x 3.711660 0.000000 0.029050 
#    y 0.000000 3.638960 0.000000 
#    z 0.029050 0.000000 3.753690 
# 
# 
# High freq. dielectric constant tensor:
#      x y z
#    x 1.786180 0.000000 -0.000240 
#    y 0.000000 1.785150 0.000000 
#    z -0.000240 0.000000 1.791640 
# 
# From -- ./inp_files/125806.got.cif
#   From: 2010.06.25/outbox.cif.g09.slc.cpg/sg12_63_cif.got.tgz:125806.got - 2010.06.28 00:19:55.
