data_PCOD8099451
_publ_section_title
;
Structure prediction by ZEFSAII (Michael W. Deem and Ramdas Pophale) SiO2 
 PCOD8099451
Probable space group: C 2/M
;
_chemical_formula_sum "Si O2"
_cell_formula_units_Z 56
_cell_length_a 16.039047
_cell_length_b 14.844564
_cell_length_c 30.096470
_cell_angle_alpha 90.000000
_cell_angle_beta 24.167582
_cell_angle_gamma 90.000000
_cell_volume 2933.706844
_symmetry_space_group_name_H-M "C 2/M"
_symmetry_group_IT_number 12
_symmetry_cell_setting 'monoclinic'
loop_
_space_group_symop_operation_xyz
x,y,z
-x,y,-z
-x,-y,-z
x,-y,z
1/2+x,1/2+y,z
1/2-x,1/2+y,-z
1/2-x,1/2-y,-z
1/2+x,1/2-y,z
loop_
_atom_site_type_symbol
_atom_site_label
_atom_site_fract_x
_atom_site_fract_y
_atom_site_fract_z
Si Si1 0.890602 0.758890 0.597265
Si Si2 0.989296 0.896664 0.388012
Si Si3 0.034546 0.821608 0.190585
Si Si4 0.882775 0.100486 0.175496
Si Si5 0.040759 0.602636 0.580987
Si Si6 0.769877 0.102971 0.817693
Si Si7 0.453043 0.259066 0.974281
O O1 0.653374 0.740896 0.703120
O O2 0.000000 0.795409 0.500000
O O3 0.899345 0.834995 0.630484
O O4 0.005653 0.667759 0.556261
O O5 0.750141 0.873024 0.503828
O O6 0.079592 0.874982 0.295843
O O7 0.027201 0.000000 0.382981
O O8 0.107915 0.880214 0.196472
O O9 0.968490 0.888185 0.183441
O O10 0.213137 0.757050 0.085731
O O11 0.639028 0.115866 0.295485
O O12 0.981402 0.170233 0.094239
O O13 0.934817 0.000000 0.133774
O O14 0.046436 0.500000 0.560054
O O15 0.570350 0.164598 0.911220
O O16 0.694259 0.000000 0.853165
O O17 0.500000 0.300055 0.000000
#
# Coordination Sequence:
#
# PCOD8099451 Si02
#       7
#     8   8   8   8   8   8   8
#     4  11  22  35  56  81 110 144 175 215 271 323
#     4  10  21  37  56  79 109 143 181 221 259 315
#     4  10  21  36  54  82 111 136 175 229 273 311
#     4  10  20  35  56  80 110 145 178 219 269 317
#     4   9  19  35  56  81 106 137 179 225 269 313
#     4  10  20  36  59  82 106 140 179 221 271 319
#     4  10  22  37  54  78 111 144 181 222 259 315
#
# _framework density 19.088477999999999
#
# number of rings (size 3 to 8) (size 9 to 14) (size 15 to 20)
#    0.000    2.000    0.000    3.857    0.000    6.857 
#    0.000    2.143    0.000    0.857    0.000    0.000 
#    0.000    0.000    0.000    0.000    0.000    0.000 
#
# Total GULP energy -347291.789464 kJ/mol
# GULP energy per Si atom -12403.278195 kJ/mol
# Density = 1.904503 g / cm^3
# Si number density = 19.088478 Si / 1000 Ang^3
#
#
#
# Elastic Constant Matrix: (Units=GPa)
#
#
# Indices 1 2 3 4 5 6 
#
# 1 66.1888 50.1694 47.8155 -0.0003 6.8875 0.0043
# 2 50.1694 94.4668 51.7855 -0.0017 10.4628 -0.0029
# 3 47.8155 51.7855 120.0328 -0.0088 -0.6297 -0.0078
# 4 -0.0003 -0.0017 -0.0088 21.4774 0.0010 1.1590
# 5 6.8875 10.4628 -0.6297 0.0010 38.4889 -0.0005
# 6 0.0043 -0.0029 -0.0078 1.1590 -0.0005 26.3447
#
#
#
# Elastic Compliance Matrix: (Units=1/GPa)
#
#
# Indices 1 2 3 4 5 6 
#
# 1 0.028704 -0.011439 -0.006510 -0.000003 -0.002133 -0.000008
# 2 -0.011439 0.019024 -0.003667 0.000000 -0.003184 0.000003
# 3 -0.006510 -0.003667 0.012519 0.000004 0.002367 0.000004
# 4 -0.000003 0.000000 0.000004 0.046671 -0.000001 -0.002053
# 5 -0.002133 -0.003184 0.002367 -0.000001 0.027268 0.000001
# 6 -0.000008 0.000003 0.000004 -0.002053 0.000001 0.038049
#
#
# Mechanical properties :
#
#
# Convention : Reuss Voigt Hill
#
# Bulk Modulus (GPa) = 58.77701 64.46992 61.62346
# Shear Modulus (GPa) = 22.61025 25.99008 24.30016
#
# Velocity S-wave (km/s) = 3.44539 3.69393 3.57182
# Velocity P-wave (km/s) = 6.83274 7.21395 7.02593
#
# Compressibility (1/GPa) = 0.01701346
#
# Stress axis : x y z
#
# Youngs Moduli (GPa) = 34.83862 52.56589 79.87756
#
# Poissons Ratio (x) = 0.60129 0.52004
# Poissons Ratio (y) = 0.39851 0.29294
# Poissons Ratio (z) = 0.22681 0.19278
#
# Static dielectric constant tensor:
#      x y z
#    x 3.369390 0.000020 -0.090900 
#    y 0.000020 3.415800 0.000040 
#    z -0.090900 0.000040 3.673480 
# 
# 
# High freq. dielectric constant tensor:
#      x y z
#    x 1.733080 0.000000 -0.004860 
#    y 0.000000 1.738940 0.000000 
#    z -0.004860 0.000000 1.756490 
# 
# From -- ./inp_files/361393.got.cif
#   From: 2010.06.25/outbox.cif.g09.slc.cpg/sg12_181_cif.got.tgz:361393.got - 2010.06.28 00:19:55.
