data_PCOD8099340
_publ_section_title
;
Structure prediction by ZEFSAII (Michael W. Deem and Ramdas Pophale) SiO2 
 PCOD8099340
Probable space group: C 2/M
;
_chemical_formula_sum "Si O2"
_cell_formula_units_Z 48
_cell_length_a 24.083216
_cell_length_b 9.166724
_cell_length_c 11.862379
_cell_angle_alpha 90.000000
_cell_angle_beta 103.451653
_cell_angle_gamma 90.000000
_cell_volume 2546.946159
_symmetry_space_group_name_H-M "C 2/M"
_symmetry_group_IT_number 12
_symmetry_cell_setting 'monoclinic'
loop_
_space_group_symop_operation_xyz
x,y,z
-x,y,-z
-x,-y,-z
x,-y,z
1/2+x,1/2+y,z
1/2-x,1/2+y,-z
1/2-x,1/2-y,-z
1/2+x,1/2-y,z
loop_
_atom_site_type_symbol
_atom_site_label
_atom_site_fract_x
_atom_site_fract_y
_atom_site_fract_z
Si Si1 0.203841 0.169177 0.787485
Si Si2 0.864281 0.331718 0.066167
Si Si3 0.831530 0.329448 0.801837
Si Si4 0.971822 0.671732 0.262580
Si Si5 0.413213 0.671457 0.676495
Si Si6 0.403046 0.668667 0.411180
O O1 0.186055 0.246994 0.894465
O O2 0.265950 0.222058 0.777874
O O3 0.159446 0.205814 0.666877
O O4 0.205622 0.000000 0.817545
O O5 0.851245 0.500000 0.081534
O O6 0.926073 0.288466 0.144327
O O7 0.863506 0.294247 0.934026
O O8 0.836540 0.500000 0.773382
O O9 0.859356 0.232812 0.718109
O O10 0.981692 0.500000 0.278983
O O11 0.950950 0.734798 0.372460
O O12 0.030180 0.748208 0.252761
O O13 0.419283 0.500000 0.700231
O O14 0.402741 0.709530 0.541420
O O15 0.419108 0.500000 0.398501
#
# Coordination Sequence:
#
# PCOD8099340 Si02
#       6
#     8   8   8   8   8   8
#     4   9  18  34  57  80 102 133 171 210 253 304
#     4   9  19  35  55  79 105 133 167 212 260 301
#     4  10  21  36  53  76 107 139 170 207 254 306
#     4  10  20  35  56  79 102 132 172 214 256 304
#     4  11  23  36  51  74 106 141 173 210 256 302
#     4   9  19  36  55  77 105 134 168 212 258 301
#
# _framework density 18.846098999999999
#
# number of rings (size 3 to 8) (size 9 to 14) (size 15 to 20)
#    0.000    2.333    0.000    2.000    0.000    6.667 
#    0.000    3.333    0.000    0.000    0.000    0.000 
#    0.000    0.000    0.000    0.000    0.000    0.000 
#
# Total GULP energy -297701.023329 kJ/mol
# GULP energy per Si atom -12404.209305 kJ/mol
# Density = 1.880320 g / cm^3
# Si number density = 18.846099 Si / 1000 Ang^3
#
#
#
# Elastic Constant Matrix: (Units=GPa)
#
#
# Indices 1 2 3 4 5 6 
#
# 1 88.3859 33.1724 17.8931 0.0000 -0.6607 0.0000
# 2 33.1724 58.5061 19.3312 0.0000 -2.6196 0.0000
# 3 17.8931 19.3312 52.2037 0.0000 1.4336 0.0000
# 4 0.0000 0.0000 0.0000 26.7255 0.0000 -5.9757
# 5 -0.6607 -2.6196 1.4336 0.0000 22.3127 0.0000
# 6 0.0000 0.0000 0.0000 -5.9757 0.0000 37.9580
#
#
#
# Elastic Compliance Matrix: (Units=1/GPa)
#
#
# Indices 1 2 3 4 5 6 
#
# 1 0.014595 -0.007565 -0.002193 0.000000 -0.000315 0.000000
# 2 -0.007565 0.023567 -0.006215 0.000000 0.002942 0.000000
# 3 -0.002193 -0.006215 0.022270 0.000000 -0.002225 0.000000
# 4 0.000000 0.000000 0.000000 0.038783 0.000000 0.006106
# 5 -0.000315 0.002942 -0.002225 0.000000 0.045297 0.000000
# 6 0.000000 0.000000 0.000000 0.006106 0.000000 0.027306
#
#
# Mechanical properties :
#
#
# Convention : Reuss Voigt Hill
#
# Bulk Modulus (GPa) = 35.10374 37.76545 36.43460
# Shear Modulus (GPa) = 23.44604 25.97917 24.71261
#
# Velocity S-wave (km/s) = 3.53098 3.71683 3.62510
# Velocity P-wave (km/s) = 5.94060 6.20501 6.07424
#
# Compressibility (1/GPa) = 0.02848699
#
# Stress axis : x y z
#
# Youngs Moduli (GPa) = 68.51827 42.43309 44.90416
#
# Poissons Ratio (x) = 0.32099 0.09845
# Poissons Ratio (y) = 0.51832 0.27907
# Poissons Ratio (z) = 0.15023 0.26371
#
# Static dielectric constant tensor:
#      x y z
#    x 3.516440 0.000000 0.185990 
#    y 0.000000 3.420720 0.000000 
#    z 0.185990 0.000000 3.527540 
# 
# 
# High freq. dielectric constant tensor:
#      x y z
#    x 1.735450 0.000000 0.010490 
#    y 0.000000 1.730970 0.000000 
#    z 0.010490 0.000000 1.733450 
# 
# From -- ./inp_files/172018.got.cif
#   From: 2010.06.25/outbox.cif.g09.slc.cpg/sg12_87_cif.got.tgz:172018.got - 2010.06.28 00:19:55.
