data_PCOD8099357
_publ_section_title
;
Structure prediction by ZEFSAII (Michael W. Deem and Ramdas Pophale) SiO2 
 PCOD8099357
Probable space group: C 2/M
;
_chemical_formula_sum "Si O2"
_cell_formula_units_Z 56
_cell_length_a 17.975366
_cell_length_b 8.790911
_cell_length_c 28.808485
_cell_angle_alpha 90.000000
_cell_angle_beta 38.844633
_cell_angle_gamma 90.000000
_cell_volume 2855.259055
_symmetry_space_group_name_H-M "C 2/M"
_symmetry_group_IT_number 12
_symmetry_cell_setting 'monoclinic'
loop_
_space_group_symop_operation_xyz
x,y,z
-x,y,-z
-x,-y,-z
x,-y,z
1/2+x,1/2+y,z
1/2-x,1/2+y,-z
1/2-x,1/2-y,-z
1/2+x,1/2-y,z
loop_
_atom_site_type_symbol
_atom_site_label
_atom_site_fract_x
_atom_site_fract_y
_atom_site_fract_z
Si Si1 0.201905 0.320018 0.570272
Si Si2 0.492642 0.179486 0.138429
Si Si3 0.867955 0.818853 0.572667
Si Si4 0.550767 0.678965 0.289726
Si Si5 0.146082 0.677404 0.151776
Si Si6 0.229406 0.180723 0.282666
Si Si7 0.082518 0.822961 0.001296
O O1 0.208095 0.500000 0.563474
O O2 0.250000 0.250000 0.500000
O O3 0.283366 0.260082 0.572761
O O4 0.069054 0.269516 0.644098
O O5 0.573115 0.230636 0.142374
O O6 0.360551 0.247177 0.209382
O O7 0.487243 0.000000 0.137531
O O8 0.551135 0.239187 0.063532
O O9 0.818882 0.753603 0.645152
O O10 0.000000 0.754707 0.500000
O O11 0.870101 0.000000 0.573058
O O12 0.526195 0.500000 0.305536
O O13 0.603615 0.718682 0.214337
O O14 0.643278 0.735164 0.283590
O O15 0.123874 0.500000 0.173940
O O16 0.282942 0.713021 0.076889
O O17 0.234773 0.000000 0.282475
O O18 0.059856 0.000000 0.020286
O O19 0.000000 0.760307 0.000000
#
# Coordination Sequence:
#
# PCOD8099357 Si02
#       7
#     8   8   8   8   8   8   8
#     4  11  22  37  59  84 112 145 180 222 270 320
#     4  10  20  35  56  79 105 142 188 231 267 315
#     4   9  17  32  56  81 105 139 181 221 261 309
#     4  11  22  36  57  83 110 141 179 224 271 321
#     4  10  21  37  56  79 109 144 180 222 273 326
#     4   9  18  33  53  79 107 137 181 229 268 313
#     4  10  21  36  54  79 112 145 177 221 280 336
#
# _framework density 19.612931
#
# number of rings (size 3 to 8) (size 9 to 14) (size 15 to 20)
#    0.000    2.000    0.000    3.857    0.000    6.000 
#    0.000    0.714    0.000   11.143    0.000    0.000 
#    0.000    0.000    0.000    0.000    0.000    0.000 
#
# Total GULP energy -347299.844466 kJ/mol
# GULP energy per Si atom -12403.565874 kJ/mol
# Density = 1.956829 g / cm^3
# Si number density = 19.612931 Si / 1000 Ang^3
#
#
#
# Elastic Constant Matrix: (Units=GPa)
#
#
# Indices 1 2 3 4 5 6 
#
# 1 193.2039 35.2801 82.1061 -0.0002 1.3170 -0.0023
# 2 35.2801 28.7364 23.0225 -0.0005 3.8699 -0.0041
# 3 82.1061 23.0225 127.0564 0.0000 7.8637 0.0001
# 4 -0.0002 -0.0005 0.0000 31.1843 0.0001 4.3731
# 5 1.3170 3.8699 7.8637 0.0001 46.9284 -0.0002
# 6 -0.0023 -0.0041 0.0001 4.3731 -0.0002 21.0981
#
#
#
# Elastic Compliance Matrix: (Units=1/GPa)
#
#
# Indices 1 2 3 4 5 6 
#
# 1 0.008165 -0.006884 -0.004093 0.000000 0.001024 0.000000
# 2 -0.006884 0.046726 -0.003832 -0.000001 -0.003018 0.000008
# 3 -0.004093 -0.003832 0.011300 0.000000 -0.001463 -0.000001
# 4 0.000000 -0.000001 0.000000 0.033027 0.000000 -0.006846
# 5 0.001024 -0.003018 -0.001463 0.000000 0.021774 0.000000
# 6 0.000000 0.000008 -0.000001 -0.006846 0.000000 0.048816
#
#
# Mechanical properties :
#
#
# Convention : Reuss Voigt Hill
#
# Bulk Modulus (GPa) = 27.34046 69.97934 48.65990
# Shear Modulus (GPa) = 23.62759 33.74805 28.68782
#
# Velocity S-wave (km/s) = 3.47464 4.15264 3.82867
# Velocity P-wave (km/s) = 5.48341 7.66487 6.66401
#
# Compressibility (1/GPa) = 0.03657583
#
# Stress axis : x y z
#
# Youngs Moduli (GPa) = 122.47296 21.40123 88.49549
#
# Poissons Ratio (x) = 0.14732 0.36217
# Poissons Ratio (y) = 0.84305 0.33909
# Poissons Ratio (z) = 0.50122 0.08200
#
# Static dielectric constant tensor:
#      x y z
#    x 3.888140 0.000000 0.010190 
#    y 0.000000 3.229280 0.000000 
#    z 0.010190 0.000000 3.509600 
# 
# 
# High freq. dielectric constant tensor:
#      x y z
#    x 1.786640 0.000000 -0.001840 
#    y 0.000000 1.729520 0.000000 
#    z -0.001840 0.000000 1.783700 
# 
# From -- ./inp_files/275145.got.cif
#   From: 2010.06.25/outbox.cif.g09.slc.cpg/sg12_138_cif.got.tgz:275145.got - 2010.06.28 00:19:55.
