data_PCOD8099477
_publ_section_title
;
Structure prediction by ZEFSAII (Michael W. Deem and Ramdas Pophale) SiO2 
 PCOD8099477
Probable space group: C 2/M
;
_chemical_formula_sum "Si O2"
_cell_formula_units_Z 64
_cell_length_a 14.528064
_cell_length_b 9.231922
_cell_length_c 32.373559
_cell_angle_alpha 90.000000
_cell_angle_beta 48.297588
_cell_angle_gamma 90.000000
_cell_volume 3241.785107
_symmetry_space_group_name_H-M "C 2/M"
_symmetry_group_IT_number 12
_symmetry_cell_setting 'monoclinic'
loop_
_space_group_symop_operation_xyz
x,y,z
-x,y,-z
-x,-y,-z
x,-y,z
1/2+x,1/2+y,z
1/2-x,1/2+y,-z
1/2-x,1/2-y,-z
1/2+x,1/2-y,z
loop_
_atom_site_type_symbol
_atom_site_label
_atom_site_fract_x
_atom_site_fract_y
_atom_site_fract_z
Si Si1 0.423772 0.330074 0.613740
Si Si2 0.600225 0.163504 0.505912
Si Si3 0.031587 0.830003 0.901312
Si Si4 0.658806 0.168039 0.997137
Si Si5 0.552975 0.830902 0.311659
Si Si6 0.138486 0.834940 0.124311
Si Si7 0.731804 0.833577 0.600294
Si Si8 0.686472 0.830184 0.188954
O O1 0.449345 0.500000 0.610062
O O2 0.548183 0.253114 0.560189
O O3 0.391128 0.262181 0.667685
O O4 0.308826 0.295984 0.618339
O O5 0.500000 0.165671 0.500000
O O6 0.724158 0.238152 0.451840
O O7 0.629743 0.000000 0.511513
O O8 0.975095 0.743365 0.957752
O O9 0.957313 0.784997 0.882311
O O10 0.171559 0.781542 0.852919
O O11 0.018273 0.000000 0.914406
O O12 0.648722 0.000000 0.012553
O O13 0.750000 0.250000 0.000000
O O14 0.719170 0.184045 0.933627
O O15 0.409145 0.797449 0.348058
O O16 0.623405 0.777446 0.249873
O O17 0.576724 0.000000 0.313513
O O18 0.115716 0.740504 0.171647
O O19 0.111742 0.000000 0.144200
O O20 0.752429 0.000000 0.581704
O O21 0.672150 0.000000 0.188039
#
# Coordination Sequence:
#
# PCOD8099477 Si02
#       8
#     8   8   8   8   8   8   8   8
#     4  10  20  35  56  81 108 139 174 216 266 316
#     4   9  17  31  54  83 110 136 171 213 259 316
#     4   9  19  36  55  78 109 142 174 214 265 317
#     4   9  17  31  53  81 110 139 172 213 263 319
#     4  10  22  39  55  75 105 141 181 222 262 309
#     4   9  19  35  54  77 107 138 170 214 266 314
#     4   9  19  36  56  78 108 141 172 213 265 315
#     4  10  22  38  55  76 104 140 183 223 260 309
#
# _framework density 19.74221
#
# number of rings (size 3 to 8) (size 9 to 14) (size 15 to 20)
#    0.000    2.625    0.000    1.875    0.000    8.000 
#    0.000    2.500    0.000    0.000    0.000    0.000 
#    0.000    0.000    0.000    0.000    0.000    0.000 
#
# Total GULP energy -396800.339226 kJ/mol
# GULP energy per Si atom -12400.010601 kJ/mol
# Density = 1.969728 g / cm^3
# Si number density = 19.742210 Si / 1000 Ang^3
#
#
#
# Elastic Constant Matrix: (Units=GPa)
#
#
# Indices 1 2 3 4 5 6 
#
# 1 40.3226 12.7138 10.9716 0.0000 -0.1964 0.0000
# 2 12.7138 68.2581 32.1046 0.0001 4.3592 0.0001
# 3 10.9716 32.1046 90.3652 -0.0002 4.1326 -0.0001
# 4 0.0000 0.0001 -0.0002 36.6145 0.0001 6.1413
# 5 -0.1964 4.3592 4.1326 0.0001 32.4783 0.0001
# 6 0.0000 0.0001 -0.0001 6.1413 0.0001 23.6801
#
#
#
# Elastic Compliance Matrix: (Units=1/GPa)
#
#
# Indices 1 2 3 4 5 6 
#
# 1 0.026608 -0.004174 -0.001791 0.000000 0.000949 0.000000
# 2 -0.004174 0.018325 -0.005924 0.000000 -0.001731 0.000000
# 3 -0.001791 -0.005924 0.013431 0.000000 -0.000925 0.000000
# 4 0.000000 0.000000 0.000000 0.028554 0.000000 -0.007405
# 5 0.000949 -0.001731 -0.000925 0.000000 0.031145 0.000000
# 6 0.000000 0.000000 0.000000 -0.007405 0.000000 0.044150
#
#
# Mechanical properties :
#
#
# Convention : Reuss Voigt Hill
#
# Bulk Modulus (GPa) = 28.91482 34.50287 31.70885
# Shear Modulus (GPa) = 25.31386 28.09831 26.70608
#
# Velocity S-wave (km/s) = 3.58469 3.77671 3.68195
# Velocity P-wave (km/s) = 5.64016 6.04422 5.84568
#
# Compressibility (1/GPa) = 0.03458434
#
# Stress axis : x y z
#
# Youngs Moduli (GPa) = 37.58254 54.57082 74.45613
#
# Poissons Ratio (x) = 0.22779 0.13335
# Poissons Ratio (y) = 0.15688 0.44111
# Poissons Ratio (z) = 0.06731 0.32330
#
# Static dielectric constant tensor:
#      x y z
#    x 3.433400 0.000000 -0.119440 
#    y 0.000000 3.605660 0.000000 
#    z -0.119440 0.000000 3.917080 
# 
# 
# High freq. dielectric constant tensor:
#      x y z
#    x 1.761110 0.000000 -0.000830 
#    y 0.000000 1.767030 0.000000 
#    z -0.000830 0.000000 1.767930 
# 
# From -- ./inp_files/375443.got.cif
#   From: 2010.06.25/outbox.cif.g09.slc.cpg/sg12_188_cif.got.tgz:375443.got - 2010.06.28 00:19:55.
