data_PCOD8099231
_publ_section_title
;
Structure prediction by ZEFSAII (Michael W. Deem and Ramdas Pophale) SiO2 
 PCOD8099231
Probable space group: C 2/M
;
_chemical_formula_sum "Si O2"
_cell_formula_units_Z 56
_cell_length_a 33.574864
_cell_length_b 8.773487
_cell_length_c 15.058511
_cell_angle_alpha 90.000000
_cell_angle_beta 134.393340
_cell_angle_gamma 90.000000
_cell_volume 3169.593635
_symmetry_space_group_name_H-M "C 2/M"
_symmetry_group_IT_number 12
_symmetry_cell_setting 'monoclinic'
loop_
_space_group_symop_operation_xyz
x,y,z
-x,y,-z
-x,-y,-z
x,-y,z
1/2+x,1/2+y,z
1/2-x,1/2+y,-z
1/2-x,1/2-y,-z
1/2+x,1/2-y,z
loop_
_atom_site_type_symbol
_atom_site_label
_atom_site_fract_x
_atom_site_fract_y
_atom_site_fract_z
Si Si1 0.079978 0.180430 0.558862
Si Si2 0.849672 0.320619 0.477481
Si Si3 0.428659 0.322805 0.746266
Si Si4 0.254949 0.822814 0.603745
Si Si5 0.118962 0.676324 0.156857
Si Si6 0.459128 0.679672 0.315852
Si Si7 0.944023 0.178403 0.096691
O O1 0.129854 0.265547 0.586956
O O2 0.081108 0.226891 0.665187
O O3 0.021810 0.242036 0.427243
O O4 0.087072 0.000000 0.556701
O O5 0.844157 0.500000 0.470575
O O6 0.891763 0.271587 0.620305
O O7 0.788952 0.250473 0.397636
O O8 0.416527 0.500000 0.710777
O O9 0.413227 0.278730 0.822089
O O10 0.493042 0.284120 0.832863
O O11 0.250000 0.750000 0.500000
O O12 0.315565 0.790740 0.738072
O O13 0.242008 0.000000 0.573749
O O14 0.105797 0.500000 0.155396
O O15 0.098099 0.723038 0.027195
O O16 0.466044 0.500000 0.326367
O O17 0.434399 0.734258 0.183303
O O18 0.930888 0.000000 0.064399
#
# Coordination Sequence:
#
# PCOD8099231 Si02
#       7
#     8   8   8   8   8   8   8
#     4   9  16  32  56  80 108 142 179 221 267 319
#     4  12  23  34  53  82 114 143 177 224 276 322
#     4  11  21  35  56  79 108 147 185 219 261 318
#     4  11  23  39  58  78 104 141 185 227 271 319
#     4  11  24  38  53  78 110 143 180 224 273 322
#     4   8  15  30  55  82 107 140 182 220 260 320
#     4  10  20  35  55  81 110 146 185 216 259 324
#
# _framework density 17.66788
#
# number of rings (size 3 to 8) (size 9 to 14) (size 15 to 20)
#    0.000    1.714    2.857    3.857    0.000    4.571 
#    0.000    2.143    0.000    0.857    0.000    0.000 
#    0.000    0.000    0.000    0.000    0.000    0.000 
#
# Total GULP energy -347238.765186 kJ/mol
# GULP energy per Si atom -12401.384471 kJ/mol
# Density = 1.762767 g / cm^3
# Si number density = 17.667880 Si / 1000 Ang^3
#
#
#
# Elastic Constant Matrix: (Units=GPa)
#
#
# Indices 1 2 3 4 5 6 
#
# 1 142.6605 49.4221 65.0973 0.0000 -15.4680 0.0000
# 2 49.4221 80.5536 44.3385 0.0000 3.2638 0.0000
# 3 65.0973 44.3385 102.3255 0.0000 -6.5124 0.0000
# 4 0.0000 0.0000 0.0000 27.2754 0.0000 -0.7577
# 5 -15.4680 3.2638 -6.5124 0.0000 23.9086 0.0000
# 6 0.0000 0.0000 0.0000 -0.7577 0.0000 24.3724
#
#
#
# Elastic Compliance Matrix: (Units=1/GPa)
#
#
# Indices 1 2 3 4 5 6 
#
# 1 0.011624 -0.004697 -0.004926 0.000000 0.006820 0.000000
# 2 -0.004697 0.018630 -0.005536 0.000000 -0.007090 0.000000
# 3 -0.004926 -0.005536 0.015418 0.000000 0.001769 0.000000
# 4 0.000000 0.000000 0.000000 0.036695 0.000000 0.001141
# 5 0.006820 -0.007090 0.001769 0.000000 0.047688 0.000000
# 6 0.000000 0.000000 0.000000 0.001141 0.000000 0.041065
#
#
# Mechanical properties :
#
#
# Convention : Reuss Voigt Hill
#
# Bulk Modulus (GPa) = 65.12517 71.47283 68.29900
# Shear Modulus (GPa) = 24.20678 26.22338 25.21508
#
# Velocity S-wave (km/s) = 3.70550 3.85676 3.78189
# Velocity P-wave (km/s) = 7.43293 7.77008 7.60338
#
# Compressibility (1/GPa) = 0.01535505
#
# Stress axis : x y z
#
# Youngs Moduli (GPa) = 86.03072 53.67711 64.86086
#
# Poissons Ratio (x) = 0.25210 0.31948
# Poissons Ratio (y) = 0.40406 0.35906
# Poissons Ratio (z) = 0.42376 0.29715
#
# Static dielectric constant tensor:
#      x y z
#    x 3.573000 0.000000 -0.168780 
#    y 0.000000 3.201150 0.000000 
#    z -0.168780 0.000000 3.337990 
# 
# 
# High freq. dielectric constant tensor:
#      x y z
#    x 1.688320 0.000000 -0.010220 
#    y 0.000000 1.676520 0.000000 
#    z -0.010220 0.000000 1.667320 
# 
# From -- ./inp_files/237479.got.cif
#   From: 2010.06.25/outbox.cif.g09.slc.cpg/sg12_119_cif.got.tgz:237479.got - 2010.06.28 00:19:55.
