data_PCOD8099189
_publ_section_title
;
Structure prediction by ZEFSAII (Michael W. Deem and Ramdas Pophale) SiO2 
 PCOD8099189
Probable space group: C 2/M
;
_chemical_formula_sum "Si O2"
_cell_formula_units_Z 64
_cell_length_a 33.537125
_cell_length_b 9.242784
_cell_length_c 19.248241
_cell_angle_alpha 90.000000
_cell_angle_beta 35.959107
_cell_angle_gamma 90.000000
_cell_volume 3503.574992
_symmetry_space_group_name_H-M "C 2/M"
_symmetry_group_IT_number 12
_symmetry_cell_setting 'monoclinic'
loop_
_space_group_symop_operation_xyz
x,y,z
-x,y,-z
-x,-y,-z
x,-y,z
1/2+x,1/2+y,z
1/2-x,1/2+y,-z
1/2-x,1/2-y,-z
1/2+x,1/2-y,z
loop_
_atom_site_type_symbol
_atom_site_label
_atom_site_fract_x
_atom_site_fract_y
_atom_site_fract_z
Si Si1 0.816226 0.168758 0.432428
Si Si2 0.581325 0.828962 0.954843
Si Si3 0.716613 0.827904 0.833731
Si Si4 0.949366 0.661311 0.469214
Si Si5 0.334259 0.334135 0.568315
Si Si6 0.429763 0.171720 0.187431
Si Si7 0.406380 0.163290 0.687939
Si Si8 0.774909 0.170015 0.897411
O O1 0.750000 0.250000 0.500000
O O2 0.814840 0.189124 0.516534
O O3 0.883763 0.240696 0.306041
O O4 0.813721 0.000000 0.415156
O O5 0.643332 0.764510 0.913224
O O6 0.591130 0.781448 0.861064
O O7 0.582772 0.000000 0.954722
O O8 0.508342 0.779964 0.088387
O O9 0.775359 0.765009 0.700128
O O10 0.731169 0.779159 0.892170
O O11 0.715886 0.000000 0.828378
O O12 0.937371 0.500000 0.458316
O O13 0.907452 0.764699 0.478282
O O14 0.925469 0.675396 0.581342
O O15 0.029253 0.698821 0.353764
O O16 0.342212 0.500000 0.577093
O O17 0.419794 0.000000 0.212920
O O18 0.352531 0.286969 0.778409
O O19 0.379761 0.000000 0.741700
O O20 0.769071 0.000000 0.916530
O O21 0.750000 0.250000 0.000000
#
# Coordination Sequence:
#
# PCOD8099189 Si02
#       8
#     8   8   8   8   8   8   8   8
#     4  11  23  37  55  80 115 149 179 222 272 321
#     4   8  15  31  57  83 105 140 184 221 259 314
#     4   9  17  32  54  78 102 134 181 224 263 317
#     4   9  18  33  56  82 107 138 175 223 273 321
#     4  10  20  35  55  80 109 142 183 229 269 318
#     4   9  17  33  58  83 109 141 181 222 264 318
#     4   9  18  35  56  79 108 138 175 222 274 326
#     4  11  22  36  55  77 106 144 183 227 276 325
#
# _framework density 18.267054999999999
#
# number of rings (size 3 to 8) (size 9 to 14) (size 15 to 20)
#    0.000    2.500    1.250    3.000    0.000    3.500 
#    2.250    2.500    0.000    2.250    0.000    0.000 
#    0.000    0.000    0.000    0.000    0.000    0.000 
#
# Total GULP energy -396686.224663 kJ/mol
# GULP energy per Si atom -12396.444521 kJ/mol
# Density = 1.822548 g / cm^3
# Si number density = 18.267055 Si / 1000 Ang^3
#
#
#
# Elastic Constant Matrix: (Units=GPa)
#
#
# Indices 1 2 3 4 5 6 
#
# 1 129.6582 55.0719 58.9017 0.0032 -18.0731 -0.0026
# 2 55.0719 65.1887 41.3230 0.0090 -2.7500 -0.0094
# 3 58.9017 41.3230 94.7827 -0.0032 -7.7297 -0.0017
# 4 0.0032 0.0090 -0.0032 31.2912 -0.0013 -0.3248
# 5 -18.0731 -2.7500 -7.7297 -0.0013 27.5822 0.0010
# 6 -0.0026 -0.0094 -0.0017 -0.3248 0.0010 26.4032
#
#
#
# Elastic Compliance Matrix: (Units=1/GPa)
#
#
# Indices 1 2 3 4 5 6 
#
# 1 0.014745 -0.009285 -0.004505 0.000001 0.007473 -0.000002
# 2 -0.009285 0.027052 -0.006447 -0.000008 -0.005194 0.000008
# 3 -0.004505 -0.006447 0.016239 0.000004 0.000956 -0.000002
# 4 0.000001 -0.000008 0.000004 0.031962 0.000002 0.000393
# 5 0.007473 -0.005194 0.000956 0.000002 0.040902 -0.000002
# 6 -0.000002 0.000008 -0.000002 0.000393 -0.000002 0.037879
#
#
# Mechanical properties :
#
#
# Convention : Reuss Voigt Hill
#
# Bulk Modulus (GPa) = 56.94773 66.69142 61.81958
# Shear Modulus (GPa) = 23.24396 26.01084 24.62740
#
# Velocity S-wave (km/s) = 3.57102 3.77758 3.67575
# Velocity P-wave (km/s) = 6.94591 7.45756 7.20628
#
# Compressibility (1/GPa) = 0.01755996
#
# Stress axis : x y z
#
# Youngs Moduli (GPa) = 67.81966 36.96533 61.57941
#
# Poissons Ratio (x) = 0.34324 0.27744
# Poissons Ratio (y) = 0.62973 0.39703
# Poissons Ratio (z) = 0.30556 0.23833
#
# Static dielectric constant tensor:
#      x y z
#    x 3.693490 -0.000020 -0.199620 
#    y -0.000020 2.790730 0.000010 
#    z -0.199620 0.000010 3.321850 
# 
# 
# High freq. dielectric constant tensor:
#      x y z
#    x 1.714450 0.000000 -0.011030 
#    y 0.000000 1.680590 0.000000 
#    z -0.011030 0.000000 1.707920 
# 
# From -- ./inp_files/295443.got.cif
#   From: 2010.06.25/outbox.cif.g09.slc.cpg/sg12_148_cif.got.tgz:295443.got - 2010.06.28 00:19:55.
