data_PCOD8099111
_publ_section_title
;
Structure prediction by ZEFSAII (Michael W. Deem and Ramdas Pophale) SiO2 
 PCOD8099111
Probable space group: C 2/M
;
_chemical_formula_sum "Si O2"
_cell_formula_units_Z 64
_cell_length_a 23.541651
_cell_length_b 9.129159
_cell_length_c 19.963154
_cell_angle_alpha 90.000000
_cell_angle_beta 58.099448
_cell_angle_gamma 90.000000
_cell_volume 3642.398413
_symmetry_space_group_name_H-M "C 2/M"
_symmetry_group_IT_number 12
_symmetry_cell_setting 'monoclinic'
loop_
_space_group_symop_operation_xyz
x,y,z
-x,y,-z
-x,-y,-z
x,-y,z
1/2+x,1/2+y,z
1/2-x,1/2+y,-z
1/2-x,1/2-y,-z
1/2+x,1/2-y,z
loop_
_atom_site_type_symbol
_atom_site_label
_atom_site_fract_x
_atom_site_fract_y
_atom_site_fract_z
Si Si1 0.582779 0.834075 0.587145
Si Si2 0.560347 0.165044 0.304918
Si Si3 0.206932 0.330957 0.219771
Si Si4 0.424900 0.169405 0.250847
Si Si5 0.798902 0.172457 0.918415
Si Si6 0.447727 0.667698 0.823474
Si Si7 0.783385 0.672110 0.286709
Si Si8 0.208074 0.828210 0.468721
O O1 0.506082 0.813949 0.607508
O O2 0.584053 0.795499 0.665120
O O3 0.631290 0.725191 0.517304
O O4 0.608086 0.000000 0.560021
O O5 0.631457 0.182299 0.298422
O O6 0.557456 0.286925 0.250247
O O7 0.556139 0.000000 0.275730
O O8 0.226175 0.500000 0.195978
O O9 0.210767 0.246884 0.147398
O O10 0.258922 0.260337 0.237943
O O11 0.491437 0.245739 0.178903
O O12 0.359135 0.224616 0.253190
O O13 0.434906 0.000000 0.232009
O O14 0.874254 0.197050 0.900541
O O15 0.783021 0.000000 0.921913
O O16 0.750000 0.250000 0.000000
O O17 0.467802 0.500000 0.815216
O O18 0.779366 0.500000 0.274269
O O19 0.738193 0.713529 0.378360
O O20 0.250000 0.750000 0.500000
O O21 0.211616 0.000000 0.479834
#
# Coordination Sequence:
#
# PCOD8099111 Si02
#       8
#     8   8   8   8   8   8   8   8
#     4   9  16  30  49  70  95 127 169 218 262 303
#     4   8  16  31  49  68  97 132 165 206 256 307
#     4  10  20  35  55  79 103 134 174 210 251 307
#     4   9  17  31  49  69  99 138 173 208 256 307
#     4  10  20  35  57  84 112 138 164 202 249 298
#     4   9  17  28  47  78 106 127 163 211 249 286
#     4  10  21  36  50  69 102 141 174 212 261 309
#     4  11  21  33  48  69  99 133 173 220 265 307
#
# _framework density 17.57084
#
# number of rings (size 3 to 8) (size 9 to 14) (size 15 to 20)
#    0.000    2.500    1.250    2.250    0.000    5.500 
#    0.000    0.625    0.000    4.500    0.000    5.250 
#    0.000    0.000    0.000    0.000    0.000    0.000 
#
# Total GULP energy -396573.652723 kJ/mol
# GULP energy per Si atom -12392.926648 kJ/mol
# Density = 1.753085 g / cm^3
# Si number density = 17.570840 Si / 1000 Ang^3
#
#
#
# Elastic Constant Matrix: (Units=GPa)
#
#
# Indices 1 2 3 4 5 6 
#
# 1 126.2322 58.7111 55.0417 -0.0002 -18.9245 -0.0001
# 2 58.7111 86.9181 54.7831 -0.0004 -12.7560 -0.0012
# 3 55.0417 54.7831 78.4604 0.0000 -18.0295 0.0001
# 4 -0.0002 -0.0004 0.0000 28.3149 0.0001 -3.6736
# 5 -18.9245 -12.7560 -18.0295 0.0001 26.9241 0.0000
# 6 -0.0001 -0.0012 0.0001 -3.6736 0.0000 30.7489
#
#
#
# Elastic Compliance Matrix: (Units=1/GPa)
#
#
# Indices 1 2 3 4 5 6 
#
# 1 0.012907 -0.005366 -0.004500 0.000000 0.003517 0.000000
# 2 -0.005366 0.022779 -0.012442 0.000000 -0.001311 0.000001
# 3 -0.004500 -0.012442 0.026601 0.000000 0.008756 -0.000001
# 4 0.000000 0.000000 0.000000 0.035873 0.000000 0.004286
# 5 0.003517 -0.001311 0.008756 0.000000 0.044855 0.000000
# 6 0.000000 0.000001 -0.000001 0.004286 0.000000 0.033033
#
#
# Mechanical properties :
#
#
# Convention : Reuss Voigt Hill
#
# Bulk Modulus (GPa) = 56.58677 69.85363 63.22020
# Shear Modulus (GPa) = 22.06967 25.40258 23.73612
#
# Velocity S-wave (km/s) = 3.54791 3.80639 3.67942
# Velocity P-wave (km/s) = 7.00417 7.69155 7.35589
#
# Compressibility (1/GPa) = 0.01767198
#
# Stress axis : x y z
#
# Youngs Moduli (GPa) = 77.47773 43.89942 37.59242
#
# Poissons Ratio (x) = 0.23557 0.16915
# Poissons Ratio (y) = 0.41576 0.46772
# Poissons Ratio (z) = 0.34862 0.54619
#
# Static dielectric constant tensor:
#      x y z
#    x 3.506170 0.000000 -0.444020 
#    y 0.000000 3.338870 0.000000 
#    z -0.444020 0.000000 3.088380 
# 
# 
# High freq. dielectric constant tensor:
#      x y z
#    x 1.681930 0.000000 -0.033890 
#    y 0.000000 1.687140 0.000000 
#    z -0.033890 0.000000 1.640360 
# 
# From -- ./inp_files/323604.got.cif
#   From: 2010.06.25/outbox.cif.g09.slc.cpg/sg12_162_cif.got.tgz:323604.got - 2010.06.28 00:19:55.
