data_PCOD8099332
_publ_section_title
;
Structure prediction by ZEFSAII (Michael W. Deem and Ramdas Pophale) SiO2 
 PCOD8099332
Probable space group: C 2/M
;
_chemical_formula_sum "Si O2"
_cell_formula_units_Z 56
_cell_length_a 19.094219
_cell_length_b 9.040191
_cell_length_c 21.267794
_cell_angle_alpha 90.000000
_cell_angle_beta 117.052360
_cell_angle_gamma 90.000000
_cell_volume 3269.492797
_symmetry_space_group_name_H-M "C 2/M"
_symmetry_group_IT_number 12
_symmetry_cell_setting 'monoclinic'
loop_
_space_group_symop_operation_xyz
x,y,z
-x,y,-z
-x,-y,-z
x,-y,z
1/2+x,1/2+y,z
1/2-x,1/2+y,-z
1/2-x,1/2-y,-z
1/2+x,1/2-y,z
loop_
_atom_site_type_symbol
_atom_site_label
_atom_site_fract_x
_atom_site_fract_y
_atom_site_fract_z
Si Si1 0.664813 0.827964 0.202013
Si Si2 0.026460 0.673028 0.702363
Si Si3 0.835982 0.172894 0.316379
Si Si4 0.551163 0.332106 0.077567
Si Si5 0.533344 0.332351 0.207736
Si Si6 0.711243 0.829594 0.578636
Si Si7 0.355222 0.831196 0.583405
O O1 0.756860 0.795428 0.244633
O O2 0.631255 0.762430 0.122006
O O3 0.619359 0.747867 0.241763
O O4 0.645402 0.000000 0.198241
O O5 0.041840 0.500000 0.715425
O O6 0.094621 0.743143 0.689453
O O7 0.026412 0.745524 0.771635
O O8 0.944633 0.709968 0.634910
O O9 0.828521 0.233439 0.383508
O O10 0.855004 0.000000 0.327225
O O11 0.575419 0.500000 0.070229
O O12 0.500623 0.328555 0.122231
O O13 0.500000 0.262468 0.000000
O O14 0.543368 0.500000 0.235893
O O15 0.656831 0.806430 0.495540
O O16 0.799296 0.774920 0.600676
O O17 0.714868 0.000000 0.600984
O O18 0.335576 0.000000 0.594308
#
# Coordination Sequence:
#
# PCOD8099332 Si02
#       7
#     8   8   8   8   8   8   8
#     4   9  18  32  51  76 103 134 168 208 249 295
#     4  11  22  35  52  73 102 137 175 214 256 305
#     4  11  23  36  50  72 106 139 172 214 259 302
#     4   8  16  31  53  81 108 133 163 205 252 297
#     4   9  18  32  52  77 105 133 165 207 252 300
#     4  10  20  35  56  77  99 131 173 215 260 310
#     4   9  20  37  54  75 102 132 168 217 265 306
#
# _framework density 17.128039999999999
#
# number of rings (size 3 to 8) (size 9 to 14) (size 15 to 20)
#    0.857    1.571    0.000    2.571    0.000    8.286 
#    0.000    2.857    0.000    0.857    0.000    0.000 
#    0.000    0.000    0.000    0.000    0.000    0.000 
#
# Total GULP energy -347076.896684 kJ/mol
# GULP energy per Si atom -12395.603453 kJ/mol
# Density = 1.708906 g / cm^3
# Si number density = 17.128040 Si / 1000 Ang^3
#
#
#
# Elastic Constant Matrix: (Units=GPa)
#
#
# Indices 1 2 3 4 5 6 
#
# 1 104.9777 60.1874 46.0636 0.0000 -1.6066 0.0000
# 2 60.1874 109.3058 47.9426 0.0000 -4.6579 0.0000
# 3 46.0636 47.9426 88.4797 0.0000 -6.8269 0.0000
# 4 0.0000 0.0000 0.0000 21.6709 0.0000 -2.0888
# 5 -1.6066 -4.6579 -6.8269 0.0000 9.4194 0.0000
# 6 0.0000 0.0000 0.0000 -2.0888 0.0000 33.8839
#
#
#
# Elastic Compliance Matrix: (Units=1/GPa)
#
#
# Indices 1 2 3 4 5 6 
#
# 1 0.015272 -0.006503 -0.004739 0.000000 -0.004046 0.000000
# 2 -0.006503 0.014785 -0.004393 0.000000 0.003018 0.000000
# 3 -0.004739 -0.004393 0.016863 0.000000 0.009241 0.000000
# 4 0.000000 0.000000 0.000000 0.046421 0.000000 0.002862
# 5 -0.004046 0.003018 0.009241 0.000000 0.113663 0.000000
# 6 0.000000 0.000000 0.000000 0.002862 0.000000 0.029689
#
#
# Mechanical properties :
#
#
# Convention : Reuss Voigt Hill
#
# Bulk Modulus (GPa) = 63.90061 67.90560 65.90310
# Shear Modulus (GPa) = 18.30309 22.89950 20.60130
#
# Velocity S-wave (km/s) = 3.27250 3.66041 3.47188
# Velocity P-wave (km/s) = 7.18802 7.58925 7.39136
#
# Compressibility (1/GPa) = 0.01564930
#
# Stress axis : x y z
#
# Youngs Moduli (GPa) = 65.48017 67.63787 59.30302
#
# Poissons Ratio (x) = 0.43984 0.28105
# Poissons Ratio (y) = 0.42581 0.26050
# Poissons Ratio (z) = 0.31033 0.29711
#
# Static dielectric constant tensor:
#      x y z
#    x 2.968960 0.000000 -0.041220 
#    y 0.000000 3.325420 0.000000 
#    z -0.041220 0.000000 3.210600 
# 
# 
# High freq. dielectric constant tensor:
#      x y z
#    x 1.636350 0.000000 -0.005150 
#    y 0.000000 1.676470 0.000000 
#    z -0.005150 0.000000 1.654240 
# 
# From -- ./inp_files/338998.got.cif
#   From: 2010.06.25/outbox.cif.g09.slc.cpg/sg12_170_cif.got.tgz:338998.got - 2010.06.28 00:19:55.
