data_PCOD8099147
_publ_section_title
;
Structure prediction by ZEFSAII (Michael W. Deem and Ramdas Pophale) SiO2 
 PCOD8099147
Probable space group: C 2/M
;
_chemical_formula_sum "Si O2"
_cell_formula_units_Z 56
_cell_length_a 30.001840
_cell_length_b 22.424820
_cell_length_c 8.772544
_cell_angle_alpha 90.000000
_cell_angle_beta 28.693504
_cell_angle_gamma 90.000000
_cell_volume 2833.713044
_symmetry_space_group_name_H-M "C 2/M"
_symmetry_group_IT_number 12
_symmetry_cell_setting 'monoclinic'
loop_
_space_group_symop_operation_xyz
x,y,z
-x,y,-z
-x,-y,-z
x,-y,z
1/2+x,1/2+y,z
1/2-x,1/2+y,-z
1/2-x,1/2-y,-z
1/2+x,1/2-y,z
loop_
_atom_site_type_symbol
_atom_site_label
_atom_site_fract_x
_atom_site_fract_y
_atom_site_fract_z
Si Si1 0.095403 0.717582 0.283876
Si Si2 0.398218 0.000000 0.235730
Si Si3 0.708966 0.883121 0.446738
Si Si4 0.904597 0.717582 0.356296
Si Si5 0.291034 0.883121 0.200536
Si Si6 0.407274 0.345067 0.204378
Si Si7 0.101782 0.500000 0.125037
Si Si8 0.407274 0.654933 0.851978
O O1 0.086922 0.721350 0.489234
O O2 0.117210 0.782605 0.153386
O O3 0.000000 0.692020 0.500000
O O4 0.177249 0.673066 0.993282
O O5 0.341103 0.942503 0.464082
O O6 0.500000 0.000000 0.000000
O O7 0.407081 0.000000 0.028757
O O8 0.677250 0.826934 0.443221
O O9 0.684393 0.871386 0.696821
O O10 0.820309 0.889696 0.091165
O O11 0.882790 0.782605 0.356647
O O12 0.000000 0.692020 0.000000
O O13 0.179691 0.889696 0.513019
O O14 0.341103 0.942503 0.989298
O O15 0.500000 0.373856 0.000000
O O16 0.427533 0.332265 0.967400
O O17 0.000000 0.500000 0.500000
O O18 0.500000 0.626144 0.500000
#
# Coordination Sequence:
#
# PCOD8099147 Si02
#       8
#     8   4   8   8   8   8   4   8
#     4  11  21  33  53  81 112 143 177 219 267 320
#     4  10  22  40  59  80 106 138 177 218 263 314
#     4  10  21  37  56  78 107 143 180 220 267 316
#     4  11  21  33  53  81 112 143 177 219 267 320
#     4  10  21  37  56  78 107 143 180 220 267 316
#     4  10  20  35  55  79 109 142 177 219 266 317
#     4  10  22  40  59  80 106 138 177 218 263 314
#     4  10  20  35  55  79 109 142 177 219 266 317
#
# _framework density 19.762059000000001
#
# number of rings (size 3 to 8) (size 9 to 14) (size 15 to 20)
#    0.000    1.714    0.000    6.857    0.000    9.143 
#    0.000    0.714    0.000    0.000    0.000    0.000 
#    0.000    0.000    0.000    0.000    0.000    0.000 
#
# Total GULP energy -347244.998667 kJ/mol
# GULP energy per Si atom -12401.607095 kJ/mol
# Density = 1.971708 g / cm^3
# Si number density = 19.762059 Si / 1000 Ang^3
#
#
#
# Elastic Constant Matrix: (Units=GPa)
#
#
# Indices 1 2 3 4 5 6 
#
# 1 122.4855 38.4520 57.4852 0.0000 -5.0768 0.0000
# 2 38.4520 68.7320 56.2615 0.0000 -13.2413 0.0000
# 3 57.4852 56.2615 144.2091 0.0000 -11.0747 0.0000
# 4 0.0000 0.0000 0.0000 32.4167 0.0000 -8.9133
# 5 -5.0768 -13.2413 -11.0747 0.0000 40.3737 0.0000
# 6 0.0000 0.0000 0.0000 -8.9133 0.0000 20.4284
#
#
#
# Elastic Compliance Matrix: (Units=1/GPa)
#
#
# Indices 1 2 3 4 5 6 
#
# 1 0.010646 -0.003775 -0.002823 0.000000 -0.000674 0.000000
# 2 -0.003775 0.023676 -0.007326 0.000000 0.005280 0.000000
# 3 -0.002823 -0.007326 0.010936 0.000000 0.000242 0.000000
# 4 0.000000 0.000000 0.000000 0.035054 0.000000 0.015295
# 5 -0.000674 0.005280 0.000242 0.000000 0.026482 0.000000
# 6 0.000000 0.000000 0.000000 0.015295 0.000000 0.055625
#
#
# Mechanical properties :
#
#
# Convention : Reuss Voigt Hill
#
# Bulk Modulus (GPa) = 57.43910 71.09157 64.26534
# Shear Modulus (GPa) = 25.50096 30.85895 28.17996
#
# Velocity S-wave (km/s) = 3.59611 3.95590 3.78029
# Velocity P-wave (km/s) = 6.80963 7.54436 7.18639
#
# Compressibility (1/GPa) = 0.01740974
#
# Stress axis : x y z
#
# Youngs Moduli (GPa) = 93.92990 42.23741 91.43720
#
# Poissons Ratio (x) = 0.15946 0.25810
# Poissons Ratio (y) = 0.35461 0.66990
# Poissons Ratio (z) = 0.26514 0.30945
#
# Static dielectric constant tensor:
#      x y z
#    x 3.647810 0.000000 -0.106260 
#    y 0.000000 3.386350 0.000000 
#    z -0.106260 0.000000 3.790720 
# 
# 
# High freq. dielectric constant tensor:
#      x y z
#    x 1.776890 0.000000 -0.005970 
#    y 0.000000 1.740470 0.000000 
#    z -0.005970 0.000000 1.784910 
# 
# From -- ./inp_files/113366.got.cif
#   From: 2010.06.25/outbox.cif.g09.slc.cpg/sg12_57_cif.got.tgz:113366.got - 2010.06.28 00:19:55.
