data_PCOD8099559
_publ_section_title
;
Structure prediction by ZEFSAII (Michael W. Deem and Ramdas Pophale) SiO2 
 PCOD8099559
Probable space group: C 2/M
;
_chemical_formula_sum "Si O2"
_cell_formula_units_Z 40
_cell_length_a 14.322374
_cell_length_b 9.143694
_cell_length_c 14.722657
_cell_angle_alpha 90.000000
_cell_angle_beta 91.568339
_cell_angle_gamma 90.000000
_cell_volume 1927.348132
_symmetry_space_group_name_H-M "C 2/M"
_symmetry_group_IT_number 12
_symmetry_cell_setting 'monoclinic'
loop_
_space_group_symop_operation_xyz
x,y,z
-x,y,-z
-x,-y,-z
x,-y,z
1/2+x,1/2+y,z
1/2-x,1/2+y,-z
1/2-x,1/2-y,-z
1/2+x,1/2-y,z
loop_
_atom_site_type_symbol
_atom_site_label
_atom_site_fract_x
_atom_site_fract_y
_atom_site_fract_z
Si Si1 0.117862 0.168692 0.750322
Si Si2 0.870228 0.665081 0.426309
Si Si3 0.029620 0.829349 0.100971
Si Si4 0.167797 0.671302 0.221975
Si Si5 0.648451 0.334297 0.400216
O O1 0.085397 0.259796 0.661398
O O2 0.223044 0.207479 0.781941
O O3 0.054553 0.210576 0.833842
O O4 0.109366 0.000000 0.722715
O O5 0.907465 0.500000 0.434276
O O6 0.758972 0.669017 0.416337
O O7 0.901786 0.752137 0.517365
O O8 0.120410 0.735823 0.130339
O O9 0.055441 0.000000 0.105191
O O10 0.000000 0.780700 0.000000
O O11 0.148445 0.500000 0.230228
O O12 0.121179 0.751654 0.307063
O O13 0.610972 0.500000 0.393680
#
# Coordination Sequence:
#
# PCOD8099559 Si02
#       5
#     8   8   8   8   8
#     4   9  19  36  56  79 110 146 180 218 269 324
#     4   9  16  27  48  79 111 143 180 220 261 310
#     4  10  22  40  59  79 106 141 181 225 274 328
#     4  10  20  35  56  82 111 142 179 224 270 317
#     4   9  16  28  49  77 110 147 181 214 260 318
#
# _framework density 20.753905
#
# number of rings (size 3 to 8) (size 9 to 14) (size 15 to 20)
#    0.000    2.600    0.000    1.800    0.000    7.600 
#    0.000    1.000    0.000    6.000    0.000    0.000 
#    0.000    0.000    0.000    0.000    0.000    0.000 
#
# Total GULP energy -248078.928869 kJ/mol
# GULP energy per Si atom -12403.946443 kJ/mol
# Density = 2.070667 g / cm^3
# Si number density = 20.753905 Si / 1000 Ang^3
#
#
#
# Elastic Constant Matrix: (Units=GPa)
#
#
# Indices 1 2 3 4 5 6 
#
# 1 29.9812 13.3559 18.4474 0.0000 -3.8708 0.0000
# 2 13.3559 98.7714 43.3137 0.0000 -1.4145 0.0000
# 3 18.4474 43.3137 127.5389 0.0000 -1.5342 0.0000
# 4 0.0000 0.0000 0.0000 38.8611 0.0000 6.3250
# 5 -3.8708 -1.4145 -1.5342 0.0000 32.5954 0.0000
# 6 0.0000 0.0000 0.0000 6.3250 0.0000 19.7543
#
#
#
# Elastic Compliance Matrix: (Units=1/GPa)
#
#
# Indices 1 2 3 4 5 6 
#
# 1 0.037990 -0.003160 -0.004371 0.000000 0.004169 0.000000
# 2 -0.003160 0.012162 -0.003674 0.000000 -0.000020 0.000000
# 3 -0.004371 -0.003674 0.009718 0.000000 -0.000221 0.000000
# 4 0.000000 0.000000 0.000000 0.027147 0.000000 -0.008692
# 5 0.004169 -0.000020 -0.000221 0.000000 0.031163 0.000000
# 6 0.000000 0.000000 0.000000 -0.008692 0.000000 0.053405
#
#
# Mechanical properties :
#
#
# Convention : Reuss Voigt Hill
#
# Bulk Modulus (GPa) = 26.69545 45.16949 35.93247
# Shear Modulus (GPa) = 24.21502 30.32045 27.26774
#
# Velocity S-wave (km/s) = 3.41951 3.82639 3.62865
# Velocity P-wave (km/s) = 5.33680 6.42909 5.90824
#
# Compressibility (1/GPa) = 0.03745957
#
# Stress axis : x y z
#
# Youngs Moduli (GPa) = 26.32265 82.22047 102.90199
#
# Poissons Ratio (x) = 0.25985 0.44983
# Poissons Ratio (y) = 0.08319 0.37802
# Poissons Ratio (z) = 0.11507 0.30205
#
# Static dielectric constant tensor:
#      x y z
#    x 3.531780 0.000000 0.029820 
#    y 0.000000 3.780640 0.000000 
#    z 0.029820 0.000000 3.789320 
# 
# 
# High freq. dielectric constant tensor:
#      x y z
#    x 1.804970 0.000000 0.004540 
#    y 0.000000 1.813300 0.000000 
#    z 0.004540 0.000000 1.809560 
# 
# From -- ./inp_files/151856.got.cif
#   From: 2010.06.25/outbox.cif.g09.slc.cpg/sg12_76_cif.got.tgz:151856.got - 2010.06.28 00:19:55.
