data_PCOD8099983
_publ_section_title
;
Structure prediction by ZEFSAII (Michael W. Deem and Ramdas Pophale) SiO2 
 PCOD8099983
Probable space group: C 2/M
;
_chemical_formula_sum "Si O2"
_cell_formula_units_Z 56
_cell_length_a 16.271058
_cell_length_b 15.318711
_cell_length_c 13.292015
_cell_angle_alpha 90.000000
_cell_angle_beta 129.668729
_cell_angle_gamma 90.000000
_cell_volume 2550.218821
_symmetry_space_group_name_H-M "C 2/M"
_symmetry_group_IT_number 12
_symmetry_cell_setting 'monoclinic'
loop_
_space_group_symop_operation_xyz
x,y,z
-x,y,-z
-x,-y,-z
x,-y,z
1/2+x,1/2+y,z
1/2-x,1/2+y,-z
1/2-x,1/2-y,-z
1/2+x,1/2-y,z
loop_
_atom_site_type_symbol
_atom_site_label
_atom_site_fract_x
_atom_site_fract_y
_atom_site_fract_z
Si Si1 0.809698 0.096040 0.880646
Si Si2 0.062189 0.148340 0.421408
Si Si3 0.595584 0.095911 0.834131
Si Si4 0.184759 0.723086 0.045667
Si Si5 0.786270 0.096867 0.629884
Si Si6 0.836395 0.902122 0.294364
Si Si7 0.553305 0.155704 0.441344
O O1 0.689395 0.112815 0.825492
O O2 0.870561 0.186502 0.957708
O O3 0.821656 0.090183 0.771769
O O4 0.850826 0.000000 0.955560
O O5 0.120610 0.142678 0.360359
O O6 0.144544 0.119369 0.573059
O O7 0.017612 0.244677 0.405903
O O8 0.952792 0.093236 0.332040
O O9 0.485923 0.104531 0.687602
O O10 0.605418 0.000000 0.887770
O O11 0.594376 0.158747 0.930817
O O12 0.257737 0.670630 0.183952
O O13 0.250000 0.750000 0.000000
O O14 0.680297 0.153772 0.541295
O O15 0.765072 0.000000 0.570118
O O16 0.786918 0.000000 0.244948
O O17 0.500000 0.113995 0.500000
#
# Coordination Sequence:
#
# PCOD8099983 Si02
#       7
#     8   8   8   8   8   8   8
#     4   9  18  33  56  85 117 151 192 249 306 356
#     4  11  22  38  59  89 122 156 200 252 308 363
#     4  10  20  35  58  89 121 157 204 249 295 357
#     4  10  20  35  57  84 117 157 205 252 291 356
#     4  11  22  36  58  90 124 154 194 252 313 368
#     4  11  21  37  61  85 118 161 205 250 301 361
#     4  12  21  36  60  89 121 158 198 246 306 363
#
# _framework density 21.958898999999999
#
# number of rings (size 3 to 8) (size 9 to 14) (size 15 to 20)
#    0.000    1.429    2.857    5.571    0.000    1.143 
#    0.000    0.000    0.000   12.000    0.000   29.000 
#    0.000    0.000    0.000    0.000    0.000    0.000 
#
# Total GULP energy -346931.199107 kJ/mol
# GULP energy per Si atom -12390.399968 kJ/mol
# Density = 2.190892 g / cm^3
# Si number density = 21.958899 Si / 1000 Ang^3
#
#
#
# Elastic Constant Matrix: (Units=GPa)
#
#
# Indices 1 2 3 4 5 6 
#
# 1 67.1087 15.3740 14.5417 0.0000 -15.1461 0.0000
# 2 15.3740 158.4005 58.1291 0.0000 -9.2707 0.0000
# 3 14.5417 58.1291 98.9141 0.0000 -9.0117 0.0000
# 4 0.0000 0.0000 0.0000 36.6076 0.0000 -1.6898
# 5 -15.1461 -9.2707 -9.0117 0.0000 16.9576 0.0000
# 6 0.0000 0.0000 0.0000 -1.6898 0.0000 12.4390
#
#
#
# Elastic Compliance Matrix: (Units=1/GPa)
#
#
# Indices 1 2 3 4 5 6 
#
# 1 0.018855 -0.000524 -0.001005 0.000000 0.016020 0.000000
# 2 -0.000524 0.008127 -0.004558 0.000000 0.001553 0.000000
# 3 -0.001005 -0.004558 0.013270 0.000000 0.003663 0.000000
# 4 0.000000 0.000000 0.000000 0.027489 0.000000 0.003734
# 5 0.016020 0.001553 0.003663 0.000000 0.076075 0.000000
# 6 0.000000 0.000000 0.000000 0.003734 0.000000 0.080899
#
#
# Mechanical properties :
#
#
# Convention : Reuss Voigt Hill
#
# Bulk Modulus (GPa) = 35.61308 55.61254 45.61281
# Shear Modulus (GPa) = 20.30477 28.95940 24.63209
#
# Velocity S-wave (km/s) = 3.04414 3.63547 3.35287
# Velocity P-wave (km/s) = 5.34874 6.55766 5.98381
#
# Compressibility (1/GPa) = 0.02807957
#
# Stress axis : x y z
#
# Youngs Moduli (GPa) = 53.03765 123.04001 75.35995
#
# Poissons Ratio (x) = 0.06444 0.07570
# Poissons Ratio (y) = 0.02778 0.34347
# Poissons Ratio (z) = 0.05328 0.56079
#
# Static dielectric constant tensor:
#      x y z
#    x 3.428830 0.000000 -0.208970 
#    y 0.000000 4.840920 0.000000 
#    z -0.208970 0.000000 4.064030 
# 
# 
# High freq. dielectric constant tensor:
#      x y z
#    x 1.818100 0.000000 -0.015850 
#    y 0.000000 1.890680 0.000000 
#    z -0.015850 0.000000 1.852050 
# 
# From -- ./inp_files/156756.got.cif
#   From: 2010.06.25/outbox.cif.g09.slc.cpg/sg12_79_cif.got.tgz:156756.got - 2010.06.28 00:19:55.
