data_PCOD8099546
_publ_section_title
;
Structure prediction by ZEFSAII (Michael W. Deem and Ramdas Pophale) SiO2 
 PCOD8099546
Probable space group: C 2/M
;
_chemical_formula_sum "Si O2"
_cell_formula_units_Z 56
_cell_length_a 27.447783
_cell_length_b 9.253370
_cell_length_c 18.469188
_cell_angle_alpha 90.000000
_cell_angle_beta 36.894080
_cell_angle_gamma 90.000000
_cell_volume 2816.116021
_symmetry_space_group_name_H-M "C 2/M"
_symmetry_group_IT_number 12
_symmetry_cell_setting 'monoclinic'
loop_
_space_group_symop_operation_xyz
x,y,z
-x,y,-z
-x,-y,-z
x,-y,z
1/2+x,1/2+y,z
1/2-x,1/2+y,-z
1/2-x,1/2-y,-z
1/2+x,1/2-y,z
loop_
_atom_site_type_symbol
_atom_site_label
_atom_site_fract_x
_atom_site_fract_y
_atom_site_fract_z
Si Si1 0.125126 0.165327 0.462227
Si Si2 0.790481 0.666952 0.886260
Si Si3 0.483984 0.832344 0.207738
Si Si4 0.061264 0.166513 0.991016
Si Si5 0.527752 0.166137 0.320036
Si Si6 0.756029 0.164268 0.217725
Si Si7 0.170052 0.833423 0.574629
O O1 0.191956 0.230727 0.330169
O O2 0.156809 0.184135 0.505503
O O3 0.038478 0.243355 0.556418
O O4 0.112507 0.000000 0.455789
O O5 0.791298 0.500000 0.907921
O O6 0.882998 0.719001 0.762700
O O7 0.740260 0.694751 0.872726
O O8 0.750000 0.750000 0.000000
O O9 0.521110 0.807136 0.242417
O O10 0.401987 0.741107 0.295223
O O11 0.465617 0.000000 0.214532
O O12 0.547839 0.771682 0.074502
O O13 0.154413 0.190568 0.855436
O O14 0.047628 0.000000 0.030585
O O15 0.000000 0.210824 0.000000
O O16 0.512480 0.000000 0.358210
O O17 0.727734 0.000000 0.265873
O O18 0.250000 0.750000 0.500000
O O19 0.176218 0.000000 0.591201
#
# Coordination Sequence:
#
# PCOD8099546 Si02
#       7
#     8   8   8   8   8   8   8
#     4  10  22  38  57  84 116 149 190 236 284 337
#     4  10  21  37  60  88 115 150 194 237 284 340
#     4  10  20  35  56  82 109 143 185 232 284 335
#     4  10  22  38  55  79 110 150 192 232 286 344
#     4   9  19  37  59  83 114 150 188 230 284 343
#     4  10  22  39  58  82 116 154 191 235 289 345
#     4  10  21  36  56  82 111 146 188 235 282 336
#
# _framework density 19.885545
#
# number of rings (size 3 to 8) (size 9 to 14) (size 15 to 20)
#    0.000    2.143    0.000    2.143    2.000    4.857 
#    0.000    2.857    0.000    0.000    0.000    0.000 
#    0.000    0.000    0.000    0.000    0.000    0.000 
#
# Total GULP energy -347302.109768 kJ/mol
# GULP energy per Si atom -12403.646777 kJ/mol
# Density = 1.984028 g / cm^3
# Si number density = 19.885545 Si / 1000 Ang^3
#
#
#
# Elastic Constant Matrix: (Units=GPa)
#
#
# Indices 1 2 3 4 5 6 
#
# 1 66.7350 36.8386 41.3428 -0.0011 -22.8402 0.0001
# 2 36.8386 110.5688 63.9429 -0.0090 -2.7641 -0.0004
# 3 41.3428 63.9429 122.1589 -0.0085 -9.7912 0.0000
# 4 -0.0011 -0.0090 -0.0085 44.6959 0.0000 4.1816
# 5 -22.8402 -2.7641 -9.7912 0.0000 34.1124 0.0014
# 6 0.0001 -0.0004 0.0000 4.1816 0.0014 23.3277
#
#
#
# Elastic Compliance Matrix: (Units=1/GPa)
#
#
# Indices 1 2 3 4 5 6 
#
# 1 0.026505 -0.005713 -0.004703 -0.000001 0.015934 -0.000001
# 2 -0.005713 0.014230 -0.005864 0.000002 -0.004355 0.000000
# 3 -0.004703 -0.005864 0.012852 0.000001 0.000065 0.000000
# 4 -0.000001 0.000002 0.000001 0.022755 0.000000 -0.004079
# 5 0.015934 -0.004355 0.000065 0.000000 0.039649 -0.000002
# 6 -0.000001 0.000000 0.000000 -0.004079 -0.000002 0.043599
#
#
# Mechanical properties :
#
#
# Convention : Reuss Voigt Hill
#
# Bulk Modulus (GPa) = 47.55602 64.85680 56.20641
# Shear Modulus (GPa) = 25.10556 30.91643 28.01100
#
# Velocity S-wave (km/s) = 3.55703 3.94727 3.75722
# Velocity P-wave (km/s) = 6.39036 7.31166 6.86648
#
# Compressibility (1/GPa) = 0.02102783
#
# Stress axis : x y z
#
# Youngs Moduli (GPa) = 37.72875 70.27455 77.80645
#
# Poissons Ratio (x) = 0.40146 0.36591
# Poissons Ratio (y) = 0.21553 0.45627
# Poissons Ratio (z) = 0.17743 0.41210
#
# Static dielectric constant tensor:
#      x y z
#    x 3.223680 0.000080 -0.455660 
#    y 0.000080 3.652780 0.000070 
#    z -0.455660 0.000070 3.430760 
# 
# 
# High freq. dielectric constant tensor:
#      x y z
#    x 1.773290 0.000000 -0.011070 
#    y 0.000000 1.775900 0.000000 
#    z -0.011070 0.000000 1.780380 
# 
# From -- ./inp_files/295105.got.cif
#   From: 2010.06.25/outbox.cif.g09.slc.cpg/sg12_148_cif.got.tgz:295105.got - 2010.06.28 00:19:55.
