data_PCOD8099834
_publ_section_title
;
Structure prediction by ZEFSAII (Michael W. Deem and Ramdas Pophale) SiO2 
 PCOD8099834
Probable space group: C 2/M
;
_chemical_formula_sum "Si O2"
_cell_formula_units_Z 48
_cell_length_a 18.313194
_cell_length_b 9.061725
_cell_length_c 20.464932
_cell_angle_alpha 90.000000
_cell_angle_beta 47.790173
_cell_angle_gamma 90.000000
_cell_volume 2515.483054
_symmetry_space_group_name_H-M "C 2/M"
_symmetry_group_IT_number 12
_symmetry_cell_setting 'monoclinic'
loop_
_space_group_symop_operation_xyz
x,y,z
-x,y,-z
-x,-y,-z
x,-y,z
1/2+x,1/2+y,z
1/2-x,1/2+y,-z
1/2-x,1/2-y,-z
1/2+x,1/2-y,z
loop_
_atom_site_type_symbol
_atom_site_label
_atom_site_fract_x
_atom_site_fract_y
_atom_site_fract_z
Si Si1 0.095481 0.328027 0.604266
Si Si2 0.237713 0.171810 0.752345
Si Si3 0.518522 0.325144 0.916641
Si Si4 0.894690 0.173671 0.745965
Si Si5 0.648996 0.325780 0.079770
Si Si6 0.753097 0.830491 0.401805
O O1 0.076664 0.500000 0.625498
O O2 0.154836 0.267984 0.631082
O O3 0.156264 0.293500 0.501886
O O4 0.991893 0.247909 0.658382
O O5 0.125106 0.224367 0.827045
O O6 0.300946 0.269368 0.763011
O O7 0.272683 0.203250 0.657577
O O8 0.249977 0.000000 0.763456
O O9 0.511168 0.500000 0.922636
O O10 0.435719 0.263654 0.917265
O O11 0.500000 0.259344 0.000000
O O12 0.881795 0.219181 0.828870
O O13 0.904068 0.000000 0.731434
O O14 0.662578 0.500000 0.064596
O O15 0.750000 0.250000 0.000000
O O16 0.785834 0.000000 0.391381
#
# Coordination Sequence:
#
# PCOD8099834 Si02
#       6
#     8   8   8   8   8   8
#     4  10  20  35  57  82 108 143 186 227 273 333
#     4  10  20  36  57  78 106 145 186 227 272 325
#     4   9  17  31  54  80 103 132 173 217 263 320
#     4  11  23  37  53  78 114 148 181 226 276 324
#     4  10  21  37  57  81 109 141 177 221 273 326
#     4   9  19  36  57  81 109 142 183 232 280 325
#
# _framework density 19.081823
#
# number of rings (size 3 to 8) (size 9 to 14) (size 15 to 20)
#    0.000    2.167    0.000    3.000    0.000    7.333 
#    0.000    4.167    0.000    3.000    0.000    0.000 
#    0.000    0.000    0.000    0.000    0.000    0.000 
#
# Total GULP energy -297697.380937 kJ/mol
# GULP energy per Si atom -12404.057539 kJ/mol
# Density = 1.903839 g / cm^3
# Si number density = 19.081823 Si / 1000 Ang^3
#
#
#
# Elastic Constant Matrix: (Units=GPa)
#
#
# Indices 1 2 3 4 5 6 
#
# 1 163.5431 48.7610 75.4293 0.0000 -3.3474 0.0000
# 2 48.7610 58.3099 42.7270 0.0000 -4.3594 0.0000
# 3 75.4293 42.7270 115.8250 0.0000 -2.8740 0.0000
# 4 0.0000 0.0000 0.0000 27.1780 0.0000 -4.3578
# 5 -3.3474 -4.3594 -2.8740 0.0000 38.6745 0.0000
# 6 0.0000 0.0000 0.0000 -4.3578 0.0000 36.9518
#
#
#
# Elastic Compliance Matrix: (Units=1/GPa)
#
#
# Indices 1 2 3 4 5 6 
#
# 1 0.009604 -0.004729 -0.004511 0.000000 -0.000037 0.000000
# 2 -0.004729 0.025988 -0.006457 0.000000 0.002040 0.000000
# 3 -0.004511 -0.006457 0.013951 0.000000 -0.000081 0.000000
# 4 0.000000 0.000000 0.000000 0.037504 0.000000 0.004423
# 5 -0.000037 0.002040 -0.000081 0.000000 0.026078 0.000000
# 6 0.000000 0.000000 0.000000 0.004423 0.000000 0.027584
#
#
# Mechanical properties :
#
#
# Convention : Reuss Voigt Hill
#
# Bulk Modulus (GPa) = 55.09512 74.61252 64.85382
# Shear Modulus (GPa) = 28.06599 31.94492 30.00545
#
# Velocity S-wave (km/s) = 3.83929 4.09602 3.96973
# Velocity P-wave (km/s) = 6.97060 7.84577 7.42110
#
# Compressibility (1/GPa) = 0.01815043
#
# Stress axis : x y z
#
# Youngs Moduli (GPa) = 104.11904 38.47981 71.67757
#
# Poissons Ratio (x) = 0.18196 0.32336
# Poissons Ratio (y) = 0.49234 0.46279
# Poissons Ratio (z) = 0.46971 0.24845
#
# Static dielectric constant tensor:
#      x y z
#    x 3.559920 0.000000 0.078570 
#    y 0.000000 3.328550 0.000000 
#    z 0.078570 0.000000 3.665560 
# 
# 
# High freq. dielectric constant tensor:
#      x y z
#    x 1.748850 0.000000 0.000100 
#    y 0.000000 1.722450 0.000000 
#    z 0.000100 0.000000 1.756190 
# 
# From -- ./inp_files/313592.got.cif
#   From: 2010.06.25/outbox.cif.g09.slc.cpg/sg12_157_cif.got.tgz:313592.got - 2010.06.28 00:19:55.
