data_PCOD8099116
_publ_section_title
;
Structure prediction by ZEFSAII (Michael W. Deem and Ramdas Pophale) SiO2 
 PCOD8099116
Probable space group: C 2/M
;
_chemical_formula_sum "Si O2"
_cell_formula_units_Z 48
_cell_length_a 18.059885
_cell_length_b 8.801858
_cell_length_c 16.595863
_cell_angle_alpha 90.000000
_cell_angle_beta 93.098379
_cell_angle_gamma 90.000000
_cell_volume 2634.231042
_symmetry_space_group_name_H-M "C 2/M"
_symmetry_group_IT_number 12
_symmetry_cell_setting 'monoclinic'
loop_
_space_group_symop_operation_xyz
x,y,z
-x,y,-z
-x,-y,-z
x,-y,z
1/2+x,1/2+y,z
1/2-x,1/2+y,-z
1/2-x,1/2-y,-z
1/2+x,1/2-y,z
loop_
_atom_site_type_symbol
_atom_site_label
_atom_site_fract_x
_atom_site_fract_y
_atom_site_fract_z
Si Si1 0.173933 0.166563 0.672370
Si Si2 0.776585 0.179906 0.084168
Si Si3 0.797301 0.822657 0.766539
Si Si4 0.921721 0.832090 0.172884
Si Si5 0.971948 0.178559 0.410918
Si Si6 0.048172 0.677488 0.264040
O O1 0.240882 0.284055 0.689659
O O2 0.123604 0.156208 0.747958
O O3 0.116694 0.215968 0.598237
O O4 0.208314 0.000000 0.656077
O O5 0.725252 0.238303 0.153230
O O6 0.863215 0.226762 0.102119
O O7 0.768771 0.000000 0.081250
O O8 0.750000 0.250000 0.000000
O O9 0.878216 0.772622 0.745390
O O10 0.795204 0.000000 0.782986
O O11 0.990295 0.717576 0.188658
O O12 0.952332 0.000000 0.151950
O O13 0.000000 0.227320 0.500000
O O14 0.016254 0.277744 0.348912
O O15 0.985714 0.000000 0.394247
O O16 0.065623 0.500000 0.262112
#
# Coordination Sequence:
#
# PCOD8099116 Si02
#       6
#     8   8   8   8   8   8
#     4   8  15  30  51  74 100 130 167 208 249 298
#     4  10  20  35  55  79 106 134 167 207 251 299
#     4  11  21  34  53  75 102 136 173 210 252 301
#     4   8  16  32  52  73 100 134 168 203 247 301
#     4   9  18  34  55  77 103 135 168 205 253 306
#     4  11  21  33  52  77 104 133 170 214 254 297
#
# _framework density 18.221637000000001
#
# number of rings (size 3 to 8) (size 9 to 14) (size 15 to 20)
#    0.000    2.500    0.000    5.500    0.000    7.000 
#    0.000    1.667    0.000    5.000    0.000    0.000 
#    0.000    0.000    0.000    0.000    0.000    0.000 
#
# Total GULP energy -297478.934352 kJ/mol
# GULP energy per Si atom -12394.955598 kJ/mol
# Density = 1.818016 g / cm^3
# Si number density = 18.221637 Si / 1000 Ang^3
#
#
#
# Elastic Constant Matrix: (Units=GPa)
#
#
# Indices 1 2 3 4 5 6 
#
# 1 110.6816 38.8199 47.6207 0.0000 25.7135 0.0000
# 2 38.8199 82.8916 29.5598 0.0000 11.9248 0.0000
# 3 47.6207 29.5598 88.8834 0.0000 34.8748 0.0000
# 4 0.0000 0.0000 0.0000 25.3811 0.0000 2.2583
# 5 25.7135 11.9248 34.8748 0.0000 31.8747 0.0000
# 6 0.0000 0.0000 0.0000 2.2583 0.0000 32.1010
#
#
#
# Elastic Compliance Matrix: (Units=1/GPa)
#
#
# Indices 1 2 3 4 5 6 
#
# 1 0.013280 -0.004155 -0.003749 0.000000 -0.005057 0.000000
# 2 -0.004155 0.014988 -0.003283 0.000000 0.001336 0.000000
# 3 -0.003749 -0.003283 0.022223 0.000000 -0.020062 0.000000
# 4 0.000000 0.000000 0.000000 0.039647 0.000000 -0.002789
# 5 -0.005057 0.001336 -0.020062 0.000000 0.056902 0.000000
# 6 0.000000 0.000000 0.000000 -0.002789 0.000000 0.031348
#
#
# Mechanical properties :
#
#
# Convention : Reuss Voigt Hill
#
# Bulk Modulus (GPa) = 35.56557 57.16193 46.36375
# Shear Modulus (GPa) = 23.79427 28.96845 26.38136
#
# Velocity S-wave (km/s) = 3.61754 3.99153 3.80913
# Velocity P-wave (km/s) = 6.08354 7.25821 6.69668
#
# Compressibility (1/GPa) = 0.02811708
#
# Stress axis : x y z
#
# Youngs Moduli (GPa) = 75.30113 66.71901 44.99907
#
# Poissons Ratio (x) = 0.27721 0.16871
# Poissons Ratio (y) = 0.31287 0.14773
# Poissons Ratio (z) = 0.28231 0.21903
#
# Static dielectric constant tensor:
#      x y z
#    x 3.741930 0.000000 0.670160 
#    y 0.000000 3.368500 0.000000 
#    z 0.670160 0.000000 3.481760 
# 
# 
# High freq. dielectric constant tensor:
#      x y z
#    x 1.708270 0.000000 0.031670 
#    y 0.000000 1.706590 0.000000 
#    z 0.031670 0.000000 1.679920 
# 
# From -- ./inp_files/273645.got.cif
#   From: 2010.06.25/outbox.cif.g09.slc.cpg/sg12_137_cif.got.tgz:273645.got - 2010.06.28 00:19:55.
