data_PCOD8099926
_publ_section_title
;
Structure prediction by ZEFSAII (Michael W. Deem and Ramdas Pophale) SiO2 
 PCOD8099926
Probable space group: C 2/M
;
_chemical_formula_sum "Si O2"
_cell_formula_units_Z 56
_cell_length_a 29.927284
_cell_length_b 8.454613
_cell_length_c 21.717965
_cell_angle_alpha 90.000000
_cell_angle_beta 146.918714
_cell_angle_gamma 90.000000
_cell_volume 2999.412716
_symmetry_space_group_name_H-M "C 2/M"
_symmetry_group_IT_number 12
_symmetry_cell_setting 'monoclinic'
loop_
_space_group_symop_operation_xyz
x,y,z
-x,y,-z
-x,-y,-z
x,-y,z
1/2+x,1/2+y,z
1/2-x,1/2+y,-z
1/2-x,1/2-y,-z
1/2+x,1/2-y,z
loop_
_atom_site_type_symbol
_atom_site_label
_atom_site_fract_x
_atom_site_fract_y
_atom_site_fract_z
Si Si1 0.326939 0.817895 0.244987
Si Si2 0.255232 0.815108 0.408764
Si Si3 0.005435 0.682578 0.624834
Si Si4 0.963221 0.183625 0.207385
Si Si5 0.293230 0.184051 0.989576
Si Si6 0.838145 0.818235 0.388804
Si Si7 0.877569 0.314657 0.659720
O O1 0.419069 0.773223 0.331852
O O2 0.263617 0.709451 0.135141
O O3 0.317266 0.788322 0.306009
O O4 0.308488 0.000000 0.208099
O O5 0.273384 0.724274 0.366844
O O6 0.168880 0.753831 0.334657
O O7 0.327044 0.774730 0.539780
O O8 0.250300 0.000000 0.389874
O O9 0.979529 0.500000 0.587755
O O10 0.030050 0.712922 0.723396
O O11 0.929783 0.789837 0.518137
O O12 0.035544 0.227793 0.243915
O O13 0.966955 0.000000 0.229001
O O14 0.878091 0.224745 0.076037
O O15 0.310996 0.000000 0.019178
O O16 0.250000 0.250000 0.000000
O O17 0.828351 0.000000 0.359094
O O18 0.890624 0.500000 0.683209
#
# Coordination Sequence:
#
# PCOD8099926 Si02
#       7
#     8   8   8   8   8   8   8
#     4  11  24  41  60  82 115 156 200 242 289 344
#     4  10  20  35  57  83 117 153 191 236 290 346
#     4  11  22  37  57  83 117 156 195 238 290 344
#     4  12  23  36  59  87 119 154 193 238 290 344
#     4  12  24  40  61  85 115 152 197 244 290 338
#     4  12  24  37  57  85 120 157 196 238 289 349
#     4  10  20  35  57  85 118 151 190 237 292 344
#
# _framework density 18.670321000000001
#
# number of rings (size 3 to 8) (size 9 to 14) (size 15 to 20)
#    0.000    0.857    2.857    6.000    0.000    4.571 
#    0.000    0.000    0.000    0.857    0.000    6.000 
#    0.000    0.000    0.000    0.000    0.000    0.000 
#
# Total GULP energy -347433.733504 kJ/mol
# GULP energy per Si atom -12408.347625 kJ/mol
# Density = 1.862783 g / cm^3
# Si number density = 18.670321 Si / 1000 Ang^3
#
#
#
# Elastic Constant Matrix: (Units=GPa)
#
#
# Indices 1 2 3 4 5 6 
#
# 1 127.2111 29.6502 48.1235 0.0000 14.8962 0.0000
# 2 29.6502 66.5627 26.8904 0.0000 15.7023 0.0000
# 3 48.1235 26.8904 62.1226 0.0000 6.5923 0.0000
# 4 0.0000 0.0000 0.0000 29.5640 0.0000 0.6209
# 5 14.8962 15.7023 6.5923 0.0000 30.9497 0.0000
# 6 0.0000 0.0000 0.0000 0.6209 0.0000 30.8568
#
#
#
# Elastic Compliance Matrix: (Units=1/GPa)
#
#
# Indices 1 2 3 4 5 6 
#
# 1 0.011584 -0.001092 -0.008153 0.000000 -0.003285 0.000000
# 2 -0.001092 0.020319 -0.007071 0.000000 -0.008277 0.000000
# 3 -0.008153 -0.007071 0.025247 0.000000 0.002134 0.000000
# 4 0.000000 0.000000 0.000000 0.033839 0.000000 -0.000681
# 5 -0.003285 -0.008277 0.002134 0.000000 0.037637 0.000000
# 6 0.000000 0.000000 0.000000 -0.000681 0.000000 0.032421
#
#
# Mechanical properties :
#
#
# Convention : Reuss Voigt Hill
#
# Bulk Modulus (GPa) = 40.78431 51.69164 46.23797
# Shear Modulus (GPa) = 24.77066 28.35625 26.56346
#
# Velocity S-wave (km/s) = 3.64640 3.90139 3.77605
# Velocity P-wave (km/s) = 6.29445 6.93117 6.62047
#
# Compressibility (1/GPa) = 0.02451923
#
# Stress axis : x y z
#
# Youngs Moduli (GPa) = 86.32466 49.21495 39.60852
#
# Poissons Ratio (x) = 0.05372 0.32291
# Poissons Ratio (y) = 0.09424 0.28008
# Poissons Ratio (z) = 0.70377 0.34801
#
# Static dielectric constant tensor:
#      x y z
#    x 3.496100 0.000000 0.151560 
#    y 0.000000 3.563240 0.000000 
#    z 0.151560 0.000000 3.404050 
# 
# 
# High freq. dielectric constant tensor:
#      x y z
#    x 1.727240 0.000000 0.011480 
#    y 0.000000 1.742010 0.000000 
#    z 0.011480 0.000000 1.703250 
# 
# From -- ./inp_files/238402.got.cif
#   From: 2010.06.25/outbox.cif.g09.slc.cpg/sg12_120_cif.got.tgz:238402.got - 2010.06.28 00:19:55.
