data_PCOD8099545
_publ_section_title
;
Structure prediction by ZEFSAII (Michael W. Deem and Ramdas Pophale) SiO2 
 PCOD8099545
Probable space group: C 2/M
;
_chemical_formula_sum "Si O2"
_cell_formula_units_Z 64
_cell_length_a 31.690559
_cell_length_b 8.735669
_cell_length_c 25.476977
_cell_angle_alpha 90.000000
_cell_angle_beta 29.114455
_cell_angle_gamma 90.000000
_cell_volume 3431.678745
_symmetry_space_group_name_H-M "C 2/M"
_symmetry_group_IT_number 12
_symmetry_cell_setting 'monoclinic'
loop_
_space_group_symop_operation_xyz
x,y,z
-x,y,-z
-x,-y,-z
x,-y,z
1/2+x,1/2+y,z
1/2-x,1/2+y,-z
1/2-x,1/2-y,-z
1/2+x,1/2-y,z
loop_
_atom_site_type_symbol
_atom_site_label
_atom_site_fract_x
_atom_site_fract_y
_atom_site_fract_z
Si Si1 0.427083 0.322356 0.038575
Si Si2 0.130456 0.180634 0.482436
Si Si3 0.696750 0.322777 0.209909
Si Si4 0.393359 0.175823 0.968530
Si Si5 0.231728 0.677092 0.278970
Si Si6 0.325176 0.676130 0.451380
Si Si7 0.548858 0.180076 0.302093
Si Si8 0.981087 0.822602 0.775325
O O1 0.437665 0.500000 0.012467
O O2 0.334011 0.289755 0.165547
O O3 0.500000 0.267754 0.000000
O O4 0.439545 0.225176 0.972281
O O5 0.195132 0.221879 0.365766
O O6 0.172806 0.238346 0.491043
O O7 0.038766 0.264638 0.574174
O O8 0.112557 0.000000 0.503704
O O9 0.681192 0.500000 0.240007
O O10 0.685476 0.227138 0.275521
O O11 0.629046 0.264670 0.241278
O O12 0.791179 0.295291 0.082970
O O13 0.427541 0.280197 0.884667
O O14 0.416203 0.000000 0.932367
O O15 0.211422 0.500000 0.311515
O O16 0.302865 0.500000 0.476884
O O17 0.250000 0.750000 0.500000
O O18 0.417538 0.709660 0.323681
O O19 0.550839 0.221767 0.238666
O O20 0.559257 0.000000 0.297939
O O21 0.966400 0.000000 0.776995
#
# Coordination Sequence:
#
# PCOD8099545 Si02
#       8
#     8   8   8   8   8   8   8   8
#     4   9  19  36  56  79 110 146 181 221 271 321
#     4  10  21  38  56  78 110 145 179 218 270 323
#     4  10  21  38  57  79 110 144 177 218 270 322
#     4  10  21  36  56  82 109 141 182 224 266 315
#     4  10  20  35  56  82 109 140 182 226 265 313
#     4   9  20  36  55  79 107 141 179 219 264 316
#     4  11  22  37  58  83 108 137 179 225 267 316
#     4  10  21  38  57  79 110 145 179 218 269 322
#
# _framework density 18.649764000000001
#
# number of rings (size 3 to 8) (size 9 to 14) (size 15 to 20)
#    0.000    2.125    0.000    3.750    0.000    7.250 
#    0.000    6.250    0.000    0.000    0.000    0.000 
#    0.000    0.000    0.000    0.000    0.000    0.000 
#
# Total GULP energy -396922.120701 kJ/mol
# GULP energy per Si atom -12403.816272 kJ/mol
# Density = 1.860732 g / cm^3
# Si number density = 18.649764 Si / 1000 Ang^3
#
#
#
# Elastic Constant Matrix: (Units=GPa)
#
#
# Indices 1 2 3 4 5 6 
#
# 1 101.4445 23.3337 48.1626 0.0130 -16.7753 -0.0016
# 2 23.3337 43.9540 30.9859 0.0894 -4.7309 -0.0347
# 3 48.1626 30.9859 80.7753 0.1335 10.6049 -0.0587
# 4 0.0130 0.0894 0.1335 33.3647 -0.0332 2.4501
# 5 -16.7753 -4.7309 10.6049 -0.0332 30.2872 0.0061
# 6 -0.0016 -0.0347 -0.0587 2.4501 0.0061 36.0405
#
#
#
# Elastic Compliance Matrix: (Units=1/GPa)
#
#
# Indices 1 2 3 4 5 6 
#
# 1 0.018484 0.001368 -0.013541 0.000060 0.015193 -0.000027
# 2 0.001368 0.034129 -0.015416 -0.000019 0.011487 0.000007
# 3 -0.013541 -0.015416 0.029002 -0.000092 -0.020063 0.000042
# 4 0.000060 -0.000019 -0.000092 0.030123 0.000096 -0.002048
# 5 0.015193 0.011487 -0.020063 0.000096 0.050251 -0.000036
# 6 -0.000027 0.000007 0.000042 -0.002048 -0.000036 0.027886
#
#
# Mechanical properties :
#
#
# Convention : Reuss Voigt Hill
#
# Bulk Modulus (GPa) = 37.82502 47.90426 42.86464
# Shear Modulus (GPa) = 19.69563 28.18459 23.94011
#
# Velocity S-wave (km/s) = 3.25326 3.89171 3.58672
# Velocity P-wave (km/s) = 5.86834 6.77760 6.33929
#
# Compressibility (1/GPa) = 0.02643753
#
# Stress axis : x y z
#
# Youngs Moduli (GPa) = 54.10096 29.30093 34.48081
#
# Poissons Ratio (x) = -0.04009 0.46690
# Poissons Ratio (y) = -0.07403 0.53155
# Poissons Ratio (z) = 0.73257 0.45170
#
# Static dielectric constant tensor:
#      x y z
#    x 3.580960 0.000000 -0.021220 
#    y 0.000000 3.484890 0.000060 
#    z -0.021220 0.000060 3.392800 
# 
# 
# High freq. dielectric constant tensor:
#      x y z
#    x 1.727750 0.000000 0.000740 
#    y 0.000000 1.733910 0.000010 
#    z 0.000740 0.000010 1.723200 
# 
# From -- ./inp_files/353383.got.cif
#   From: 2010.06.25/outbox.cif.g09.slc.cpg/sg12_177_cif.got.tgz:353383.got - 2010.06.28 00:19:55.
