data_PCOD8099549
_publ_section_title
;
Structure prediction by ZEFSAII (Michael W. Deem and Ramdas Pophale) SiO2 
 PCOD8099549
Probable space group: C 2/M
;
_chemical_formula_sum "Si O2"
_cell_formula_units_Z 64
_cell_length_a 14.564712
_cell_length_b 9.093026
_cell_length_c 32.559207
_cell_angle_alpha 90.000000
_cell_angle_beta 48.347797
_cell_angle_gamma 90.000000
_cell_volume 3221.935713
_symmetry_space_group_name_H-M "C 2/M"
_symmetry_group_IT_number 12
_symmetry_cell_setting 'monoclinic'
loop_
_space_group_symop_operation_xyz
x,y,z
-x,y,-z
-x,-y,-z
x,-y,z
1/2+x,1/2+y,z
1/2-x,1/2+y,-z
1/2-x,1/2-y,-z
1/2+x,1/2-y,z
loop_
_atom_site_type_symbol
_atom_site_label
_atom_site_fract_x
_atom_site_fract_y
_atom_site_fract_z
Si Si1 0.658670 0.171531 0.057912
Si Si2 0.921336 0.828981 0.562637
Si Si3 0.309714 0.832802 0.858305
Si Si4 0.098399 0.826145 0.858533
Si Si5 0.440566 0.826863 0.639785
Si Si6 0.980268 0.164374 0.753249
Si Si7 0.359791 0.830640 0.353050
Si Si8 0.768506 0.167285 0.748848
O O1 0.715162 0.192523 0.086404
O O2 0.528327 0.249618 0.092659
O O3 0.644776 0.000000 0.050896
O O4 0.750000 0.250000 0.000000
O O5 0.969436 0.731590 0.585930
O O6 0.779986 0.792651 0.594588
O O7 0.000000 0.782012 0.500000
O O8 0.940131 0.000000 0.567946
O O9 0.187883 0.787014 0.869856
O O10 0.429125 0.739607 0.809627
O O11 0.343430 0.000000 0.838041
O O12 0.151574 0.757123 0.800575
O O13 0.080820 0.000000 0.857946
O O14 0.558503 0.784824 0.632157
O O15 0.318468 0.745743 0.692977
O O16 0.415806 0.000000 0.646680
O O17 0.874558 0.171970 0.750892
O O18 0.100539 0.244410 0.699831
O O19 0.018418 0.000000 0.753252
O O20 0.379513 0.000000 0.336715
O O21 0.729438 0.000000 0.750252
#
# Coordination Sequence:
#
# PCOD8099549 Si02
#       8
#     8   8   8   8   8   8   8   8
#     4  11  24  41  58  80 110 147 190 232 273 323
#     4  10  22  39  56  76 105 144 188 228 270 326
#     4   9  20  38  59  81 111 148 180 216 272 332
#     4  10  20  37  60  85 112 144 181 224 272 324
#     4  10  20  35  56  82 110 141 178 223 273 322
#     4   9  17  30  54  86 113 137 175 223 267 318
#     4   9  19  36  56  78 109 145 177 216 272 330
#     4   9  17  32  55  84 114 143 176 217 268 327
#
# _framework density 19.863835000000002
#
# number of rings (size 3 to 8) (size 9 to 14) (size 15 to 20)
#    0.000    2.375    0.000    1.875    0.000    7.750 
#    0.000    3.750    0.000    0.000    0.000    0.000 
#    0.000    0.000    0.000    0.000    0.000    0.000 
#
# Total GULP energy -396900.998732 kJ/mol
# GULP energy per Si atom -12403.156210 kJ/mol
# Density = 1.981862 g / cm^3
# Si number density = 19.863835 Si / 1000 Ang^3
#
#
#
# Elastic Constant Matrix: (Units=GPa)
#
#
# Indices 1 2 3 4 5 6 
#
# 1 51.4247 28.9649 26.7670 0.0003 -12.9928 0.0005
# 2 28.9649 107.1358 55.5476 0.0003 -11.3637 0.0004
# 3 26.7670 55.5476 135.0673 0.0003 -19.4760 0.0005
# 4 0.0003 0.0003 0.0003 40.7144 0.0001 1.0449
# 5 -12.9928 -11.3637 -19.4760 0.0001 30.2950 0.0001
# 6 0.0005 0.0004 0.0005 1.0449 0.0001 26.5112
#
#
#
# Elastic Compliance Matrix: (Units=1/GPa)
#
#
# Indices 1 2 3 4 5 6 
#
# 1 0.025186 -0.005057 -0.001794 0.000000 0.007752 0.000000
# 2 -0.005057 0.012937 -0.004333 0.000000 -0.000102 0.000000
# 3 -0.001794 -0.004333 0.010135 0.000000 0.004121 0.000000
# 4 0.000000 0.000000 0.000000 0.024586 0.000000 -0.000969
# 5 0.007752 -0.000102 0.004121 0.000000 0.038945 0.000000
# 6 0.000000 0.000000 0.000000 -0.000969 0.000000 0.037758
#
#
# Mechanical properties :
#
#
# Convention : Reuss Voigt Hill
#
# Bulk Modulus (GPa) = 38.62309 57.35407 47.98858
# Shear Modulus (GPa) = 27.69382 31.66067 29.67724
#
# Velocity S-wave (km/s) = 3.73793 3.99668 3.86947
# Velocity P-wave (km/s) = 6.17378 7.08761 6.64642
#
# Compressibility (1/GPa) = 0.02589125
#
# Stress axis : x y z
#
# Youngs Moduli (GPa) = 39.70382 77.29842 98.66406
#
# Poissons Ratio (x) = 0.39090 0.17698
# Poissons Ratio (y) = 0.20078 0.42750
# Poissons Ratio (z) = 0.07122 0.33493
#
# Static dielectric constant tensor:
#      x y z
#    x 3.817740 0.000000 -0.346780 
#    y 0.000000 3.711630 0.000000 
#    z -0.346780 0.000000 4.057220 
# 
# 
# High freq. dielectric constant tensor:
#      x y z
#    x 1.771610 0.000000 0.000050 
#    y 0.000000 1.780770 0.000000 
#    z 0.000050 0.000000 1.772160 
# 
# From -- ./inp_files/359941.got.cif
#   From: 2010.06.25/outbox.cif.g09.slc.cpg/sg12_180_cif.got.tgz:359941.got - 2010.06.28 00:19:55.
