data_PCOD8099703
_publ_section_title
;
Structure prediction by ZEFSAII (Michael W. Deem and Ramdas Pophale) SiO2 
 PCOD8099703
Probable space group: C 2/M
;
_chemical_formula_sum "Si O2"
_cell_formula_units_Z 56
_cell_length_a 20.473321
_cell_length_b 8.870315
_cell_length_c 28.518825
_cell_angle_alpha 90.000000
_cell_angle_beta 148.056053
_cell_angle_gamma 90.000000
_cell_volume 2740.236157
_symmetry_space_group_name_H-M "C 2/M"
_symmetry_group_IT_number 12
_symmetry_cell_setting 'monoclinic'
loop_
_space_group_symop_operation_xyz
x,y,z
-x,y,-z
-x,-y,-z
x,-y,z
1/2+x,1/2+y,z
1/2-x,1/2+y,-z
1/2-x,1/2-y,-z
1/2+x,1/2-y,z
loop_
_atom_site_type_symbol
_atom_site_label
_atom_site_fract_x
_atom_site_fract_y
_atom_site_fract_z
Si Si1 0.195785 0.677603 0.227481
Si Si2 0.223572 0.328635 0.550735
Si Si3 0.863609 0.673553 0.402501
Si Si4 0.438115 0.174773 0.113314
Si Si5 0.221167 0.825530 0.909351
Si Si6 0.051989 0.173900 0.376130
Si Si7 0.796314 0.677559 0.200370
O O1 0.196356 0.500000 0.220598
O O2 0.315068 0.725996 0.330242
O O3 0.200343 0.753953 0.179309
O O4 0.071996 0.731887 0.178347
O O5 0.184325 0.500000 0.514532
O O6 0.226624 0.302604 0.608192
O O7 0.123644 0.217493 0.467087
O O8 0.360019 0.294464 0.614794
O O9 0.866289 0.500000 0.387503
O O10 0.000000 0.727493 0.500000
O O11 0.398232 0.267524 0.134894
O O12 0.440095 0.000000 0.128559
O O13 0.344081 0.205052 0.013740
O O14 0.238199 0.737415 0.871655
O O15 0.200090 0.000000 0.885117
O O16 0.933971 0.277358 0.298479
O O17 0.011145 0.000000 0.354178
O O18 0.783194 0.500000 0.192729
#
# Coordination Sequence:
#
# PCOD8099703 Si02
#       7
#     8   8   8   8   8   8   8
#     4  11  24  41  62  90 123 158 203 252 304 363
#     4   9  19  35  55  82 116 157 199 246 301 358
#     4  10  21  37  57  83 119 161 202 245 298 354
#     4   9  21  42  65  94 126 157 196 247 304 364
#     4  10  21  40  67  93 123 160 199 246 301 362
#     4  10  20  35  56  84 117 154 202 250 301 358
#     4  12  25  40  59  86 122 161 203 251 305 358
#
# _framework density 20.436194
#
# number of rings (size 3 to 8) (size 9 to 14) (size 15 to 20)
#    0.000    1.857    0.000    3.429    2.000    4.857 
#    0.000    2.857    0.000    0.000    0.000    0.000 
#    0.000    0.000    0.000    0.000    0.000    0.000 
#
# Total GULP energy -347347.226236 kJ/mol
# GULP energy per Si atom -12405.258080 kJ/mol
# Density = 2.038968 g / cm^3
# Si number density = 20.436194 Si / 1000 Ang^3
#
#
#
# Elastic Constant Matrix: (Units=GPa)
#
#
# Indices 1 2 3 4 5 6 
#
# 1 120.1907 55.7054 45.6399 -0.0001 -5.0851 0.0000
# 2 55.7054 104.9948 38.3065 -0.0001 -4.3127 0.0002
# 3 45.6399 38.3065 65.3866 0.0006 5.2330 0.0001
# 4 -0.0001 -0.0001 0.0006 34.0164 0.0001 -3.2696
# 5 -5.0851 -4.3127 5.2330 0.0001 30.6185 0.0000
# 6 0.0000 0.0002 0.0001 -3.2696 0.0000 35.2733
#
#
#
# Elastic Compliance Matrix: (Units=1/GPa)
#
#
# Indices 1 2 3 4 5 6 
#
# 1 0.013006 -0.004322 -0.006763 0.000000 0.002707 0.000000
# 2 -0.004322 0.013820 -0.005250 0.000000 0.002126 0.000000
# 3 -0.006763 -0.005250 0.023561 0.000000 -0.005889 0.000000
# 4 0.000000 0.000000 0.000000 0.029662 0.000000 0.002749
# 5 0.002707 0.002126 -0.005889 0.000000 0.034416 0.000000
# 6 0.000000 0.000000 0.000000 0.002749 0.000000 0.028605
#
#
# Mechanical properties :
#
#
# Convention : Reuss Voigt Hill
#
# Bulk Modulus (GPa) = 56.44032 63.31952 59.87992
# Shear Modulus (GPa) = 27.52641 30.04300 28.78471
#
# Velocity S-wave (km/s) = 3.67406 3.83833 3.75709
# Velocity P-wave (km/s) = 6.75840 7.12004 6.94158
#
# Compressibility (1/GPa) = 0.01771783
#
# Stress axis : x y z
#
# Youngs Moduli (GPa) = 76.88975 72.35948 42.44286
#
# Poissons Ratio (x) = 0.31271 0.28703
# Poissons Ratio (y) = 0.33229 0.22282
# Poissons Ratio (z) = 0.51999 0.37989
#
# Static dielectric constant tensor:
#      x y z
#    x 3.982850 0.000000 0.074420 
#    y 0.000000 3.671780 0.000000 
#    z 0.074420 0.000000 3.552670 
# 
# 
# High freq. dielectric constant tensor:
#      x y z
#    x 1.815530 0.000000 0.002010 
#    y 0.000000 1.799120 0.000000 
#    z 0.002010 0.000000 1.788400 
# 
# From -- ./inp_files/380787.got.cif
#   From: 2010.06.25/outbox.cif.g09.slc.cpg/sg12_191_cif.got.tgz:380787.got - 2010.06.28 00:19:55.
