data_PCOD8099206
_publ_section_title
;
Structure prediction by ZEFSAII (Michael W. Deem and Ramdas Pophale) SiO2 
 PCOD8099206
Probable space group: C 2/M
;
_chemical_formula_sum "Si O2"
_cell_formula_units_Z 48
_cell_length_a 17.810780
_cell_length_b 8.855056
_cell_length_c 15.412572
_cell_angle_alpha 90.000000
_cell_angle_beta 89.989288
_cell_angle_gamma 90.000000
_cell_volume 2430.800752
_symmetry_space_group_name_H-M "C 2/M"
_symmetry_group_IT_number 12
_symmetry_cell_setting 'monoclinic'
loop_
_space_group_symop_operation_xyz
x,y,z
-x,y,-z
-x,-y,-z
x,-y,z
1/2+x,1/2+y,z
1/2-x,1/2+y,-z
1/2-x,1/2-y,-z
1/2+x,1/2-y,z
loop_
_atom_site_type_symbol
_atom_site_label
_atom_site_fract_x
_atom_site_fract_y
_atom_site_fract_z
Si Si1 0.915807 0.320835 0.988064
Si Si2 0.832754 0.320786 0.157432
Si Si3 0.083947 0.321742 0.671107
Si Si4 0.836027 0.824469 0.828498
Si Si5 0.669378 0.677794 0.512300
Si Si6 0.425184 0.325479 0.655393
O O1 0.914193 0.500000 0.987225
O O2 0.885949 0.263341 0.897023
O O3 0.865851 0.256472 0.067332
O O4 0.000000 0.260099 0.000000
O O5 0.832413 0.500000 0.156083
O O6 0.884618 0.265005 0.236422
O O7 0.748422 0.259202 0.169184
O O8 0.093612 0.500000 0.659079
O O9 0.131732 0.238641 0.598675
O O10 0.997107 0.279494 0.665688
O O11 0.867984 0.794202 0.733305
O O12 0.837394 0.000000 0.852766
O O13 0.679683 0.500000 0.518680
O O14 0.750000 0.750000 0.500000
O O15 0.616363 0.722382 0.432277
O O16 0.450744 0.500000 0.652711
#
# Coordination Sequence:
#
# PCOD8099206 Si02
#       6
#     8   8   8   8   8   8
#     4  10  20  35  55  80 111 145 182 228 281 334
#     4   9  19  36  56  79 111 149 184 225 283 341
#     4  11  22  38  61  86 113 148 190 233 280 337
#     4  10  20  36  57  79 107 145 187 229 276 333
#     4  11  23  40  61  85 116 152 189 231 281 335
#     4  10  22  39  57  80 114 152 187 231 288 340
#
# _framework density 19.746580000000002
#
# number of rings (size 3 to 8) (size 9 to 14) (size 15 to 20)
#    0.000    1.833    0.000    4.000    0.000    8.333 
#    0.000    5.000    0.000    0.000    0.000    0.000 
#    0.000    0.000    0.000    0.000    0.000    0.000 
#
# Total GULP energy -297705.378755 kJ/mol
# GULP energy per Si atom -12404.390781 kJ/mol
# Density = 1.970164 g / cm^3
# Si number density = 19.746580 Si / 1000 Ang^3
#
#
#
# Elastic Constant Matrix: (Units=GPa)
#
#
# Indices 1 2 3 4 5 6 
#
# 1 98.5436 26.2575 -6.6281 0.0000 1.1454 0.0000
# 2 26.2575 35.3447 16.3266 0.0000 7.5388 0.0000
# 3 -6.6281 16.3266 68.2632 0.0000 4.0002 0.0000
# 4 0.0000 0.0000 0.0000 28.3598 0.0000 1.3455
# 5 1.1454 7.5388 4.0002 0.0000 42.1916 0.0000
# 6 0.0000 0.0000 0.0000 1.3455 0.0000 31.5050
#
#
#
# Elastic Compliance Matrix: (Units=1/GPa)
#
#
# Indices 1 2 3 4 5 6 
#
# 1 0.013738 -0.012471 0.004231 0.000000 0.001454 0.000000
# 2 -0.012471 0.044208 -0.011404 0.000000 -0.006479 0.000000
# 3 0.004231 -0.011404 0.017774 0.000000 0.000238 0.000000
# 4 0.000000 0.000000 0.000000 0.035333 0.000000 -0.001509
# 5 0.001454 -0.006479 0.000238 0.000000 0.024797 0.000000
# 6 0.000000 0.000000 0.000000 -0.001509 0.000000 0.031805
#
#
# Mechanical properties :
#
#
# Convention : Reuss Voigt Hill
#
# Bulk Modulus (GPa) = 27.44864 30.45151 28.95007
# Shear Modulus (GPa) = 22.82198 31.49096 27.15647
#
# Velocity S-wave (km/s) = 3.40331 3.99777 3.71246
# Velocity P-wave (km/s) = 5.41978 6.06335 5.75057
#
# Compressibility (1/GPa) = 0.03643168
#
# Stress axis : x y z
#
# Youngs Moduli (GPa) = 72.78815 22.62058 56.26288
#
# Poissons Ratio (x) = 0.28210 -0.23807
# Poissons Ratio (y) = 0.90775 0.64164
# Poissons Ratio (z) = -0.30800 0.25797
#
# Static dielectric constant tensor:
#      x y z
#    x 3.619750 0.000000 0.041300 
#    y 0.000000 3.377270 0.000000 
#    z 0.041300 0.000000 3.763200 
# 
# 
# High freq. dielectric constant tensor:
#      x y z
#    x 1.788620 0.000000 -0.002180 
#    y 0.000000 1.748750 0.000000 
#    z -0.002180 0.000000 1.789120 
# 
# From -- ./inp_files/221592.got.cif
#   From: 2010.06.25/outbox.cif.g09.slc.cpg/sg12_111_cif.got.tgz:221592.got - 2010.06.28 00:19:55.
