data_PCOD8099235
_publ_section_title
;
Structure prediction by ZEFSAII (Michael W. Deem and Ramdas Pophale) SiO2 
 PCOD8099235
Probable space group: C 2/M
;
_chemical_formula_sum "Si O2"
_cell_formula_units_Z 56
_cell_length_a 29.714320
_cell_length_b 15.003661
_cell_length_c 8.454025
_cell_angle_alpha 90.000000
_cell_angle_beta 47.909141
_cell_angle_gamma 90.000000
_cell_volume 2796.912807
_symmetry_space_group_name_H-M "C 2/M"
_symmetry_group_IT_number 12
_symmetry_cell_setting 'monoclinic'
loop_
_space_group_symop_operation_xyz
x,y,z
-x,y,-z
-x,-y,-z
x,-y,z
1/2+x,1/2+y,z
1/2-x,1/2+y,-z
1/2-x,1/2-y,-z
1/2+x,1/2-y,z
loop_
_atom_site_type_symbol
_atom_site_label
_atom_site_fract_x
_atom_site_fract_y
_atom_site_fract_z
Si Si1 0.554649 0.598407 0.168392
Si Si2 0.563426 0.096753 0.425011
Si Si3 0.340106 0.810873 0.030067
Si Si4 0.643561 0.346825 0.216233
Si Si5 0.213949 0.099195 0.334307
Si Si6 0.876665 0.200008 0.233221
Si Si7 0.550079 0.261214 0.653761
O O1 0.524446 0.500000 0.219854
O O2 0.591804 0.597394 0.245567
O O3 0.506083 0.678820 0.276721
O O4 0.603103 0.613997 0.915466
O O5 0.500000 0.075220 0.500000
O O6 0.546327 0.157436 0.617034
O O7 0.591780 0.000000 0.409376
O O8 0.605334 0.144749 0.195774
O O9 0.284583 0.877827 0.169578
O O10 0.360327 0.784040 0.160142
O O11 0.320974 0.719169 0.986682
O O12 0.691995 0.404241 0.201779
O O13 0.611219 0.291861 0.427965
O O14 0.179788 0.170231 0.526294
O O15 0.205584 0.000000 0.423541
O O16 0.936737 0.228999 0.190647
#
# Coordination Sequence:
#
# PCOD8099235 Si02
#       7
#     8   8   8   8   8   8   8
#     4  11  21  34  55  84 118 153 187 223 271 334
#     4  10  20  37  60  83 106 136 182 239 290 334
#     4  10  20  38  59  78 105 147 187 227 279 337
#     4   9  20  35  54  79 110 144 185 232 279 324
#     4  11  21  35  55  80 109 144 190 234 276 330
#     4  10  22  36  53  78 115 151 185 225 277 330
#     4  10  20  35  55  81 112 148 183 226 279 335
#
# _framework density 20.022076999999999
#
# number of rings (size 3 to 8) (size 9 to 14) (size 15 to 20)
#    0.000    1.857    0.000    5.571    0.000    4.571 
#    0.000    1.429    0.000    3.429    0.000    0.000 
#    0.000    0.000    0.000    0.000    0.000    0.000 
#
# Total GULP energy -346914.443248 kJ/mol
# GULP energy per Si atom -12389.801545 kJ/mol
# Density = 1.997651 g / cm^3
# Si number density = 20.022077 Si / 1000 Ang^3
#
#
#
# Elastic Constant Matrix: (Units=GPa)
#
#
# Indices 1 2 3 4 5 6 
#
# 1 120.8854 52.3953 36.8319 0.0000 10.1533 0.0000
# 2 52.3953 136.8016 29.3891 0.0000 4.3442 0.0000
# 3 36.8319 29.3891 68.1561 0.0000 -2.2617 0.0000
# 4 0.0000 0.0000 0.0000 24.8780 0.0000 -1.1118
# 5 10.1533 4.3442 -2.2617 0.0000 29.6324 0.0000
# 6 0.0000 0.0000 0.0000 -1.1118 0.0000 15.2646
#
#
#
# Elastic Compliance Matrix: (Units=1/GPa)
#
#
# Indices 1 2 3 4 5 6 
#
# 1 0.011500 -0.003218 -0.004955 0.000000 -0.003847 0.000000
# 2 -0.003218 0.009019 -0.002163 0.000000 -0.000385 0.000000
# 3 -0.004955 -0.002163 0.018396 0.000000 0.003419 0.000000
# 4 0.000000 0.000000 0.000000 0.040327 0.000000 0.002937
# 5 -0.003847 -0.000385 0.003419 0.000000 0.035382 0.000000
# 6 0.000000 0.000000 0.000000 0.002937 0.000000 0.065725
#
#
# Mechanical properties :
#
#
# Convention : Reuss Voigt Hill
#
# Bulk Modulus (GPa) = 54.81272 62.56395 58.68834
# Shear Modulus (GPa) = 24.14276 27.77011 25.95644
#
# Velocity S-wave (km/s) = 3.47624 3.72825 3.60445
# Velocity P-wave (km/s) = 6.59908 7.06034 6.83361
#
# Compressibility (1/GPa) = 0.01824394
#
# Stress axis : x y z
#
# Youngs Moduli (GPa) = 86.95892 110.87476 54.36028
#
# Poissons Ratio (x) = 0.35678 0.26933
# Poissons Ratio (y) = 0.27982 0.11758
# Poissons Ratio (z) = 0.43084 0.23981
#
# Static dielectric constant tensor:
#      x y z
#    x 3.838290 0.000000 0.275800 
#    y 0.000000 3.685560 0.000000 
#    z 0.275800 0.000000 3.637770 
# 
# 
# High freq. dielectric constant tensor:
#      x y z
#    x 1.777250 0.000000 0.004710 
#    y 0.000000 1.773900 0.000000 
#    z 0.004710 0.000000 1.779600 
# 
# From -- ./inp_files/104424.got.cif
#   From: 2010.06.25/outbox.cif.g09.slc.cpg/sg12_53_cif.got.tgz:104424.got - 2010.06.28 00:19:55.
