data_PCOD8099232
_publ_section_title
;
Structure prediction by ZEFSAII (Michael W. Deem and Ramdas Pophale) SiO2 
 PCOD8099232
Probable space group: C 2/M
;
_chemical_formula_sum "Si O2"
_cell_formula_units_Z 64
_cell_length_a 24.008135
_cell_length_b 8.940571
_cell_length_c 21.734108
_cell_angle_alpha 90.000000
_cell_angle_beta 133.387503
_cell_angle_gamma 90.000000
_cell_volume 3390.278017
_symmetry_space_group_name_H-M "C 2/M"
_symmetry_group_IT_number 12
_symmetry_cell_setting 'monoclinic'
loop_
_space_group_symop_operation_xyz
x,y,z
-x,y,-z
-x,-y,-z
x,-y,z
1/2+x,1/2+y,z
1/2-x,1/2+y,-z
1/2-x,1/2-y,-z
1/2+x,1/2-y,z
loop_
_atom_site_type_symbol
_atom_site_label
_atom_site_fract_x
_atom_site_fract_y
_atom_site_fract_z
Si Si1 0.455482 0.827927 0.905310
Si Si2 0.052457 0.177126 0.881997
Si Si3 0.135273 0.823670 0.430161
Si Si4 0.532156 0.322081 0.726807
Si Si5 0.314240 0.677297 0.216043
Si Si6 0.791557 0.322197 0.974325
Si Si7 0.215957 0.327715 0.252763
Si Si8 0.742831 0.324681 0.400117
O O1 0.478310 0.725568 0.864541
O O2 0.364211 0.809279 0.844559
O O3 0.477307 0.000000 0.908209
O O4 0.500000 0.772028 0.000000
O O5 0.043743 0.234039 0.805362
O O6 0.064031 0.000000 0.893374
O O7 0.123172 0.260454 0.967364
O O8 0.176284 0.748615 0.519620
O O9 0.177620 0.777085 0.399259
O O10 0.048410 0.762150 0.360774
O O11 0.137488 0.000000 0.441640
O O12 0.531207 0.500000 0.726682
O O13 0.600854 0.259879 0.735613
O O14 0.316729 0.500000 0.216239
O O15 0.254217 0.733430 0.119968
O O16 0.284458 0.730465 0.260232
O O17 0.792028 0.500000 0.981362
O O18 0.750000 0.250000 0.000000
O O19 0.228818 0.500000 0.281058
O O20 0.215993 0.229476 0.313563
O O21 0.754669 0.500000 0.407541
#
# Coordination Sequence:
#
# PCOD8099232 Si02
#       8
#     8   8   8   8   8   8   8   8
#     4  10  21  37  54  77 109 145 183 226 272 321
#     4  11  21  34  54  81 110 142 181 228 279 327
#     4   9  18  34  58  82 104 134 174 219 268 326
#     4   9  17  32  54  80 106 133 174 226 273 315
#     4   9  18  34  55  77 105 143 184 226 265 314
#     4  11  20  34  54  78 110 147 187 229 272 320
#     4  10  20  35  57  79 104 144 188 219 259 324
#     4  10  20  35  55  81 111 139 169 216 275 326
#
# _framework density 18.877507999999999
#
# number of rings (size 3 to 8) (size 9 to 14) (size 15 to 20)
#    0.000    2.125    1.250    2.625    0.000    4.250 
#    0.000    4.375    0.000    3.750    0.000    0.000 
#    0.000    0.000    0.000    0.000    0.000    0.000 
#
# Total GULP energy -396816.621074 kJ/mol
# GULP energy per Si atom -12400.519409 kJ/mol
# Density = 1.883454 g / cm^3
# Si number density = 18.877508 Si / 1000 Ang^3
#
#
#
# Elastic Constant Matrix: (Units=GPa)
#
#
# Indices 1 2 3 4 5 6 
#
# 1 112.6560 22.2494 48.2442 0.0000 9.3153 0.0000
# 2 22.2494 40.8150 24.3250 0.0000 2.4487 0.0000
# 3 48.2442 24.3250 118.0067 0.0000 12.8728 0.0000
# 4 0.0000 0.0000 0.0000 27.9018 0.0000 -1.6410
# 5 9.3153 2.4487 12.8728 0.0000 34.7815 0.0000
# 6 0.0000 0.0000 0.0000 -1.6410 0.0000 25.3681
#
#
#
# Elastic Compliance Matrix: (Units=1/GPa)
#
#
# Indices 1 2 3 4 5 6 
#
# 1 0.011339 -0.003905 -0.003678 0.000000 -0.001401 0.000000
# 2 -0.003905 0.029278 -0.004510 0.000000 0.000654 0.000000
# 3 -0.003678 -0.004510 0.011218 0.000000 -0.002849 0.000000
# 4 0.000000 0.000000 0.000000 0.035977 0.000000 0.002327
# 5 -0.001401 0.000654 -0.002849 0.000000 0.030135 0.000000
# 6 0.000000 0.000000 0.000000 0.002327 0.000000 0.039570
#
#
# Mechanical properties :
#
#
# Convention : Reuss Voigt Hill
#
# Bulk Modulus (GPa) = 36.16730 51.23499 43.70114
# Shear Modulus (GPa) = 26.18914 29.38754 27.78834
#
# Velocity S-wave (km/s) = 3.72872 3.94985 3.84087
# Velocity P-wave (km/s) = 6.14315 6.92830 6.54751
#
# Compressibility (1/GPa) = 0.02764929
#
# Stress axis : x y z
#
# Youngs Moduli (GPa) = 88.19414 34.15504 89.14135
#
# Poissons Ratio (x) = 0.13338 0.32784
# Poissons Ratio (y) = 0.34441 0.40203
# Poissons Ratio (z) = 0.32436 0.15404
#
# Static dielectric constant tensor:
#      x y z
#    x 3.542740 0.000000 0.225850 
#    y 0.000000 3.220940 0.000000 
#    z 0.225850 0.000000 3.596500 
# 
# 
# High freq. dielectric constant tensor:
#      x y z
#    x 1.738430 0.000000 0.007180 
#    y 0.000000 1.706930 0.000000 
#    z 0.007180 0.000000 1.732250 
# 
# From -- ./inp_files/324329.got.cif
#   From: 2010.06.25/outbox.cif.g09.slc.cpg/sg12_163_cif.got.tgz:324329.got - 2010.06.28 00:19:55.
