data_PCOD8099041
_publ_section_title
;
Structure prediction by ZEFSAII (Michael W. Deem and Ramdas Pophale) SiO2 
 PCOD8099041
Probable space group: C 2/M
;
_chemical_formula_sum "Si O2"
_cell_formula_units_Z 64
_cell_length_a 15.137843
_cell_length_b 9.269678
_cell_length_c 23.845562
_cell_angle_alpha 90.000000
_cell_angle_beta 87.820158
_cell_angle_gamma 90.000000
_cell_volume 3343.657777
_symmetry_space_group_name_H-M "C 2/M"
_symmetry_group_IT_number 12
_symmetry_cell_setting 'monoclinic'
loop_
_space_group_symop_operation_xyz
x,y,z
-x,y,-z
-x,-y,-z
x,-y,z
1/2+x,1/2+y,z
1/2-x,1/2+y,-z
1/2-x,1/2-y,-z
1/2+x,1/2-y,z
loop_
_atom_site_type_symbol
_atom_site_label
_atom_site_fract_x
_atom_site_fract_y
_atom_site_fract_z
Si Si1 0.862492 0.841007 0.541545
Si Si2 0.654311 0.160665 0.559862
Si Si3 0.346212 0.831383 0.939077
Si Si4 0.510982 0.170542 0.862415
Si Si5 0.139001 0.829787 0.334157
Si Si6 0.985383 0.834212 0.252630
Si Si7 0.681397 0.668546 0.668586
Si Si8 0.172776 0.331209 0.932817
O O1 0.757063 0.849494 0.543811
O O2 0.895925 0.733197 0.492056
O O3 0.892802 0.786045 0.602307
O O4 0.901603 0.000000 0.528276
O O5 0.639102 0.258845 0.614657
O O6 0.615559 0.000000 0.570652
O O7 0.430746 0.776368 0.903116
O O8 0.262183 0.750785 0.915419
O O9 0.330430 0.000000 0.931450
O O10 0.360375 0.791952 0.003917
O O11 0.502563 0.238580 0.802038
O O12 0.600286 0.222574 0.890364
O O13 0.509620 0.000000 0.855866
O O14 0.227138 0.742992 0.314935
O O15 0.060378 0.786094 0.294774
O O16 0.161648 0.000000 0.332025
O O17 0.888139 0.808911 0.279826
O O18 0.999044 0.000000 0.235767
O O19 0.697741 0.500000 0.655614
O O20 0.190761 0.500000 0.926937
#
# Coordination Sequence:
#
# PCOD8099041 Si02
#       8
#     8   8   8   8   8   8   8   8
#     4   8  14  26  47  73  98 127 167 211 256 311
#     4   9  16  27  47  75 104 133 166 207 259 317
#     4   9  18  34  56  82 111 141 175 215 258 307
#     4  10  21  36  55  78 106 142 179 216 260 308
#     4   9  19  37  57  75 100 137 176 215 262 313
#     4  10  23  40  55  75 105 140 180 222 261 307
#     4  10  20  35  55  77 102 135 174 217 264 311
#     4   9  18  34  56  82 111 142 175 212 258 311
#
# _framework density 19.140716000000001
#
# number of rings (size 3 to 8) (size 9 to 14) (size 15 to 20)
#    0.000    2.750    0.000    1.875    0.000    8.000 
#    0.000    5.625    0.000    7.500    0.000    0.000 
#    0.000    0.000    0.000    0.000    0.000    0.000 
#
# Total GULP energy -396794.916696 kJ/mol
# GULP energy per Si atom -12399.841147 kJ/mol
# Density = 1.909715 g / cm^3
# Si number density = 19.140716 Si / 1000 Ang^3
#
#
#
# Elastic Constant Matrix: (Units=GPa)
#
#
# Indices 1 2 3 4 5 6 
#
# 1 76.5961 33.3124 38.3471 0.0000 22.0113 0.0000
# 2 33.3124 66.7086 35.8799 0.0000 6.1537 0.0000
# 3 38.3471 35.8799 90.7183 0.0000 24.9272 0.0000
# 4 0.0000 0.0000 0.0000 35.7560 0.0000 1.2672
# 5 22.0113 6.1537 24.9272 0.0000 22.6259 0.0000
# 6 0.0000 0.0000 0.0000 1.2672 0.0000 25.9593
#
#
#
# Elastic Compliance Matrix: (Units=1/GPa)
#
#
# Indices 1 2 3 4 5 6 
#
# 1 0.022919 -0.009248 -0.000853 0.000000 -0.018841 0.000000
# 2 -0.009248 0.023094 -0.008563 0.000000 0.012150 0.000000
# 3 -0.000853 -0.008563 0.019938 0.000000 -0.018807 0.000000
# 4 0.000000 0.000000 0.000000 0.028016 0.000000 -0.001368
# 5 -0.018841 0.012150 -0.018807 0.000000 0.079942 0.000000
# 6 0.000000 0.000000 0.000000 -0.001368 0.000000 0.038589
#
#
# Mechanical properties :
#
#
# Convention : Reuss Voigt Hill
#
# Bulk Modulus (GPa) = 34.93771 49.90020 42.41895
# Shear Modulus (GPa) = 19.27769 25.30050 22.28909
#
# Velocity S-wave (km/s) = 3.17702 3.63962 3.41616
# Velocity P-wave (km/s) = 5.63477 6.61734 6.14572
#
# Compressibility (1/GPa) = 0.02862237
#
# Stress axis : x y z
#
# Youngs Moduli (GPa) = 43.63164 43.30176 50.15478
#
# Poissons Ratio (x) = 0.40046 0.04279
# Poissons Ratio (y) = 0.40351 0.42948
# Poissons Ratio (z) = 0.03723 0.37079
#
# Static dielectric constant tensor:
#      x y z
#    x 3.398930 0.000000 0.083010 
#    y 0.000000 3.542750 0.000000 
#    z 0.083010 0.000000 3.504130 
# 
# 
# High freq. dielectric constant tensor:
#      x y z
#    x 1.735170 0.000000 0.004790 
#    y 0.000000 1.741050 0.000000 
#    z 0.004790 0.000000 1.742180 
# 
# From -- ./inp_files/338890.got.cif
#   From: 2010.06.25/outbox.cif.g09.slc.cpg/sg12_170_cif.got.tgz:338890.got - 2010.06.28 00:19:55.
