data_PCOD8099853
_publ_section_title
;
Structure prediction by ZEFSAII (Michael W. Deem and Ramdas Pophale) SiO2 
 PCOD8099853
Probable space group: C 2/M
;
_chemical_formula_sum "Si O2"
_cell_formula_units_Z 56
_cell_length_a 18.708031
_cell_length_b 9.040965
_cell_length_c 26.164581
_cell_angle_alpha 90.000000
_cell_angle_beta 137.113306
_cell_angle_gamma 90.000000
_cell_volume 3011.737782
_symmetry_space_group_name_H-M "C 2/M"
_symmetry_group_IT_number 12
_symmetry_cell_setting 'monoclinic'
loop_
_space_group_symop_operation_xyz
x,y,z
-x,y,-z
-x,-y,-z
x,-y,z
1/2+x,1/2+y,z
1/2-x,1/2+y,-z
1/2-x,1/2-y,-z
1/2+x,1/2-y,z
loop_
_atom_site_type_symbol
_atom_site_label
_atom_site_fract_x
_atom_site_fract_y
_atom_site_fract_z
Si Si1 0.593766 0.329463 0.410248
Si Si2 0.984811 0.172029 0.164334
Si Si3 0.718211 0.675893 0.299537
Si Si4 0.302855 0.673474 0.142960
Si Si5 0.245449 0.328035 0.417256
Si Si6 0.147716 0.827969 0.715299
Si Si7 0.325884 0.672538 0.000081
O O1 0.605185 0.500000 0.399485
O O2 0.654480 0.296881 0.494532
O O3 0.639968 0.231974 0.388569
O O4 0.473634 0.285960 0.355734
O O5 0.903548 0.236123 0.164056
O O6 0.100244 0.241899 0.231017
O O7 0.995251 0.000000 0.181242
O O8 0.943238 0.199237 0.084256
O O9 0.720265 0.500000 0.303605
O O10 0.768252 0.742537 0.376933
O O11 0.786022 0.726536 0.287238
O O12 0.289994 0.500000 0.126637
O O13 0.316842 0.712544 0.209148
O O14 0.195957 0.753157 0.066597
O O15 0.230726 0.500000 0.397937
O O16 0.167120 0.000000 0.713180
O O17 0.300242 0.500000 0.983292
O O18 0.250000 0.750000 0.000000
#
# Coordination Sequence:
#
# PCOD8099853 Si02
#       7
#     8   8   8   8   8   8   8
#     4   9  19  37  59  79 103 137 171 207 256 311
#     4   8  16  32  53  74  97 132 172 207 250 306
#     4  11  22  36  53  74 105 142 178 213 254 304
#     4   9  17  32  54  76  99 129 168 213 259 305
#     4  10  20  35  57  83 106 130 169 216 258 304
#     4  10  21  37  54  74 105 142 176 210 254 308
#     4   9  16  29  50  75 101 128 165 210 255 304
#
# _framework density 18.593917000000001
#
# number of rings (size 3 to 8) (size 9 to 14) (size 15 to 20)
#    0.000    2.571    0.000    3.000    0.000    4.571 
#    0.000   13.571    0.000    4.286    0.000    0.000 
#    0.000    0.000    0.000    0.000    0.000    0.000 
#
# Total GULP energy -347130.742286 kJ/mol
# GULP energy per Si atom -12397.526510 kJ/mol
# Density = 1.855160 g / cm^3
# Si number density = 18.593917 Si / 1000 Ang^3
#
#
#
# Elastic Constant Matrix: (Units=GPa)
#
#
# Indices 1 2 3 4 5 6 
#
# 1 88.6184 43.7364 56.2672 0.0000 -19.0051 0.0000
# 2 43.7364 74.8259 53.2170 0.0000 -11.1674 0.0000
# 3 56.2672 53.2170 116.3382 0.0000 -18.0904 0.0000
# 4 0.0000 0.0000 0.0000 31.0534 0.0000 -4.4732
# 5 -19.0051 -11.1674 -18.0904 0.0000 15.6695 0.0000
# 6 0.0000 0.0000 0.0000 -4.4732 0.0000 30.4210
#
#
#
# Elastic Compliance Matrix: (Units=1/GPa)
#
#
# Indices 1 2 3 4 5 6 
#
# 1 0.020711 -0.006521 -0.004693 0.000000 0.015054 0.000000
# 2 -0.006521 0.022121 -0.007000 0.000000 -0.000226 0.000000
# 3 -0.004693 -0.007000 0.015121 0.000000 0.006777 0.000000
# 4 0.000000 0.000000 0.000000 0.032899 0.000000 0.004838
# 5 0.015054 -0.000226 0.006777 0.000000 0.089740 0.000000
# 6 0.000000 0.000000 0.000000 0.004838 0.000000 0.033583
#
#
# Mechanical properties :
#
#
# Convention : Reuss Voigt Hill
#
# Bulk Modulus (GPa) = 46.45824 65.13598 55.79711
# Shear Modulus (GPa) = 19.39646 23.86623 21.63134
#
# Velocity S-wave (km/s) = 3.23330 3.58655 3.41450
# Velocity P-wave (km/s) = 6.24331 7.22897 6.75415
#
# Compressibility (1/GPa) = 0.02152471
#
# Stress axis : x y z
#
# Youngs Moduli (GPa) = 48.28312 45.20630 66.13272
#
# Poissons Ratio (x) = 0.29481 0.31036
# Poissons Ratio (y) = 0.31487 0.46292
# Poissons Ratio (z) = 0.22659 0.31644
#
# Static dielectric constant tensor:
#      x y z
#    x 3.189740 0.000000 0.095250 
#    y 0.000000 3.361520 0.000000 
#    z 0.095250 0.000000 3.855140 
# 
# 
# High freq. dielectric constant tensor:
#      x y z
#    x 1.694110 0.000000 -0.002400 
#    y 0.000000 1.711190 0.000000 
#    z -0.002400 0.000000 1.742050 
# 
# From -- ./inp_files/342507.got.cif
#   From: 2010.06.25/outbox.cif.g09.slc.cpg/sg12_172_cif.got.tgz:342507.got - 2010.06.28 00:19:55.
