data_PCOD8099453
_publ_section_title
;
Structure prediction by ZEFSAII (Michael W. Deem and Ramdas Pophale) SiO2 
 PCOD8099453
Probable space group: C 2/M
;
_chemical_formula_sum "Si O2"
_cell_formula_units_Z 56
_cell_length_a 19.157052
_cell_length_b 8.898004
_cell_length_c 26.732770
_cell_angle_alpha 90.000000
_cell_angle_beta 140.939143
_cell_angle_gamma 90.000000
_cell_volume 2871.481785
_symmetry_space_group_name_H-M "C 2/M"
_symmetry_group_IT_number 12
_symmetry_cell_setting 'monoclinic'
loop_
_space_group_symop_operation_xyz
x,y,z
-x,y,-z
-x,-y,-z
x,-y,z
1/2+x,1/2+y,z
1/2-x,1/2+y,-z
1/2-x,1/2-y,-z
1/2+x,1/2-y,z
loop_
_atom_site_type_symbol
_atom_site_label
_atom_site_fract_x
_atom_site_fract_y
_atom_site_fract_z
Si Si1 0.917900 0.677730 0.230279
Si Si2 0.718342 0.826181 0.748128
Si Si3 0.016180 0.673943 0.566474
Si Si4 0.150729 0.671420 0.917092
Si Si5 0.191997 0.177157 0.514612
Si Si6 0.363468 0.322945 0.675277
Si Si7 0.406893 0.826491 0.802115
O O1 0.941996 0.500000 0.242901
O O2 0.840461 0.724731 0.233281
O O3 0.863433 0.731916 0.147625
O O4 0.035116 0.761413 0.301894
O O5 0.639853 0.797177 0.656181
O O6 0.830101 0.726878 0.805441
O O7 0.752091 0.000000 0.770374
O O8 0.983953 0.500000 0.555735
O O9 0.936127 0.775426 0.555689
O O10 0.000000 0.723111 0.500000
O O11 0.184984 0.500000 0.932856
O O12 0.037653 0.693669 0.886288
O O13 0.250000 0.750000 0.000000
O O14 0.250000 0.250000 0.500000
O O15 0.250098 0.242953 0.596244
O O16 0.203382 0.000000 0.518244
O O17 0.352263 0.500000 0.661555
O O18 0.378725 0.283866 0.741319
O O19 0.382517 0.000000 0.774727
#
# Coordination Sequence:
#
# PCOD8099453 Si02
#       7
#     8   8   8   8   8   8   8
#     4   9  19  36  56  81 113 146 182 226 277 328
#     4  10  20  35  56  80 110 147 183 224 275 329
#     4  10  21  36  54  79 111 145 184 231 281 331
#     4   9  19  36  58  83 110 142 179 222 270 324
#     4  12  24  37  54  77 107 143 186 235 284 330
#     4  11  21  35  56  80 106 141 187 230 274 330
#     4  10  21  37  57  82 112 143 178 221 268 322
#
# _framework density 19.502126000000001
#
# number of rings (size 3 to 8) (size 9 to 14) (size 15 to 20)
#    0.000    1.857    0.000    5.571    0.000    6.571 
#    0.000    0.714    0.000    4.286    0.000    0.000 
#    0.000    0.000    0.000    0.000    0.000    0.000 
#
# Total GULP energy -347219.585498 kJ/mol
# GULP energy per Si atom -12400.699482 kJ/mol
# Density = 1.945774 g / cm^3
# Si number density = 19.502126 Si / 1000 Ang^3
#
#
#
# Elastic Constant Matrix: (Units=GPa)
#
#
# Indices 1 2 3 4 5 6 
#
# 1 116.1317 38.7774 24.4082 0.0000 15.0724 0.0000
# 2 38.7774 97.1990 27.1567 0.0000 13.7405 0.0002
# 3 24.4082 27.1567 74.3808 0.0000 10.8387 0.0000
# 4 0.0000 0.0000 0.0000 32.4931 0.0000 5.6271
# 5 15.0724 13.7405 10.8387 0.0000 25.0199 0.0000
# 6 0.0000 0.0002 0.0000 5.6271 0.0000 35.7273
#
#
#
# Elastic Compliance Matrix: (Units=1/GPa)
#
#
# Indices 1 2 3 4 5 6 
#
# 1 0.010536 -0.003173 -0.001737 0.000000 -0.003851 0.000000
# 2 -0.003173 0.012975 -0.003134 0.000000 -0.003856 0.000000
# 3 -0.001737 -0.003134 0.015750 0.000000 -0.004055 0.000000
# 4 0.000000 0.000000 0.000000 0.031639 0.000000 -0.004983
# 5 -0.003851 -0.003856 -0.004055 0.000000 0.046163 0.000000
# 6 0.000000 0.000000 0.000000 -0.004983 0.000000 0.028775
#
#
# Mechanical properties :
#
#
# Convention : Reuss Voigt Hill
#
# Bulk Modulus (GPa) = 43.15794 52.04402 47.60098
# Shear Modulus (GPa) = 29.47262 31.80602 30.63932
#
# Velocity S-wave (km/s) = 3.89170 4.04282 3.96798
# Velocity P-wave (km/s) = 6.50935 6.96684 6.74198
#
# Compressibility (1/GPa) = 0.02317070
#
# Stress axis : x y z
#
# Youngs Moduli (GPa) = 94.91697 77.07203 63.49377
#
# Poissons Ratio (x) = 0.24457 0.11032
# Poissons Ratio (y) = 0.30119 0.19899
# Poissons Ratio (z) = 0.16492 0.24154
#
# Static dielectric constant tensor:
#      x y z
#    x 3.693350 0.000000 0.068610 
#    y 0.000000 3.480160 0.000000 
#    z 0.068610 0.000000 3.319130 
# 
# 
# High freq. dielectric constant tensor:
#      x y z
#    x 1.765890 0.000000 0.009200 
#    y 0.000000 1.756480 0.000000 
#    z 0.009200 0.000000 1.743030 
# 
# From -- ./inp_files/363171.got.cif
#   From: 2010.06.25/outbox.cif.g09.slc.cpg/sg12_182_cif.got.tgz:363171.got - 2010.06.28 00:19:55.
