data_PCOD8099174
_publ_section_title
;
Structure prediction by ZEFSAII (Michael W. Deem and Ramdas Pophale) SiO2 
 PCOD8099174
Probable space group: C 2/M
;
_chemical_formula_sum "Si O2"
_cell_formula_units_Z 64
_cell_length_a 28.107853
_cell_length_b 9.019227
_cell_length_c 12.883678
_cell_angle_alpha 90.000000
_cell_angle_beta 86.130225
_cell_angle_gamma 90.000000
_cell_volume 3258.708698
_symmetry_space_group_name_H-M "C 2/M"
_symmetry_group_IT_number 12
_symmetry_cell_setting 'monoclinic'
loop_
_space_group_symop_operation_xyz
x,y,z
-x,y,-z
-x,-y,-z
x,-y,z
1/2+x,1/2+y,z
1/2-x,1/2+y,-z
1/2-x,1/2-y,-z
1/2+x,1/2-y,z
loop_
_atom_site_type_symbol
_atom_site_label
_atom_site_fract_x
_atom_site_fract_y
_atom_site_fract_z
Si Si1 0.543548 0.671092 0.738484
Si Si2 0.197725 0.824479 0.810591
Si Si3 0.471686 0.173244 0.608540
Si Si4 0.447747 0.174058 0.048349
Si Si5 0.306824 0.826728 0.799333
Si Si6 0.134934 0.327845 0.413767
Si Si7 0.358152 0.670518 0.379156
Si Si8 0.141306 0.823794 0.020452
O O1 0.535417 0.500000 0.768442
O O2 0.495089 0.738526 0.700106
O O3 0.559772 0.757622 0.837709
O O4 0.585576 0.690704 0.648751
O O5 0.252326 0.773218 0.804011
O O6 0.171896 0.759480 0.711938
O O7 0.193162 0.000000 0.808747
O O8 0.171793 0.765013 0.917706
O O9 0.500000 0.209760 0.500000
O O10 0.417742 0.231848 0.606625
O O11 0.473730 0.000000 0.635911
O O12 0.438021 0.000000 0.054040
O O13 0.500000 0.212025 0.000000
O O14 0.410724 0.249754 0.974963
O O15 0.329297 0.792948 0.684473
O O16 0.333323 0.727797 0.879170
O O17 0.311466 0.000000 0.827647
O O18 0.131108 0.500000 0.439561
O O19 0.155959 0.251312 0.512845
O O20 0.344275 0.500000 0.394804
O O21 0.136083 0.000000 0.021298
#
# Coordination Sequence:
#
# PCOD8099174 Si02
#       8
#     8   8   8   8   8   8   8   8
#     4  11  22  37  59  87 117 151 193 242 294 349
#     4   9  19  39  63  86 116 155 195 247 305 354
#     4  10  20  35  55  79 114 155 195 237 281 342
#     4  11  25  42  61  87 120 157 194 234 290 355
#     4  10  22  40  61  85 119 160 200 244 301 358
#     4  10  22  38  56  84 119 156 200 247 292 348
#     4  10  20  37  60  85 118 155 195 244 297 350
#     4  11  22  40  64  90 121 153 197 248 296 352
#
# _framework density 19.639682000000001
#
# number of rings (size 3 to 8) (size 9 to 14) (size 15 to 20)
#    0.000    1.750    2.500    1.500    1.750    3.250 
#    0.000    1.250    0.000    0.000    0.000    0.000 
#    0.000    0.000    0.000    0.000    0.000    0.000 
#
# Total GULP energy -396951.478514 kJ/mol
# GULP energy per Si atom -12404.733704 kJ/mol
# Density = 1.959498 g / cm^3
# Si number density = 19.639682 Si / 1000 Ang^3
#
#
#
# Elastic Constant Matrix: (Units=GPa)
#
#
# Indices 1 2 3 4 5 6 
#
# 1 105.6575 48.0855 39.4315 0.0000 3.7701 0.0000
# 2 48.0855 67.8641 50.0103 0.0000 2.6913 0.0000
# 3 39.4315 50.0103 106.1002 0.0000 11.4901 0.0000
# 4 0.0000 0.0000 0.0000 35.2205 0.0000 7.2364
# 5 3.7701 2.6913 11.4901 0.0000 34.4117 0.0000
# 6 0.0000 0.0000 0.0000 7.2364 0.0000 20.6139
#
#
#
# Elastic Compliance Matrix: (Units=1/GPa)
#
#
# Indices 1 2 3 4 5 6 
#
# 1 0.014025 -0.009375 -0.000733 0.000000 -0.000559 0.000000
# 2 -0.009375 0.028959 -0.010408 0.000000 0.002238 0.000000
# 3 -0.000733 -0.010408 0.015051 0.000000 -0.004131 0.000000
# 4 0.000000 0.000000 0.000000 0.030600 0.000000 -0.010742
# 5 -0.000559 0.002238 -0.004131 0.000000 0.030325 0.000000
# 6 0.000000 0.000000 0.000000 -0.010742 0.000000 0.052282
#
#
# Mechanical properties :
#
#
# Convention : Reuss Voigt Hill
#
# Bulk Modulus (GPa) = 58.81418 61.63072 60.22245
# Shear Modulus (GPa) = 22.94204 27.52219 25.23211
#
# Velocity S-wave (km/s) = 3.42152 3.74753 3.58823
# Velocity P-wave (km/s) = 6.75431 7.08337 6.92080
#
# Compressibility (1/GPa) = 0.01700270
#
# Stress axis : x y z
#
# Youngs Moduli (GPa) = 71.30316 34.53128 66.44275
#
# Poissons Ratio (x) = 0.32374 0.04868
# Poissons Ratio (y) = 0.66848 0.69154
# Poissons Ratio (z) = 0.05224 0.35940
#
# Static dielectric constant tensor:
#      x y z
#    x 3.754810 0.000000 0.044010 
#    y 0.000000 3.396350 0.000000 
#    z 0.044010 0.000000 3.553220 
# 
# 
# High freq. dielectric constant tensor:
#      x y z
#    x 1.773030 0.000000 0.005680 
#    y 0.000000 1.749670 0.000000 
#    z 0.005680 0.000000 1.771910 
# 
# From -- ./inp_files/187479.got.cif
#   From: 2010.06.25/outbox.cif.g09.slc.cpg/sg12_94_cif.got.tgz:187479.got - 2010.06.28 00:19:55.
