data_PCOD8099268
_publ_section_title
;
Structure prediction by ZEFSAII (Michael W. Deem and Ramdas Pophale) SiO2 
 PCOD8099268
Probable space group: C 2/M
;
_chemical_formula_sum "Si O2"
_cell_formula_units_Z 64
_cell_length_a 16.978006
_cell_length_b 17.322519
_cell_length_c 21.468748
_cell_angle_alpha 90.000000
_cell_angle_beta 147.664779
_cell_angle_gamma 90.000000
_cell_volume 3377.179847
_symmetry_space_group_name_H-M "C 2/M"
_symmetry_group_IT_number 12
_symmetry_cell_setting 'monoclinic'
loop_
_space_group_symop_operation_xyz
x,y,z
-x,y,-z
-x,-y,-z
x,-y,z
1/2+x,1/2+y,z
1/2-x,1/2+y,-z
1/2-x,1/2-y,-z
1/2+x,1/2-y,z
loop_
_atom_site_type_symbol
_atom_site_label
_atom_site_fract_x
_atom_site_fract_y
_atom_site_fract_z
Si Si1 0.486014 0.410890 0.175722
Si Si2 0.616267 0.185232 0.193968
Si Si3 0.238872 0.226377 0.167728
Si Si4 0.216122 0.315971 0.029142
Si Si5 0.912230 0.910857 0.377159
Si Si6 0.113622 0.082033 0.023429
Si Si7 0.674427 0.281810 0.353212
Si Si8 0.540712 0.729963 0.397836
O O1 0.514903 0.500000 0.208230
O O2 0.625058 0.366935 0.298901
O O3 0.327243 0.386991 0.096344
O O4 0.478021 0.389054 0.097465
O O5 0.616775 0.249070 0.137834
O O6 0.450718 0.151052 0.085275
O O7 0.743945 0.121175 0.269533
O O8 0.632279 0.222167 0.272026
O O9 0.223897 0.145047 0.123401
O O10 0.390745 0.222865 0.307314
O O11 0.247574 0.289416 0.119923
O O12 0.250000 0.250000 0.000000
O O13 0.000000 0.904849 0.500000
O O14 0.008951 0.860088 0.393377
O O15 0.904766 0.000000 0.349555
O O16 0.195650 0.000000 0.062377
O O17 0.000000 0.063399 0.000000
O O18 0.591069 0.260283 0.360705
O O19 0.848195 0.272991 0.481009
#
# Coordination Sequence:
#
# PCOD8099268 Si02
#       8
#     8   8   8   8   8   8   8   8
#     4  11  23  37  58  86 120 160 194 246 310 359
#     4  11  22  35  63  87 118 157 207 250 296 357
#     4  11  20  36  58  89 111 156 199 245 297 359
#     4  12  20  36  58  84 121 156 198 249 295 362
#     4  10  21  40  61  89 124 158 200 252 308 362
#     4  10  20  35  55  82 115 148 190 242 298 356
#     4  11  20  39  57  85 114 155 201 251 290 363
#     4  10  22  36  62  84 114 157 204 242 299 358
#
# _framework density 18.950721999999999
#
# number of rings (size 3 to 8) (size 9 to 14) (size 15 to 20)
#    0.000    1.250    5.000    1.875    0.000    1.000 
#    0.000    0.625    0.000    3.000    0.000    5.250 
#    0.000    0.000    0.000    0.000    0.000    0.000 
#
# Total GULP energy -396522.406539 kJ/mol
# GULP energy per Si atom -12391.325204 kJ/mol
# Density = 1.890759 g / cm^3
# Si number density = 18.950722 Si / 1000 Ang^3
#
#
#
# Elastic Constant Matrix: (Units=GPa)
#
#
# Indices 1 2 3 4 5 6 
#
# 1 85.1960 29.6556 38.1828 -0.0009 -0.3929 0.0003
# 2 29.6556 114.4817 61.9092 -0.0154 6.5439 -0.0049
# 3 38.1828 61.9092 120.2050 -0.0203 9.0258 -0.0061
# 4 -0.0009 -0.0154 -0.0203 31.6159 -0.0101 -1.8471
# 5 -0.3929 6.5439 9.0258 -0.0101 34.4825 -0.0016
# 6 0.0003 -0.0049 -0.0061 -1.8471 -0.0016 26.2437
#
#
#
# Elastic Compliance Matrix: (Units=1/GPa)
#
#
# Indices 1 2 3 4 5 6 
#
# 1 0.013986 -0.001725 -0.003663 -0.000002 0.001445 -0.000001
# 2 -0.001725 0.012335 -0.005741 0.000002 -0.000858 0.000001
# 3 -0.003663 -0.005741 0.012608 0.000005 -0.002253 0.000002
# 4 -0.000002 0.000002 0.000005 0.031760 0.000008 0.002235
# 5 0.001445 -0.000858 -0.002253 0.000008 0.029769 0.000002
# 6 -0.000001 0.000001 0.000002 0.002235 0.000002 0.038262
#
#
# Mechanical properties :
#
#
# Convention : Reuss Voigt Hill
#
# Bulk Modulus (GPa) = 59.97691 64.37530 62.17611
# Shear Modulus (GPa) = 30.02355 31.14410 30.58382
#
# Velocity S-wave (km/s) = 3.98464 4.05832 4.02165
# Velocity P-wave (km/s) = 7.27237 7.48355 7.37872
#
# Compressibility (1/GPa) = 0.01667308
#
# Stress axis : x y z
#
# Youngs Moduli (GPa) = 71.49838 81.06786 79.31198
#
# Poissons Ratio (x) = 0.13983 0.29051
# Poissons Ratio (y) = 0.12332 0.45531
# Poissons Ratio (z) = 0.26189 0.46539
#
# Static dielectric constant tensor:
#      x y z
#    x 3.700070 -0.000060 0.007500 
#    y -0.000060 3.812330 -0.000060 
#    z 0.007500 -0.000060 3.776340 
# 
# 
# High freq. dielectric constant tensor:
#      x y z
#    x 1.745600 0.000000 -0.011830 
#    y 0.000000 1.716780 0.000000 
#    z -0.011830 0.000000 1.747730 
# 
# From -- ./inp_files/271756.got.cif
#   From: 2010.06.25/outbox.cif.g09.slc.cpg/sg12_136_cif.got.tgz:271756.got - 2010.06.28 00:19:55.
