data_PCOD8099042
_publ_section_title
;
Structure prediction by ZEFSAII (Michael W. Deem and Ramdas Pophale) SiO2 
 PCOD8099042
Probable space group: C 2/M
;
_chemical_formula_sum "Si O2"
_cell_formula_units_Z 40
_cell_length_a 27.260842
_cell_length_b 9.085973
_cell_length_c 18.894799
_cell_angle_alpha 90.000000
_cell_angle_beta 152.547350
_cell_angle_gamma 90.000000
_cell_volume 2157.587582
_symmetry_space_group_name_H-M "C 2/M"
_symmetry_group_IT_number 12
_symmetry_cell_setting 'monoclinic'
loop_
_space_group_symop_operation_xyz
x,y,z
-x,y,-z
-x,-y,-z
x,-y,z
1/2+x,1/2+y,z
1/2-x,1/2+y,-z
1/2-x,1/2-y,-z
1/2+x,1/2-y,z
loop_
_atom_site_type_symbol
_atom_site_label
_atom_site_fract_x
_atom_site_fract_y
_atom_site_fract_z
Si Si1 0.982942 0.173202 0.771130
Si Si2 0.922593 0.329875 0.835374
Si Si3 0.531591 0.830029 0.464113
Si Si4 0.815709 0.171503 0.438532
Si Si5 0.359463 0.828806 0.124645
O O1 0.962865 0.228227 0.824067
O O2 0.881161 0.214672 0.592725
O O3 0.087302 0.254799 0.875653
O O4 0.004767 0.000000 0.799393
O O5 0.920938 0.500000 0.808744
O O6 0.805073 0.276180 0.706386
O O7 0.000000 0.305371 0.000000
O O8 0.500000 0.764073 0.500000
O O9 0.636374 0.750248 0.568984
O O10 0.432749 0.802964 0.286332
O O11 0.561740 0.000000 0.509732
O O12 0.822499 0.000000 0.431832
O O13 0.340568 0.000000 0.084561
O O14 0.250000 0.750000 0.000000
#
# Coordination Sequence:
#
# PCOD8099042 Si02
#       5
#     8   8   8   8   8
#     4  10  20  35  55  77 102 136 178 216 253 305
#     4  10  21  36  53  77 108 137 169 213 264 311
#     4   9  19  35  54  77 104 135 172 213 256 302
#     4   9  19  35  54  76 102 136 176 213 253 305
#     4  10  20  35  55  78 106 138 172 213 259 307
#
# _framework density 18.539224000000001
#
# number of rings (size 3 to 8) (size 9 to 14) (size 15 to 20)
#    0.000    2.400    0.000    1.800    0.000    4.800 
#    0.000    4.000    0.000    0.000    0.000    0.000 
#    0.000    0.000    0.000    0.000    0.000    0.000 
#
# Total GULP energy -248078.390805 kJ/mol
# GULP energy per Si atom -12403.919540 kJ/mol
# Density = 1.849703 g / cm^3
# Si number density = 18.539224 Si / 1000 Ang^3
#
#
#
# Elastic Constant Matrix: (Units=GPa)
#
#
# Indices 1 2 3 4 5 6 
#
# 1 172.6673 74.6205 67.8836 0.0000 13.6468 0.0000
# 2 74.6205 86.9359 47.2799 0.0000 10.9264 0.0000
# 3 67.8836 47.2799 83.6538 0.0000 24.7552 0.0000
# 4 0.0000 0.0000 0.0000 21.6961 0.0000 2.6015
# 5 13.6468 10.9264 24.7552 0.0000 35.3168 0.0000
# 6 0.0000 0.0000 0.0000 2.6015 0.0000 41.0667
#
#
#
# Elastic Compliance Matrix: (Units=1/GPa)
#
#
# Indices 1 2 3 4 5 6 
#
# 1 0.010527 -0.006250 -0.005525 0.000000 0.001738 0.000000
# 2 -0.006250 0.020411 -0.006700 0.000000 0.000797 0.000000
# 3 -0.005525 -0.006700 0.023946 0.000000 -0.012577 0.000000
# 4 0.000000 0.000000 0.000000 0.046444 0.000000 -0.002942
# 5 0.001738 0.000797 -0.012577 0.000000 0.036213 0.000000
# 6 0.000000 0.000000 0.000000 -0.002942 0.000000 0.024537
#
#
# Mechanical properties :
#
#
# Convention : Reuss Voigt Hill
#
# Bulk Modulus (GPa) = 55.75764 80.31390 68.03577
# Shear Modulus (GPa) = 24.38969 29.84744 27.11856
#
# Velocity S-wave (km/s) = 3.63102 4.01679 3.82876
# Velocity P-wave (km/s) = 6.90795 8.05778 7.50492
#
# Compressibility (1/GPa) = 0.01793476
#
# Stress axis : x y z
#
# Youngs Moduli (GPa) = 94.99439 48.99379 41.76080
#
# Poissons Ratio (x) = 0.30619 0.23071
# Poissons Ratio (y) = 0.59368 0.27981
# Poissons Ratio (z) = 0.52481 0.32827
#
# Static dielectric constant tensor:
#      x y z
#    x 3.577080 0.000000 0.107670 
#    y 0.000000 3.426820 0.000000 
#    z 0.107670 0.000000 3.459430 
# 
# 
# High freq. dielectric constant tensor:
#      x y z
#    x 1.729910 0.000000 0.006830 
#    y 0.000000 1.720610 0.000000 
#    z 0.006830 0.000000 1.713950 
# 
# From -- ./inp_files/151968.got.cif
#   From: 2010.06.25/outbox.cif.g09.slc.cpg/sg12_76_cif.got.tgz:151968.got - 2010.06.28 00:19:55.
