data_PCOD8099758
_publ_section_title
;
Structure prediction by ZEFSAII (Michael W. Deem and Ramdas Pophale) SiO2 
 PCOD8099758
Probable space group: C 2/M
;
_chemical_formula_sum "Si O2"
_cell_formula_units_Z 64
_cell_length_a 18.866724
_cell_length_b 13.886455
_cell_length_c 18.232356
_cell_angle_alpha 90.000000
_cell_angle_beta 37.718049
_cell_angle_gamma 90.000000
_cell_volume 2922.289902
_symmetry_space_group_name_H-M "C 2/M"
_symmetry_group_IT_number 12
_symmetry_cell_setting 'monoclinic'
loop_
_space_group_symop_operation_xyz
x,y,z
-x,y,-z
-x,-y,-z
x,-y,z
1/2+x,1/2+y,z
1/2-x,1/2+y,-z
1/2-x,1/2-y,-z
1/2+x,1/2-y,z
loop_
_atom_site_type_symbol
_atom_site_label
_atom_site_fract_x
_atom_site_fract_y
_atom_site_fract_z
Si Si1 0.555797 0.768314 0.721069
Si Si2 0.223956 0.894857 0.992738
Si Si3 0.431144 0.103827 0.721003
Si Si4 0.638030 0.212069 0.007354
Si Si5 0.790124 0.792930 0.606814
Si Si6 0.506400 0.386366 0.652615
Si Si7 0.134939 0.606525 0.377115
Si Si8 0.743611 0.387438 0.211752
O O1 0.534182 0.827348 0.662981
O O2 0.688790 0.785898 0.630055
O O3 0.520767 0.659620 0.723366
O O4 0.482013 0.807518 0.851362
O O5 0.349293 0.911744 0.856757
O O6 0.148555 0.828560 0.999844
O O7 0.165235 0.000000 0.055587
O O8 0.247687 0.837215 0.048615
O O9 0.354472 0.144439 0.715887
O O10 0.484496 0.000000 0.653402
O O11 0.649033 0.169594 0.916289
O O12 0.901205 0.840947 0.479050
O O13 0.807739 0.682336 0.615852
O O14 0.754197 0.857475 0.705343
O O15 0.528021 0.500000 0.641720
O O16 0.380787 0.362545 0.721932
O O17 0.192275 0.500000 0.340387
O O18 0.000000 0.600885 0.500000
O O19 0.771069 0.500000 0.182868
#
# Coordination Sequence:
#
# PCOD8099758 Si02
#       8
#     8   8   8   8   8   8   8   8
#     4  11  24  39  59  89 125 163 197 246 310 370
#     4   9  16  29  53  81 109 146 197 253 298 343
#     4   9  18  34  56  81 109 147 197 247 294 347
#     4  10  20  35  56  86 122 157 200 250 306 366
#     4  12  24  40  61  90 130 167 201 246 307 373
#     4  11  24  43  66  90 118 160 212 258 302 356
#     4  10  20  35  59  86 112 150 202 257 304 348
#     4  11  23  41  66  92 121 161 210 259 302 357
#
# _framework density 21.900632999999999
#
# number of rings (size 3 to 8) (size 9 to 14) (size 15 to 20)
#    0.000    1.625    0.000    6.750    0.000    5.000 
#    0.000    1.875    0.000    0.000    0.000    5.250 
#    0.000    0.000    0.000    0.000    0.000    0.000 
#
# Total GULP energy -396518.364771 kJ/mol
# GULP energy per Si atom -12391.198899 kJ/mol
# Density = 2.185079 g / cm^3
# Si number density = 21.900633 Si / 1000 Ang^3
#
#
#
# Elastic Constant Matrix: (Units=GPa)
#
#
# Indices 1 2 3 4 5 6 
#
# 1 67.1764 25.3583 24.5734 0.0000 2.2535 0.0000
# 2 25.3583 122.5770 30.1539 0.0000 -1.3791 0.0000
# 3 24.5734 30.1539 75.6984 0.0000 21.5948 0.0000
# 4 0.0000 0.0000 0.0000 28.0493 0.0000 10.2988
# 5 2.2535 -1.3791 21.5948 0.0000 26.3323 0.0000
# 6 0.0000 0.0000 0.0000 10.2988 0.0000 21.9027
#
#
#
# Elastic Compliance Matrix: (Units=1/GPa)
#
#
# Indices 1 2 3 4 5 6 
#
# 1 0.017723 -0.002218 -0.005749 0.000000 0.003082 0.000000
# 2 -0.002218 0.009745 -0.004388 0.000000 0.004299 0.000000
# 3 -0.005749 -0.004388 0.021865 0.000000 -0.017669 0.000000
# 4 0.000000 0.000000 0.000000 0.043091 0.000000 -0.020262
# 5 0.003082 0.004299 -0.017669 0.000000 0.052428 0.000000
# 6 0.000000 0.000000 0.000000 -0.020262 0.000000 0.055184
#
#
# Mechanical properties :
#
#
# Convention : Reuss Voigt Hill
#
# Bulk Modulus (GPa) = 40.61221 47.29143 43.95182
# Shear Modulus (GPa) = 21.46359 27.61462 24.53911
#
# Velocity S-wave (km/s) = 3.13396 3.55477 3.35098
# Velocity P-wave (km/s) = 5.62848 6.20396 5.92321
#
# Compressibility (1/GPa) = 0.02462314
#
# Stress axis : x y z
#
# Youngs Moduli (GPa) = 56.42410 102.61920 45.73474
#
# Poissons Ratio (x) = 0.22756 0.26293
# Poissons Ratio (y) = 0.12512 0.20070
# Poissons Ratio (z) = 0.32439 0.45032
#
# Static dielectric constant tensor:
#      x y z
#    x 5.193780 0.000000 1.482090 
#    y 0.000000 4.505450 0.000000 
#    z 1.482090 0.000000 4.805120 
# 
# 
# High freq. dielectric constant tensor:
#      x y z
#    x 1.821420 0.000000 0.029450 
#    y 0.000000 1.877100 0.000000 
#    z 0.029450 0.000000 1.865910 
# 
# From -- ./inp_files/278129.got.cif
#   From: 2010.06.25/outbox.cif.g09.slc.cpg/sg12_140_cif.got.tgz:278129.got - 2010.06.28 00:19:55.
