data_PCOD8099896
_publ_section_title
;
Structure prediction by ZEFSAII (Michael W. Deem and Ramdas Pophale) SiO2 
 PCOD8099896
Probable space group: C 2/M
;
_chemical_formula_sum "Si O2"
_cell_formula_units_Z 48
_cell_length_a 14.936079
_cell_length_b 9.291978
_cell_length_c 18.730289
_cell_angle_alpha 90.000000
_cell_angle_beta 90.393919
_cell_angle_gamma 90.000000
_cell_volume 2599.435161
_symmetry_space_group_name_H-M "C 2/M"
_symmetry_group_IT_number 12
_symmetry_cell_setting 'monoclinic'
loop_
_space_group_symop_operation_xyz
x,y,z
-x,y,-z
-x,-y,-z
x,-y,z
1/2+x,1/2+y,z
1/2-x,1/2+y,-z
1/2-x,1/2-y,-z
1/2+x,1/2-y,z
loop_
_atom_site_type_symbol
_atom_site_label
_atom_site_fract_x
_atom_site_fract_y
_atom_site_fract_z
Si Si1 0.586957 0.836679 0.174207
Si Si2 0.636589 0.669132 0.314267
Si Si3 0.752360 0.332624 0.926243
Si Si4 0.482591 0.670001 0.419398
Si Si5 0.161706 0.667299 0.666434
Si Si6 0.883736 0.665787 0.172312
O O1 0.617018 0.735076 0.237736
O O2 0.649446 0.809296 0.106371
O O3 0.485657 0.804912 0.149353
O O4 0.595567 0.000000 0.202093
O O5 0.630516 0.500000 0.303441
O O6 0.565855 0.724305 0.372260
O O7 0.735101 0.713854 0.340820
O O8 0.731878 0.500000 0.939060
O O9 0.677963 0.270510 0.873187
O O10 0.750000 0.250000 0.000000
O O11 0.500000 0.720298 0.500000
O O12 0.470237 0.500000 0.414138
O O13 0.391824 0.742408 0.392140
O O14 0.147735 0.500000 0.649748
O O15 0.126062 0.705802 0.744798
O O16 0.855466 0.500000 0.158614
#
# Coordination Sequence:
#
# PCOD8099896 Si02
#       6
#     8   8   8   8   8   8
#     4  10  21  37  59  85 112 146 188 230 277 333
#     4  10  20  35  57  83 112 147 188 233 279 330
#     4  11  24  40  59  85 117 150 185 229 281 334
#     4  10  22  38  55  81 118 153 186 231 284 334
#     4  10  20  35  58  85 111 146 190 234 279 331
#     4  10  20  37  60  85 114 146 186 234 280 331
#
# _framework density 18.46555
#
# number of rings (size 3 to 8) (size 9 to 14) (size 15 to 20)
#    0.000    1.833    3.333    0.500    0.000    4.333 
#    0.000    3.333    0.000    0.000    0.000    0.000 
#    0.000    0.000    0.000    0.000    0.000    0.000 
#
# Total GULP energy -297701.199551 kJ/mol
# GULP energy per Si atom -12404.216648 kJ/mol
# Density = 1.842352 g / cm^3
# Si number density = 18.465550 Si / 1000 Ang^3
#
#
#
# Elastic Constant Matrix: (Units=GPa)
#
#
# Indices 1 2 3 4 5 6 
#
# 1 98.6509 29.6254 14.0160 0.0000 0.8941 0.0000
# 2 29.6254 52.5268 27.9931 0.0000 5.0194 0.0000
# 3 14.0160 27.9931 59.6169 0.0000 2.2747 0.0000
# 4 0.0000 0.0000 0.0000 30.8806 0.0000 6.9850
# 5 0.8941 5.0194 2.2747 0.0000 25.5359 0.0000
# 6 0.0000 0.0000 0.0000 6.9850 0.0000 32.6391
#
#
#
# Elastic Compliance Matrix: (Units=1/GPa)
#
#
# Indices 1 2 3 4 5 6 
#
# 1 0.012237 -0.007256 0.000494 0.000000 0.000954 0.000000
# 2 -0.007256 0.030096 -0.012251 0.000000 -0.004570 0.000000
# 3 0.000494 -0.012251 0.022395 0.000000 0.000396 0.000000
# 4 0.000000 0.000000 0.000000 0.034030 0.000000 -0.007283
# 5 0.000954 -0.004570 0.000396 0.000000 0.039990 0.000000
# 6 0.000000 0.000000 0.000000 -0.007283 0.000000 0.032197
#
#
# Mechanical properties :
#
#
# Convention : Reuss Voigt Hill
#
# Bulk Modulus (GPa) = 37.45168 39.34042 38.39605
# Shear Modulus (GPa) = 22.94914 27.08846 25.01880
#
# Velocity S-wave (km/s) = 3.52917 3.83426 3.68488
# Velocity P-wave (km/s) = 6.07723 6.39946 6.24043
#
# Compressibility (1/GPa) = 0.02670107
#
# Stress axis : x y z
#
# Youngs Moduli (GPa) = 81.71952 33.22677 44.65235
#
# Poissons Ratio (x) = 0.24109 -0.02205
# Poissons Ratio (y) = 0.59296 0.54705
# Poissons Ratio (z) = -0.04035 0.40707
#
# Static dielectric constant tensor:
#      x y z
#    x 3.804580 0.000000 0.000710 
#    y 0.000000 3.365420 0.000000 
#    z 0.000710 0.000000 3.571780 
# 
# 
# High freq. dielectric constant tensor:
#      x y z
#    x 1.732970 0.000000 -0.005510 
#    y 0.000000 1.713680 0.000000 
#    z -0.005510 0.000000 1.711100 
# 
# From -- ./inp_files/267620.got.cif
#   From: 2010.06.25/outbox.cif.g09.slc.cpg/sg12_134_cif.got.tgz:267620.got - 2010.06.28 00:19:55.
