data_PCOD8099993
_publ_section_title
;
Structure prediction by ZEFSAII (Michael W. Deem and Ramdas Pophale) SiO2 
 PCOD8099993
Probable space group: C 2/M
;
_chemical_formula_sum "Si O2"
_cell_formula_units_Z 56
_cell_length_a 23.791685
_cell_length_b 9.056107
_cell_length_c 15.650992
_cell_angle_alpha 90.000000
_cell_angle_beta 120.667835
_cell_angle_gamma 90.000000
_cell_volume 2900.528438
_symmetry_space_group_name_H-M "C 2/M"
_symmetry_group_IT_number 12
_symmetry_cell_setting 'monoclinic'
loop_
_space_group_symop_operation_xyz
x,y,z
-x,y,-z
-x,-y,-z
x,-y,z
1/2+x,1/2+y,z
1/2-x,1/2+y,-z
1/2-x,1/2-y,-z
1/2+x,1/2-y,z
loop_
_atom_site_type_symbol
_atom_site_label
_atom_site_fract_x
_atom_site_fract_y
_atom_site_fract_z
Si Si1 0.153668 0.670525 0.472995
Si Si2 0.447558 0.675395 0.026612
Si Si3 0.473325 0.675068 0.570463
Si Si4 0.564952 0.324800 0.792977
Si Si5 0.808869 0.828758 0.849437
Si Si6 0.713712 0.675383 0.893387
Si Si7 0.796460 0.167969 0.644155
O O1 0.134567 0.500000 0.457266
O O2 0.098715 0.761079 0.478778
O O3 0.160509 0.725208 0.381029
O O4 0.219901 0.702796 0.575917
O O5 0.451353 0.500000 0.024512
O O6 0.461185 0.730133 0.134317
O O7 0.500000 0.743321 0.000000
O O8 0.374774 0.727112 0.945962
O O9 0.500000 0.728436 0.500000
O O10 0.469701 0.500000 0.572792
O O11 0.518697 0.738842 0.682227
O O12 0.563647 0.500000 0.789714
O O13 0.638788 0.270421 0.833983
O O14 0.748132 0.730549 0.833520
O O15 0.818876 0.803089 0.757290
O O16 0.794517 0.000000 0.859389
O O17 0.718586 0.500000 0.905521
O O18 0.750000 0.750000 0.000000
O O19 0.810826 0.000000 0.627037
#
# Coordination Sequence:
#
# PCOD8099993 Si02
#       7
#     8   8   8   8   8   8   8
#     4  10  21  38  57  82 115 147 186 235 286 334
#     4   9  17  30  53  82 109 139 178 224 269 322
#     4  10  22  38  58  82 110 149 196 236 277 334
#     4   9  19  35  54  79 109 145 189 230 271 329
#     4  10  20  35  57  85 111 140 184 230 277 331
#     4  11  21  36  57  81 113 146 182 228 277 330
#     4   9  20  37  59  84 111 148 188 230 279 340
#
# _framework density 19.306826999999998
#
# number of rings (size 3 to 8) (size 9 to 14) (size 15 to 20)
#    0.000    2.286    1.429    0.857    4.000    1.429 
#    0.000    1.429    0.000    0.429    0.000    0.000 
#    0.000    0.000    0.000    0.000    0.000    0.000 
#
# Total GULP energy -347223.176424 kJ/mol
# GULP energy per Si atom -12400.827729 kJ/mol
# Density = 1.926288 g / cm^3
# Si number density = 19.306827 Si / 1000 Ang^3
#
#
#
# Elastic Constant Matrix: (Units=GPa)
#
#
# Indices 1 2 3 4 5 6 
#
# 1 128.8602 22.3695 48.6972 0.0000 -11.4791 0.0000
# 2 22.3695 24.6740 22.1550 0.0000 -0.3173 0.0000
# 3 48.6972 22.1550 119.7889 0.0000 -15.1115 0.0000
# 4 0.0000 0.0000 0.0000 19.3600 0.0000 -0.9270
# 5 -11.4791 -0.3173 -15.1115 0.0000 21.9496 0.0000
# 6 0.0000 0.0000 0.0000 -0.9270 0.0000 32.6235
#
#
#
# Elastic Compliance Matrix: (Units=1/GPa)
#
#
# Indices 1 2 3 4 5 6 
#
# 1 0.010210 -0.007063 -0.002391 0.000000 0.003591 0.000000
# 2 -0.007063 0.054220 -0.008239 0.000000 -0.008583 0.000000
# 3 -0.002391 -0.008239 0.011686 0.000000 0.006676 0.000000
# 4 0.000000 0.000000 0.000000 0.051723 0.000000 0.001470
# 5 0.003591 -0.008583 0.006676 0.000000 0.051909 0.000000
# 6 0.000000 0.000000 0.000000 0.001470 0.000000 0.030694
#
#
# Mechanical properties :
#
#
# Convention : Reuss Voigt Hill
#
# Bulk Modulus (GPa) = 24.55284 51.08515 37.81900
# Shear Modulus (GPa) = 19.27479 26.79341 23.03410
#
# Velocity S-wave (km/s) = 3.16308 3.72932 3.45781
# Velocity P-wave (km/s) = 5.10734 6.71274 5.96430
#
# Compressibility (1/GPa) = 0.04072849
#
# Stress axis : x y z
#
# Youngs Moduli (GPa) = 97.94258 18.44346 85.57126
#
# Poissons Ratio (x) = 0.13027 0.20463
# Poissons Ratio (y) = 0.69178 0.70505
# Poissons Ratio (z) = 0.23421 0.15196
#
# Static dielectric constant tensor:
#      x y z
#    x 3.700860 0.000000 -0.058950 
#    y 0.000000 3.271650 0.000000 
#    z -0.058950 0.000000 3.702990 
# 
# 
# High freq. dielectric constant tensor:
#      x y z
#    x 1.761760 0.000000 -0.004630 
#    y 0.000000 1.713810 0.000000 
#    z -0.004630 0.000000 1.759620 
# 
# From -- ./inp_files/238880.got.cif
#   From: 2010.06.25/outbox.cif.g09.slc.cpg/sg12_120_cif.got.tgz:238880.got - 2010.06.28 00:19:55.
