data_PCOD8099600
_publ_section_title
;
Structure prediction by ZEFSAII (Michael W. Deem and Ramdas Pophale) SiO2 
 PCOD8099600
Probable space group: C 2/M
;
_chemical_formula_sum "Si O2"
_cell_formula_units_Z 56
_cell_length_a 28.833286
_cell_length_b 8.892117
_cell_length_c 19.952773
_cell_angle_alpha 90.000000
_cell_angle_beta 32.934270
_cell_angle_gamma 90.000000
_cell_volume 2781.270126
_symmetry_space_group_name_H-M "C 2/M"
_symmetry_group_IT_number 12
_symmetry_cell_setting 'monoclinic'
loop_
_space_group_symop_operation_xyz
x,y,z
-x,y,-z
-x,-y,-z
x,-y,z
1/2+x,1/2+y,z
1/2-x,1/2+y,-z
1/2-x,1/2-y,-z
1/2+x,1/2-y,z
loop_
_atom_site_type_symbol
_atom_site_label
_atom_site_fract_x
_atom_site_fract_y
_atom_site_fract_z
Si Si1 0.990784 0.321967 0.305343
Si Si2 0.049722 0.822955 0.780546
Si Si3 0.143964 0.176887 0.442569
Si Si4 0.622517 0.323534 0.943228
Si Si5 0.811509 0.175737 0.279612
Si Si6 0.335706 0.675068 0.870489
Si Si7 0.212382 0.827639 0.217738
O O1 0.995637 0.500000 0.301381
O O2 0.941130 0.266609 0.299621
O O3 0.940638 0.261866 0.430934
O O4 0.085570 0.255029 0.189121
O O5 0.133456 0.785720 0.721975
O O6 0.042509 0.000000 0.774545
O O7 0.967410 0.761640 0.920811
O O8 0.224776 0.229149 0.388713
O O9 0.157733 0.224679 0.348392
O O10 0.130176 0.000000 0.468258
O O11 0.622957 0.500000 0.949815
O O12 0.634547 0.275133 0.851345
O O13 0.699262 0.262099 0.895722
O O14 0.788074 0.000000 0.304288
O O15 0.335962 0.500000 0.889565
O O16 0.343431 0.698462 0.780976
O O17 0.250000 0.750000 0.000000
O O18 0.238685 0.000000 0.194802
#
# Coordination Sequence:
#
# PCOD8099600 Si02
#       7
#     8   8   8   8   8   8   8
#     4  12  26  41  57  81 113 149 191 237 281 329
#     4  10  20  35  56  82 114 153 191 230 281 335
#     4  10  21  40  61  82 110 146 189 233 281 334
#     4   9  17  31  55  86 117 147 183 228 277 332
#     4   9  18  34  57  85 115 147 186 232 280 333
#     4  11  23  41  63  89 119 149 183 224 275 333
#     4   9  20  37  59  84 112 147 184 228 280 332
#
# _framework density 20.134684
#
# number of rings (size 3 to 8) (size 9 to 14) (size 15 to 20)
#    0.000    2.000    0.000    3.429    0.000    8.000 
#    0.000    2.857    0.000    4.286    0.000    0.000 
#    0.000    0.000    0.000    0.000    0.000    0.000 
#
# Total GULP energy -347314.254413 kJ/mol
# GULP energy per Si atom -12404.080515 kJ/mol
# Density = 2.008886 g / cm^3
# Si number density = 20.134684 Si / 1000 Ang^3
#
#
#
# Elastic Constant Matrix: (Units=GPa)
#
#
# Indices 1 2 3 4 5 6 
#
# 1 88.9792 32.9747 19.2113 0.0113 3.0422 -0.0047
# 2 32.9747 80.2290 38.4034 0.0149 0.8865 -0.0066
# 3 19.2113 38.4034 95.0779 0.0264 0.4875 -0.0144
# 4 0.0113 0.0149 0.0264 31.6679 -0.0045 -3.5142
# 5 3.0422 0.8865 0.4875 -0.0045 21.5260 0.0010
# 6 -0.0047 -0.0066 -0.0144 -3.5142 0.0010 31.0465
#
#
#
# Elastic Compliance Matrix: (Units=1/GPa)
#
#
# Indices 1 2 3 4 5 6 
#
# 1 0.013344 -0.005181 -0.000595 -0.000002 -0.001659 0.000000
# 2 -0.005181 0.017469 -0.006010 -0.000001 0.000149 0.000000
# 3 -0.000595 -0.006010 0.013065 -0.000007 0.000036 0.000004
# 4 -0.000002 -0.000001 -0.000007 0.031979 0.000007 0.003620
# 5 -0.001659 0.000149 0.000036 0.000007 0.046683 -0.000001
# 6 0.000000 0.000000 0.000004 0.003620 -0.000001 0.032619
#
#
# Mechanical properties :
#
#
# Convention : Reuss Voigt Hill
#
# Bulk Modulus (GPa) = 49.24676 49.49610 49.37143
# Shear Modulus (GPa) = 26.95410 28.42788 27.69099
#
# Velocity S-wave (km/s) = 3.66278 3.76158 3.71251
# Velocity P-wave (km/s) = 6.51151 6.59560 6.55369
#
# Compressibility (1/GPa) = 0.02030590
#
# Stress axis : x y z
#
# Youngs Moduli (GPa) = 74.94065 57.24434 76.53941
#
# Poissons Ratio (x) = 0.29660 0.04553
# Poissons Ratio (y) = 0.38829 0.45999
# Poissons Ratio (z) = 0.04458 0.34403
#
# Static dielectric constant tensor:
#      x y z
#    x 3.713560 -0.000010 0.100320 
#    y -0.000010 3.576500 0.000030 
#    z 0.100320 0.000030 3.745780 
# 
# 
# High freq. dielectric constant tensor:
#      x y z
#    x 1.789230 0.000000 0.004950 
#    y 0.000000 1.779350 0.000000 
#    z 0.004950 0.000000 1.787830 
# 
# From -- ./inp_files/238915.got.cif
#   From: 2010.06.25/outbox.cif.g09.slc.cpg/sg12_120_cif.got.tgz:238915.got - 2010.06.28 00:19:55.
