data_PCOD8099293
_publ_section_title
;
Structure prediction by ZEFSAII (Michael W. Deem and Ramdas Pophale) SiO2 
 PCOD8099293
Probable space group: C 2/M
;
_chemical_formula_sum "Si O2"
_cell_formula_units_Z 56
_cell_length_a 26.478379
_cell_length_b 13.836270
_cell_length_c 8.576665
_cell_angle_alpha 90.000000
_cell_angle_beta 63.439105
_cell_angle_gamma 90.000000
_cell_volume 2810.538981
_symmetry_space_group_name_H-M "C 2/M"
_symmetry_group_IT_number 12
_symmetry_cell_setting 'monoclinic'
loop_
_space_group_symop_operation_xyz
x,y,z
-x,y,-z
-x,-y,-z
x,-y,z
1/2+x,1/2+y,z
1/2-x,1/2+y,-z
1/2-x,1/2-y,-z
1/2+x,1/2-y,z
loop_
_atom_site_type_symbol
_atom_site_label
_atom_site_fract_x
_atom_site_fract_y
_atom_site_fract_z
Si Si1 0.594345 0.609487 0.566047
Si Si2 0.897746 0.108134 0.796220
Si Si3 0.045196 0.608009 0.798867
Si Si4 0.271838 0.607514 0.955081
Si Si5 0.006689 0.205627 0.175691
Si Si6 0.242371 0.738039 0.266756
Si Si7 0.843176 0.271312 0.345031
O O1 0.615567 0.500000 0.550666
O O2 0.601562 0.648171 0.380998
O O3 0.528381 0.618372 0.699522
O O4 0.628357 0.671246 0.644791
O O5 0.834035 0.104063 0.942730
O O6 0.929179 0.185497 0.863482
O O7 0.924405 0.000000 0.767677
O O8 0.051540 0.500000 0.715278
O O9 0.017103 0.690404 0.725721
O O10 0.108469 0.647258 0.756979
O O11 0.000000 0.599158 0.000000
O O12 0.247146 0.500000 0.966628
O O13 0.273104 0.656815 0.782245
O O14 0.235003 0.664000 0.133251
O O15 0.000000 0.205369 0.000000
O O16 0.199498 0.698305 0.456877
O O17 0.306142 0.749568 0.243134
#
# Coordination Sequence:
#
# PCOD8099293 Si02
#       7
#     8   8   8   8   8   8   8
#     4  10  20  35  55  83 116 150 187 228 293 367
#     4  10  20  35  56  81 115 154 185 228 296 363
#     4   9  20  38  58  83 114 152 197 242 293 349
#     4  10  22  39  59  85 118 156 196 241 297 363
#     4  10  21  34  55  84 114 146 190 242 292 347
#     4  10  22  39  60  88 120 154 200 245 302 357
#     4  10  21  38  62  89 117 154 196 253 301 349
#
# _framework density 19.925004999999999
#
# number of rings (size 3 to 8) (size 9 to 14) (size 15 to 20)
#    0.000    2.143    1.429    0.857    6.000    4.000 
#    0.000    2.857    0.000    6.857    0.000    0.000 
#    0.000    0.000    0.000    0.000    0.000    0.000 
#
# Total GULP energy -346922.992190 kJ/mol
# GULP energy per Si atom -12390.106864 kJ/mol
# Density = 1.987965 g / cm^3
# Si number density = 19.925005 Si / 1000 Ang^3
#
#
#
# Elastic Constant Matrix: (Units=GPa)
#
#
# Indices 1 2 3 4 5 6 
#
# 1 89.1372 48.4742 11.7347 0.0000 4.4767 0.0000
# 2 48.4742 117.6213 25.1605 0.0000 10.5117 0.0000
# 3 11.7347 25.1605 65.3608 0.0000 -3.2984 0.0000
# 4 0.0000 0.0000 0.0000 19.9073 0.0000 -0.8071
# 5 4.4767 10.5117 -3.2984 0.0000 31.5611 0.0000
# 6 0.0000 0.0000 0.0000 -0.8071 0.0000 24.4328
#
#
#
# Elastic Compliance Matrix: (Units=1/GPa)
#
#
# Indices 1 2 3 4 5 6 
#
# 1 0.014466 -0.005877 -0.000341 0.000000 -0.000130 0.000000
# 2 -0.005877 0.012048 -0.003763 0.000000 -0.003572 0.000000
# 3 -0.000341 -0.003763 0.016965 0.000000 0.003075 0.000000
# 4 0.000000 0.000000 0.000000 0.050300 0.000000 0.001662
# 5 -0.000130 -0.003572 0.003075 0.000000 0.033214 0.000000
# 6 0.000000 0.000000 0.000000 0.001662 0.000000 0.040984
#
#
# Mechanical properties :
#
#
# Convention : Reuss Voigt Hill
#
# Bulk Modulus (GPa) = 42.52434 49.20644 45.86539
# Shear Modulus (GPa) = 25.53901 27.63023 26.58462
#
# Velocity S-wave (km/s) = 3.58405 3.72790 3.65668
# Velocity P-wave (km/s) = 6.20610 6.57868 6.39511
#
# Compressibility (1/GPa) = 0.02351594
#
# Stress axis : x y z
#
# Youngs Moduli (GPa) = 69.12636 83.00002 58.94590
#
# Poissons Ratio (x) = 0.48781 0.02012
# Poissons Ratio (y) = 0.40627 0.22181
# Poissons Ratio (z) = 0.02360 0.31233
#
# Static dielectric constant tensor:
#      x y z
#    x 3.611340 0.000000 -0.210160 
#    y 0.000000 3.906950 0.000000 
#    z -0.210160 0.000000 3.540950 
# 
# 
# High freq. dielectric constant tensor:
#      x y z
#    x 1.770790 0.000000 -0.016920 
#    y 0.000000 1.771500 0.000000 
#    z -0.016920 0.000000 1.770640 
# 
# From -- ./inp_files/96294.got.cif
#   From: 2010.06.25/outbox.cif.g09.slc.cpg/sg12_49_cif.got.tgz:96294.got - 2010.06.28 00:19:55.
