data_PCOD8099586
_publ_section_title
;
Structure prediction by ZEFSAII (Michael W. Deem and Ramdas Pophale) SiO2 
 PCOD8099586
Probable space group: C 2/M
;
_chemical_formula_sum "Si O2"
_cell_formula_units_Z 64
_cell_length_a 14.659084
_cell_length_b 8.670509
_cell_length_c 27.308455
_cell_angle_alpha 90.000000
_cell_angle_beta 107.338876
_cell_angle_gamma 90.000000
_cell_volume 3313.227412
_symmetry_space_group_name_H-M "C 2/M"
_symmetry_group_IT_number 12
_symmetry_cell_setting 'monoclinic'
loop_
_space_group_symop_operation_xyz
x,y,z
-x,y,-z
-x,-y,-z
x,-y,z
1/2+x,1/2+y,z
1/2-x,1/2+y,-z
1/2-x,1/2-y,-z
1/2+x,1/2-y,z
loop_
_atom_site_type_symbol
_atom_site_label
_atom_site_fract_x
_atom_site_fract_y
_atom_site_fract_z
Si Si1 0.030734 0.317835 0.056850
Si Si2 0.276593 0.183450 0.862170
Si Si3 0.846259 0.679789 0.403025
Si Si4 0.844343 0.180970 0.675039
Si Si5 0.573600 0.183125 0.862951
Si Si6 0.648369 0.681312 0.494473
Si Si7 0.884347 0.815954 0.789684
Si Si8 0.514769 0.319258 0.385200
O O1 0.031134 0.500000 0.052558
O O2 0.138154 0.263354 0.087588
O O3 0.953644 0.268107 0.085740
O O4 0.000000 0.242635 0.000000
O O5 0.176393 0.248957 0.865269
O O6 0.304104 0.250310 0.813513
O O7 0.269596 0.000000 0.857289
O O8 0.838085 0.500000 0.413088
O O9 0.745474 0.750429 0.368985
O O10 0.886268 0.763986 0.457840
O O11 0.919109 0.718034 0.370994
O O12 0.854053 0.246148 0.731325
O O13 0.938453 0.221004 0.659328
O O14 0.827438 0.000000 0.675841
O O15 0.490593 0.251086 0.815503
O O16 0.576103 0.000000 0.857146
O O17 0.654940 0.500000 0.494448
O O18 0.750000 0.750000 0.500000
O O19 0.579080 0.738979 0.440650
O O20 0.887350 0.000000 0.793775
O O21 0.491948 0.500000 0.386004
#
# Coordination Sequence:
#
# PCOD8099586 Si02
#       8
#     8   8   8   8   8   8   8   8
#     4   8  16  32  53  79 113 150 186 228 275 324
#     4  10  20  35  56  82 113 148 188 230 275 328
#     4  11  22  38  57  82 111 139 176 219 263 322
#     4   9  20  39  58  78 109 143 174 221 279 325
#     4  10  20  35  56  82 113 147 187 231 276 327
#     4  11  21  36  59  81 108 143 177 216 265 320
#     4  10  20  37  60  81 107 143 185 232 282 331
#     4  10  21  39  57  78 109 142 174 214 266 322
#
# _framework density 19.316513
#
# number of rings (size 3 to 8) (size 9 to 14) (size 15 to 20)
#    0.000    2.125    1.250    3.000    0.000    4.000 
#    0.000    6.250    0.000   12.750    0.000    0.000 
#    0.000    0.000    0.000    0.000    0.000    0.000 
#
# Total GULP energy -396725.737783 kJ/mol
# GULP energy per Si atom -12397.679306 kJ/mol
# Density = 1.927255 g / cm^3
# Si number density = 19.316513 Si / 1000 Ang^3
#
#
#
# Elastic Constant Matrix: (Units=GPa)
#
#
# Indices 1 2 3 4 5 6 
#
# 1 126.3262 28.3546 40.6216 0.0000 -15.8129 0.0000
# 2 28.3546 54.4134 25.3703 0.0000 -1.6139 0.0000
# 3 40.6216 25.3703 134.6985 0.0000 -12.8984 0.0000
# 4 0.0000 0.0000 0.0000 23.0987 0.0000 -2.6678
# 5 -15.8129 -1.6139 -12.8984 0.0000 19.6419 0.0000
# 6 0.0000 0.0000 0.0000 -2.6678 0.0000 33.9775
#
#
#
# Elastic Compliance Matrix: (Units=1/GPa)
#
#
# Indices 1 2 3 4 5 6 
#
# 1 0.010281 -0.004401 -0.001615 0.000000 0.006855 0.000000
# 2 -0.004401 0.022046 -0.003192 0.000000 -0.003828 0.000000
# 3 -0.001615 -0.003192 0.008924 0.000000 0.004297 0.000000
# 4 0.000000 0.000000 0.000000 0.043689 0.000000 0.003430
# 5 0.006855 -0.003828 0.004297 0.000000 0.058937 0.000000
# 6 0.000000 0.000000 0.000000 0.003430 0.000000 0.029701
#
#
# Mechanical properties :
#
#
# Convention : Reuss Voigt Hill
#
# Bulk Modulus (GPa) = 43.79245 56.01456 49.90351
# Shear Modulus (GPa) = 25.04947 30.08307 27.56627
#
# Velocity S-wave (km/s) = 3.60500 3.95064 3.78177
# Velocity P-wave (km/s) = 6.32837 7.06196 6.70521
#
# Compressibility (1/GPa) = 0.02283499
#
# Stress axis : x y z
#
# Youngs Moduli (GPa) = 97.26392 45.36022 112.06074
#
# Poissons Ratio (x) = 0.19964 0.18101
# Poissons Ratio (y) = 0.42807 0.35765
# Poissons Ratio (z) = 0.15710 0.14477
#
# Static dielectric constant tensor:
#      x y z
#    x 3.681080 0.000000 -0.009100 
#    y 0.000000 3.374300 0.000000 
#    z -0.009100 0.000000 3.864660 
# 
# 
# High freq. dielectric constant tensor:
#      x y z
#    x 1.762350 0.000000 -0.005680 
#    y 0.000000 1.735520 0.000000 
#    z -0.005680 0.000000 1.752750 
# 
# From -- ./inp_files/359910.got.cif
#   From: 2010.06.25/outbox.cif.g09.slc.cpg/sg12_180_cif.got.tgz:359910.got - 2010.06.28 00:19:55.
