data_PCOD8099399
_publ_section_title
;
Structure prediction by ZEFSAII (Michael W. Deem and Ramdas Pophale) SiO2 
 PCOD8099399
Probable space group: C 2/M
;
_chemical_formula_sum "Si O2"
_cell_formula_units_Z 56
_cell_length_a 18.379681
_cell_length_b 8.879414
_cell_length_c 29.150057
_cell_angle_alpha 90.000000
_cell_angle_beta 141.851237
_cell_angle_gamma 90.000000
_cell_volume 2938.617602
_symmetry_space_group_name_H-M "C 2/M"
_symmetry_group_IT_number 12
_symmetry_cell_setting 'monoclinic'
loop_
_space_group_symop_operation_xyz
x,y,z
-x,y,-z
-x,-y,-z
x,-y,z
1/2+x,1/2+y,z
1/2-x,1/2+y,-z
1/2-x,1/2-y,-z
1/2+x,1/2-y,z
loop_
_atom_site_type_symbol
_atom_site_label
_atom_site_fract_x
_atom_site_fract_y
_atom_site_fract_z
Si Si1 0.954769 0.679109 0.929088
Si Si2 0.999050 0.675557 0.635954
Si Si3 0.808101 0.823383 0.212236
Si Si4 0.840114 0.676141 0.642262
Si Si5 0.876748 0.321524 0.068850
Si Si6 0.966939 0.176800 0.205163
Si Si7 0.095389 0.673682 0.508053
O O1 0.949710 0.500000 0.928972
O O2 0.824079 0.742367 0.854095
O O3 0.042546 0.734485 0.933118
O O4 0.000000 0.744480 0.000000
O O5 0.024522 0.500000 0.647151
O O6 0.896724 0.717351 0.621228
O O7 0.958866 0.734502 0.566419
O O8 0.121804 0.752647 0.710466
O O9 0.869233 0.780964 0.194516
O O10 0.808243 0.000000 0.220176
O O11 0.851709 0.500000 0.658853
O O12 0.705209 0.723696 0.575466
O O13 0.905504 0.769470 0.714388
O O14 0.864008 0.500000 0.062739
O O15 0.937015 0.267581 0.145012
O O16 0.750000 0.250000 0.000000
O O17 0.969216 0.000000 0.195756
O O18 0.135468 0.500000 0.523028
O O19 0.000000 0.694191 0.500000
#
# Coordination Sequence:
#
# PCOD8099399 Si02
#       7
#     8   8   8   8   8   8   8
#     4   9  18  34  55  78 105 138 177 218 258 305
#     4   9  19  35  54  77 106 139 174 216 265 315
#     4   9  18  34  57  80 101 134 179 221 262 311
#     4  10  20  35  56  80 106 138 178 221 262 311
#     4  11  22  36  56  81 110 142 177 219 264 313
#     4  10  20  36  58  81 107 139 175 217 265 317
#     4  10  21  36  53  76 108 143 177 217 268 320
#
# _framework density 19.056577999999998
#
# number of rings (size 3 to 8) (size 9 to 14) (size 15 to 20)
#    0.000    2.286    0.000    2.571    0.000    5.429 
#    0.000    4.286    0.000    3.000    0.000    0.000 
#    0.000    0.000    0.000    0.000    0.000    0.000 
#
# Total GULP energy -347296.952866 kJ/mol
# GULP energy per Si atom -12403.462602 kJ/mol
# Density = 1.901320 g / cm^3
# Si number density = 19.056578 Si / 1000 Ang^3
#
#
#
# Elastic Constant Matrix: (Units=GPa)
#
#
# Indices 1 2 3 4 5 6 
#
# 1 106.7751 36.0417 80.3487 0.0000 3.8958 0.0000
# 2 36.0417 43.7991 35.9353 0.0000 0.4806 -0.0001
# 3 80.3487 35.9353 157.8283 0.0000 3.5329 0.0000
# 4 0.0000 0.0000 0.0000 38.6256 0.0000 0.9249
# 5 3.8958 0.4806 3.5329 0.0000 37.5962 0.0000
# 6 0.0000 -0.0001 0.0000 0.9249 0.0000 22.0721
#
#
#
# Elastic Compliance Matrix: (Units=1/GPa)
#
#
# Indices 1 2 3 4 5 6 
#
# 1 0.017577 -0.008768 -0.006928 0.000000 -0.001058 0.000000
# 2 -0.008768 0.032452 -0.002942 0.000000 0.000770 0.000000
# 3 -0.006928 -0.002942 0.010538 0.000000 -0.000235 0.000000
# 4 0.000000 0.000000 0.000000 0.025916 0.000000 -0.001086
# 5 -0.001058 0.000770 -0.000235 0.000000 0.026720 0.000000
# 6 0.000000 0.000000 0.000000 -0.001086 0.000000 0.045352
#
#
# Mechanical properties :
#
#
# Convention : Reuss Voigt Hill
#
# Bulk Modulus (GPa) = 42.93644 68.11709 55.52676
# Shear Modulus (GPa) = 24.55831 30.06389 27.31110
#
# Velocity S-wave (km/s) = 3.59375 3.97623 3.78982
# Velocity P-wave (km/s) = 6.30872 7.54339 6.95351
#
# Compressibility (1/GPa) = 0.02329024
#
# Stress axis : x y z
#
# Youngs Moduli (GPa) = 56.89117 30.81438 94.89122
#
# Poissons Ratio (x) = 0.27018 0.65745
# Poissons Ratio (y) = 0.49883 0.27921
# Poissons Ratio (z) = 0.39417 0.09067
#
# Static dielectric constant tensor:
#      x y z
#    x 3.569100 0.000000 -0.061790 
#    y 0.000000 3.340490 0.000000 
#    z -0.061790 0.000000 3.806800 
# 
# 
# High freq. dielectric constant tensor:
#      x y z
#    x 1.739200 0.000000 0.000250 
#    y 0.000000 1.726610 0.000000 
#    z 0.000250 0.000000 1.757060 
# 
# From -- ./inp_files/275691.got.cif
#   From: 2010.06.25/outbox.cif.g09.slc.cpg/sg12_138_cif.got.tgz:275691.got - 2010.06.28 00:19:55.
