data_PCOD8099403
_publ_section_title
;
Structure prediction by ZEFSAII (Michael W. Deem and Ramdas Pophale) SiO2 
 PCOD8099403
Probable space group: C 2/M
;
_chemical_formula_sum "Si O2"
_cell_formula_units_Z 56
_cell_length_a 10.025714
_cell_length_b 10.108017
_cell_length_c 31.913277
_cell_angle_alpha 90.000000
_cell_angle_beta 119.267880
_cell_angle_gamma 90.000000
_cell_volume 2821.241073
_symmetry_space_group_name_H-M "C 2/M"
_symmetry_group_IT_number 12
_symmetry_cell_setting 'monoclinic'
loop_
_space_group_symop_operation_xyz
x,y,z
-x,y,-z
-x,-y,-z
x,-y,z
1/2+x,1/2+y,z
1/2-x,1/2+y,-z
1/2-x,1/2-y,-z
1/2+x,1/2-y,z
loop_
_atom_site_type_symbol
_atom_site_label
_atom_site_fract_x
_atom_site_fract_y
_atom_site_fract_z
Si Si1 0.409912 0.651985 0.865570
Si Si2 0.010059 0.284391 0.434057
Si Si3 0.940003 0.651318 0.176412
Si Si4 0.891481 0.848269 0.021798
Si Si5 0.894483 0.651244 0.711733
Si Si6 0.215443 0.641498 0.538270
Si Si7 0.383097 0.147249 0.328128
O O1 0.416807 0.500000 0.850506
O O2 0.238368 0.688676 0.853104
O O3 0.463367 0.749719 0.837357
O O4 0.517377 0.673565 0.921644
O O5 0.146997 0.358041 0.480612
O O6 0.100096 0.153014 0.432873
O O7 0.868835 0.253404 0.443734
O O8 0.954908 0.363595 0.385260
O O9 0.966335 0.500000 0.165143
O O10 0.993082 0.669772 0.232048
O O11 0.834073 0.000000 0.008754
O O12 0.750000 0.750000 0.000000
O O13 0.000000 0.810467 0.000000
O O14 0.835146 0.500000 0.699620
O O15 0.751149 0.746966 0.694326
O O16 0.987021 0.692105 0.684508
O O17 0.175248 0.500000 0.552371
O O18 0.322669 0.000000 0.306829
#
# Coordination Sequence:
#
# PCOD8099403 Si02
#       7
#     8   8   8   8   8   8   8
#     4  10  21  37  60  87 114 149 192 233 275 328
#     4  10  20  35  56  80 106 141 181 218 266 327
#     4  10  21  39  59  81 111 145 185 234 284 331
#     4  10  21  37  57  84 119 155 190 230 276 326
#     4  10  23  39  57  83 112 142 182 232 281 333
#     4  10  20  36  54  77 110 141 174 221 268 316
#     4  11  22  38  59  82 110 146 184 225 278 334
#
# _framework density 19.849421
#
# number of rings (size 3 to 8) (size 9 to 14) (size 15 to 20)
#    0.000    1.857    0.000    4.286    0.000    5.429 
#    0.000    7.143    0.000    0.000    0.000    0.000 
#    0.000    0.000    0.000    0.000    0.000    0.000 
#
# Total GULP energy -347050.975158 kJ/mol
# GULP energy per Si atom -12394.677684 kJ/mol
# Density = 1.980424 g / cm^3
# Si number density = 19.849421 Si / 1000 Ang^3
#
#
#
# Elastic Constant Matrix: (Units=GPa)
#
#
# Indices 1 2 3 4 5 6 
#
# 1 104.5005 60.9001 21.5860 0.0000 5.0192 0.0000
# 2 60.9001 93.1056 26.3822 0.0000 9.0817 0.0000
# 3 21.5860 26.3822 64.1682 0.0000 -2.1130 0.0000
# 4 0.0000 0.0000 0.0000 15.5348 0.0000 -1.1738
# 5 5.0192 9.0817 -2.1130 0.0000 35.6439 0.0000
# 6 0.0000 0.0000 0.0000 -1.1738 0.0000 26.2430
#
#
#
# Elastic Compliance Matrix: (Units=1/GPa)
#
#
# Indices 1 2 3 4 5 6 
#
# 1 0.015546 -0.009863 -0.001166 0.000000 0.000255 0.000000
# 2 -0.009863 0.018840 -0.004549 0.000000 -0.003681 0.000000
# 3 -0.001166 -0.004549 0.017925 0.000000 0.002386 0.000000
# 4 0.000000 0.000000 0.000000 0.064590 0.000000 0.002889
# 5 0.000255 -0.003681 0.002386 0.000000 0.029099 0.000000
# 6 0.000000 0.000000 0.000000 0.002889 0.000000 0.038235
#
#
# Mechanical properties :
#
#
# Convention : Reuss Voigt Hill
#
# Bulk Modulus (GPa) = 47.27133 53.27900 50.27516
# Shear Modulus (GPa) = 22.47774 25.67806 24.07790
#
# Velocity S-wave (km/s) = 3.36879 3.60063 3.48663
# Velocity P-wave (km/s) = 6.24486 6.64725 6.44919
#
# Compressibility (1/GPa) = 0.02115447
#
# Stress axis : x y z
#
# Youngs Moduli (GPa) = 64.32602 53.07886 55.78717
#
# Poissons Ratio (x) = 0.52351 0.06505
# Poissons Ratio (y) = 0.63444 0.25379
# Poissons Ratio (z) = 0.07501 0.24147
#
# Static dielectric constant tensor:
#      x y z
#    x 3.635280 0.000000 -0.027240 
#    y 0.000000 3.671810 0.000000 
#    z -0.027240 0.000000 3.705960 
# 
# 
# High freq. dielectric constant tensor:
#      x y z
#    x 1.781590 0.000000 -0.004220 
#    y 0.000000 1.766250 0.000000 
#    z -0.004220 0.000000 1.781690 
# 
# From -- ./inp_files/372216.got.cif
#   From: 2010.06.25/outbox.cif.g09.slc.cpg/sg12_187_cif.got.tgz:372216.got - 2010.06.28 00:19:55.
