data_PCOD8099459
_publ_section_title
;
Structure prediction by ZEFSAII (Michael W. Deem and Ramdas Pophale) SiO2 
 PCOD8099459
Probable space group: C 2/M
;
_chemical_formula_sum "Si O2"
_cell_formula_units_Z 56
_cell_length_a 21.291362
_cell_length_b 9.085848
_cell_length_c 31.385156
_cell_angle_alpha 90.000000
_cell_angle_beta 28.117840
_cell_angle_gamma 90.000000
_cell_volume 2861.397701
_symmetry_space_group_name_H-M "C 2/M"
_symmetry_group_IT_number 12
_symmetry_cell_setting 'monoclinic'
loop_
_space_group_symop_operation_xyz
x,y,z
-x,y,-z
-x,-y,-z
x,-y,z
1/2+x,1/2+y,z
1/2-x,1/2+y,-z
1/2-x,1/2-y,-z
1/2+x,1/2-y,z
loop_
_atom_site_type_symbol
_atom_site_label
_atom_site_fract_x
_atom_site_fract_y
_atom_site_fract_z
Si Si1 0.275401 0.333156 0.420470
Si Si2 0.650231 0.175043 0.408906
Si Si3 0.637114 0.672804 0.941333
Si Si4 0.281043 0.325714 0.784063
Si Si5 0.841552 0.171772 0.219137
Si Si6 0.140212 0.169933 0.037519
Si Si7 0.454894 0.166273 0.373081
O O1 0.329642 0.500000 0.384202
O O2 0.229513 0.268702 0.402701
O O3 0.393373 0.229630 0.366333
O O4 0.150331 0.328224 0.526327
O O5 0.500000 0.240604 0.500000
O O6 0.733431 0.228825 0.318133
O O7 0.642331 0.000000 0.414398
O O8 0.665358 0.500000 0.920485
O O9 0.752445 0.762986 0.848276
O O10 0.500000 0.714994 0.000000
O O11 0.639131 0.724900 0.989181
O O12 0.277415 0.500000 0.786588
O O13 0.173676 0.263968 0.814893
O O14 0.424825 0.267913 0.683394
O O15 0.992479 0.197111 0.145552
O O16 0.819385 0.000000 0.221539
O O17 0.177916 0.000000 0.016337
O O18 0.250000 0.250000 0.000000
O O19 0.503845 0.000000 0.335514
#
# Coordination Sequence:
#
# PCOD8099459 Si02
#       7
#     8   8   8   8   8   8   8
#     4   9  18  34  55  82 115 150 194 242 284 336
#     4   9  17  31  56  86 114 148 190 234 282 344
#     4  10  20  40  64  84 114 153 194 234 286 355
#     4  12  24  36  57  88 116 144 192 249 295 342
#     4  10  20  38  60  82 113 154 195 234 292 358
#     4  10  22  39  61  88 120 159 195 241 294 357
#     4  10  20  35  56  80 113 155 192 234 292 352
#
# _framework density 19.570855999999999
#
# number of rings (size 3 to 8) (size 9 to 14) (size 15 to 20)
#    0.000    2.000    1.429    2.571    0.000    5.429 
#    0.000    2.143    0.000    1.714    0.000    0.000 
#    0.000    0.000    0.000    0.000    0.000    0.000 
#
# Total GULP energy -347222.927731 kJ/mol
# GULP energy per Si atom -12400.818848 kJ/mol
# Density = 1.952631 g / cm^3
# Si number density = 19.570856 Si / 1000 Ang^3
#
#
#
# Elastic Constant Matrix: (Units=GPa)
#
#
# Indices 1 2 3 4 5 6 
#
# 1 134.9130 44.7225 49.1800 0.0290 3.3825 -0.0346
# 2 44.7225 76.1681 37.2497 0.0393 -0.8396 -0.0763
# 3 49.1800 37.2497 86.6105 -0.0076 -2.3123 0.0312
# 4 0.0290 0.0393 -0.0076 23.5326 -0.0033 -5.2702
# 5 3.3825 -0.8396 -2.3123 -0.0033 29.4190 0.0255
# 6 -0.0346 -0.0763 0.0312 -5.2702 0.0255 31.9454
#
#
#
# Elastic Compliance Matrix: (Units=1/GPa)
#
#
# Indices 1 2 3 4 5 6 
#
# 1 0.010307 -0.004035 -0.004161 -0.000006 -0.001627 0.000006
# 2 -0.004035 0.018206 -0.005524 -0.000018 0.000549 0.000041
# 3 -0.004161 -0.005524 0.016327 0.000013 0.001604 -0.000033
# 4 -0.000006 -0.000018 0.000013 0.044124 0.000000 0.007279
# 5 -0.001627 0.000549 0.001604 0.000000 0.034321 -0.000029
# 6 0.000006 0.000041 -0.000033 0.007279 -0.000029 0.032504
#
#
# Mechanical properties :
#
#
# Convention : Reuss Voigt Hill
#
# Bulk Modulus (GPa) = 57.47035 62.22179 59.84607
# Shear Modulus (GPa) = 26.45085 28.08204 27.26645
#
# Velocity S-wave (km/s) = 3.68032 3.79210 3.73663
# Velocity P-wave (km/s) = 6.89121 7.14391 7.01870
#
# Compressibility (1/GPa) = 0.01740028
#
# Stress axis : x y z
#
# Youngs Moduli (GPa) = 97.01827 54.92782 61.24736
#
# Poissons Ratio (x) = 0.22164 0.25484
# Poissons Ratio (y) = 0.39148 0.33834
# Poissons Ratio (z) = 0.40368 0.30343
#
# Static dielectric constant tensor:
#      x y z
#    x 3.629410 -0.000040 0.031120 
#    y -0.000040 3.358660 -0.000010 
#    z 0.031120 -0.000010 3.650230 
# 
# 
# High freq. dielectric constant tensor:
#      x y z
#    x 1.765750 0.000000 -0.001820 
#    y 0.000000 1.735650 0.000000 
#    z -0.001820 0.000000 1.766820 
# 
# From -- ./inp_files/380566.got.cif
#   From: 2010.06.25/outbox.cif.g09.slc.cpg/sg12_191_cif.got.tgz:380566.got - 2010.06.28 00:19:55.
