data_PCOD8099066
_publ_section_title
;
Structure prediction by ZEFSAII (Michael W. Deem and Ramdas Pophale) SiO2 
 PCOD8099066
Probable space group: C 2/M
;
_chemical_formula_sum "Si O2"
_cell_formula_units_Z 64
_cell_length_a 28.175831
_cell_length_b 8.710631
_cell_length_c 13.613470
_cell_angle_alpha 90.000000
_cell_angle_beta 96.820688
_cell_angle_gamma 90.000000
_cell_volume 3317.497654
_symmetry_space_group_name_H-M "C 2/M"
_symmetry_group_IT_number 12
_symmetry_cell_setting 'monoclinic'
loop_
_space_group_symop_operation_xyz
x,y,z
-x,y,-z
-x,-y,-z
x,-y,z
1/2+x,1/2+y,z
1/2-x,1/2+y,-z
1/2-x,1/2-y,-z
1/2+x,1/2-y,z
loop_
_atom_site_type_symbol
_atom_site_label
_atom_site_fract_x
_atom_site_fract_y
_atom_site_fract_z
Si Si1 0.083585 0.179521 0.948634
Si Si2 0.224867 0.319660 0.694006
Si Si3 0.846070 0.177355 0.477750
Si Si4 0.914443 0.678607 0.841077
Si Si5 0.652898 0.177785 0.832636
Si Si6 0.666624 0.317953 0.306703
Si Si7 0.486543 0.821131 0.226507
Si Si8 0.416915 0.322391 0.334924
O O1 0.137428 0.225787 0.925259
O O2 0.043769 0.265842 0.874868
O O3 0.075903 0.000000 0.934226
O O4 0.077063 0.224678 0.059172
O O5 0.219676 0.500000 0.680325
O O6 0.196095 0.249259 0.596381
O O7 0.203198 0.269794 0.795434
O O8 0.279434 0.266852 0.703626
O O9 0.846772 0.243796 0.587890
O O10 0.898785 0.203982 0.442096
O O11 0.833062 0.000000 0.480727
O O12 0.912045 0.500000 0.868150
O O13 0.865704 0.730379 0.778884
O O14 0.957914 0.714478 0.777865
O O15 0.613388 0.208785 0.740328
O O16 0.653794 0.000000 0.862277
O O17 0.659128 0.500000 0.294193
O O18 0.471275 0.729789 0.323511
O O19 0.477466 0.000000 0.239803
O O20 0.409248 0.500000 0.302971
#
# Coordination Sequence:
#
# PCOD8099066 Si02
#       8
#     8   8   8   8   8   8   8   8
#     4  11  21  34  56  82 104 131 168 208 255 309
#     4   9  18  32  54  81 106 136 173 212 254 302
#     4   9  18  32  53  80 108 137 170 212 257 302
#     4  11  24  39  53  73 102 137 175 213 257 306
#     4   9  16  29  50  77 107 134 164 207 255 299
#     4  10  21  37  53  74 106 140 176 216 256 299
#     4  10  20  35  55  78 104 133 168 212 257 303
#     4   9  16  28  49  78 106 132 167 208 253 303
#
# _framework density 19.291650000000001
#
# number of rings (size 3 to 8) (size 9 to 14) (size 15 to 20)
#    0.000    2.250    0.000    4.875    0.000    5.500 
#    0.000    1.250    0.000    3.750    0.000    0.000 
#    0.000    0.000    0.000    0.000    0.000    0.000 
#
# Total GULP energy -396618.182201 kJ/mol
# GULP energy per Si atom -12394.318194 kJ/mol
# Density = 1.924774 g / cm^3
# Si number density = 19.291650 Si / 1000 Ang^3
#
#
#
# Elastic Constant Matrix: (Units=GPa)
#
#
# Indices 1 2 3 4 5 6 
#
# 1 76.7016 24.9820 19.8277 0.0000 -20.3318 0.0000
# 2 24.9820 43.1338 13.1539 0.0000 -7.8458 0.0000
# 3 19.8277 13.1539 20.6298 0.0000 -1.5893 0.0000
# 4 0.0000 0.0000 0.0000 22.9378 0.0000 -2.4414
# 5 -20.3318 -7.8458 -1.5893 0.0000 25.7232 0.0000
# 6 0.0000 0.0000 0.0000 -2.4414 0.0000 29.0402
#
#
#
# Elastic Compliance Matrix: (Units=1/GPa)
#
#
# Indices 1 2 3 4 5 6 
#
# 1 0.023694 -0.005269 -0.018181 0.000000 0.015998 0.000000
# 2 -0.005269 0.031545 -0.014699 0.000000 0.004549 0.000000
# 3 -0.018181 -0.014699 0.074221 0.000000 -0.014268 0.000000
# 4 0.000000 0.000000 0.000000 0.043990 0.000000 0.003698
# 5 0.015998 0.004549 -0.014268 0.000000 0.052026 0.000000
# 6 0.000000 0.000000 0.000000 0.003698 0.000000 0.034746
#
#
# Mechanical properties :
#
#
# Convention : Reuss Voigt Hill
#
# Bulk Modulus (GPa) = 18.81039 28.48803 23.64921
# Shear Modulus (GPa) = 14.11469 21.04035 17.57752
#
# Velocity S-wave (km/s) = 2.70783 3.30608 3.02180
# Velocity P-wave (km/s) = 4.42133 5.41965 4.94574
#
# Compressibility (1/GPa) = 0.05316210
#
# Stress axis : x y z
#
# Youngs Moduli (GPa) = 42.20475 31.70042 13.47328
#
# Poissons Ratio (x) = 0.16702 0.24496
# Poissons Ratio (y) = 0.22236 0.19805
# Poissons Ratio (z) = 0.76732 0.46598
#
# Static dielectric constant tensor:
#      x y z
#    x 4.116540 0.000000 -0.573620 
#    y 0.000000 3.492050 0.000000 
#    z -0.573620 0.000000 3.380870 
# 
# 
# High freq. dielectric constant tensor:
#      x y z
#    x 1.760550 0.000000 -0.035030 
#    y 0.000000 1.753610 0.000000 
#    z -0.035030 0.000000 1.720140 
# 
# From -- ./inp_files/244155.got.cif
#   From: 2010.06.25/outbox.cif.g09.slc.cpg/sg12_123_cif.got.tgz:244155.got - 2010.06.28 00:19:55.
