data_PCOD8099840
_publ_section_title
;
Structure prediction by ZEFSAII (Michael W. Deem and Ramdas Pophale) SiO2 
 PCOD8099840
Probable space group: C 2/M
;
_chemical_formula_sum "Si O2"
_cell_formula_units_Z 56
_cell_length_a 14.327094
_cell_length_b 27.326551
_cell_length_c 8.643350
_cell_angle_alpha 90.000000
_cell_angle_beta 57.662030
_cell_angle_gamma 90.000000
_cell_volume 2859.132039
_symmetry_space_group_name_H-M "C 2/M"
_symmetry_group_IT_number 12
_symmetry_cell_setting 'monoclinic'
loop_
_space_group_symop_operation_xyz
x,y,z
-x,y,-z
-x,-y,-z
x,-y,z
1/2+x,1/2+y,z
1/2-x,1/2+y,-z
1/2-x,1/2-y,-z
1/2+x,1/2-y,z
loop_
_atom_site_type_symbol
_atom_site_label
_atom_site_fract_x
_atom_site_fract_y
_atom_site_fract_z
Si Si1 0.481314 0.699776 0.194052
Si Si2 0.166670 0.446059 0.667889
Si Si3 0.892252 0.863924 0.695609
Si Si4 0.267514 0.347956 0.512002
Si Si5 0.757617 0.555461 0.057128
Si Si6 0.462351 0.802052 0.361282
Si Si7 0.958655 0.405457 0.712322
O O1 0.581632 0.677978 0.204231
O O2 0.370902 0.669383 0.322581
O O3 0.477485 0.757018 0.233786
O O4 0.500000 0.692179 0.000000
O O5 0.205490 0.500000 0.578564
O O6 0.241235 0.405828 0.511911
O O7 0.173885 0.441315 0.845541
O O8 0.038037 0.438621 0.745845
O O9 0.796733 0.841403 0.668660
O O10 0.851924 0.911699 0.825438
O O11 0.000000 0.878932 0.500000
O O12 0.166151 0.316196 0.538989
O O13 0.721197 0.500000 0.051005
O O14 0.833943 0.575872 0.849258
O O15 0.500000 0.786139 0.500000
O O16 0.535412 0.848393 0.242008
O O17 0.000000 0.410330 0.500000
#
# Coordination Sequence:
#
# PCOD8099840 Si02
#       7
#     8   8   8   8   8   8   8
#     4  11  23  37  56  82 110 142 187 237 282 328
#     4   9  18  33  55  80 107 144 186 226 268 322
#     4   9  20  39  59  80 111 148 190 235 274 320
#     4   9  19  38  59  79 111 150 185 227 276 330
#     4  10  20  35  57  82 109 145 187 228 273 326
#     4  10  21  38  58  80 111 148 184 222 275 339
#     4  10  21  34  51  81 117 147 178 222 277 338
#
# _framework density 19.586362999999999
#
# number of rings (size 3 to 8) (size 9 to 14) (size 15 to 20)
#    0.000    2.286    0.000    2.571    0.000    9.429 
#    0.000    4.286    0.000    0.857    0.000    0.000 
#    0.000    0.000    0.000    0.000    0.000    0.000 
#
# Total GULP energy -347082.816447 kJ/mol
# GULP energy per Si atom -12395.814873 kJ/mol
# Density = 1.954178 g / cm^3
# Si number density = 19.586363 Si / 1000 Ang^3
#
#
#
# Elastic Constant Matrix: (Units=GPa)
#
#
# Indices 1 2 3 4 5 6 
#
# 1 90.0493 38.4564 30.3992 0.0000 1.7420 0.0000
# 2 38.4564 140.4496 67.5040 0.0000 -3.5705 0.0000
# 3 30.3992 67.5040 99.5189 0.0000 1.0481 0.0000
# 4 0.0000 0.0000 0.0000 22.7555 0.0000 1.4579
# 5 1.7420 -3.5705 1.0481 0.0000 14.3004 0.0000
# 6 0.0000 0.0000 0.0000 1.4579 0.0000 28.8837
#
#
#
# Elastic Compliance Matrix: (Units=1/GPa)
#
#
# Indices 1 2 3 4 5 6 
#
# 1 0.012979 -0.002538 -0.002221 0.000000 -0.002052 0.000000
# 2 -0.002538 0.011206 -0.006863 0.000000 0.003610 0.000000
# 3 -0.002221 -0.006863 0.015409 0.000000 -0.002573 0.000000
# 4 0.000000 0.000000 0.000000 0.044088 0.000000 -0.002225
# 5 -0.002052 0.003610 -0.002573 0.000000 0.071268 0.000000
# 6 0.000000 0.000000 0.000000 -0.002225 0.000000 0.034734
#
#
# Mechanical properties :
#
#
# Convention : Reuss Voigt Hill
#
# Bulk Modulus (GPa) = 61.17024 66.97078 64.07051
# Shear Modulus (GPa) = 22.89605 26.09846 24.49725
#
# Velocity S-wave (km/s) = 3.42274 3.65428 3.54040
# Velocity P-wave (km/s) = 6.84975 7.21608 7.03530
#
# Compressibility (1/GPa) = 0.01634782
#
# Stress axis : x y z
#
# Youngs Moduli (GPa) = 77.05030 89.24181 64.89555
#
# Poissons Ratio (x) = 0.22652 0.14414
# Poissons Ratio (y) = 0.19557 0.44540
# Poissons Ratio (z) = 0.17114 0.61250
#
# Static dielectric constant tensor:
#      x y z
#    x 3.709950 0.000000 0.069960 
#    y 0.000000 3.831450 0.000000 
#    z 0.069960 0.000000 3.302510 
# 
# 
# High freq. dielectric constant tensor:
#      x y z
#    x 1.763970 0.000000 0.007350 
#    y 0.000000 1.773420 0.000000 
#    z 0.007350 0.000000 1.740110 
# 
# From -- ./inp_files/66856.got.cif
#   From: 2010.06.25/outbox.cif.g09.slc.cpg/sg12_34_cif.got.tgz:66856.got - 2010.06.28 00:19:55.
