data_PCOD8099851
_publ_section_title
;
Structure prediction by ZEFSAII (Michael W. Deem and Ramdas Pophale) SiO2 
 PCOD8099851
Probable space group: C 2/M
;
_chemical_formula_sum "Si O2"
_cell_formula_units_Z 40
_cell_length_a 30.966920
_cell_length_b 13.861566
_cell_length_c 9.315917
_cell_angle_alpha 90.000000
_cell_angle_beta 30.515102
_cell_angle_gamma 90.000000
_cell_volume 2030.481652
_symmetry_space_group_name_H-M "C 2/M"
_symmetry_group_IT_number 12
_symmetry_cell_setting 'monoclinic'
loop_
_space_group_symop_operation_xyz
x,y,z
-x,y,-z
-x,-y,-z
x,-y,z
1/2+x,1/2+y,z
1/2-x,1/2+y,-z
1/2-x,1/2-y,-z
1/2+x,1/2-y,z
loop_
_atom_site_type_symbol
_atom_site_label
_atom_site_fract_x
_atom_site_fract_y
_atom_site_fract_z
Si Si1 0.075413 0.391307 0.181954
Si Si2 0.364782 0.739631 0.547079
Si Si3 0.015260 0.894329 0.123789
Si Si4 0.151222 0.249874 0.740067
Si Si5 0.704862 0.108422 0.054682
O O1 0.050467 0.500000 0.204414
O O2 0.162901 0.392394 0.019088
O O3 0.000000 0.349644 0.500000
O O4 0.094445 0.327758 0.987665
O O5 0.449200 0.687016 0.363918
O O6 0.362814 0.771187 0.387234
O O7 0.356943 0.839063 0.655737
O O8 0.292386 0.663852 0.792182
O O9 0.004113 0.000000 0.229832
O O10 0.000000 0.908003 0.000000
O O11 0.110412 0.855877 0.887525
O O12 0.250000 0.250000 0.500000
O O13 0.721861 0.000000 0.060953
#
# Coordination Sequence:
#
# PCOD8099851 Si02
#       5
#     8   8   8   8   8
#     4  10  21  37  57  82 116 157 195 239 300 361
#     4  10  20  36  59  85 116 155 199 251 291 352
#     4   9  19  35  57  82 112 151 194 237 291 352
#     4  11  21  36  58  89 118 151 195 252 295 347
#     4  10  20  35  57  82 115 157 199 242 296 356
#
# _framework density 19.699759
#
# number of rings (size 3 to 8) (size 9 to 14) (size 15 to 20)
#    0.000    2.000    2.000    1.800    0.000    2.400 
#    0.000    0.000    0.000    9.000    0.000    0.000 
#    0.000    0.000    0.000    0.000    0.000    0.000 
#
# Total GULP energy -247890.063483 kJ/mol
# GULP energy per Si atom -12394.503174 kJ/mol
# Density = 1.965492 g / cm^3
# Si number density = 19.699759 Si / 1000 Ang^3
#
#
#
# Elastic Constant Matrix: (Units=GPa)
#
#
# Indices 1 2 3 4 5 6 
#
# 1 62.6738 46.0475 31.6725 0.0000 -2.9986 0.0000
# 2 46.0475 142.9916 60.8500 0.0000 15.9265 0.0000
# 3 31.6725 60.8500 108.7197 0.0000 2.3646 0.0000
# 4 0.0000 0.0000 0.0000 30.2403 0.0000 -0.2853
# 5 -2.9986 15.9265 2.3646 0.0000 40.5538 0.0000
# 6 0.0000 0.0000 0.0000 -0.2853 0.0000 6.3943
#
#
#
# Elastic Compliance Matrix: (Units=1/GPa)
#
#
# Indices 1 2 3 4 5 6 
#
# 1 0.022406 -0.006408 -0.003035 0.000000 0.004350 0.000000
# 2 -0.006408 0.011479 -0.004455 0.000000 -0.004722 0.000000
# 3 -0.003035 -0.004455 0.012558 0.000000 0.000793 0.000000
# 4 0.000000 0.000000 0.000000 0.033082 0.000000 0.001476
# 5 0.004350 -0.004722 0.000793 0.000000 0.026788 0.000000
# 6 0.000000 0.000000 0.000000 0.001476 0.000000 0.156456
#
#
# Mechanical properties :
#
#
# Convention : Reuss Voigt Hill
#
# Bulk Modulus (GPa) = 53.63087 65.72500 59.67793
# Shear Modulus (GPa) = 16.84734 27.15868 22.00301
#
# Velocity S-wave (km/s) = 2.92756 3.71702 3.34566
# Velocity P-wave (km/s) = 6.22179 7.20121 6.72934
#
# Compressibility (1/GPa) = 0.01864598
#
# Stress axis : x y z
#
# Youngs Moduli (GPa) = 44.63104 87.11647 79.62743
#
# Poissons Ratio (x) = 0.55826 0.24169
# Poissons Ratio (y) = 0.28601 0.35475
# Poissons Ratio (z) = 0.13547 0.38811
#
# Static dielectric constant tensor:
#      x y z
#    x 3.365960 0.000000 -0.065780 
#    y 0.000000 3.800360 0.000000 
#    z -0.065780 0.000000 3.763870 
# 
# 
# High freq. dielectric constant tensor:
#      x y z
#    x 1.746280 0.000000 -0.013980 
#    y 0.000000 1.771910 0.000000 
#    z -0.013980 0.000000 1.778490 
# 
# From -- ./inp_files/59197.got.cif
#   From: 2010.06.25/outbox.cif.g09.slc.cpg/sg12_30_cif.got.tgz:59197.got - 2010.06.28 00:19:55.
