data_PCOD8099137
_publ_section_title
;
Structure prediction by ZEFSAII (Michael W. Deem and Ramdas Pophale) SiO2 
 PCOD8099137
Probable space group: C 2/M
;
_chemical_formula_sum "Si O2"
_cell_formula_units_Z 40
_cell_length_a 26.643589
_cell_length_b 8.887771
_cell_length_c 18.584824
_cell_angle_alpha 90.000000
_cell_angle_beta 29.339988
_cell_angle_gamma 90.000000
_cell_volume 2156.413838
_symmetry_space_group_name_H-M "C 2/M"
_symmetry_group_IT_number 12
_symmetry_cell_setting 'monoclinic'
loop_
_space_group_symop_operation_xyz
x,y,z
-x,y,-z
-x,-y,-z
x,-y,z
1/2+x,1/2+y,z
1/2-x,1/2+y,-z
1/2-x,1/2-y,-z
1/2+x,1/2-y,z
loop_
_atom_site_type_symbol
_atom_site_label
_atom_site_fract_x
_atom_site_fract_y
_atom_site_fract_z
Si Si1 0.745255 0.677131 0.836481
Si Si2 0.155370 0.824644 0.579186
Si Si3 0.556069 0.176124 0.144546
Si Si4 0.138482 0.825443 0.433297
Si Si5 0.429434 0.825033 0.708634
O O1 0.728021 0.500000 0.856863
O O2 0.780296 0.732690 0.714676
O O3 0.828796 0.724912 0.791561
O O4 0.638958 0.756457 0.987165
O O5 0.250000 0.750000 0.500000
O O6 0.166179 0.793272 0.481103
O O7 0.052191 0.751016 0.738612
O O8 0.152394 0.000000 0.600496
O O9 0.589485 0.213550 0.184341
O O10 0.546337 0.000000 0.143184
O O11 0.024122 0.768864 0.558883
O O12 0.145609 0.000000 0.404470
O O13 0.455045 0.000000 0.665087
#
# Coordination Sequence:
#
# PCOD8099137 Si02
#       5
#     8   8   8   8   8
#     4  11  21  33  51  78 113 146 177 216 259 305
#     4  10  21  39  61  81 102 132 173 219 267 319
#     4  10  20  35  55  79 108 141 178 218 261 310
#     4  10  21  35  53  79 108 139 177 218 260 311
#     4   9  19  34  52  76 108 147 183 214 254 306
#
# _framework density 18.549316000000001
#
# number of rings (size 3 to 8) (size 9 to 14) (size 15 to 20)
#    0.000    2.000    0.000    3.600    0.000    7.200 
#    0.000    1.000    0.000    6.000    0.000    0.000 
#    0.000    0.000    0.000    0.000    0.000    0.000 
#
# Total GULP energy -248120.232329 kJ/mol
# GULP energy per Si atom -12406.011616 kJ/mol
# Density = 1.850710 g / cm^3
# Si number density = 18.549316 Si / 1000 Ang^3
#
#
#
# Elastic Constant Matrix: (Units=GPa)
#
#
# Indices 1 2 3 4 5 6 
#
# 1 78.0505 50.6734 57.6300 -0.0018 -25.3523 0.0021
# 2 50.6734 101.6750 71.8720 -0.0028 -11.2006 0.0026
# 3 57.6300 71.8720 160.2958 -0.0045 -11.3104 0.0030
# 4 -0.0018 -0.0028 -0.0045 41.4116 0.0021 -2.3736
# 5 -25.3523 -11.2006 -11.3104 0.0021 24.7457 -0.0007
# 6 0.0021 0.0026 0.0030 -2.3736 -0.0007 29.4843
#
#
#
# Elastic Compliance Matrix: (Units=1/GPa)
#
#
# Indices 1 2 3 4 5 6 
#
# 1 0.030418 -0.008687 -0.005290 -0.000001 0.024814 0.000000
# 2 -0.008687 0.017213 -0.004828 0.000000 -0.003316 0.000000
# 3 -0.005290 -0.004828 0.010094 0.000001 -0.002992 0.000000
# 4 -0.000001 0.000000 0.000001 0.024260 -0.000003 0.001953
# 5 0.024814 -0.003316 -0.002992 -0.000003 0.062965 0.000000
# 6 0.000000 0.000000 0.000000 0.001953 0.000000 0.034074
#
#
# Mechanical properties :
#
#
# Convention : Reuss Voigt Hill
#
# Bulk Modulus (GPa) = 49.71690 77.81912 63.76801
# Shear Modulus (GPa) = 22.38748 29.78474 26.08611
#
# Velocity S-wave (km/s) = 3.47784 4.01147 3.75415
# Velocity P-wave (km/s) = 6.55652 7.96866 7.29683
#
# Compressibility (1/GPa) = 0.02011389
#
# Stress axis : x y z
#
# Youngs Moduli (GPa) = 32.87496 58.09720 99.06629
#
# Poissons Ratio (x) = 0.50469 0.52408
# Poissons Ratio (y) = 0.28558 0.47833
# Poissons Ratio (z) = 0.17392 0.28052
#
# Static dielectric constant tensor:
#      x y z
#    x 3.279070 0.000000 0.035920 
#    y 0.000000 3.503450 0.000000 
#    z 0.035920 0.000000 3.419060 
# 
# 
# High freq. dielectric constant tensor:
#      x y z
#    x 1.704040 0.000000 0.000520 
#    y 0.000000 1.733600 0.000000 
#    z 0.000520 0.000000 1.725590 
# 
# From -- ./inp_files/151619.got.cif
#   From: 2010.06.25/outbox.cif.g09.slc.cpg/sg12_76_cif.got.tgz:151619.got - 2010.06.28 00:19:55.
