data_PCOD8099610
_publ_section_title
;
Structure prediction by ZEFSAII (Michael W. Deem and Ramdas Pophale) SiO2 
 PCOD8099610
Probable space group: C 2/M
;
_chemical_formula_sum "Si O2"
_cell_formula_units_Z 64
_cell_length_a 24.895166
_cell_length_b 20.043244
_cell_length_c 17.036361
_cell_angle_alpha 90.000000
_cell_angle_beta 158.605723
_cell_angle_gamma 90.000000
_cell_volume 3100.954529
_symmetry_space_group_name_H-M "C 2/M"
_symmetry_group_IT_number 12
_symmetry_cell_setting 'monoclinic'
loop_
_space_group_symop_operation_xyz
x,y,z
-x,y,-z
-x,-y,-z
x,-y,z
1/2+x,1/2+y,z
1/2-x,1/2+y,-z
1/2-x,1/2-y,-z
1/2+x,1/2-y,z
loop_
_atom_site_type_symbol
_atom_site_label
_atom_site_fract_x
_atom_site_fract_y
_atom_site_fract_z
Si Si1 0.609179 0.240261 0.447335
Si Si2 0.142389 0.922337 0.453074
Si Si3 0.392003 0.151494 0.696463
Si Si4 0.605680 0.574589 0.578810
Si Si5 0.830296 0.680245 0.121547
Si Si6 0.100628 0.157022 0.926101
Si Si7 0.898455 0.751401 0.930151
Si Si8 0.135119 0.426370 0.958262
O O1 0.677144 0.200016 0.464572
O O2 0.506666 0.192171 0.362590
O O3 0.505297 0.297393 0.271891
O O4 0.740369 0.269777 0.678933
O O5 0.269065 0.875026 0.588630
O O6 0.109342 0.894883 0.496361
O O7 0.991046 0.912614 0.196817
O O8 0.190632 0.000000 0.517235
O O9 0.467456 0.089858 0.754095
O O10 0.524078 0.188768 0.922682
O O11 0.500000 0.611749 0.500000
O O12 0.540828 0.500000 0.480864
O O13 0.771671 0.574455 0.835206
O O14 0.793883 0.628166 0.002825
O O15 0.750000 0.750000 0.000000
O O16 0.763449 0.648512 0.110049
O O17 0.126263 0.186628 0.046202
O O18 0.000000 0.779970 0.000000
O O19 0.138122 0.500000 0.923241
#
# Coordination Sequence:
#
# PCOD8099610 Si02
#       8
#     8   8   8   8   8   8   8   8
#     4   9  20  39  60  83 116 152 192 251 307 353
#     4  11  22  36  57  83 120 162 196 244 295 352
#     4  10  22  37  56  88 120 151 206 241 289 367
#     4   9  19  33  49  76 110 151 197 231 283 359
#     4   9  19  38  58  84 118 151 201 256 296 356
#     4  10  21  37  57  86 114 146 204 244 295 369
#     4  11  22  36  60  85 114 158 195 247 307 352
#     4  10  20  35  56  82 119 159 191 240 304 360
#
# _framework density 20.638807
#
# number of rings (size 3 to 8) (size 9 to 14) (size 15 to 20)
#    0.000    2.125    0.000    3.375    3.500    4.000 
#    0.000    1.875    0.000    6.375    0.000    4.375 
#    0.000    0.000    0.000    0.000    0.000    0.000 
#
# Total GULP energy -396498.598318 kJ/mol
# GULP energy per Si atom -12390.581197 kJ/mol
# Density = 2.059183 g / cm^3
# Si number density = 20.638807 Si / 1000 Ang^3
#
#
#
# Elastic Constant Matrix: (Units=GPa)
#
#
# Indices 1 2 3 4 5 6 
#
# 1 138.2858 38.1555 28.1615 0.0000 19.5948 0.0000
# 2 38.1555 74.2687 17.2758 0.0000 -4.0246 0.0000
# 3 28.1615 17.2758 75.6773 0.0000 1.0154 0.0000
# 4 0.0000 0.0000 0.0000 26.1949 0.0000 -0.7392
# 5 19.5948 -4.0246 1.0154 0.0000 31.0500 0.0000
# 6 0.0000 0.0000 0.0000 -0.7392 0.0000 29.4210
#
#
#
# Elastic Compliance Matrix: (Units=1/GPa)
#
#
# Indices 1 2 3 4 5 6 
#
# 1 0.010103 -0.004978 -0.002530 0.000000 -0.006938 0.000000
# 2 -0.004978 0.016791 -0.002053 0.000000 0.005385 0.000000
# 3 -0.002530 -0.002053 0.014613 0.000000 0.000853 0.000000
# 4 0.000000 0.000000 0.000000 0.038202 0.000000 0.000960
# 5 -0.006938 0.005385 0.000853 0.000000 0.037255 0.000000
# 6 0.000000 0.000000 0.000000 0.000960 0.000000 0.034013
#
#
# Mechanical properties :
#
#
# Convention : Reuss Voigt Hill
#
# Bulk Modulus (GPa) = 44.67257 50.60193 47.63725
# Shear Modulus (GPa) = 28.15909 30.97579 29.56744
#
# Velocity S-wave (km/s) = 3.69775 3.87829 3.78909
# Velocity P-wave (km/s) = 6.31847 6.68026 6.50188
#
# Compressibility (1/GPa) = 0.02238510
#
# Stress axis : x y z
#
# Youngs Moduli (GPa) = 98.97694 59.55412 68.43325
#
# Poissons Ratio (x) = 0.29646 0.17315
# Poissons Ratio (y) = 0.49271 0.14049
# Poissons Ratio (z) = 0.25044 0.12226
#
# Static dielectric constant tensor:
#      x y z
#    x 4.081230 0.000000 0.270470 
#    y 0.000000 3.756500 0.000000 
#    z 0.270470 0.000000 3.717580 
# 
# 
# High freq. dielectric constant tensor:
#      x y z
#    x 1.819180 0.000000 0.022810 
#    y 0.000000 1.788870 0.000000 
#    z 0.022810 0.000000 1.785370 
# 
# From -- ./inp_files/294169.got.cif
#   From: 2010.06.25/outbox.cif.g09.slc.cpg/sg12_148_cif.got.tgz:294169.got - 2010.06.28 00:19:55.
