data_PCOD8099180
_publ_section_title
;
Structure prediction by ZEFSAII (Michael W. Deem and Ramdas Pophale) SiO2 
 PCOD8099180
Probable space group: C 2/M
;
_chemical_formula_sum "Si O2"
_cell_formula_units_Z 40
_cell_length_a 9.667990
_cell_length_b 15.411004
_cell_length_c 20.433170
_cell_angle_alpha 90.000000
_cell_angle_beta 135.213057
_cell_angle_gamma 90.000000
_cell_volume 2144.701778
_symmetry_space_group_name_H-M "C 2/M"
_symmetry_group_IT_number 12
_symmetry_cell_setting 'monoclinic'
loop_
_space_group_symop_operation_xyz
x,y,z
-x,y,-z
-x,-y,-z
x,-y,z
1/2+x,1/2+y,z
1/2-x,1/2+y,-z
1/2-x,1/2-y,-z
1/2+x,1/2-y,z
loop_
_atom_site_type_symbol
_atom_site_label
_atom_site_fract_x
_atom_site_fract_y
_atom_site_fract_z
Si Si1 0.492921 0.500000 0.604780
Si Si2 0.984642 0.331862 0.714999
Si Si3 0.339648 0.668137 0.285002
Si Si4 0.782010 0.100270 0.915799
Si Si5 0.178578 0.500000 0.395218
Si Si6 0.965388 0.600271 0.915800
O O1 0.518737 0.585615 0.657376
O O2 0.277831 0.500000 0.499999
O O3 0.660010 0.500000 0.606673
O O4 0.020045 0.250000 0.680031
O O5 0.177697 0.346491 0.823495
O O6 0.795262 0.315272 0.696842
O O7 0.953392 0.414385 0.657378
O O8 0.207215 0.653506 0.176506
O O9 0.668316 0.111765 0.945544
O O10 0.786609 0.000000 0.895630
O O11 0.000000 0.137300 0.000000
O O12 0.900282 0.500000 0.895637
O O13 0.000000 0.637306 0.000000
#
# Coordination Sequence:
#
# PCOD8099180 Si02
#       6
#     4   8   8   8   4   8
#     4   9  18  36  60  79 101 139 179 213 260 321
#     4  10  20  35  55  80 108 138 175 217 260 310
#     4  10  20  35  55  80 108 138 175 217 260 310
#     4   9  17  31  51  74 103 139 177 213 252 303
#     4   9  18  36  60  79 101 139 179 213 260 321
#     4   9  17  31  51  74 103 139 177 213 252 303
#
# _framework density 18.650611000000001
#
# number of rings (size 3 to 8) (size 9 to 14) (size 15 to 20)
#    0.000    2.600    2.000    0.000    0.000    3.200 
#    0.000    5.000    0.000    1.200    0.000    0.000 
#    0.000    0.000    0.000    0.000    0.000    0.000 
#
# Total GULP energy -248024.244828 kJ/mol
# GULP energy per Si atom -12401.212241 kJ/mol
# Density = 1.860816 g / cm^3
# Si number density = 18.650611 Si / 1000 Ang^3
#
#
#
# Elastic Constant Matrix: (Units=GPa)
#
#
# Indices 1 2 3 4 5 6 
#
# 1 54.3598 53.9769 47.3887 0.0000 0.0013 0.0000
# 2 53.9769 139.5127 63.3503 0.0000 -0.0005 0.0000
# 3 47.3887 63.3503 109.5666 0.0000 -0.0001 0.0000
# 4 0.0000 0.0000 0.0000 11.8549 0.0000 -0.0015
# 5 0.0013 -0.0005 -0.0001 0.0000 16.6838 0.0000
# 6 0.0000 0.0000 0.0000 -0.0015 0.0000 32.6871
#
#
#
# Elastic Compliance Matrix: (Units=1/GPa)
#
#
# Indices 1 2 3 4 5 6 
#
# 1 0.037040 -0.009568 -0.010488 0.000000 -0.000003 0.000000
# 2 -0.009568 0.012191 -0.002911 0.000000 0.000001 0.000000
# 3 -0.010488 -0.002911 0.015346 0.000000 0.000001 0.000000
# 4 0.000000 0.000000 0.000000 0.084354 0.000000 0.000004
# 5 -0.000003 0.000001 0.000001 0.000000 0.059938 0.000000
# 6 0.000000 0.000000 0.000000 0.000004 0.000000 0.030593
#
#
# Mechanical properties :
#
#
# Convention : Reuss Voigt Hill
#
# Bulk Modulus (GPa) = 53.63749 70.31900 61.97824
# Shear Modulus (GPa) = 17.14623 21.49336 19.31980
#
# Velocity S-wave (km/s) = 3.03535 3.39842 3.22200
# Velocity P-wave (km/s) = 6.41140 7.29275 6.86623
#
# Compressibility (1/GPa) = 0.01864368
#
# Stress axis : x y z
#
# Youngs Moduli (GPa) = 26.99817 82.02551 65.16436
#
# Poissons Ratio (x) = 0.78483 0.68343
# Poissons Ratio (y) = 0.25832 0.18967
# Poissons Ratio (z) = 0.28315 0.23874
#
# Static dielectric constant tensor:
#      x y z
#    x 3.131810 0.000000 0.000010 
#    y 0.000000 3.355100 0.000000 
#    z 0.000010 0.000000 3.514950 
# 
# 
# High freq. dielectric constant tensor:
#      x y z
#    x 1.693300 0.000000 0.000000 
#    y 0.000000 1.725080 0.000000 
#    z 0.000000 0.000000 1.723830 
# 
# From -- ./inp_files/203818.got.cif
#   From: 2010.06.25/outbox.cif.g09.slc.cpg/sg12_102_cif.got.tgz:203818.got - 2010.06.28 00:19:55.
