data_PCOD8099443
_publ_section_title
;
Structure prediction by ZEFSAII (Michael W. Deem and Ramdas Pophale) SiO2 
 PCOD8099443
Probable space group: C 2/M
;
_chemical_formula_sum "Si O2"
_cell_formula_units_Z 56
_cell_length_a 19.129191
_cell_length_b 8.881786
_cell_length_c 26.779916
_cell_angle_alpha 90.000000
_cell_angle_beta 39.404875
_cell_angle_gamma 90.000000
_cell_volume 2888.287877
_symmetry_space_group_name_H-M "C 2/M"
_symmetry_group_IT_number 12
_symmetry_cell_setting 'monoclinic'
loop_
_space_group_symop_operation_xyz
x,y,z
-x,y,-z
-x,-y,-z
x,-y,z
1/2+x,1/2+y,z
1/2-x,1/2+y,-z
1/2-x,1/2-y,-z
1/2+x,1/2-y,z
loop_
_atom_site_type_symbol
_atom_site_label
_atom_site_fract_x
_atom_site_fract_y
_atom_site_fract_z
Si Si1 0.842608 0.671129 0.299642
Si Si2 0.049137 0.328891 0.024266
Si Si3 0.120867 0.174499 0.820887
Si Si4 0.784896 0.173177 0.929256
Si Si5 0.941825 0.326279 0.765871
Si Si6 0.837898 0.821416 0.728117
Si Si7 0.897502 0.174814 0.585554
O O1 0.851794 0.500000 0.273278
O O2 0.875048 0.789038 0.239545
O O3 0.714646 0.702078 0.384673
O O4 0.925731 0.691840 0.300189
O O5 0.011414 0.500000 0.055085
O O6 0.000364 0.224038 0.094621
O O7 0.180679 0.316901 0.949796
O O8 0.000000 0.267048 0.000000
O O9 0.212872 0.263581 0.802086
O O10 0.139882 0.000000 0.819397
O O11 0.883890 0.258671 0.847104
O O12 0.819026 0.000000 0.920224
O O13 0.750000 0.250000 0.000000
O O14 0.907500 0.500000 0.780077
O O15 0.912131 0.240919 0.731738
O O16 0.885077 0.761227 0.648842
O O17 0.837594 0.000000 0.731747
O O18 0.000000 0.253484 0.500000
O O19 0.923790 0.000000 0.576639
#
# Coordination Sequence:
#
# PCOD8099443 Si02
#       7
#     8   8   8   8   8   8   8
#     4   9  19  35  55  78 106 141 175 212 262 315
#     4  10  21  36  52  70  96 133 176 222 270 315
#     4  11  21  33  53  78 103 134 177 224 265 316
#     4  11  23  37  54  76 105 143 184 227 275 322
#     4  11  22  36  54  78 110 144 182 226 270 320
#     4  10  20  35  56  80 109 144 179 219 270 322
#     4   8  15  32  59  85 106 136 180 219 255 314
#
# _framework density 19.388649999999998
#
# number of rings (size 3 to 8) (size 9 to 14) (size 15 to 20)
#    0.000    2.000    0.000    5.143    0.000    7.143 
#    0.000    0.714    0.000   10.714    0.000    0.000 
#    0.000    0.000    0.000    0.000    0.000    0.000 
#
# Total GULP energy -347164.416193 kJ/mol
# GULP energy per Si atom -12398.729150 kJ/mol
# Density = 1.934452 g / cm^3
# Si number density = 19.388650 Si / 1000 Ang^3
#
#
#
# Elastic Constant Matrix: (Units=GPa)
#
#
# Indices 1 2 3 4 5 6 
#
# 1 99.1592 30.5163 25.0018 -0.0002 -11.0927 0.0004
# 2 30.5163 96.7962 28.6564 -0.0003 -3.6074 0.0009
# 3 25.0018 28.6564 94.0242 0.0000 -12.0097 0.0000
# 4 -0.0002 -0.0003 0.0000 13.3746 -0.0001 1.9183
# 5 -11.0927 -3.6074 -12.0097 -0.0001 24.2660 -0.0005
# 6 0.0004 0.0009 0.0000 1.9183 -0.0005 31.2954
#
#
#
# Elastic Compliance Matrix: (Units=1/GPa)
#
#
# Indices 1 2 3 4 5 6 
#
# 1 0.011933 -0.003105 -0.001696 0.000000 0.004154 0.000000
# 2 -0.003105 0.012164 -0.003023 0.000000 -0.001107 0.000000
# 3 -0.001696 -0.003023 0.012651 0.000000 0.005037 0.000000
# 4 0.000000 0.000000 0.000000 0.075432 0.000000 -0.004624
# 5 0.004154 -0.001107 0.005037 0.000000 0.045437 0.000001
# 6 0.000000 0.000000 0.000000 -0.004624 0.000001 0.032237
#
#
# Mechanical properties :
#
#
# Convention : Reuss Voigt Hill
#
# Bulk Modulus (GPa) = 47.39488 50.92539 49.16014
# Shear Modulus (GPa) = 23.52564 27.50755 25.51659
#
# Velocity S-wave (km/s) = 3.48713 3.77071 3.63169
# Velocity P-wave (km/s) = 6.38053 6.72906 6.55711
#
# Compressibility (1/GPa) = 0.02109933
#
# Stress axis : x y z
#
# Youngs Moduli (GPa) = 83.80345 82.21277 79.04376
#
# Poissons Ratio (x) = 0.25527 0.13407
# Poissons Ratio (y) = 0.26021 0.23895
# Poissons Ratio (z) = 0.14214 0.24853
#
# Static dielectric constant tensor:
#      x y z
#    x 3.629300 0.000000 -0.181080 
#    y 0.000000 3.424180 0.000000 
#    z -0.181080 0.000000 3.650770 
# 
# 
# High freq. dielectric constant tensor:
#      x y z
#    x 1.760500 0.000000 -0.014630 
#    y 0.000000 1.744540 0.000000 
#    z -0.014630 0.000000 1.737060 
# 
# From -- ./inp_files/342543.got.cif
#   From: 2010.06.25/outbox.cif.g09.slc.cpg/sg12_172_cif.got.tgz:342543.got - 2010.06.28 00:19:55.
