data_PCOD8099958
_publ_section_title
;
Structure prediction by ZEFSAII (Michael W. Deem and Ramdas Pophale) SiO2 
 PCOD8099958
Probable space group: C 2/M
;
_chemical_formula_sum "Si O2"
_cell_formula_units_Z 64
_cell_length_a 19.359252
_cell_length_b 9.289317
_cell_length_c 29.853929
_cell_angle_alpha 90.000000
_cell_angle_beta 142.054266
_cell_angle_gamma 90.000000
_cell_volume 3301.329246
_symmetry_space_group_name_H-M "C 2/M"
_symmetry_group_IT_number 12
_symmetry_cell_setting 'monoclinic'
loop_
_space_group_symop_operation_xyz
x,y,z
-x,y,-z
-x,-y,-z
x,-y,z
1/2+x,1/2+y,z
1/2-x,1/2+y,-z
1/2-x,1/2-y,-z
1/2+x,1/2-y,z
loop_
_atom_site_type_symbol
_atom_site_label
_atom_site_fract_x
_atom_site_fract_y
_atom_site_fract_z
Si Si1 0.884554 0.335226 0.821820
Si Si2 0.027771 0.834851 0.377184
Si Si3 0.320172 0.333940 0.625678
Si Si4 0.811832 0.331199 0.238648
Si Si5 0.227689 0.334129 0.883538
Si Si6 0.940197 0.330834 0.014846
Si Si7 0.408305 0.668738 0.490062
Si Si8 0.476140 0.164186 0.770226
O O1 0.855037 0.500000 0.818770
O O2 0.773955 0.239688 0.770547
O O3 0.919833 0.317456 0.789116
O O4 0.984249 0.279846 0.904845
O O5 0.142297 0.816073 0.407032
O O6 0.048619 0.787199 0.438852
O O7 0.934764 0.732679 0.308469
O O8 0.986070 0.000000 0.353873
O O9 0.301565 0.500000 0.628387
O O10 0.206424 0.250774 0.578614
O O11 0.419532 0.271992 0.706762
O O12 0.818366 0.500000 0.250904
O O13 0.769652 0.294222 0.167448
O O14 0.257117 0.500000 0.906083
O O15 0.319124 0.242594 0.957168
O O16 0.106571 0.294962 0.841757
O O17 0.920047 0.500000 0.004928
O O18 0.000000 0.279113 0.000000
O O19 0.500000 0.715194 0.500000
O O20 0.382435 0.500000 0.473707
O O21 0.464771 0.000000 0.746532
#
# Coordination Sequence:
#
# PCOD8099958 Si02
#       8
#     8   8   8   8   8   8   8   8
#     4  10  22  39  59  83 115 156 197 239 293 355
#     4  10  22  40  62  88 118 157 199 236 284 346
#     4  11  23  39  62  90 120 153 194 245 290 334
#     4  11  22  36  59  89 118 151 195 245 291 339
#     4  10  21  37  58  85 115 152 195 239 290 345
#     4  10  20  35  57  84 113 150 195 242 292 346
#     4  10  23  42  63  88 119 157 197 233 284 351
#     4  10  22  41  61  83 117 158 196 236 291 356
#
# _framework density 19.386130999999999
#
# number of rings (size 3 to 8) (size 9 to 14) (size 15 to 20)
#    0.000    1.750    2.500    1.125    1.750    4.000 
#    0.000    0.000    0.000    0.000    0.000    0.000 
#    0.000    0.000    0.000    0.000    0.000    0.000 
#
# Total GULP energy -396954.450504 kJ/mol
# GULP energy per Si atom -12404.826578 kJ/mol
# Density = 1.934201 g / cm^3
# Si number density = 19.386131 Si / 1000 Ang^3
#
#
#
# Elastic Constant Matrix: (Units=GPa)
#
#
# Indices 1 2 3 4 5 6 
#
# 1 95.8557 36.9786 27.6272 0.0000 15.0470 -0.0001
# 2 36.9786 62.2312 33.6638 0.0001 9.4480 -0.0003
# 3 27.6272 33.6638 72.1181 0.0000 10.2086 0.0000
# 4 0.0000 0.0001 0.0000 34.8611 0.0000 7.4245
# 5 15.0470 9.4480 10.2086 0.0000 33.7014 0.0000
# 6 -0.0001 -0.0003 0.0000 7.4245 0.0000 26.3713
#
#
#
# Elastic Compliance Matrix: (Units=1/GPa)
#
#
# Indices 1 2 3 4 5 6 
#
# 1 0.014201 -0.006960 -0.001640 0.000000 -0.003892 0.000000
# 2 -0.006960 0.025228 -0.008931 0.000000 -0.001259 0.000000
# 3 -0.001640 -0.008931 0.019021 0.000000 -0.002526 0.000000
# 4 0.000000 0.000000 0.000000 0.030515 0.000000 -0.008591
# 5 -0.003892 -0.001259 -0.002526 0.000000 0.032528 0.000000
# 6 0.000000 0.000000 0.000000 -0.008591 0.000000 0.040339
#
#
# Mechanical properties :
#
#
# Convention : Reuss Voigt Hill
#
# Bulk Modulus (GPa) = 42.76042 47.41601 45.08822
# Shear Modulus (GPa) = 24.42708 27.78245 26.10477
#
# Velocity S-wave (km/s) = 3.55354 3.78975 3.67354
# Velocity P-wave (km/s) = 6.24035 6.60768 6.42664
#
# Compressibility (1/GPa) = 0.02338611
#
# Stress axis : x y z
#
# Youngs Moduli (GPa) = 70.41649 39.63920 52.57350
#
# Poissons Ratio (x) = 0.27590 0.08623
# Poissons Ratio (y) = 0.49012 0.46955
# Poissons Ratio (z) = 0.11550 0.35403
#
# Static dielectric constant tensor:
#      x y z
#    x 3.612760 0.000000 -0.015330 
#    y 0.000000 3.484380 0.000000 
#    z -0.015330 0.000000 3.467380 
# 
# 
# High freq. dielectric constant tensor:
#      x y z
#    x 1.762910 0.000000 0.004500 
#    y 0.000000 1.750250 0.000000 
#    z 0.004500 0.000000 1.755820 
# 
# From -- ./inp_files/378409.got.cif
#   From: 2010.06.25/outbox.cif.g09.slc.cpg/sg12_190_cif.got.tgz:378409.got - 2010.06.28 00:19:55.
