data_PCOD8099832
_publ_section_title
;
Structure prediction by ZEFSAII (Michael W. Deem and Ramdas Pophale) SiO2 
 PCOD8099832
Probable space group: C 2/M
;
_chemical_formula_sum "Si O2"
_cell_formula_units_Z 48
_cell_length_a 17.227283
_cell_length_b 13.678765
_cell_length_c 15.659471
_cell_angle_alpha 90.000000
_cell_angle_beta 44.862014
_cell_angle_gamma 90.000000
_cell_volume 2603.018933
_symmetry_space_group_name_H-M "C 2/M"
_symmetry_group_IT_number 12
_symmetry_cell_setting 'monoclinic'
loop_
_space_group_symop_operation_xyz
x,y,z
-x,y,-z
-x,-y,-z
x,-y,z
1/2+x,1/2+y,z
1/2-x,1/2+y,-z
1/2-x,1/2-y,-z
1/2+x,1/2-y,z
loop_
_atom_site_type_symbol
_atom_site_label
_atom_site_fract_x
_atom_site_fract_y
_atom_site_fract_z
Si Si1 0.792279 0.700666 0.603143
Si Si2 0.438798 0.304262 0.290015
Si Si3 0.080393 0.112699 0.517113
Si Si4 0.561666 0.612749 0.036940
Si Si5 0.287368 0.890086 0.782915
Si Si6 0.533474 0.889400 0.648334
O O1 0.685975 0.664369 0.633844
O O2 0.814023 0.816517 0.573700
O O3 0.770639 0.684532 0.719165
O O4 0.897594 0.637334 0.490641
O O5 0.477473 0.358836 0.347218
O O6 0.522742 0.328031 0.149478
O O7 0.435606 0.186648 0.301785
O O8 0.000000 0.132710 0.500000
O O9 0.118665 0.000000 0.488470
O O10 0.531303 0.500000 0.075826
O O11 0.500000 0.650893 0.000000
O O12 0.692411 0.630184 0.926580
O O13 0.404701 0.874910 0.733488
O O14 0.274357 0.000000 0.756921
O O15 0.560102 0.000000 0.656262
#
# Coordination Sequence:
#
# PCOD8099832 Si02
#       6
#     8   8   8   8   8   8
#     4  11  20  33  56  83 110 140 177 223 273 320
#     4  11  22  35  57  83 108 143 181 221 268 319
#     4  10  21  36  53  77 111 146 179 216 262 320
#     4  10  20  36  57  82 109 136 178 231 273 313
#     4  10  20  35  57  82 108 140 178 226 276 316
#     4  10  21  35  52  79 112 144 177 217 270 326
#
# _framework density 18.440127
#
# number of rings (size 3 to 8) (size 9 to 14) (size 15 to 20)
#    0.000    1.667    1.667    5.500    0.000    6.000 
#    0.000    0.000    0.000    1.500    0.000    0.000 
#    0.000    0.000    0.000    0.000    0.000    0.000 
#
# Total GULP energy -297578.636961 kJ/mol
# GULP energy per Si atom -12399.109873 kJ/mol
# Density = 1.839816 g / cm^3
# Si number density = 18.440127 Si / 1000 Ang^3
#
#
#
# Elastic Constant Matrix: (Units=GPa)
#
#
# Indices 1 2 3 4 5 6 
#
# 1 52.8594 10.8456 45.6138 0.0000 -6.6219 0.0000
# 2 10.8456 85.3164 40.0047 0.0000 3.1821 0.0000
# 3 45.6138 40.0047 125.1975 0.0000 0.1226 0.0000
# 4 0.0000 0.0000 0.0000 24.3106 0.0000 0.6650
# 5 -6.6219 3.1821 0.1226 0.0000 37.5415 0.0000
# 6 0.0000 0.0000 0.0000 0.6650 0.0000 26.3422
#
#
#
# Elastic Compliance Matrix: (Units=1/GPa)
#
#
# Indices 1 2 3 4 5 6 
#
# 1 0.028639 0.001257 -0.010841 0.000000 0.004980 0.000000
# 2 0.001257 0.013892 -0.004896 0.000000 -0.000940 0.000000
# 3 -0.010841 -0.004896 0.013503 0.000000 -0.001541 0.000000
# 4 0.000000 0.000000 0.000000 0.041163 0.000000 -0.001039
# 5 0.004980 -0.000940 -0.001541 0.000000 0.027600 0.000000
# 6 0.000000 0.000000 0.000000 -0.001039 0.000000 0.037988
#
#
# Mechanical properties :
#
#
# Convention : Reuss Voigt Hill
#
# Bulk Modulus (GPa) = 36.93546 50.70015 43.81780
# Shear Modulus (GPa) = 24.90421 28.76612 26.83517
#
# Velocity S-wave (km/s) = 3.67896 3.95394 3.81892
# Velocity P-wave (km/s) = 6.17412 6.95694 6.57719
#
# Compressibility (1/GPa) = 0.02707425
#
# Stress axis : x y z
#
# Youngs Moduli (GPa) = 34.91772 71.98353 74.05829
#
# Poissons Ratio (x) = -0.09046 0.80283
# Poissons Ratio (y) = -0.04388 0.36258
# Poissons Ratio (z) = 0.37853 0.35243
#
# Static dielectric constant tensor:
#      x y z
#    x 3.382320 0.000000 -0.081340 
#    y 0.000000 3.457100 0.000000 
#    z -0.081340 0.000000 3.379200 
# 
# 
# High freq. dielectric constant tensor:
#      x y z
#    x 1.711240 0.000000 -0.005910 
#    y 0.000000 1.711670 0.000000 
#    z -0.005910 0.000000 1.710370 
# 
# From -- ./inp_files/166871.got.cif
#   From: 2010.06.25/outbox.cif.g09.slc.cpg/sg12_84_cif.got.tgz:166871.got - 2010.06.28 00:19:55.
