data_PCOD8099965
_publ_section_title
;
Structure prediction by ZEFSAII (Michael W. Deem and Ramdas Pophale) SiO2 
 PCOD8099965
Probable space group: C 2/M
;
_chemical_formula_sum "Si O2"
_cell_formula_units_Z 64
_cell_length_a 24.108549
_cell_length_b 9.081265
_cell_length_c 15.076738
_cell_angle_alpha 90.000000
_cell_angle_beta 92.674923
_cell_angle_gamma 90.000000
_cell_volume 3297.245945
_symmetry_space_group_name_H-M "C 2/M"
_symmetry_group_IT_number 12
_symmetry_cell_setting 'monoclinic'
loop_
_space_group_symop_operation_xyz
x,y,z
-x,y,-z
-x,-y,-z
x,-y,z
1/2+x,1/2+y,z
1/2-x,1/2+y,-z
1/2-x,1/2-y,-z
1/2+x,1/2-y,z
loop_
_atom_site_type_symbol
_atom_site_label
_atom_site_fract_x
_atom_site_fract_y
_atom_site_fract_z
Si Si1 0.767650 0.828298 0.634489
Si Si2 0.542007 0.829780 0.759331
Si Si3 0.733957 0.170301 0.191020
Si Si4 0.365181 0.169998 0.944239
Si Si5 0.842954 0.668855 0.142107
Si Si6 0.527153 0.673841 0.094532
Si Si7 0.454696 0.328291 0.423211
Si Si8 0.669629 0.670793 0.537599
O O1 0.790488 0.753969 0.725372
O O2 0.706861 0.764667 0.607596
O O3 0.812236 0.792758 0.561516
O O4 0.760294 0.000000 0.650531
O O5 0.606541 0.808881 0.786749
O O6 0.505308 0.744495 0.827128
O O7 0.530423 0.764926 0.661947
O O8 0.524673 0.000000 0.759905
O O9 0.694073 0.199105 0.104996
O O10 0.794502 0.227384 0.171665
O O11 0.738259 0.000000 0.215480
O O12 0.409877 0.270049 0.897753
O O13 0.383370 0.000000 0.937760
O O14 0.361544 0.219553 0.045896
O O15 0.822336 0.500000 0.138572
O O16 0.525867 0.500000 0.105868
O O17 0.500000 0.724974 0.000000
O O18 0.500000 0.287240 0.500000
O O19 0.456971 0.500000 0.398657
O O20 0.394322 0.284091 0.456271
O O21 0.679729 0.500000 0.560077
#
# Coordination Sequence:
#
# PCOD8099965 Si02
#       8
#     8   8   8   8   8   8   8   8
#     4  10  20  35  57  84 114 149 190 236 290 348
#     4  11  23  39  63  90 118 157 200 245 297 353
#     4  11  23  36  55  85 120 155 194 238 289 346
#     4  10  22  40  59  83 117 157 195 239 294 348
#     4  10  21  38  60  84 115 155 197 240 292 347
#     4  11  23  39  62  90 117 151 199 248 294 348
#     4  10  22  40  60  85 119 154 192 243 299 353
#     4   9  19  37  60  83 109 146 191 239 291 345
#
# _framework density 19.410139000000001
#
# number of rings (size 3 to 8) (size 9 to 14) (size 15 to 20)
#    0.000    1.750    1.250    2.625    0.000    7.250 
#    0.000    1.250    0.000    0.000    0.000    0.000 
#    0.000    0.000    0.000    0.000    0.000    0.000 
#
# Total GULP energy -396993.970987 kJ/mol
# GULP energy per Si atom -12406.061593 kJ/mol
# Density = 1.936596 g / cm^3
# Si number density = 19.410139 Si / 1000 Ang^3
#
#
#
# Elastic Constant Matrix: (Units=GPa)
#
#
# Indices 1 2 3 4 5 6 
#
# 1 80.9973 39.6669 48.6355 0.0000 -12.4605 0.0000
# 2 39.6669 84.1210 56.5563 0.0000 -3.7838 0.0000
# 3 48.6355 56.5563 121.2854 0.0000 0.0048 0.0000
# 4 0.0000 0.0000 0.0000 29.9610 0.0000 -1.8976
# 5 -12.4605 -3.7838 0.0048 0.0000 28.1634 0.0000
# 6 0.0000 0.0000 0.0000 -1.8976 0.0000 32.5829
#
#
#
# Elastic Compliance Matrix: (Units=1/GPa)
#
#
# Indices 1 2 3 4 5 6 
#
# 1 0.019274 -0.005156 -0.005325 0.000000 0.007836 0.000000
# 2 -0.005156 0.018850 -0.006722 0.000000 0.000252 0.000000
# 3 -0.005325 -0.006722 0.013515 0.000000 -0.003261 0.000000
# 4 0.000000 0.000000 0.000000 0.033500 0.000000 0.001951
# 5 0.007836 0.000252 -0.003261 0.000000 0.039008 0.000000
# 6 0.000000 0.000000 0.000000 0.001951 0.000000 0.030805
#
#
# Mechanical properties :
#
#
# Convention : Reuss Voigt Hill
#
# Bulk Modulus (GPa) = 58.02999 64.01346 61.02173
# Shear Modulus (GPa) = 25.62755 27.57779 26.60267
#
# Velocity S-wave (km/s) = 3.63756 3.77343 3.70612
# Velocity P-wave (km/s) = 6.89957 7.21360 7.05833
#
# Compressibility (1/GPa) = 0.01723247
#
# Stress axis : x y z
#
# Youngs Moduli (GPa) = 51.88347 53.05083 73.99164
#
# Poissons Ratio (x) = 0.27354 0.39399
# Poissons Ratio (y) = 0.26752 0.49739
# Poissons Ratio (z) = 0.27627 0.35662
#
# Static dielectric constant tensor:
#      x y z
#    x 3.495680 0.000000 -0.005910 
#    y 0.000000 3.557930 0.000000 
#    z -0.005910 0.000000 3.716360 
# 
# 
# High freq. dielectric constant tensor:
#      x y z
#    x 1.754850 0.000000 -0.004600 
#    y 0.000000 1.759190 0.000000 
#    z -0.004600 0.000000 1.765730 
# 
# From -- ./inp_files/238776.got.cif
#   From: 2010.06.25/outbox.cif.g09.slc.cpg/sg12_120_cif.got.tgz:238776.got - 2010.06.28 00:19:55.
