data_PCOD8099532
_publ_section_title
;
Structure prediction by ZEFSAII (Michael W. Deem and Ramdas Pophale) SiO2 
 PCOD8099532
Probable space group: C 2/M
;
_chemical_formula_sum "Si O2"
_cell_formula_units_Z 36
_cell_length_a 8.136834
_cell_length_b 12.727006
_cell_length_c 17.106398
_cell_angle_alpha 90.000000
_cell_angle_beta 70.100243
_cell_angle_gamma 90.000000
_cell_volume 1665.719601
_symmetry_space_group_name_H-M "C 2/M"
_symmetry_group_IT_number 12
_symmetry_cell_setting 'monoclinic'
loop_
_space_group_symop_operation_xyz
x,y,z
-x,y,-z
-x,-y,-z
x,-y,z
1/2+x,1/2+y,z
1/2-x,1/2+y,-z
1/2-x,1/2-y,-z
1/2+x,1/2-y,z
loop_
_atom_site_type_symbol
_atom_site_label
_atom_site_fract_x
_atom_site_fract_y
_atom_site_fract_z
Si Si1 0.703565 0.325713 0.890166
Si Si2 0.669062 0.300821 0.619235
Si Si3 0.690462 0.616674 0.066274
Si Si4 0.500000 0.308314 0.500000
Si Si5 0.402774 0.118415 0.708522
O O1 0.515048 0.362014 0.892208
O O2 0.704661 0.198517 0.896521
O O3 0.849647 0.365251 0.806825
O O4 0.751020 0.373956 0.966636
O O5 0.560327 0.369213 0.570257
O O6 0.845020 0.268278 0.548491
O O7 0.555674 0.199419 0.662608
O O8 0.724880 0.367480 0.685747
O O9 0.733483 0.500000 0.089897
O O10 0.473779 0.000000 0.684986
#
# Coordination Sequence:
#
# PCOD8099532 Si02
#       5
#     8   8   8   4   8
#     4  10  20  35  56  81 113 146 189 233 273 324
#     4   9  19  36  59  82 110 145 181 221 275 329
#     4  10  20  37  56  78 109 153 192 229 274 321
#     4   8  16  38  58  78 116 142 172 234 264 314
#     4  11  21  36  56  83 113 145 180 228 280 326
#
# _framework density 21.612280999999999
#
# number of rings (size 3 to 8) (size 9 to 14) (size 15 to 20)
#    0.000    2.222    0.000    4.000    0.000    0.000 
#    0.000   40.000    0.000    0.000    0.000    0.000 
#    0.000    0.000    0.000    0.000    0.000    0.000 
#
# Total GULP energy -222988.075359 kJ/mol
# GULP energy per Si atom -12388.226409 kJ/mol
# Density = 2.156309 g / cm^3
# Si number density = 21.612281 Si / 1000 Ang^3
#
#
#
# Elastic Constant Matrix: (Units=GPa)
#
#
# Indices 1 2 3 4 5 6 
#
# 1 60.0534 19.6928 35.6786 0.0000 -5.8977 0.0000
# 2 19.6928 139.7613 22.9915 0.0000 -5.1354 0.0000
# 3 35.6786 22.9915 103.0232 0.0000 -15.9363 0.0000
# 4 0.0000 0.0000 0.0000 3.8952 0.0000 -1.4823
# 5 -5.8977 -5.1354 -15.9363 0.0000 27.4548 0.0000
# 6 0.0000 0.0000 0.0000 -1.4823 0.0000 27.2835
#
#
#
# Elastic Compliance Matrix: (Units=1/GPa)
#
#
# Indices 1 2 3 4 5 6 
#
# 1 0.021426 -0.001864 -0.006972 0.000000 0.000207 0.000000
# 2 -0.001864 0.007595 -0.000980 0.000000 0.000452 0.000000
# 3 -0.006972 -0.000980 0.013271 0.000000 0.006022 0.000000
# 4 0.000000 0.000000 0.000000 0.262143 0.000000 0.014242
# 5 0.000207 0.000452 0.006022 0.000000 0.040048 0.000000
# 6 0.000000 0.000000 0.000000 0.014242 0.000000 0.037426
#
#
# Mechanical properties :
#
#
# Convention : Reuss Voigt Hill
#
# Bulk Modulus (GPa) = 44.12949 51.06263 47.59606
# Shear Modulus (GPa) = 12.22210 26.69170 19.45690
#
# Velocity S-wave (km/s) = 2.38064 3.51810 3.00371
# Velocity P-wave (km/s) = 5.29336 6.33883 5.83953
#
# Compressibility (1/GPa) = 0.02266058
#
# Stress axis : x y z
#
# Youngs Moduli (GPa) = 46.67289 131.65704 75.35080
#
# Poissons Ratio (x) = 0.24546 0.52534
# Poissons Ratio (y) = 0.08702 0.07381
# Poissons Ratio (z) = 0.32540 0.12896
#
# Static dielectric constant tensor:
#      x y z
#    x 4.203220 0.000000 0.355400 
#    y 0.000000 3.687000 0.000000 
#    z 0.355400 0.000000 4.244740 
# 
# 
# High freq. dielectric constant tensor:
#      x y z
#    x 1.848530 0.000000 0.000880 
#    y 0.000000 1.815190 0.000000 
#    z 0.000880 0.000000 1.862060 
# 
# From -- ./inp_files/254536.got.cif
#   From: 2010.06.25/outbox.cif.g09.slc.cpg/sg12_128_cif.got.tgz:254536.got - 2010.06.28 00:19:55.
