data_PCOD8099296
_publ_section_title
;
Structure prediction by ZEFSAII (Michael W. Deem and Ramdas Pophale) SiO2 
 PCOD8099296
Probable space group: C 2/M
;
_chemical_formula_sum "Si O2"
_cell_formula_units_Z 64
_cell_length_a 25.760296
_cell_length_b 9.099101
_cell_length_c 14.855125
_cell_angle_alpha 90.000000
_cell_angle_beta 65.646627
_cell_angle_gamma 90.000000
_cell_volume 3172.147243
_symmetry_space_group_name_H-M "C 2/M"
_symmetry_group_IT_number 12
_symmetry_cell_setting 'monoclinic'
loop_
_space_group_symop_operation_xyz
x,y,z
-x,y,-z
-x,-y,-z
x,-y,z
1/2+x,1/2+y,z
1/2-x,1/2+y,-z
1/2-x,1/2-y,-z
1/2+x,1/2-y,z
loop_
_atom_site_type_symbol
_atom_site_label
_atom_site_fract_x
_atom_site_fract_y
_atom_site_fract_z
Si Si1 0.806067 0.662039 0.943079
Si Si2 0.336700 0.174702 0.579625
Si Si3 0.052536 0.843096 0.024305
Si Si4 0.010766 0.825959 0.243614
Si Si5 0.880999 0.824547 0.377278
Si Si6 0.647981 0.160097 0.892078
Si Si7 0.891228 0.672862 0.732691
Si Si8 0.715311 0.825006 0.675724
O O1 0.789009 0.500000 0.921400
O O2 0.846968 0.735073 0.839210
O O3 0.750000 0.750000 0.000000
O O4 0.837467 0.656765 0.014418
O O5 0.376466 0.257954 0.480214
O O6 0.364760 0.211675 0.655341
O O7 0.273709 0.241403 0.614405
O O8 0.334123 0.000000 0.563803
O O9 0.034749 0.764151 0.130703
O O10 0.080970 0.000000 0.029422
O O11 0.093144 0.760275 0.925679
O O12 0.000000 0.874474 0.000000
O O13 0.047788 0.751825 0.296977
O O14 0.944340 0.783951 0.298454
O O15 0.017631 0.000000 0.245876
O O16 0.834549 0.741688 0.349759
O O17 0.870151 0.000000 0.384372
O O18 0.699418 0.212645 0.791036
O O19 0.629793 0.000000 0.870134
O O20 0.901016 0.500000 0.738064
O O21 0.722390 0.000000 0.652633
#
# Coordination Sequence:
#
# PCOD8099296 Si02
#       8
#     8   8   8   8   8   8   8   8
#     4  10  20  35  55  83 117 154 194 236 285 345
#     4  11  24  42  64  91 120 158 205 255 313 369
#     4  10  20  35  56  84 118 155 197 242 288 346
#     4  10  22  39  61  89 121 161 207 253 304 360
#     4  11  24  43  65  89 120 160 204 257 312 366
#     4  10  21  36  56  85 119 153 192 234 286 348
#     4  10  22  40  62  87 123 163 202 251 305 363
#     4  11  23  40  63  93 125 159 201 253 308 366
#
# _framework density 20.175606999999999
#
# number of rings (size 3 to 8) (size 9 to 14) (size 15 to 20)
#    0.000    1.625    1.250    3.000    0.000    5.750 
#    0.000    2.500    0.000    0.000    0.000    0.000 
#    0.000    0.000    0.000    0.000    0.000    0.000 
#
# Total GULP energy -396649.092936 kJ/mol
# GULP energy per Si atom -12395.284154 kJ/mol
# Density = 2.012969 g / cm^3
# Si number density = 20.175607 Si / 1000 Ang^3
#
#
#
# Elastic Constant Matrix: (Units=GPa)
#
#
# Indices 1 2 3 4 5 6 
#
# 1 99.8804 36.4185 18.4940 0.0000 -4.1158 0.0000
# 2 36.4185 71.3443 27.1311 0.0000 -8.3659 0.0000
# 3 18.4940 27.1311 100.5062 0.0000 -3.0166 0.0000
# 4 0.0000 0.0000 0.0000 11.8435 0.0000 3.4780
# 5 -4.1158 -8.3659 -3.0166 0.0000 35.4127 0.0000
# 6 0.0000 0.0000 0.0000 3.4780 0.0000 30.5868
#
#
#
# Elastic Compliance Matrix: (Units=1/GPa)
#
#
# Indices 1 2 3 4 5 6 
#
# 1 0.012338 -0.006063 -0.000635 0.000000 -0.000052 0.000000
# 2 -0.006063 0.019003 -0.003911 0.000000 0.003452 0.000000
# 3 -0.000635 -0.003911 0.011121 0.000000 -0.000050 0.000000
# 4 0.000000 0.000000 0.000000 0.087351 0.000000 -0.009933
# 5 -0.000052 0.003452 -0.000050 0.000000 0.029044 0.000000
# 6 0.000000 0.000000 0.000000 -0.009933 0.000000 0.033823
#
#
# Mechanical properties :
#
#
# Convention : Reuss Voigt Hill
#
# Bulk Modulus (GPa) = 47.07047 48.42424 47.74735
# Shear Modulus (GPa) = 22.62662 28.21442 25.42052
#
# Velocity S-wave (km/s) = 3.35249 3.74363 3.55345
# Velocity P-wave (km/s) = 6.19408 6.53757 6.36814
#
# Compressibility (1/GPa) = 0.02124474
#
# Stress axis : x y z
#
# Youngs Moduli (GPa) = 81.05041 52.62285 89.92260
#
# Poissons Ratio (x) = 0.31903 0.05713
# Poissons Ratio (y) = 0.49138 0.35165
# Poissons Ratio (z) = 0.05149 0.20579
#
# Static dielectric constant tensor:
#      x y z
#    x 3.509630 0.000000 -0.030510 
#    y 0.000000 4.033790 0.000000 
#    z -0.030510 0.000000 4.047350 
# 
# 
# High freq. dielectric constant tensor:
#      x y z
#    x 1.787290 0.000000 -0.001660 
#    y 0.000000 1.787380 0.000000 
#    z -0.001660 0.000000 1.801040 
# 
# From -- ./inp_files/243899.got.cif
#   From: 2010.06.25/outbox.cif.g09.slc.cpg/sg12_122_cif.got.tgz:243899.got - 2010.06.28 00:19:55.
