data_PCOD8099961
_publ_section_title
;
Structure prediction by ZEFSAII (Michael W. Deem and Ramdas Pophale) SiO2 
 PCOD8099961
Probable space group: C 2/M
;
_chemical_formula_sum "Si O2"
_cell_formula_units_Z 48
_cell_length_a 16.007452
_cell_length_b 13.632991
_cell_length_c 15.446408
_cell_angle_alpha 90.000000
_cell_angle_beta 39.731921
_cell_angle_gamma 90.000000
_cell_volume 2154.642188
_symmetry_space_group_name_H-M "C 2/M"
_symmetry_group_IT_number 12
_symmetry_cell_setting 'monoclinic'
loop_
_space_group_symop_operation_xyz
x,y,z
-x,y,-z
-x,-y,-z
x,-y,z
1/2+x,1/2+y,z
1/2-x,1/2+y,-z
1/2-x,1/2-y,-z
1/2+x,1/2-y,z
loop_
_atom_site_type_symbol
_atom_site_label
_atom_site_fract_x
_atom_site_fract_y
_atom_site_fract_z
Si Si1 0.707704 0.302090 0.362747
Si Si2 0.038849 0.786120 0.333634
Si Si3 0.807497 0.390695 0.826463
Si Si4 0.591153 0.700056 0.100260
Si Si5 0.979969 0.388275 0.116623
Si Si6 0.341811 0.608117 0.227678
O O1 0.642083 0.323525 0.322257
O O2 0.605713 0.318567 0.521897
O O3 0.830312 0.374935 0.267472
O O4 0.751511 0.189881 0.344387
O O5 0.062147 0.667641 0.307882
O O6 0.064447 0.834077 0.220089
O O7 0.848999 0.500000 0.822315
O O8 0.695815 0.394964 0.842821
O O9 0.740401 0.328164 0.957666
O O10 0.569431 0.816926 0.103313
O O11 0.492656 0.639133 0.117426
O O12 0.022742 0.500000 0.099863
O O13 0.000000 0.360093 0.000000
O O14 0.318076 0.500000 0.287719
#
# Coordination Sequence:
#
# PCOD8099961 Si02
#       6
#     8   8   8   8   8   8
#     4   9  20  40  57  75 110 150 183 222 273 330
#     4  10  21  36  55  78 111 150 183 220 273 325
#     4  10  20  35  57  84 114 145 178 220 274 334
#     4  11  20  34  56  84 112 141 182 234 275 314
#     4  10  21  38  60  82 107 146 190 227 267 319
#     4   9  18  33  56  82 107 138 176 223 281 335
#
# _framework density 22.277480000000001
#
# number of rings (size 3 to 8) (size 9 to 14) (size 15 to 20)
#    0.000    2.167    0.000    4.500    0.000    5.333 
#    0.000   11.667    0.000    1.000    0.000    0.000 
#    0.000    0.000    0.000    0.000    0.000    0.000 
#
# Total GULP energy -297481.007815 kJ/mol
# GULP energy per Si atom -12395.041992 kJ/mol
# Density = 2.222678 g / cm^3
# Si number density = 22.277480 Si / 1000 Ang^3
#
#
#
# Elastic Constant Matrix: (Units=GPa)
#
#
# Indices 1 2 3 4 5 6 
#
# 1 59.2674 7.6384 32.0473 0.0000 -4.1972 0.0000
# 2 7.6384 75.7896 5.8734 0.0000 3.2284 0.0000
# 3 32.0473 5.8734 111.6277 0.0000 0.6792 0.0000
# 4 0.0000 0.0000 0.0000 18.9926 0.0000 -3.9832
# 5 -4.1972 3.2284 0.6792 0.0000 32.6410 0.0000
# 6 0.0000 0.0000 0.0000 -3.9832 0.0000 8.5236
#
#
#
# Elastic Compliance Matrix: (Units=1/GPa)
#
#
# Indices 1 2 3 4 5 6 
#
# 1 0.020436 -0.001735 -0.005793 0.000000 0.002920 0.000000
# 2 -0.001735 0.013451 -0.000200 0.000000 -0.001549 0.000000
# 3 -0.005793 -0.000200 0.010638 0.000000 -0.000946 0.000000
# 4 0.000000 0.000000 0.000000 0.058373 0.000000 0.027278
# 5 0.002920 -0.001549 -0.000946 0.000000 0.031185 0.000000
# 6 0.000000 0.000000 0.000000 0.027278 0.000000 0.130068
#
#
# Mechanical properties :
#
#
# Convention : Reuss Voigt Hill
#
# Bulk Modulus (GPa) = 34.40307 37.53367 35.96837
# Shear Modulus (GPa) = 17.28329 25.43981 21.36155
#
# Velocity S-wave (km/s) = 2.78837 3.38294 3.09995
# Velocity P-wave (km/s) = 5.08362 5.66956 5.38457
#
# Compressibility (1/GPa) = 0.02906717
#
# Stress axis : x y z
#
# Youngs Moduli (GPa) = 48.93397 74.34501 94.00373
#
# Poissons Ratio (x) = 0.12899 0.54460
# Poissons Ratio (y) = 0.08490 0.01882
# Poissons Ratio (z) = 0.28349 0.01488
#
# Static dielectric constant tensor:
#      x y z
#    x 4.078650 0.000000 -0.015190 
#    y 0.000000 3.936330 0.000000 
#    z -0.015190 0.000000 3.814560 
# 
# 
# High freq. dielectric constant tensor:
#      x y z
#    x 1.889250 0.000000 -0.002720 
#    y 0.000000 1.860710 0.000000 
#    z -0.002720 0.000000 1.862280 
# 
# From -- ./inp_files/225078.got.cif
#   From: 2010.06.25/outbox.cif.g09.slc.cpg/sg12_113_cif.got.tgz:225078.got - 2010.06.28 00:19:55.
