data_PCOD8099220
_publ_section_title
;
Structure prediction by ZEFSAII (Michael W. Deem and Ramdas Pophale) SiO2 
 PCOD8099220
Probable space group: C 2/M
;
_chemical_formula_sum "Si O2"
_cell_formula_units_Z 56
_cell_length_a 15.004757
_cell_length_b 7.776533
_cell_length_c 25.991265
_cell_angle_alpha 90.000000
_cell_angle_beta 64.734984
_cell_angle_gamma 90.000000
_cell_volume 2742.683778
_symmetry_space_group_name_H-M "C 2/M"
_symmetry_group_IT_number 12
_symmetry_cell_setting 'monoclinic'
loop_
_space_group_symop_operation_xyz
x,y,z
-x,y,-z
-x,-y,-z
x,-y,z
1/2+x,1/2+y,z
1/2-x,1/2+y,-z
1/2-x,1/2-y,-z
1/2+x,1/2-y,z
loop_
_atom_site_type_symbol
_atom_site_label
_atom_site_fract_x
_atom_site_fract_y
_atom_site_fract_z
Si Si1 0.408610 0.200237 0.769840
Si Si2 0.729187 0.202306 0.563216
Si Si3 0.502731 0.196093 0.142952
Si Si4 0.562000 0.500000 0.061850
Si Si5 0.520328 0.196995 0.644396
Si Si6 0.150921 0.000000 0.935455
Si Si7 0.928005 0.796319 0.562954
Si Si8 0.703380 0.807732 0.856082
O O1 0.478192 0.232095 0.801891
O O2 0.464945 0.281864 0.706749
O O3 0.304578 0.297116 0.799651
O O4 0.385221 0.000000 0.767827
O O5 0.750000 0.250000 0.500000
O O6 0.626605 0.287011 0.607977
O O7 0.818193 0.268059 0.576785
O O8 0.720593 0.000000 0.568964
O O9 0.570891 0.327223 0.093772
O O10 0.387402 0.231653 0.160104
O O11 0.532016 0.000000 0.120927
O O12 0.458831 0.500000 0.058422
O O13 0.649267 0.500000 0.998004
O O14 0.454396 0.209106 0.609950
O O15 0.538155 0.000000 0.654477
O O16 0.206964 0.829097 0.901897
O O17 0.000000 0.731128 0.500000
O O18 0.935809 0.000000 0.566798
O O19 0.692100 0.000000 0.882045
#
# Coordination Sequence:
#
# PCOD8099220 Si02
#       8
#     8   8   8   4   8   4   8   8
#     4  10  21  39  58  78 118 152 192 249 295 341
#     4  10  20  35  56  79 110 148 182 226 286 341
#     4   9  20  37  59  85 117 157 196 243 296 347
#     4   9  18  34  62  88 119 157 201 235 299 348
#     4  10  22  37  56  83 108 148 191 231 285 343
#     4   9  18  36  58  90 123 155 191 254 287 345
#     4  10  20  35  55  80 113 145 179 229 285 337
#     4  10  20  36  61  87 114 159 200 237 301 349
#
# _framework density 20.417957000000001
#
# number of rings (size 3 to 8) (size 9 to 14) (size 15 to 20)
#    0.000    2.286    2.143    0.000    1.000    3.143 
#    0.000    6.429    0.000    0.000    0.000    0.000 
#    0.000    0.000    0.000    0.000    0.000    0.000 
#
# Total GULP energy -347165.029146 kJ/mol
# GULP energy per Si atom -12398.751041 kJ/mol
# Density = 2.037148 g / cm^3
# Si number density = 20.417957 Si / 1000 Ang^3
#
#
#
# Elastic Constant Matrix: (Units=GPa)
#
#
# Indices 1 2 3 4 5 6 
#
# 1 114.6220 29.2121 66.5471 -0.0001 -5.2966 0.0000
# 2 29.2121 76.3688 49.3560 -0.0002 2.0860 -0.0001
# 3 66.5471 49.3560 181.4919 0.0000 -0.8434 -0.0001
# 4 -0.0001 -0.0002 0.0000 21.8087 0.0000 3.8964
# 5 -5.2966 2.0860 -0.8434 0.0000 30.3993 0.0000
# 6 0.0000 -0.0001 -0.0001 3.8964 0.0000 21.5214
#
#
#
# Elastic Compliance Matrix: (Units=1/GPa)
#
#
# Indices 1 2 3 4 5 6 
#
# 1 0.011455 -0.002098 -0.003620 0.000000 0.002039 0.000000
# 2 -0.002098 0.016315 -0.003675 0.000000 -0.001587 0.000000
# 3 -0.003620 -0.003675 0.007836 0.000000 -0.000161 0.000000
# 4 0.000000 0.000000 0.000000 0.047386 0.000000 -0.008579
# 5 0.002039 -0.001587 -0.000161 0.000000 0.033355 0.000000
# 6 0.000000 0.000000 0.000000 -0.008579 0.000000 0.048019
#
#
# Mechanical properties :
#
#
# Convention : Reuss Voigt Hill
#
# Bulk Modulus (GPa) = 59.45229 73.63478 66.54354
# Shear Modulus (GPa) = 26.48883 29.90373 28.19628
#
# Velocity S-wave (km/s) = 3.60575 3.83113 3.72015
# Velocity P-wave (km/s) = 6.82027 7.46406 7.14942
#
# Compressibility (1/GPa) = 0.01682021
#
# Stress axis : x y z
#
# Youngs Moduli (GPa) = 87.29809 61.29235 127.61643
#
# Poissons Ratio (x) = 0.12857 0.46200
# Poissons Ratio (y) = 0.18312 0.46900
# Poissons Ratio (z) = 0.31604 0.22525
#
# Static dielectric constant tensor:
#      x y z
#    x 3.777110 0.000000 -0.160860 
#    y 0.000000 3.675570 0.000000 
#    z -0.160860 0.000000 3.862370 
# 
# 
# High freq. dielectric constant tensor:
#      x y z
#    x 1.798720 0.000000 -0.004660 
#    y 0.000000 1.792700 0.000000 
#    z -0.004660 0.000000 1.787710 
# 
# From -- ./inp_files/359677.got.cif
#   From: 2010.06.25/outbox.cif.g09.slc.cpg/sg12_180_cif.got.tgz:359677.got - 2010.06.28 00:19:55.
