data_PCOD8099960
_publ_section_title
;
Structure prediction by ZEFSAII (Michael W. Deem and Ramdas Pophale) SiO2 
 PCOD8099960
Probable space group: C 2/M
;
_chemical_formula_sum "Si O2"
_cell_formula_units_Z 48
_cell_length_a 20.428047
_cell_length_b 8.931138
_cell_length_c 13.960742
_cell_angle_alpha 90.000000
_cell_angle_beta 89.799704
_cell_angle_gamma 90.000000
_cell_volume 2547.061878
_symmetry_space_group_name_H-M "C 2/M"
_symmetry_group_IT_number 12
_symmetry_cell_setting 'monoclinic'
loop_
_space_group_symop_operation_xyz
x,y,z
-x,y,-z
-x,-y,-z
x,-y,z
1/2+x,1/2+y,z
1/2-x,1/2+y,-z
1/2-x,1/2-y,-z
1/2+x,1/2-y,z
loop_
_atom_site_type_symbol
_atom_site_label
_atom_site_fract_x
_atom_site_fract_y
_atom_site_fract_z
Si Si1 0.693417 0.824824 0.440365
Si Si2 0.256029 0.672979 0.738054
Si Si3 0.386322 0.322103 0.254742
Si Si4 0.307067 0.329252 0.945627
Si Si5 0.563812 0.174862 0.557635
Si Si6 0.065706 0.177729 0.953204
O O1 0.750000 0.750000 0.500000
O O2 0.695156 0.750448 0.336550
O O3 0.624741 0.788601 0.489514
O O4 0.706631 0.000000 0.431903
O O5 0.243296 0.500000 0.711272
O O6 0.185919 0.752314 0.742380
O O7 0.297562 0.691002 0.833612
O O8 0.379063 0.500000 0.260560
O O9 0.429834 0.264892 0.343190
O O10 0.422673 0.270933 0.156761
O O11 0.304397 0.500000 0.978076
O O12 0.250000 0.250000 0.000000
O O13 0.375910 0.260594 0.979871
O O14 0.500000 0.229094 0.500000
O O15 0.559404 0.000000 0.583105
O O16 0.061525 0.000000 0.956895
O O17 0.000000 0.247654 0.000000
#
# Coordination Sequence:
#
# PCOD8099960 Si02
#       6
#     8   8   8   8   8   8
#     4  11  22  37  60  87 116 152 196 241 288 345
#     4  11  22  35  57  87 120 156 195 245 296 347
#     4  11  21  35  61  88 113 153 198 243 293 350
#     4  10  20  35  57  84 113 151 193 238 287 339
#     4  10  23  42  61  83 118 158 191 236 297 353
#     4   9  19  36  57  84 118 152 190 238 292 343
#
# _framework density 18.845241999999999
#
# number of rings (size 3 to 8) (size 9 to 14) (size 15 to 20)
#    0.000    1.667    3.333    1.500    0.000    3.000 
#    0.000    1.667    0.000    4.500    0.000    0.000 
#    0.000    0.000    0.000    0.000    0.000    0.000 
#
# Total GULP energy -297606.946924 kJ/mol
# GULP energy per Si atom -12400.289455 kJ/mol
# Density = 1.880235 g / cm^3
# Si number density = 18.845242 Si / 1000 Ang^3
#
#
#
# Elastic Constant Matrix: (Units=GPa)
#
#
# Indices 1 2 3 4 5 6 
#
# 1 158.1674 50.1505 87.5713 0.0000 7.7733 0.0000
# 2 50.1505 76.1102 64.6560 0.0000 0.3521 0.0000
# 3 87.5713 64.6560 149.1730 0.0000 -3.5456 0.0000
# 4 0.0000 0.0000 0.0000 29.7880 0.0000 -1.4667
# 5 7.7733 0.3521 -3.5456 0.0000 34.1354 0.0000
# 6 0.0000 0.0000 0.0000 -1.4667 0.0000 21.6094
#
#
#
# Elastic Compliance Matrix: (Units=1/GPa)
#
#
# Indices 1 2 3 4 5 6 
#
# 1 0.009893 -0.002402 -0.004832 0.000000 -0.002730 0.000000
# 2 -0.002402 0.021424 -0.007888 0.000000 -0.000493 0.000000
# 3 -0.004832 -0.007888 0.013019 0.000000 0.002534 0.000000
# 4 0.000000 0.000000 0.000000 0.033683 0.000000 0.002286
# 5 -0.002730 -0.000493 0.002534 0.000000 0.030185 0.000000
# 6 0.000000 0.000000 0.000000 0.002286 0.000000 0.046431
#
#
# Mechanical properties :
#
#
# Convention : Reuss Voigt Hill
#
# Bulk Modulus (GPa) = 70.95045 87.57848 79.26446
# Shear Modulus (GPa) = 26.37458 29.17808 27.77633
#
# Velocity S-wave (km/s) = 3.74509 3.93911 3.84333
# Velocity P-wave (km/s) = 7.51210 8.20135 7.86428
#
# Compressibility (1/GPa) = 0.01409434
#
# Stress axis : x y z
#
# Youngs Moduli (GPa) = 101.07940 46.67596 76.81036
#
# Poissons Ratio (x) = 0.11210 0.37113
# Poissons Ratio (y) = 0.24276 0.60586
# Poissons Ratio (z) = 0.48839 0.36817
#
# Static dielectric constant tensor:
#      x y z
#    x 3.519170 0.000000 0.068650 
#    y 0.000000 3.458980 0.000000 
#    z 0.068650 0.000000 3.540680 
# 
# 
# High freq. dielectric constant tensor:
#      x y z
#    x 1.733840 0.000000 0.001570 
#    y 0.000000 1.721710 0.000000 
#    z 0.001570 0.000000 1.749650 
# 
# From -- ./inp_files/221632.got.cif
#   From: 2010.06.25/outbox.cif.g09.slc.cpg/sg12_111_cif.got.tgz:221632.got - 2010.06.28 00:19:55.
