data_PCOD8099142
_publ_section_title
;
Structure prediction by ZEFSAII (Michael W. Deem and Ramdas Pophale) SiO2 
 PCOD8099142
Probable space group: C 2/M
;
_chemical_formula_sum "Si O2"
_cell_formula_units_Z 56
_cell_length_a 26.951944
_cell_length_b 12.276168
_cell_length_c 13.467721
_cell_angle_alpha 90.000000
_cell_angle_beta 42.801080
_cell_angle_gamma 90.000000
_cell_volume 3027.664959
_symmetry_space_group_name_H-M "C 2/M"
_symmetry_group_IT_number 12
_symmetry_cell_setting 'monoclinic'
loop_
_space_group_symop_operation_xyz
x,y,z
-x,y,-z
-x,-y,-z
x,-y,z
1/2+x,1/2+y,z
1/2-x,1/2+y,-z
1/2-x,1/2-y,-z
1/2+x,1/2-y,z
loop_
_atom_site_type_symbol
_atom_site_label
_atom_site_fract_x
_atom_site_fract_y
_atom_site_fract_z
Si Si1 0.822498 0.371680 0.279643
Si Si2 0.336969 0.625926 0.548906
Si Si3 0.410538 0.810149 0.331041
Si Si4 0.154251 0.698715 0.095132
Si Si5 0.443513 0.000000 0.431749
Si Si6 0.562658 0.131484 0.051032
Si Si7 0.808534 0.126823 0.814827
Si Si8 0.395241 0.000000 0.722223
O O1 0.822619 0.500000 0.269606
O O2 0.742844 0.328641 0.365309
O O3 0.840575 0.335474 0.364916
O O4 0.884655 0.327103 0.113559
O O5 0.346214 0.500000 0.505638
O O6 0.398837 0.692226 0.398334
O O7 0.347805 0.642024 0.651078
O O8 0.418700 0.894768 0.408028
O O9 0.481627 0.819207 0.155072
O O10 0.088372 0.684609 0.116099
O O11 0.146350 0.814786 0.162949
O O12 0.151371 0.606057 0.183069
O O13 0.229726 0.685035 0.924330
O O14 0.401602 0.000000 0.595833
O O15 0.529521 0.000000 0.326534
O O16 0.558946 0.000000 0.064176
O O17 0.800178 0.000000 0.852874
#
# Coordination Sequence:
#
# PCOD8099142 Si02
#       8
#     8   8   8   8   4   8   8   4
#     4  10  20  35  60  84 112 142 187 235 276 325
#     4  10  22  38  56  79 111 156 189 219 269 337
#     4  12  20  36  55  88 115 141 183 233 281 329
#     4  11  18  33  58  78 106 143 182 230 276 324
#     4  11  22  32  52  81 120 139 171 225 296 338
#     4  11  19  35  59  88 113 143 182 231 287 334
#     4  10  20  35  55  79 108 145 190 225 268 329
#     4  11  20  34  51  82 111 148 169 223 297 337
#
# _framework density 18.496102
#
# number of rings (size 3 to 8) (size 9 to 14) (size 15 to 20)
#    0.000    1.286    5.714    1.714    0.000    1.143 
#    0.000    0.714    0.000    4.286    0.000    0.000 
#    0.000    0.000    0.000    0.000    0.000    0.000 
#
# Total GULP energy -347162.687073 kJ/mol
# GULP energy per Si atom -12398.667395 kJ/mol
# Density = 1.845400 g / cm^3
# Si number density = 18.496102 Si / 1000 Ang^3
#
#
#
# Elastic Constant Matrix: (Units=GPa)
#
#
# Indices 1 2 3 4 5 6 
#
# 1 66.5803 31.1582 16.1313 0.0000 8.6670 0.0000
# 2 31.1582 72.7326 31.1637 0.0000 -0.8329 0.0000
# 3 16.1313 31.1637 70.1842 0.0000 6.3928 0.0000
# 4 0.0000 0.0000 0.0000 29.9427 0.0000 0.4439
# 5 8.6670 -0.8329 6.3928 0.0000 20.3966 0.0000
# 6 0.0000 0.0000 0.0000 0.4439 0.0000 25.3843
#
#
#
# Elastic Compliance Matrix: (Units=1/GPa)
#
#
# Indices 1 2 3 4 5 6 
#
# 1 0.020310 -0.008837 0.000077 0.000000 -0.009015 0.000000
# 2 -0.008837 0.021023 -0.007951 0.000000 0.007105 0.000000
# 3 0.000077 -0.007951 0.018316 0.000000 -0.006098 0.000000
# 4 0.000000 0.000000 0.000000 0.033406 0.000000 -0.000584
# 5 -0.009015 0.007105 -0.006098 0.000000 0.055060 0.000000
# 6 0.000000 0.000000 0.000000 -0.000584 0.000000 0.039405
#
#
# Mechanical properties :
#
#
# Convention : Reuss Voigt Hill
#
# Bulk Modulus (GPa) = 38.12800 40.71151 39.41976
# Shear Modulus (GPa) = 21.76914 23.88098 22.82506
#
# Velocity S-wave (km/s) = 3.43440 3.59714 3.51671
# Velocity P-wave (km/s) = 6.03205 6.26986 6.15211
#
# Compressibility (1/GPa) = 0.02622744
#
# Stress axis : x y z
#
# Youngs Moduli (GPa) = 49.23739 47.56771 54.59602
#
# Poissons Ratio (x) = 0.42034 -0.00420
# Poissons Ratio (y) = 0.43510 0.43408
# Poissons Ratio (z) = -0.00379 0.37820
#
# Static dielectric constant tensor:
#      x y z
#    x 3.439380 0.000000 0.045350 
#    y 0.000000 3.224160 0.000000 
#    z 0.045350 0.000000 3.468760 
# 
# 
# High freq. dielectric constant tensor:
#      x y z
#    x 1.718610 0.000000 0.010700 
#    y 0.000000 1.692310 0.000000 
#    z 0.010700 0.000000 1.719050 
# 
# From -- ./inp_files/250556.got.cif
#   From: 2010.06.25/outbox.cif.g09.slc.cpg/sg12_126_cif.got.tgz:250556.got - 2010.06.28 00:19:55.
