data_PCOD8099395
_publ_section_title
;
Structure prediction by ZEFSAII (Michael W. Deem and Ramdas Pophale) SiO2 
 PCOD8099395
Probable space group: C 2/M
;
_chemical_formula_sum "Si O2"
_cell_formula_units_Z 40
_cell_length_a 9.967000
_cell_length_b 10.292107
_cell_length_c 19.993495
_cell_angle_alpha 90.000000
_cell_angle_beta 106.665047
_cell_angle_gamma 90.000000
_cell_volume 1964.816059
_symmetry_space_group_name_H-M "C 2/M"
_symmetry_group_IT_number 12
_symmetry_cell_setting 'monoclinic'
loop_
_space_group_symop_operation_xyz
x,y,z
-x,y,-z
-x,-y,-z
x,-y,z
1/2+x,1/2+y,z
1/2-x,1/2+y,-z
1/2-x,1/2-y,-z
1/2+x,1/2-y,z
loop_
_atom_site_type_symbol
_atom_site_label
_atom_site_fract_x
_atom_site_fract_y
_atom_site_fract_z
Si Si1 0.194673 0.354896 0.750928
Si Si2 0.625893 0.360498 0.944383
Si Si3 0.547386 0.649543 0.305308
Si Si4 0.331987 0.286779 0.904257
Si Si5 0.873057 0.851153 0.531164
O O1 0.135755 0.500000 0.726263
O O2 0.309682 0.313730 0.712442
O O3 0.268709 0.364359 0.833415
O O4 0.072736 0.248369 0.735183
O O5 0.554255 0.500000 0.922747
O O6 0.497329 0.258381 0.917521
O O7 0.743158 0.344813 0.903499
O O8 0.693340 0.359998 0.028239
O O9 0.503678 0.500000 0.283381
O O10 0.570840 0.670133 0.386689
O O11 0.750000 0.750000 0.500000
O O12 0.000000 0.818807 0.500000
O O13 0.819969 0.000000 0.513347
#
# Coordination Sequence:
#
# PCOD8099395 Si02
#       5
#     8   8   8   8   8
#     4  11  22  37  57  82 114 150 189 231 280 336
#     4  10  20  37  56  76 107 141 181 234 285 330
#     4  10  23  40  58  85 118 150 187 230 275 332
#     4  10  20  35  56  80 105 142 186 229 280 335
#     4  10  21  38  61  88 117 149 187 230 275 326
#
# _framework density 20.358141
#
# number of rings (size 3 to 8) (size 9 to 14) (size 15 to 20)
#    0.000    1.800    0.000    4.800    0.000    4.400 
#    0.000   12.000    0.000    0.000    0.000    0.000 
#    0.000    0.000    0.000    0.000    0.000    0.000 
#
# Total GULP energy -247832.563207 kJ/mol
# GULP energy per Si atom -12391.628160 kJ/mol
# Density = 2.031181 g / cm^3
# Si number density = 20.358141 Si / 1000 Ang^3
#
#
#
# Elastic Constant Matrix: (Units=GPa)
#
#
# Indices 1 2 3 4 5 6 
#
# 1 107.1897 58.5186 24.5331 0.0000 -2.4214 0.0000
# 2 58.5186 96.4291 25.5479 0.0000 8.5250 0.0000
# 3 24.5331 25.5479 73.5141 0.0000 -2.0819 0.0000
# 4 0.0000 0.0000 0.0000 14.1983 0.0000 5.9014
# 5 -2.4214 8.5250 -2.0819 0.0000 32.2585 0.0000
# 6 0.0000 0.0000 0.0000 5.9014 0.0000 35.8204
#
#
#
# Elastic Compliance Matrix: (Units=1/GPa)
#
#
# Indices 1 2 3 4 5 6 
#
# 1 0.014517 -0.008634 -0.001752 0.000000 0.003258 0.000000
# 2 -0.008634 0.016914 -0.003147 0.000000 -0.005321 0.000000
# 3 -0.001752 -0.003147 0.015329 0.000000 0.001690 0.000000
# 4 0.000000 0.000000 0.000000 0.075608 0.000000 -0.012456
# 5 0.003258 -0.005321 0.001690 0.000000 0.032759 0.000000
# 6 0.000000 0.000000 0.000000 -0.012456 0.000000 0.029969
#
#
# Mechanical properties :
#
#
# Convention : Reuss Voigt Hill
#
# Bulk Modulus (GPa) = 50.77671 54.92578 52.85125
# Shear Modulus (GPa) = 22.85936 27.69099 25.27518
#
# Velocity S-wave (km/s) = 3.35455 3.69208 3.52735
# Velocity P-wave (km/s) = 6.32454 6.72411 6.52738
#
# Compressibility (1/GPa) = 0.01969407
#
# Stress axis : x y z
#
# Youngs Moduli (GPa) = 68.88299 59.12212 65.23503
#
# Poissons Ratio (x) = 0.51045 0.11429
# Poissons Ratio (y) = 0.59473 0.20533
# Poissons Ratio (z) = 0.12068 0.18609
#
# Static dielectric constant tensor:
#      x y z
#    x 3.702860 0.000000 -0.205680 
#    y 0.000000 3.767950 0.000000 
#    z -0.205680 0.000000 3.744000 
# 
# 
# High freq. dielectric constant tensor:
#      x y z
#    x 1.799250 0.000000 -0.012430 
#    y 0.000000 1.783600 0.000000 
#    z -0.012430 0.000000 1.803600 
# 
# From -- ./inp_files/254730.got.cif
#   From: 2010.06.25/outbox.cif.g09.slc.cpg/sg12_128_cif.got.tgz:254730.got - 2010.06.28 00:19:55.
