data_PCOD8099255
_publ_section_title
;
Structure prediction by ZEFSAII (Michael W. Deem and Ramdas Pophale) SiO2 
 PCOD8099255
Probable space group: C 2/M
;
_chemical_formula_sum "Si O2"
_cell_formula_units_Z 56
_cell_length_a 22.753879
_cell_length_b 14.170952
_cell_length_c 9.388326
_cell_angle_alpha 90.000000
_cell_angle_beta 120.145451
_cell_angle_gamma 90.000000
_cell_volume 2617.790387
_symmetry_space_group_name_H-M "C 2/M"
_symmetry_group_IT_number 12
_symmetry_cell_setting 'monoclinic'
loop_
_space_group_symop_operation_xyz
x,y,z
-x,y,-z
-x,-y,-z
x,-y,z
1/2+x,1/2+y,z
1/2-x,1/2+y,-z
1/2-x,1/2-y,-z
1/2+x,1/2-y,z
loop_
_atom_site_type_symbol
_atom_site_label
_atom_site_fract_x
_atom_site_fract_y
_atom_site_fract_z
Si Si1 0.462415 0.389135 0.173265
Si Si2 0.372860 0.104372 0.048141
Si Si3 0.867471 0.896536 0.311935
Si Si4 0.754536 0.144216 0.961998
Si Si5 0.147763 0.208673 0.138167
Si Si6 0.899809 0.215453 0.616574
Si Si7 0.516251 0.891605 0.357501
O O1 0.459339 0.500000 0.137214
O O2 0.428108 0.362945 0.282448
O O3 0.539085 0.355442 0.277120
O O4 0.424007 0.334835 0.999550
O O5 0.321562 0.100979 0.123962
O O6 0.448152 0.131413 0.187867
O O7 0.373284 0.000000 0.977997
O O8 0.346445 0.182345 0.905382
O O9 0.859531 0.820015 0.427791
O O10 0.883771 0.000000 0.396786
O O11 0.799875 0.907739 0.135588
O O12 0.790914 0.142876 0.850531
O O13 0.750000 0.250000 0.000000
O O14 0.152043 0.209835 0.314010
O O15 0.924696 0.323017 0.626895
O O16 0.500000 0.869255 0.500000
O O17 0.539624 0.000000 0.364481
#
# Coordination Sequence:
#
# PCOD8099255 Si02
#       7
#     8   8   8   8   8   8   8
#     4  10  20  35  55  81 119 161 201 238 286 357
#     4  10  20  39  65  85 112 158 207 251 292 349
#     4  10  21  37  59  87 116 157 202 241 293 359
#     4   9  20  39  63  84 110 151 205 245 286 347
#     4  10  22  37  54  92 120 154 196 244 304 358
#     4  12  22  34  58  88 129 155 188 245 309 360
#     4  10  22  37  60  91 120 157 204 250 299 353
#
# _framework density 21.392085999999999
#
# number of rings (size 3 to 8) (size 9 to 14) (size 15 to 20)
#    0.000    1.857    1.429    2.571    4.000    4.000 
#    0.000    4.286    0.000    0.000    0.000    0.000 
#    0.000    0.000    0.000    0.000    0.000    0.000 
#
# Total GULP energy -347084.699537 kJ/mol
# GULP energy per Si atom -12395.882126 kJ/mol
# Density = 2.134340 g / cm^3
# Si number density = 21.392086 Si / 1000 Ang^3
#
#
#
# Elastic Constant Matrix: (Units=GPa)
#
#
# Indices 1 2 3 4 5 6 
#
# 1 70.3308 24.0814 36.0217 0.0000 -23.5490 0.0000
# 2 24.0814 107.3745 34.5552 0.0000 -13.0463 0.0000
# 3 36.0217 34.5552 65.6995 0.0000 -35.4612 0.0000
# 4 0.0000 0.0000 0.0000 23.4803 0.0000 0.6260
# 5 -23.5490 -13.0463 -35.4612 0.0000 29.7509 0.0000
# 6 0.0000 0.0000 0.0000 0.6260 0.0000 12.5622
#
#
#
# Elastic Compliance Matrix: (Units=1/GPa)
#
#
# Indices 1 2 3 4 5 6 
#
# 1 0.020673 -0.001751 -0.005596 0.000000 0.008925 0.000000
# 2 -0.001751 0.011744 -0.008931 0.000000 -0.006881 0.000000
# 3 -0.005596 -0.008931 0.051820 0.000000 0.053420 0.000000
# 4 0.000000 0.000000 0.000000 0.042646 0.000000 -0.002125
# 5 0.008925 -0.006881 0.053420 0.000000 0.101333 0.000000
# 6 0.000000 0.000000 0.000000 -0.002125 0.000000 0.079710
#
#
# Mechanical properties :
#
#
# Convention : Reuss Voigt Hill
#
# Bulk Modulus (GPa) = 19.34970 48.08015 33.71492
# Shear Modulus (GPa) = 13.97790 23.07510 18.52650
#
# Velocity S-wave (km/s) = 2.55897 3.28788 2.94606
# Velocity P-wave (km/s) = 4.21853 6.07767 5.23135
#
# Compressibility (1/GPa) = 0.05168040
#
# Stress axis : x y z
#
# Youngs Moduli (GPa) = 48.37307 85.15025 19.29769
#
# Poissons Ratio (x) = 0.14910 0.10799
# Poissons Ratio (y) = 0.08470 0.17234
# Poissons Ratio (z) = 0.27070 0.76046
#
# Static dielectric constant tensor:
#      x y z
#    x 3.729680 0.000000 -0.306880 
#    y 0.000000 4.121690 0.000000 
#    z -0.306880 0.000000 3.469260 
# 
# 
# High freq. dielectric constant tensor:
#      x y z
#    x 1.829430 0.000000 -0.001410 
#    y 0.000000 1.855700 0.000000 
#    z -0.001410 0.000000 1.805110 
# 
# From -- ./inp_files/104738.got.cif
#   From: 2010.06.25/outbox.cif.g09.slc.cpg/sg12_53_cif.got.tgz:104738.got - 2010.06.28 00:19:55.
