data_PCOD8099514
_publ_section_title
;
Structure prediction by ZEFSAII (Michael W. Deem and Ramdas Pophale) SiO2 
 PCOD8099514
Probable space group: C 2/M
;
_chemical_formula_sum "Si O2"
_cell_formula_units_Z 64
_cell_length_a 28.216650
_cell_length_b 9.309978
_cell_length_c 12.866688
_cell_angle_alpha 90.000000
_cell_angle_beta 93.582987
_cell_angle_gamma 90.000000
_cell_volume 3373.425647
_symmetry_space_group_name_H-M "C 2/M"
_symmetry_group_IT_number 12
_symmetry_cell_setting 'monoclinic'
loop_
_space_group_symop_operation_xyz
x,y,z
-x,y,-z
-x,-y,-z
x,-y,z
1/2+x,1/2+y,z
1/2-x,1/2+y,-z
1/2-x,1/2-y,-z
1/2+x,1/2-y,z
loop_
_atom_site_type_symbol
_atom_site_label
_atom_site_fract_x
_atom_site_fract_y
_atom_site_fract_z
Si Si1 0.942613 0.667953 0.783914
Si Si2 0.389220 0.666092 0.367263
Si Si3 0.396953 0.830876 0.988426
Si Si4 0.196637 0.336595 0.719429
Si Si5 0.886612 0.834614 0.604144
Si Si6 0.720173 0.336029 0.412730
Si Si7 0.295420 0.833126 0.043794
Si Si8 0.446495 0.168288 0.203563
O O1 0.931645 0.500000 0.772358
O O2 0.919669 0.732808 0.886370
O O3 0.921085 0.744248 0.681093
O O4 0.998095 0.699936 0.795872
O O5 0.387722 0.500000 0.334016
O O6 0.336453 0.731555 0.351734
O O7 0.405152 0.683188 0.488934
O O8 0.426074 0.749692 0.300178
O O9 0.405378 0.000000 0.991031
O O10 0.341144 0.791758 0.980977
O O11 0.422576 0.769539 0.095104
O O12 0.178458 0.500000 0.702219
O O13 0.251465 0.323232 0.691950
O O14 0.192409 0.288575 0.837497
O O15 0.832800 0.774139 0.608913
O O16 0.888461 0.000000 0.639688
O O17 0.716425 0.500000 0.451267
O O18 0.750000 0.250000 0.500000
O O19 0.283364 0.000000 0.034511
O O20 0.250000 0.750000 0.000000
O O21 0.435309 0.000000 0.216004
#
# Coordination Sequence:
#
# PCOD8099514 Si02
#       8
#     8   8   8   8   8   8   8   8
#     4  10  22  38  61  88 110 146 195 238 283 339
#     4  11  22  37  59  85 114 150 194 236 285 344
#     4   9  18  37  61  85 114 147 185 233 285 335
#     4  10  20  36  58  82 111 151 193 234 281 332
#     4  10  23  40  55  80 121 158 185 230 291 341
#     4  10  20  35  56  81 110 148 189 225 271 329
#     4  10  21  36  55  83 117 150 183 224 280 336
#     4  10  20  39  64  86 111 143 188 243 292 339
#
# _framework density 18.971812
#
# number of rings (size 3 to 8) (size 9 to 14) (size 15 to 20)
#    0.000    2.000    2.500    0.750    1.750    4.500 
#    0.000    3.125    0.000    1.500    0.000    0.000 
#    0.000    0.000    0.000    0.000    0.000    0.000 
#
# Total GULP energy -396846.432456 kJ/mol
# GULP energy per Si atom -12401.451014 kJ/mol
# Density = 1.892863 g / cm^3
# Si number density = 18.971812 Si / 1000 Ang^3
#
#
#
# Elastic Constant Matrix: (Units=GPa)
#
#
# Indices 1 2 3 4 5 6 
#
# 1 111.1197 45.1420 59.7147 0.0000 2.0217 0.0000
# 2 45.1420 57.9572 45.4817 0.0000 6.2633 0.0000
# 3 59.7147 45.4817 111.0861 0.0000 -4.9965 0.0000
# 4 0.0000 0.0000 0.0000 24.7761 0.0000 2.1100
# 5 2.0217 6.2633 -4.9965 0.0000 35.6495 0.0000
# 6 0.0000 0.0000 0.0000 2.1100 0.0000 32.0472
#
#
#
# Elastic Compliance Matrix: (Units=1/GPa)
#
#
# Indices 1 2 3 4 5 6 
#
# 1 0.014678 -0.007690 -0.004748 0.000000 -0.000147 0.000000
# 2 -0.007690 0.030777 -0.008746 0.000000 -0.006197 0.000000
# 3 -0.004748 -0.008746 0.015313 0.000000 0.003952 0.000000
# 4 0.000000 0.000000 0.000000 0.040589 0.000000 -0.002672
# 5 -0.000147 -0.006197 0.003952 0.000000 0.029702 0.000000
# 6 0.000000 0.000000 0.000000 -0.002672 0.000000 0.031380
#
#
# Mechanical properties :
#
#
# Convention : Reuss Voigt Hill
#
# Bulk Modulus (GPa) = 54.34992 64.53775 59.44384
# Shear Modulus (GPa) = 23.70352 27.14954 25.42653
#
# Velocity S-wave (km/s) = 3.53853 3.78702 3.66488
# Velocity P-wave (km/s) = 6.73831 7.29476 7.02205
#
# Compressibility (1/GPa) = 0.01839929
#
# Stress axis : x y z
#
# Youngs Moduli (GPa) = 68.13052 32.49200 65.30509
#
# Poissons Ratio (x) = 0.24988 0.31007
# Poissons Ratio (y) = 0.52395 0.57113
# Poissons Ratio (z) = 0.32348 0.28416
#
# Static dielectric constant tensor:
#      x y z
#    x 3.556540 0.000000 -0.250700 
#    y 0.000000 3.329300 0.000000 
#    z -0.250700 0.000000 3.515270 
# 
# 
# High freq. dielectric constant tensor:
#      x y z
#    x 1.746590 0.000000 -0.012390 
#    y 0.000000 1.715470 0.000000 
#    z -0.012390 0.000000 1.743520 
# 
# From -- ./inp_files/187611.got.cif
#   From: 2010.06.25/outbox.cif.g09.slc.cpg/sg12_94_cif.got.tgz:187611.got - 2010.06.28 00:19:55.
