data_PCOD8099880
_publ_section_title
;
Structure prediction by ZEFSAII (Michael W. Deem and Ramdas Pophale) SiO2 
 PCOD8099880
Probable space group: C 2/M
;
_chemical_formula_sum "Si O2"
_cell_formula_units_Z 48
_cell_length_a 29.842476
_cell_length_b 18.106905
_cell_length_c 8.528217
_cell_angle_alpha 90.000000
_cell_angle_beta 32.630963
_cell_angle_gamma 90.000000
_cell_volume 2484.895453
_symmetry_space_group_name_H-M "C 2/M"
_symmetry_group_IT_number 12
_symmetry_cell_setting 'monoclinic'
loop_
_space_group_symop_operation_xyz
x,y,z
-x,y,-z
-x,-y,-z
x,-y,z
1/2+x,1/2+y,z
1/2-x,1/2+y,-z
1/2-x,1/2-y,-z
1/2+x,1/2-y,z
loop_
_atom_site_type_symbol
_atom_site_label
_atom_site_fract_x
_atom_site_fract_y
_atom_site_fract_z
Si Si1 0.263201 0.416028 0.287623
Si Si2 0.329871 0.417010 0.615260
Si Si3 0.660110 0.919714 0.304707
Si Si4 0.084529 0.306105 0.320765
Si Si5 0.081936 0.862150 0.348235
Si Si6 0.741162 0.177363 0.635920
O O1 0.293505 0.500000 0.198554
O O2 0.182464 0.403998 0.418403
O O3 0.231973 0.392339 0.549574
O O4 0.340812 0.368493 0.997799
O O5 0.346877 0.500000 0.493433
O O6 0.402897 0.401130 0.527774
O O7 0.319278 0.349826 0.517805
O O8 0.244566 0.419209 0.959015
O O9 0.599691 0.855323 0.428912
O O10 0.616918 0.000000 0.413179
O O11 0.070510 0.223559 0.421490
O O12 0.000000 0.338116 0.500000
O O13 0.158772 0.312418 0.978597
O O14 0.000000 0.893467 0.500000
O O15 0.750000 0.250000 0.500000
#
# Coordination Sequence:
#
# PCOD8099880 Si02
#       6
#     8   8   8   8   8   8
#     4  10  20  35  57  83 111 143 186 233 272 331
#     4   9  19  34  55  82 111 145 188 230 270 332
#     4   8  17  33  55  80 106 144 189 227 275 332
#     4  10  21  36  56  82 112 143 186 232 274 333
#     4  10  20  35  57  84 112 150 191 228 274 329
#     4  11  21  35  58  83 109 147 184 226 281 326
#
# _framework density 19.316707000000001
#
# number of rings (size 3 to 8) (size 9 to 14) (size 15 to 20)
#    0.000    2.333    1.667    2.000    2.333    4.333 
#    0.000    1.667    0.000    4.000    0.000    0.000 
#    0.000    0.000    0.000    0.000    0.000    0.000 
#
# Total GULP energy -297327.721244 kJ/mol
# GULP energy per Si atom -12388.655052 kJ/mol
# Density = 1.927274 g / cm^3
# Si number density = 19.316707 Si / 1000 Ang^3
#
#
#
# Elastic Constant Matrix: (Units=GPa)
#
#
# Indices 1 2 3 4 5 6 
#
# 1 135.6481 73.9826 22.5113 0.0000 -8.4100 0.0000
# 2 73.9826 83.2646 15.5474 0.0000 -17.1246 0.0000
# 3 22.5113 15.5474 26.2208 0.0000 -6.1108 0.0000
# 4 0.0000 0.0000 0.0000 13.9542 0.0000 3.2217
# 5 -8.4100 -17.1246 -6.1108 0.0000 28.2092 0.0000
# 6 0.0000 0.0000 0.0000 3.2217 0.0000 36.5610
#
#
#
# Elastic Compliance Matrix: (Units=1/GPa)
#
#
# Indices 1 2 3 4 5 6 
#
# 1 0.015599 -0.013696 -0.006450 0.000000 -0.005061 0.000000
# 2 -0.013696 0.026898 -0.001407 0.000000 0.011940 0.000000
# 3 -0.006450 -0.001407 0.046195 0.000000 0.007229 0.000000
# 4 0.000000 0.000000 0.000000 0.073151 0.000000 -0.006446
# 5 -0.005061 0.011940 0.007229 0.000000 0.042755 0.000000
# 6 0.000000 0.000000 0.000000 -0.006446 0.000000 0.027920
#
#
# Mechanical properties :
#
#
# Convention : Reuss Voigt Hill
#
# Bulk Modulus (GPa) = 21.93794 52.13512 37.03653
# Shear Modulus (GPa) = 17.19280 24.61771 20.90525
#
# Velocity S-wave (km/s) = 2.98660 3.57378 3.29331
# Velocity P-wave (km/s) = 4.82439 6.63909 5.80311
#
# Compressibility (1/GPa) = 0.04558313
#
# Stress axis : x y z
#
# Youngs Moduli (GPa) = 64.10822 37.17768 21.64747
#
# Poissons Ratio (x) = 0.50919 0.13963
# Poissons Ratio (y) = 0.87804 0.03047
# Poissons Ratio (z) = 0.41352 0.05233
#
# Static dielectric constant tensor:
#      x y z
#    x 4.148470 0.000000 0.020160 
#    y 0.000000 3.838460 0.000000 
#    z 0.020160 0.000000 3.107690 
# 
# 
# High freq. dielectric constant tensor:
#      x y z
#    x 1.764400 0.000000 0.002210 
#    y 0.000000 1.766500 0.000000 
#    z 0.002210 0.000000 1.701820 
# 
# From -- ./inp_files/74484.got.cif
#   From: 2010.06.25/outbox.cif.g09.slc.cpg/sg12_38_cif.got.tgz:74484.got - 2010.06.28 00:19:55.
