data_PCOD8099343
_publ_section_title
;
Structure prediction by ZEFSAII (Michael W. Deem and Ramdas Pophale) SiO2 
 PCOD8099343
Probable space group: C 2/M
;
_chemical_formula_sum "Si O2"
_cell_formula_units_Z 40
_cell_length_a 8.762832
_cell_length_b 12.580589
_cell_length_c 18.757788
_cell_angle_alpha 90.000000
_cell_angle_beta 101.146088
_cell_angle_gamma 90.000000
_cell_volume 2028.882758
_symmetry_space_group_name_H-M "C 2/M"
_symmetry_group_IT_number 12
_symmetry_cell_setting 'monoclinic'
loop_
_space_group_symop_operation_xyz
x,y,z
-x,y,-z
-x,-y,-z
x,-y,z
1/2+x,1/2+y,z
1/2-x,1/2+y,-z
1/2-x,1/2-y,-z
1/2+x,1/2-y,z
loop_
_atom_site_type_symbol
_atom_site_label
_atom_site_fract_x
_atom_site_fract_y
_atom_site_fract_z
Si Si1 0.552369 0.123134 0.084936
Si Si2 0.085229 0.178598 0.404797
Si Si3 0.336345 0.248981 0.167911
Si Si4 0.763994 0.119396 0.437917
Si Si5 0.621366 0.378527 0.249472
O O1 0.417078 0.163259 0.124530
O O2 0.709935 0.187900 0.110757
O O3 0.583600 0.000000 0.103947
O O4 0.500000 0.142696 0.000000
O O5 0.185830 0.121652 0.475088
O O6 0.115922 0.305577 0.410091
O O7 0.138960 0.128316 0.335827
O O8 0.903307 0.159478 0.400218
O O9 0.456187 0.333143 0.210411
O O10 0.260911 0.187098 0.227083
O O11 0.716173 0.000000 0.412433
O O12 0.631995 0.500000 0.225354
#
# Coordination Sequence:
#
# PCOD8099343 Si02
#       5
#     8   8   8   8   8
#     4  10  20  37  59  81 108 141 175 215 261 306
#     4  10  20  35  56  79 103 141 183 219 268 322
#     4  10  22  36  54  83 110 138 178 216 256 319
#     4  10  20  37  55  76 107 137 179 231 269 309
#     4  11  21  36  55  77 110 144 175 217 268 315
#
# _framework density 19.715284
#
# number of rings (size 3 to 8) (size 9 to 14) (size 15 to 20)
#    0.000    1.800    0.000    5.400    0.000    0.000 
#    0.000   17.000    0.000    9.600    0.000    0.000 
#    0.000    0.000    0.000    0.000    0.000    0.000 
#
# Total GULP energy -248093.645791 kJ/mol
# GULP energy per Si atom -12404.682290 kJ/mol
# Density = 1.967041 g / cm^3
# Si number density = 19.715284 Si / 1000 Ang^3
#
#
#
# Elastic Constant Matrix: (Units=GPa)
#
#
# Indices 1 2 3 4 5 6 
#
# 1 51.3632 19.5914 8.1348 0.0000 -6.6722 0.0000
# 2 19.5914 124.8525 5.6329 0.0000 0.4946 0.0000
# 3 8.1348 5.6329 72.9061 0.0000 -12.2043 0.0000
# 4 0.0000 0.0000 0.0000 11.9540 0.0000 -1.9612
# 5 -6.6722 0.4946 -12.2043 0.0000 19.0959 0.0000
# 6 0.0000 0.0000 0.0000 -1.9612 0.0000 23.2906
#
#
#
# Elastic Compliance Matrix: (Units=1/GPa)
#
#
# Indices 1 2 3 4 5 6 
#
# 1 0.021848 -0.003412 -0.000987 0.000000 0.007091 0.000000
# 2 -0.003412 0.008578 -0.000581 0.000000 -0.001786 0.000000
# 3 -0.000987 -0.000581 0.015471 0.000000 0.009558 0.000000
# 4 0.000000 0.000000 0.000000 0.084826 0.000000 0.007143
# 5 0.007091 -0.001786 0.009558 0.000000 0.061000 0.000000
# 6 0.000000 0.000000 0.000000 0.007143 0.000000 0.043537
#
#
# Mechanical properties :
#
#
# Convention : Reuss Voigt Hill
#
# Bulk Modulus (GPa) = 27.82603 35.09332 31.45967
# Shear Modulus (GPa) = 19.44015 25.25228 22.34621
#
# Velocity S-wave (km/s) = 3.14354 3.58278 3.37032
# Velocity P-wave (km/s) = 5.22689 5.91217 5.58006
#
# Compressibility (1/GPa) = 0.03593757
#
# Stress axis : x y z
#
# Youngs Moduli (GPa) = 45.77061 116.57572 64.63587
#
# Poissons Ratio (x) = 0.39774 0.06380
# Poissons Ratio (y) = 0.15616 0.03755
# Poissons Ratio (z) = 0.04518 0.06773
#
# Static dielectric constant tensor:
#      x y z
#    x 3.558190 0.000000 -0.131950 
#    y 0.000000 3.677810 0.000000 
#    z -0.131950 0.000000 3.592070 
# 
# 
# High freq. dielectric constant tensor:
#      x y z
#    x 1.766490 0.000000 -0.010000 
#    y 0.000000 1.780330 0.000000 
#    z -0.010000 0.000000 1.770850 
# 
# From -- ./inp_files/254600.got.cif
#   From: 2010.06.25/outbox.cif.g09.slc.cpg/sg12_128_cif.got.tgz:254600.got - 2010.06.28 00:19:55.
