data_PCOD8099949
_publ_section_title
;
Structure prediction by ZEFSAII (Michael W. Deem and Ramdas Pophale) SiO2 
 PCOD8099949
Probable space group: C 2/M
;
_chemical_formula_sum "Si O2"
_cell_formula_units_Z 56
_cell_length_a 20.099874
_cell_length_b 9.286218
_cell_length_c 17.048069
_cell_angle_alpha 90.000000
_cell_angle_beta 122.464378
_cell_angle_gamma 90.000000
_cell_volume 2684.778699
_symmetry_space_group_name_H-M "C 2/M"
_symmetry_group_IT_number 12
_symmetry_cell_setting 'monoclinic'
loop_
_space_group_symop_operation_xyz
x,y,z
-x,y,-z
-x,-y,-z
x,-y,z
1/2+x,1/2+y,z
1/2-x,1/2+y,-z
1/2-x,1/2-y,-z
1/2+x,1/2-y,z
loop_
_atom_site_type_symbol
_atom_site_label
_atom_site_fract_x
_atom_site_fract_y
_atom_site_fract_z
Si Si1 0.328800 0.837602 0.961709
Si Si2 0.421801 0.665257 0.906801
Si Si3 0.309699 0.835065 0.376063
Si Si4 0.421074 0.330173 0.332122
Si Si5 0.369560 0.334386 0.704672
Si Si6 0.575003 0.166534 0.410544
Si Si7 0.854610 0.838574 0.123589
O O1 0.349279 0.756639 0.894444
O O2 0.235941 0.825829 0.910404
O O3 0.358697 0.000000 0.975729
O O4 0.374100 0.766352 0.064123
O O5 0.405255 0.500000 0.917211
O O6 0.426059 0.686957 0.815898
O O7 0.500000 0.721077 0.000000
O O8 0.349391 0.731808 0.337445
O O9 0.219039 0.789314 0.328437
O O10 0.350354 0.815254 0.485922
O O11 0.316750 0.000000 0.351252
O O12 0.428084 0.500000 0.352994
O O13 0.502396 0.250660 0.405266
O O14 0.406613 0.296940 0.231393
O O15 0.371876 0.500000 0.676930
O O16 0.402899 0.232345 0.658973
O O17 0.551441 0.000000 0.384972
O O18 0.874882 0.000000 0.108546
#
# Coordination Sequence:
#
# PCOD8099949 Si02
#       7
#     8   8   8   8   8   8   8
#     4  10  20  35  57  84 112 147 194 240 284 338
#     4  10  22  38  57  82 116 154 190 234 288 343
#     4  10  22  41  63  88 120 157 199 248 300 354
#     4  11  23  38  61  89 120 158 200 244 295 356
#     4  10  22  41  64  88 117 160 205 242 293 360
#     4  11  24  40  60  89 124 157 195 250 305 350
#     4   9  20  37  56  81 115 152 189 235 288 343
#
# _framework density 20.858329000000001
#
# number of rings (size 3 to 8) (size 9 to 14) (size 15 to 20)
#    0.000    1.857    0.000    3.000    2.000    6.000 
#    0.000    0.000    0.000    0.000    0.000    0.000 
#    0.000    0.000    0.000    0.000    0.000    0.000 
#
# Total GULP energy -347325.928697 kJ/mol
# GULP energy per Si atom -12404.497453 kJ/mol
# Density = 2.081085 g / cm^3
# Si number density = 20.858329 Si / 1000 Ang^3
#
#
#
# Elastic Constant Matrix: (Units=GPa)
#
#
# Indices 1 2 3 4 5 6 
#
# 1 66.5946 40.8007 12.7425 0.0000 -2.1436 0.0000
# 2 40.8007 106.3772 29.4764 0.0000 -8.1235 0.0000
# 3 12.7425 29.4764 71.2369 0.0000 10.5919 0.0000
# 4 0.0000 0.0000 0.0000 31.2968 0.0000 -9.3427
# 5 -2.1436 -8.1235 10.5919 0.0000 29.0709 0.0000
# 6 0.0000 0.0000 0.0000 -9.3427 0.0000 38.0681
#
#
#
# Elastic Compliance Matrix: (Units=1/GPa)
#
#
# Indices 1 2 3 4 5 6 
#
# 1 0.019648 -0.007481 -0.000342 0.000000 -0.000517 0.000000
# 2 -0.007481 0.014149 -0.005310 0.000000 0.005337 0.000000
# 3 -0.000342 -0.005310 0.017467 0.000000 -0.007873 0.000000
# 4 0.000000 0.000000 0.000000 0.034478 0.000000 0.008462
# 5 -0.000517 0.005337 -0.007873 0.000000 0.038720 0.000000
# 6 0.000000 0.000000 0.000000 0.008462 0.000000 0.028345
#
#
# Mechanical properties :
#
#
# Convention : Reuss Voigt Hill
#
# Bulk Modulus (GPa) = 40.00353 45.58309 42.79331
# Shear Modulus (GPa) = 26.68013 30.43312 28.55662
#
# Velocity S-wave (km/s) = 3.58035 3.82388 3.70412
# Velocity P-wave (km/s) = 6.02596 6.43407 6.23335
#
# Compressibility (1/GPa) = 0.02499779
#
# Stress axis : x y z
#
# Youngs Moduli (GPa) = 50.89502 70.67876 57.25222
#
# Poissons Ratio (x) = 0.52872 0.01960
# Poissons Ratio (y) = 0.38073 0.30400
# Poissons Ratio (z) = 0.01743 0.37529
#
# Static dielectric constant tensor:
#      x y z
#    x 3.672630 0.000000 0.087530 
#    y 0.000000 3.822130 0.000000 
#    z 0.087530 0.000000 3.877040 
# 
# 
# High freq. dielectric constant tensor:
#      x y z
#    x 1.816980 0.000000 0.001090 
#    y 0.000000 1.814910 0.000000 
#    z 0.001090 0.000000 1.825930 
# 
# From -- ./inp_files/280985.got.cif
#   From: 2010.06.25/outbox.cif.g09.slc.cpg/sg12_141_cif.got.tgz:280985.got - 2010.06.28 00:19:55.
