data_PCOD8099530
_publ_section_title
;
Structure prediction by ZEFSAII (Michael W. Deem and Ramdas Pophale) SiO2 
 PCOD8099530
Probable space group: C 2/M
;
_chemical_formula_sum "Si O2"
_cell_formula_units_Z 64
_cell_length_a 30.627331
_cell_length_b 17.011860
_cell_length_c 8.608933
_cell_angle_alpha 90.000000
_cell_angle_beta 39.735332
_cell_angle_gamma 90.000000
_cell_volume 2867.316845
_symmetry_space_group_name_H-M "C 2/M"
_symmetry_group_IT_number 12
_symmetry_cell_setting 'monoclinic'
loop_
_space_group_symop_operation_xyz
x,y,z
-x,y,-z
-x,-y,-z
x,-y,z
1/2+x,1/2+y,z
1/2-x,1/2+y,-z
1/2-x,1/2-y,-z
1/2+x,1/2-y,z
loop_
_atom_site_type_symbol
_atom_site_label
_atom_site_fract_x
_atom_site_fract_y
_atom_site_fract_z
Si Si1 0.471824 0.806023 0.404261
Si Si2 0.279663 0.407858 0.969172
Si Si3 0.473842 0.413144 0.729207
Si Si4 0.906443 0.848989 0.455281
Si Si5 0.273905 0.907013 0.556464
Si Si6 0.354732 0.912243 0.829140
Si Si7 0.593463 0.909730 0.969973
Si Si8 0.643157 0.405945 0.731902
O O1 0.500000 0.788163 0.500000
O O2 0.451114 0.729063 0.365185
O O3 0.404121 0.857634 0.595639
O O4 0.527961 0.853362 0.149536
O O5 0.298962 0.500000 0.926155
O O6 0.249710 0.374256 0.212409
O O7 0.224089 0.391423 0.987586
O O8 0.346896 0.358011 0.745734
O O9 0.500000 0.367990 0.500000
O O10 0.450972 0.500000 0.741842
O O11 0.536855 0.416986 0.678017
O O12 0.407286 0.375452 0.992596
O O13 0.874826 0.855905 0.371238
O O14 0.219459 0.881930 0.573473
O O15 0.275632 0.000000 0.559495
O O16 0.350740 0.877801 0.307303
O O17 0.366545 0.905228 0.978211
O O18 0.370084 0.000000 0.726902
O O19 0.570567 0.000000 0.999639
O O20 0.635553 0.500000 0.722354
#
# Coordination Sequence:
#
# PCOD8099530 Si02
#       8
#     8   8   8   8   8   8   8   8
#     4  10  22  38  58  85 119 156 195 240 295 359
#     4  10  20  35  58  88 119 154 198 244 291 346
#     4  10  20  35  56  81 112 154 201 247 295 344
#     4  12  22  34  54  80 120 161 198 239 286 342
#     4   9  18  34  58  88 117 146 190 248 301 348
#     4   9  18  36  63  90 113 143 190 245 299 356
#     4   9  17  35  64  91 115 147 190 244 302 357
#     4  10  20  35  57  86 117 152 200 249 290 342
#
# _framework density 22.320518
#
# number of rings (size 3 to 8) (size 9 to 14) (size 15 to 20)
#    0.000    2.125    0.000    3.750    0.000    7.000 
#    0.000    3.125    0.000    7.500    0.000    0.000 
#    0.000    0.000    0.000    0.000    0.000    0.250 
#
# Total GULP energy -396641.374999 kJ/mol
# GULP energy per Si atom -12395.042969 kJ/mol
# Density = 2.226972 g / cm^3
# Si number density = 22.320518 Si / 1000 Ang^3
#
#
#
# Elastic Constant Matrix: (Units=GPa)
#
#
# Indices 1 2 3 4 5 6 
#
# 1 56.6048 38.3083 22.2761 0.0000 -4.1410 0.0000
# 2 38.3083 72.0766 51.1201 0.0000 -7.4209 0.0000
# 3 22.2761 51.1201 166.1820 0.0000 -4.2435 0.0000
# 4 0.0000 0.0000 0.0000 7.3433 0.0000 -9.1305
# 5 -4.1410 -7.4209 -4.2435 0.0000 36.9887 0.0000
# 6 0.0000 0.0000 0.0000 -9.1305 0.0000 28.0893
#
#
#
# Elastic Compliance Matrix: (Units=1/GPa)
#
#
# Indices 1 2 3 4 5 6 
#
# 1 0.027732 -0.015467 0.001044 0.000000 0.000121 0.000000
# 2 -0.015467 0.026698 -0.006064 0.000000 0.002929 0.000000
# 3 0.001044 -0.006064 0.007738 0.000000 -0.000212 0.000000
# 4 0.000000 0.000000 0.000000 0.228552 0.000000 0.074292
# 5 0.000121 0.002929 -0.000212 0.000000 0.027612 0.000000
# 6 0.000000 0.000000 0.000000 0.074292 0.000000 0.059750
#
#
# Mechanical properties :
#
#
# Convention : Reuss Voigt Hill
#
# Bulk Modulus (GPa) = 47.18885 57.58582 52.38733
# Shear Modulus (GPa) = 11.73373 26.69485 19.21429
#
# Velocity S-wave (km/s) = 2.29529 3.46204 2.93718
# Velocity P-wave (km/s) = 5.31148 6.46811 5.91812
#
# Compressibility (1/GPa) = 0.02119145
#
# Stress axis : x y z
#
# Youngs Moduli (GPa) = 36.05919 37.45652 129.23719
#
# Poissons Ratio (x) = 0.57935 -0.13488
# Poissons Ratio (y) = 0.55773 0.78376
# Poissons Ratio (z) = -0.03763 0.22715
#
# Static dielectric constant tensor:
#      x y z
#    x 4.049370 0.000000 -0.051620 
#    y 0.000000 3.654410 0.000000 
#    z -0.051620 0.000000 4.316610 
# 
# 
# High freq. dielectric constant tensor:
#      x y z
#    x 1.879010 0.000000 -0.009440 
#    y 0.000000 1.839010 0.000000 
#    z -0.009440 0.000000 1.892460 
# 
# From -- ./inp_files/112815.got.cif
#   From: 2010.06.25/outbox.cif.g09.slc.cpg/sg12_57_cif.got.tgz:112815.got - 2010.06.28 00:19:55.
