data_PCOD8099766
_publ_section_title
;
Structure prediction by ZEFSAII (Michael W. Deem and Ramdas Pophale) SiO2 
 PCOD8099766
Probable space group: C 2/M
;
_chemical_formula_sum "Si O2"
_cell_formula_units_Z 40
_cell_length_a 20.997523
_cell_length_b 18.814764
_cell_length_c 5.003808
_cell_angle_alpha 90.000000
_cell_angle_beta 99.296459
_cell_angle_gamma 90.000000
_cell_volume 1950.857437
_symmetry_space_group_name_H-M "C 2/M"
_symmetry_group_IT_number 12
_symmetry_cell_setting 'monoclinic'
loop_
_space_group_symop_operation_xyz
x,y,z
-x,y,-z
-x,-y,-z
x,-y,z
1/2+x,1/2+y,z
1/2-x,1/2+y,-z
1/2-x,1/2-y,-z
1/2+x,1/2-y,z
loop_
_atom_site_type_symbol
_atom_site_label
_atom_site_fract_x
_atom_site_fract_y
_atom_site_fract_z
Si Si1 0.457342 0.669435 0.214160
Si Si2 0.793569 0.330810 0.728888
Si Si3 0.778445 0.580002 0.200391
Si Si4 0.653413 0.289636 0.546345
Si Si5 0.366697 0.579200 0.832689
O O1 0.500000 0.649431 0.500000
O O2 0.400870 0.725497 0.263401
O O3 0.500000 0.702605 0.000000
O O4 0.422386 0.598110 0.082848
O O5 0.788172 0.392593 0.505724
O O6 0.724558 0.291464 0.725356
O O7 0.846701 0.272413 0.677852
O O8 0.815584 0.367951 0.019453
O O9 0.805898 0.500000 0.199249
O O10 0.702886 0.581862 0.068978
O O11 0.632400 0.364907 0.407955
O O12 0.379214 0.500000 0.727552
#
# Coordination Sequence:
#
# PCOD8099766 Si02
#       5
#     8   8   8   8   8
#     4  12  24  39  54  75 111 150 195 245 266 313
#     4  10  21  34  62  80 111 146 180 235 276 342
#     4  10  20  35  56  87 116 144 179 224 283 337
#     4  10  22  38  57  81 109 144 200 226 285 319
#     4  10  22  38  56  77 112 155 196 234 270 312
#
# _framework density 20.503806000000001
#
# number of rings (size 3 to 8) (size 9 to 14) (size 15 to 20)
#    0.000    1.600    4.000    0.600    2.800    4.800 
#    0.000    0.000    0.000    0.000    0.000    0.000 
#    0.000   16.000    0.000    0.000    0.000    0.000 
#
# Total GULP energy -247922.946811 kJ/mol
# GULP energy per Si atom -12396.147341 kJ/mol
# Density = 2.045714 g / cm^3
# Si number density = 20.503806 Si / 1000 Ang^3
#
#
#
# Elastic Constant Matrix: (Units=GPa)
#
#
# Indices 1 2 3 4 5 6 
#
# 1 81.5298 40.9360 27.9909 0.0000 -26.4107 0.0000
# 2 40.9360 64.4430 1.9077 0.0000 -26.8516 0.0000
# 3 27.9909 1.9077 73.7366 0.0000 -16.9454 0.0000
# 4 0.0000 0.0000 0.0000 31.8050 0.0000 -5.5658
# 5 -26.4107 -26.8516 -16.9454 0.0000 37.3722 0.0000
# 6 0.0000 0.0000 0.0000 -5.5658 0.0000 8.1821
#
#
#
# Elastic Compliance Matrix: (Units=1/GPa)
#
#
# Indices 1 2 3 4 5 6 
#
# 1 0.022096 -0.012404 -0.007286 0.000000 0.003400 0.000000
# 2 -0.012404 0.029923 0.007659 0.000000 0.016206 0.000000
# 3 -0.007286 0.007659 0.018096 0.000000 0.008559 0.000000
# 4 0.000000 0.000000 0.000000 0.035690 0.000000 0.024278
# 5 0.003400 0.016206 0.008559 0.000000 0.044685 0.000000
# 6 0.000000 0.000000 0.000000 0.024278 0.000000 0.138734
#
#
# Mechanical properties :
#
#
# Convention : Reuss Voigt Hill
#
# Bulk Modulus (GPa) = 21.71368 40.15318 30.93343
# Shear Modulus (GPa) = 15.21436 25.39684 20.30560
#
# Velocity S-wave (km/s) = 2.72697 3.52325 3.15037
# Velocity P-wave (km/s) = 4.53081 6.01472 5.32471
#
# Compressibility (1/GPa) = 0.04605391
#
# Stress axis : x y z
#
# Youngs Moduli (GPa) = 45.25719 33.41928 55.25976
#
# Poissons Ratio (x) = 0.41453 0.40260
# Poissons Ratio (y) = 0.56136 -0.42322
# Poissons Ratio (z) = 0.32973 -0.25595
#
# Static dielectric constant tensor:
#      x y z
#    x 3.742340 0.000000 -0.254080 
#    y 0.000000 3.638400 0.000000 
#    z -0.254080 0.000000 3.693410 
# 
# 
# High freq. dielectric constant tensor:
#      x y z
#    x 1.763440 0.000000 -0.015440 
#    y 0.000000 1.779970 0.000000 
#    z -0.015440 0.000000 1.812450 
# 
# From -- ./inp_files/20201.got.cif
#   From: 2010.06.25/outbox.cif.g09.slc.cpg/sg12_11_cif.got.tgz:20201.got - 2010.06.28 00:19:55.
