data_PCOD8099947
_publ_section_title
;
Structure prediction by ZEFSAII (Michael W. Deem and Ramdas Pophale) SiO2 
 PCOD8099947
Probable space group: C 2/M
;
_chemical_formula_sum "Si O2"
_cell_formula_units_Z 48
_cell_length_a 28.871804
_cell_length_b 9.683742
_cell_length_c 14.380171
_cell_angle_alpha 90.000000
_cell_angle_beta 38.817775
_cell_angle_gamma 90.000000
_cell_volume 2520.239032
_symmetry_space_group_name_H-M "C 2/M"
_symmetry_group_IT_number 12
_symmetry_cell_setting 'monoclinic'
loop_
_space_group_symop_operation_xyz
x,y,z
-x,y,-z
-x,-y,-z
x,-y,z
1/2+x,1/2+y,z
1/2-x,1/2+y,-z
1/2-x,1/2-y,-z
1/2+x,1/2-y,z
loop_
_atom_site_type_symbol
_atom_site_label
_atom_site_fract_x
_atom_site_fract_y
_atom_site_fract_z
Si Si1 0.944344 0.657222 0.009853
Si Si2 0.206705 0.342783 0.494563
Si Si3 0.523513 0.659026 0.358077
Si Si4 0.814684 0.156020 0.164467
Si Si5 0.048729 0.657442 0.677618
Si Si6 0.811197 0.162110 0.956524
O O1 0.922525 0.500000 0.067706
O O2 0.979042 0.670549 0.853981
O O3 0.871782 0.748230 0.129298
O O4 0.000000 0.714795 0.000000
O O5 0.211575 0.500000 0.523218
O O6 0.250000 0.250000 0.500000
O O7 0.238855 0.330918 0.339884
O O8 0.121816 0.293778 0.618870
O O9 0.500000 0.685964 0.500000
O O10 0.513715 0.500000 0.344673
O O11 0.466383 0.747004 0.386829
O O12 0.608191 0.704465 0.208382
O O13 0.845583 0.000000 0.116732
O O14 0.803464 0.204352 0.076410
O O15 0.059535 0.500000 0.626407
O O16 0.795922 0.000000 0.964586
O O17 0.750000 0.250000 0.000000
#
# Coordination Sequence:
#
# PCOD8099947 Si02
#       6
#     8   8   8   8   8   8
#     4  10  20  35  57  84 112 145 185 230 279 331
#     4  10  22  39  58  84 116 151 192 232 278 333
#     4  10  22  40  60  84 114 148 188 233 283 338
#     4  10  21  38  58  82 114 149 185 230 281 334
#     4  10  21  37  58  84 114 148 188 233 279 333
#     4  10  22  39  59  85 115 146 186 234 282 337
#
# _framework density 19.045812000000002
#
# number of rings (size 3 to 8) (size 9 to 14) (size 15 to 20)
#    0.000    2.000    1.667    1.000    2.333    4.667 
#    0.000    0.000    0.000    0.000    0.000    0.000 
#    0.000    0.000    0.000    0.000    0.000    0.000 
#
# Total GULP energy -297675.714697 kJ/mol
# GULP energy per Si atom -12403.154779 kJ/mol
# Density = 1.900246 g / cm^3
# Si number density = 19.045812 Si / 1000 Ang^3
#
#
#
# Elastic Constant Matrix: (Units=GPa)
#
#
# Indices 1 2 3 4 5 6 
#
# 1 112.4592 60.0311 21.7695 0.0000 -7.0243 0.0000
# 2 60.0311 69.7414 20.2337 -0.0001 -9.4078 0.0000
# 3 21.7695 20.2337 72.6252 0.0000 0.4575 0.0000
# 4 0.0000 -0.0001 0.0000 24.9920 0.0000 -5.0193
# 5 -7.0243 -9.4078 0.4575 0.0000 33.8953 0.0000
# 6 0.0000 0.0000 0.0000 -5.0193 0.0000 41.8628
#
#
#
# Elastic Compliance Matrix: (Units=1/GPa)
#
#
# Indices 1 2 3 4 5 6 
#
# 1 0.016535 -0.013985 -0.001057 0.000000 -0.000441 0.000000
# 2 -0.013985 0.028110 -0.003671 0.000000 0.004953 0.000000
# 3 -0.001057 -0.003671 0.015118 0.000000 -0.001442 0.000000
# 4 0.000000 0.000000 0.000000 0.041000 0.000000 0.004916
# 5 -0.000441 0.004953 -0.001442 0.000000 0.030806 0.000000
# 6 0.000000 0.000000 0.000000 0.004916 0.000000 0.024477
#
#
# Mechanical properties :
#
#
# Convention : Reuss Voigt Hill
#
# Bulk Modulus (GPa) = 44.77001 50.98827 47.87914
# Shear Modulus (GPa) = 24.88600 30.33612 27.61106
#
# Velocity S-wave (km/s) = 3.61867 3.99532 3.81165
# Velocity P-wave (km/s) = 6.40447 6.93635 6.67571
#
# Compressibility (1/GPa) = 0.02233638
#
# Stress axis : x y z
#
# Youngs Moduli (GPa) = 60.47947 35.57483 66.14658
#
# Poissons Ratio (x) = 0.49752 0.06993
# Poissons Ratio (y) = 0.84581 0.24280
# Poissons Ratio (z) = 0.06394 0.13058
#
# Static dielectric constant tensor:
#      x y z
#    x 3.360140 0.000000 0.065230 
#    y 0.000000 3.454050 0.000000 
#    z 0.065230 0.000000 3.646430 
# 
# 
# High freq. dielectric constant tensor:
#      x y z
#    x 1.738610 0.000000 0.004640 
#    y 0.000000 1.734610 0.000000 
#    z 0.004640 0.000000 1.753360 
# 
# From -- ./inp_files/244712.got.cif
#   From: 2010.06.25/outbox.cif.g09.slc.cpg/sg12_123_cif.got.tgz:244712.got - 2010.06.28 00:19:55.
