data_PCOD8099440
_publ_section_title
;
Structure prediction by ZEFSAII (Michael W. Deem and Ramdas Pophale) SiO2 
 PCOD8099440
Probable space group: C 2/M
;
_chemical_formula_sum "Si O2"
_cell_formula_units_Z 56
_cell_length_a 31.291267
_cell_length_b 8.804076
_cell_length_c 11.841559
_cell_angle_alpha 90.000000
_cell_angle_beta 63.682742
_cell_angle_gamma 90.000000
_cell_volume 2924.117757
_symmetry_space_group_name_H-M "C 2/M"
_symmetry_group_IT_number 12
_symmetry_cell_setting 'monoclinic'
loop_
_space_group_symop_operation_xyz
x,y,z
-x,y,-z
-x,-y,-z
x,-y,z
1/2+x,1/2+y,z
1/2-x,1/2+y,-z
1/2-x,1/2-y,-z
1/2+x,1/2-y,z
loop_
_atom_site_type_symbol
_atom_site_label
_atom_site_fract_x
_atom_site_fract_y
_atom_site_fract_z
Si Si1 0.235180 0.172510 0.809584
Si Si2 0.380458 0.179164 0.435478
Si Si3 0.335508 0.321008 0.701601
Si Si4 0.457823 0.679697 0.201519
Si Si5 0.703028 0.327292 0.600822
Si Si6 0.848816 0.180699 0.938616
Si Si7 0.562961 0.679832 0.023794
O O1 0.280816 0.278672 0.741466
O O2 0.202616 0.178031 0.736290
O O3 0.252590 0.000000 0.811636
O O4 0.201556 0.234905 0.949458
O O5 0.370458 0.243150 0.571555
O O6 0.432314 0.233849 0.334090
O O7 0.342484 0.238138 0.389679
O O8 0.377905 0.000000 0.444290
O O9 0.340975 0.500000 0.684201
O O10 0.350963 0.262624 0.807295
O O11 0.451005 0.500000 0.224874
O O12 0.435562 0.734946 0.107919
O O13 0.513288 0.727283 0.140634
O O14 0.700617 0.500000 0.559069
O O15 0.750000 0.250000 0.500000
O O16 0.850879 0.000000 0.943285
O O17 0.893378 0.251173 0.955778
O O18 0.566357 0.500000 0.019024
#
# Coordination Sequence:
#
# PCOD8099440 Si02
#       7
#     8   8   8   8   8   8   8
#     4  10  20  35  56  80 109 141 174 220 276 325
#     4  12  24  37  53  76 111 150 184 223 271 318
#     4  11  22  35  53  75 106 146 188 227 263 317
#     4   9  17  33  61  89 109 136 173 219 275 333
#     4  11  21  34  55  81 110 141 175 218 268 322
#     4   9  18  33  54  81 108 139 179 224 271 322
#     4   8  15  32  59  88 112 133 170 223 277 329
#
# _framework density 19.151077000000001
#
# number of rings (size 3 to 8) (size 9 to 14) (size 15 to 20)
#    0.000    2.000    1.429    4.286    0.000    2.857 
#    0.000    2.857    0.000    8.571    0.000    0.000 
#    0.000    0.000    0.000    0.000    0.000    0.000 
#
# Total GULP energy -347218.185219 kJ/mol
# GULP energy per Si atom -12400.649472 kJ/mol
# Density = 1.910749 g / cm^3
# Si number density = 19.151077 Si / 1000 Ang^3
#
#
#
# Elastic Constant Matrix: (Units=GPa)
#
#
# Indices 1 2 3 4 5 6 
#
# 1 57.9587 13.7118 43.3556 0.0000 -0.6539 0.0000
# 2 13.7118 80.0861 45.5737 0.0000 -2.5247 0.0000
# 3 43.3556 45.5737 157.3061 0.0000 -8.3378 0.0000
# 4 0.0000 0.0000 0.0000 22.7388 0.0000 -4.4517
# 5 -0.6539 -2.5247 -8.3378 0.0000 29.7876 0.0000
# 6 0.0000 0.0000 0.0000 -4.4517 0.0000 20.4884
#
#
#
# Elastic Compliance Matrix: (Units=1/GPa)
#
#
# Indices 1 2 3 4 5 6 
#
# 1 0.021788 -0.000377 -0.005961 0.000000 -0.001222 0.000000
# 2 -0.000377 0.014958 -0.004226 0.000000 0.000077 0.000000
# 3 -0.005961 -0.004226 0.009337 0.000000 0.002124 0.000000
# 4 0.000000 0.000000 0.000000 0.045931 0.000000 0.009980
# 5 -0.001222 0.000077 0.002124 0.000000 0.034145 0.000000
# 6 0.000000 0.000000 0.000000 0.009980 0.000000 0.050976
#
#
# Mechanical properties :
#
#
# Convention : Reuss Voigt Hill
#
# Bulk Modulus (GPa) = 40.07001 55.62590 47.84796
# Shear Modulus (GPa) = 24.20359 27.45029 25.82694
#
# Velocity S-wave (km/s) = 3.55889 3.79007 3.67630
# Velocity P-wave (km/s) = 6.15273 6.94707 6.56193
#
# Compressibility (1/GPa) = 0.02495632
#
# Stress axis : x y z
#
# Youngs Moduli (GPa) = 45.89717 66.85321 107.10470
#
# Poissons Ratio (x) = 0.02520 0.63840
# Poissons Ratio (y) = 0.01730 0.45258
# Poissons Ratio (z) = 0.27357 0.28250
#
# Static dielectric constant tensor:
#      x y z
#    x 3.681490 0.000000 0.087180 
#    y 0.000000 3.258510 0.000000 
#    z 0.087180 0.000000 3.673110 
# 
# 
# High freq. dielectric constant tensor:
#      x y z
#    x 1.735610 0.000000 -0.002550 
#    y 0.000000 1.716070 0.000000 
#    z -0.002550 0.000000 1.757730 
# 
# From -- ./inp_files/187149.got.cif
#   From: 2010.06.25/outbox.cif.g09.slc.cpg/sg12_94_cif.got.tgz:187149.got - 2010.06.28 00:19:55.
