data_PCOD8099052
_publ_section_title
;
Structure prediction by ZEFSAII (Michael W. Deem and Ramdas Pophale) SiO2 
 PCOD8099052
Probable space group: C 2/M
;
_chemical_formula_sum "Si O2"
_cell_formula_units_Z 56
_cell_length_a 14.486569
_cell_length_b 8.648072
_cell_length_c 27.691363
_cell_angle_alpha 90.000000
_cell_angle_beta 120.726043
_cell_angle_gamma 90.000000
_cell_volume 2982.192969
_symmetry_space_group_name_H-M "C 2/M"
_symmetry_group_IT_number 12
_symmetry_cell_setting 'monoclinic'
loop_
_space_group_symop_operation_xyz
x,y,z
-x,y,-z
-x,-y,-z
x,-y,z
1/2+x,1/2+y,z
1/2-x,1/2+y,-z
1/2-x,1/2-y,-z
1/2+x,1/2-y,z
loop_
_atom_site_type_symbol
_atom_site_label
_atom_site_fract_x
_atom_site_fract_y
_atom_site_fract_z
Si Si1 0.711668 0.683032 0.857781
Si Si2 0.268604 0.817277 0.767415
Si Si3 0.191801 0.180604 0.555810
Si Si4 0.435220 0.319983 0.934379
Si Si5 0.134350 0.181700 0.643264
Si Si6 0.494894 0.182137 0.145342
Si Si7 0.605889 0.680355 0.432683
O O1 0.724221 0.500000 0.864982
O O2 0.712492 0.738968 0.802067
O O3 0.814452 0.759406 0.910997
O O4 0.602353 0.733395 0.854097
O O5 0.205860 0.742367 0.705041
O O6 0.393608 0.767801 0.798930
O O7 0.259319 0.000000 0.762615
O O8 0.161124 0.259351 0.598609
O O9 0.314722 0.220714 0.578639
O O10 0.115708 0.236739 0.491284
O O11 0.175729 0.000000 0.557663
O O12 0.432178 0.500000 0.920436
O O13 0.497141 0.230532 0.908345
O O14 0.500000 0.286063 0.000000
O O15 0.009978 0.214686 0.620390
O O16 0.157582 0.000000 0.647603
O O17 0.475752 0.000000 0.143243
O O18 0.636847 0.500000 0.437972
#
# Coordination Sequence:
#
# PCOD8099052 Si02
#       7
#     8   8   8   8   8   8   8
#     4  10  20  35  55  77 104 138 173 208 251 300
#     4   8  17  32  49  72  98 127 166 211 252 291
#     4   9  17  29  46  68  93 123 159 199 245 297
#     4  10  21  37  57  82 109 135 168 209 250 295
#     4   9  16  29  49  69  93 126 164 203 244 294
#     4  10  20  35  55  77 104 138 173 208 251 300
#     4   9  17  29  46  68  93 123 159 199 245 297
#
# _framework density 18.778127999999999
#
# number of rings (size 3 to 8) (size 9 to 14) (size 15 to 20)
#    0.000    2.714    0.000    2.571    0.000    4.571 
#    0.000    0.714    0.000   12.000    0.000    0.000 
#    0.000    0.000    0.000    0.000    0.000    0.000 
#
# Total GULP energy -347089.317154 kJ/mol
# GULP energy per Si atom -12396.047041 kJ/mol
# Density = 1.873539 g / cm^3
# Si number density = 18.778128 Si / 1000 Ang^3
#
#
#
# Elastic Constant Matrix: (Units=GPa)
#
#
# Indices 1 2 3 4 5 6 
#
# 1 88.6078 -1.3286 48.5020 0.0000 8.1951 0.0000
# 2 -1.3286 15.9683 18.9507 0.0000 3.7424 0.0000
# 3 48.5020 18.9507 125.7637 0.0000 15.8394 0.0000
# 4 0.0000 0.0000 0.0000 16.3448 0.0000 1.8915
# 5 8.1951 3.7424 15.8394 0.0000 20.5110 0.0000
# 6 0.0000 0.0000 0.0000 1.8915 0.0000 30.0777
#
#
#
# Elastic Compliance Matrix: (Units=1/GPa)
#
#
# Indices 1 2 3 4 5 6 
#
# 1 0.015691 0.010599 -0.007328 0.000000 -0.002544 0.000000
# 2 0.010599 0.084003 -0.015820 0.000000 -0.007344 0.000000
# 3 -0.007328 -0.015820 0.013768 0.000000 -0.004818 0.000000
# 4 0.000000 0.000000 0.000000 0.061630 0.000000 -0.003876
# 5 -0.002544 -0.007344 -0.004818 0.000000 0.054832 0.000000
# 6 0.000000 0.000000 0.000000 -0.003876 0.000000 0.033491
#
#
# Mechanical properties :
#
#
# Convention : Reuss Voigt Hill
#
# Bulk Modulus (GPa) = 11.31704 40.28755 25.80230
# Shear Modulus (GPa) = 15.72484 24.33441 20.02963
#
# Velocity S-wave (km/s) = 2.89693 3.60375 3.26950
# Velocity P-wave (km/s) = 4.15083 6.23034 5.29370
#
# Compressibility (1/GPa) = 0.08836232
#
# Stress axis : x y z
#
# Youngs Moduli (GPa) = 63.73018 11.90439 72.63075
#
# Poissons Ratio (x) = -0.12617 0.53224
# Poissons Ratio (y) = -0.67545 1.14905
# Poissons Ratio (z) = 0.46702 0.18833
#
# Static dielectric constant tensor:
#      x y z
#    x 3.456870 0.000000 -0.066660 
#    y 0.000000 3.186760 0.000000 
#    z -0.066660 0.000000 3.770730 
# 
# 
# High freq. dielectric constant tensor:
#      x y z
#    x 1.732910 0.000000 0.001260 
#    y 0.000000 1.702060 0.000000 
#    z 0.001260 0.000000 1.733960 
# 
# From -- ./inp_files/359667.got.cif
#   From: 2010.06.25/outbox.cif.g09.slc.cpg/sg12_180_cif.got.tgz:359667.got - 2010.06.28 00:19:55.
