data_PCOD8099800
_publ_section_title
;
Structure prediction by ZEFSAII (Michael W. Deem and Ramdas Pophale) SiO2 
 PCOD8099800
Probable space group: C 2/M
;
_chemical_formula_sum "Si O2"
_cell_formula_units_Z 48
_cell_length_a 17.910643
_cell_length_b 8.998441
_cell_length_c 15.506208
_cell_angle_alpha 90.000000
_cell_angle_beta 90.428313
_cell_angle_gamma 90.000000
_cell_volume 2499.032599
_symmetry_space_group_name_H-M "C 2/M"
_symmetry_group_IT_number 12
_symmetry_cell_setting 'monoclinic'
loop_
_space_group_symop_operation_xyz
x,y,z
-x,y,-z
-x,-y,-z
x,-y,z
1/2+x,1/2+y,z
1/2-x,1/2+y,-z
1/2-x,1/2-y,-z
1/2+x,1/2-y,z
loop_
_atom_site_type_symbol
_atom_site_label
_atom_site_fract_x
_atom_site_fract_y
_atom_site_fract_z
Si Si1 0.212408 0.327071 0.757005
Si Si2 0.212460 0.323731 0.081713
Si Si3 0.290281 0.674781 0.579953
Si Si4 0.460112 0.324313 0.586245
Si Si5 0.042149 0.676463 0.083698
Si Si6 0.461569 0.826373 0.253928
O O1 0.227060 0.500000 0.777844
O O2 0.247380 0.227185 0.831398
O O3 0.249170 0.279054 0.667349
O O4 0.125451 0.290656 0.751983
O O5 0.217891 0.500000 0.072768
O O6 0.127156 0.268535 0.084653
O O7 0.250000 0.250000 0.000000
O O8 0.287106 0.500000 0.564808
O O9 0.250000 0.750000 0.500000
O O10 0.375082 0.732819 0.585588
O O11 0.500000 0.268028 0.500000
O O12 0.463384 0.500000 0.594676
O O13 0.504143 0.257103 0.665653
O O14 0.037854 0.500000 0.081426
O O15 0.000772 0.736509 0.168324
O O16 0.000000 0.743163 0.000000
O O17 0.476817 0.000000 0.265757
#
# Coordination Sequence:
#
# PCOD8099800 Si02
#       6
#     8   8   8   8   8   8
#     4  10  21  37  56  80 110 141 177 224 271 315
#     4  11  22  36  57  82 108 141 178 218 266 319
#     4  10  21  36  55  80 110 144 181 223 270 318
#     4  10  21  36  53  76 109 145 177 216 268 319
#     4   9  18  34  55  78 105 137 173 214 260 310
#     4  10  20  35  57  81 104 137 180 222 263 310
#
# _framework density 19.207433000000002
#
# number of rings (size 3 to 8) (size 9 to 14) (size 15 to 20)
#    0.000    2.000    0.000    3.500    0.000    5.000 
#    0.000    0.833    0.000    3.500    0.000    0.000 
#    0.000    0.000    0.000    0.000    0.000    0.000 
#
# Total GULP energy -297696.551042 kJ/mol
# GULP energy per Si atom -12404.022960 kJ/mol
# Density = 1.916372 g / cm^3
# Si number density = 19.207433 Si / 1000 Ang^3
#
#
#
# Elastic Constant Matrix: (Units=GPa)
#
#
# Indices 1 2 3 4 5 6 
#
# 1 156.1068 34.7446 90.2126 0.0000 -19.8972 0.0000
# 2 34.7446 33.6121 41.7711 0.0000 -0.5002 0.0000
# 3 90.2126 41.7711 185.6052 0.0000 -10.0402 0.0000
# 4 0.0000 0.0000 0.0000 29.2985 0.0000 6.7024
# 5 -19.8972 -0.5002 -10.0402 0.0000 42.8884 0.0000
# 6 0.0000 0.0000 0.0000 6.7024 0.0000 20.2016
#
#
#
# Elastic Compliance Matrix: (Units=1/GPa)
#
#
# Indices 1 2 3 4 5 6 
#
# 1 0.010253 -0.006400 -0.003332 0.000000 0.003902 0.000000
# 2 -0.006400 0.045422 -0.007337 0.000000 -0.004157 0.000000
# 3 -0.003332 -0.007337 0.008680 0.000000 0.000401 0.000000
# 4 0.000000 0.000000 0.000000 0.036935 0.000000 -0.012254
# 5 0.003902 -0.004157 0.000401 0.000000 0.025172 0.000000
# 6 0.000000 0.000000 0.000000 -0.012254 0.000000 0.053567
#
#
# Mechanical properties :
#
#
# Convention : Reuss Voigt Hill
#
# Bulk Modulus (GPa) = 33.09228 78.75343 55.92285
# Shear Modulus (GPa) = 22.29766 32.38410 27.34088
#
# Velocity S-wave (km/s) = 3.41088 4.11057 3.77696
# Velocity P-wave (km/s) = 5.72524 7.97619 6.94255
#
# Compressibility (1/GPa) = 0.03021853
#
# Stress axis : x y z
#
# Youngs Moduli (GPa) = 97.53037 22.01566 115.20433
#
# Poissons Ratio (x) = 0.14089 0.38389
# Poissons Ratio (y) = 0.62415 0.84523
# Poissons Ratio (z) = 0.32499 0.16152
#
# Static dielectric constant tensor:
#      x y z
#    x 3.497770 0.000000 0.060660 
#    y 0.000000 3.254590 0.000000 
#    z 0.060660 0.000000 3.503510 
# 
# 
# High freq. dielectric constant tensor:
#      x y z
#    x 1.769020 0.000000 -0.003840 
#    y 0.000000 1.722550 0.000000 
#    z -0.003840 0.000000 1.767050 
# 
# From -- ./inp_files/221577.got.cif
#   From: 2010.06.25/outbox.cif.g09.slc.cpg/sg12_111_cif.got.tgz:221577.got - 2010.06.28 00:19:55.
