data_PCOD8099221
_publ_section_title
;
Structure prediction by ZEFSAII (Michael W. Deem and Ramdas Pophale) SiO2 
 PCOD8099221
Probable space group: C 2/M
;
_chemical_formula_sum "Si O2"
_cell_formula_units_Z 56
_cell_length_a 17.423761
_cell_length_b 8.881126
_cell_length_c 23.561117
_cell_angle_alpha 90.000000
_cell_angle_beta 48.453353
_cell_angle_gamma 90.000000
_cell_volume 2728.656572
_symmetry_space_group_name_H-M "C 2/M"
_symmetry_group_IT_number 12
_symmetry_cell_setting 'monoclinic'
loop_
_space_group_symop_operation_xyz
x,y,z
-x,y,-z
-x,-y,-z
x,-y,z
1/2+x,1/2+y,z
1/2-x,1/2+y,-z
1/2-x,1/2-y,-z
1/2+x,1/2-y,z
loop_
_atom_site_type_symbol
_atom_site_label
_atom_site_fract_x
_atom_site_fract_y
_atom_site_fract_z
Si Si1 0.412209 0.671225 0.935667
Si Si2 0.779268 0.327786 0.910293
Si Si3 0.918195 0.673101 0.207209
Si Si4 0.551761 0.170097 0.253481
Si Si5 0.693911 0.325927 0.475453
Si Si6 0.465531 0.327209 0.622949
Si Si7 0.277531 0.176843 0.656536
O O1 0.450038 0.500000 0.912138
O O2 0.332061 0.706088 0.924927
O O3 0.512450 0.776123 0.880788
O O4 0.345123 0.696452 0.026792
O O5 0.805074 0.500000 0.917888
O O6 0.828353 0.306767 0.823441
O O7 0.888730 0.500000 0.214103
O O8 0.814658 0.769768 0.257892
O O9 0.980852 0.703986 0.234084
O O10 0.521987 0.285712 0.317180
O O11 0.534029 0.000000 0.284248
O O12 0.723872 0.500000 0.460607
O O13 0.750000 0.250000 0.500000
O O14 0.572398 0.301715 0.538641
O O15 0.736173 0.254635 0.397352
O O16 0.430110 0.500000 0.635047
O O17 0.384145 0.220006 0.633166
O O18 0.273532 0.000000 0.649931
#
# Coordination Sequence:
#
# PCOD8099221 Si02
#       7
#     8   8   8   8   8   8   8
#     4   9  15  25  45  74 107 142 184 230 276 328
#     4   8  15  27  44  71 108 146 182 227 281 328
#     4  10  20  35  55  80 113 148 184 230 282 333
#     4   9  18  33  54  80 110 146 186 227 274 326
#     4  11  24  42  64  89 117 147 182 225 272 323
#     4  11  24  40  58  82 113 148 184 224 273 327
#     4  12  25  40  60  84 111 146 187 228 275 330
#
# _framework density 20.522919000000002
#
# number of rings (size 3 to 8) (size 9 to 14) (size 15 to 20)
#    0.000    2.000    0.000    5.143    0.000    9.714 
#    0.000    0.000    0.000    0.857    0.000    6.000 
#    0.000    0.000    0.000    0.000    0.000    0.000 
#
# Total GULP energy -347137.434444 kJ/mol
# GULP energy per Si atom -12397.765516 kJ/mol
# Density = 2.047621 g / cm^3
# Si number density = 20.522919 Si / 1000 Ang^3
#
#
#
# Elastic Constant Matrix: (Units=GPa)
#
#
# Indices 1 2 3 4 5 6 
#
# 1 37.1226 23.1370 -0.7176 0.0000 -15.1980 0.0001
# 2 23.1370 113.7180 44.0109 0.0000 -15.6609 0.0003
# 3 -0.7176 44.0109 93.1252 0.0000 -22.2459 0.0000
# 4 0.0000 0.0000 0.0000 37.0587 0.0000 -1.9555
# 5 -15.1980 -15.6609 -22.2459 0.0000 21.9906 0.0000
# 6 0.0001 0.0003 0.0000 -1.9555 0.0000 27.1236
#
#
#
# Elastic Compliance Matrix: (Units=1/GPa)
#
#
# Indices 1 2 3 4 5 6 
#
# 1 0.052328 -0.010733 0.016205 0.000000 0.044914 0.000000
# 2 -0.010733 0.013151 -0.007691 0.000000 -0.005832 0.000000
# 3 0.016205 -0.007691 0.020920 0.000000 0.026885 0.000000
# 4 0.000000 0.000000 0.000000 0.027087 0.000000 0.001953
# 5 0.044914 -0.005832 0.026885 0.000000 0.099558 0.000000
# 6 0.000000 0.000000 0.000000 0.001953 0.000000 0.037009
#
#
# Mechanical properties :
#
#
# Convention : Reuss Voigt Hill
#
# Bulk Modulus (GPa) = 12.20098 41.86960 27.03529
# Shear Modulus (GPa) = 17.74237 29.07028 23.40632
#
# Velocity S-wave (km/s) = 2.94345 3.76770 3.38079
# Velocity P-wave (km/s) = 4.18448 6.27480 5.33305
#
# Compressibility (1/GPa) = 0.08196064
#
# Stress axis : x y z
#
# Youngs Moduli (GPa) = 19.11027 76.04183 47.80083
#
# Poissons Ratio (x) = 0.81613 -0.77459
# Poissons Ratio (y) = 0.20510 0.36763
# Poissons Ratio (z) = -0.30967 0.58483
#
# Static dielectric constant tensor:
#      x y z
#    x 3.180450 0.000000 -0.192980 
#    y 0.000000 3.741490 0.000000 
#    z -0.192980 0.000000 4.157570 
# 
# 
# High freq. dielectric constant tensor:
#      x y z
#    x 1.752240 0.000000 -0.013920 
#    y 0.000000 1.809460 0.000000 
#    z -0.013920 0.000000 1.828990 
# 
# From -- ./inp_files/362979.got.cif
#   From: 2010.06.25/outbox.cif.g09.slc.cpg/sg12_182_cif.got.tgz:362979.got - 2010.06.28 00:19:55.
