data_PCOD8099768
_publ_section_title
;
Structure prediction by ZEFSAII (Michael W. Deem and Ramdas Pophale) SiO2 
 PCOD8099768
Probable space group: C 2/M
;
_chemical_formula_sum "Si O2"
_cell_formula_units_Z 64
_cell_length_a 14.962605
_cell_length_b 14.253177
_cell_length_c 17.841491
_cell_angle_alpha 90.000000
_cell_angle_beta 120.746402
_cell_angle_gamma 90.000000
_cell_volume 3270.128723
_symmetry_space_group_name_H-M "C 2/M"
_symmetry_group_IT_number 12
_symmetry_cell_setting 'monoclinic'
loop_
_space_group_symop_operation_xyz
x,y,z
-x,y,-z
-x,-y,-z
x,-y,z
1/2+x,1/2+y,z
1/2-x,1/2+y,-z
1/2-x,1/2-y,-z
1/2+x,1/2-y,z
loop_
_atom_site_type_symbol
_atom_site_label
_atom_site_fract_x
_atom_site_fract_y
_atom_site_fract_z
Si Si1 0.622435 0.397447 0.554954
Si Si2 0.665970 0.393486 0.192008
Si Si3 0.209886 0.103805 0.038451
Si Si4 0.326911 0.196908 0.366798
Si Si5 0.004366 0.606738 0.657327
Si Si6 0.445950 0.105846 0.152016
Si Si7 0.976496 0.781280 0.076576
Si Si8 0.220275 0.644365 0.493443
O O1 0.500000 0.375418 0.500000
O O2 0.637761 0.500000 0.601632
O O3 0.676123 0.309408 0.619650
O O4 0.678535 0.409153 0.496923
O O5 0.675604 0.500000 0.225326
O O6 0.705273 0.382953 0.125015
O O7 0.735425 0.323919 0.270385
O O8 0.546990 0.360696 0.145507
O O9 0.329975 0.112676 0.069407
O O10 0.167605 0.000000 0.999163
O O11 0.142143 0.181633 0.965094
O O12 0.439082 0.171624 0.379806
O O13 0.306443 0.129474 0.430330
O O14 0.037205 0.500000 0.655145
O O15 0.880473 0.618735 0.599189
O O16 0.043460 0.634901 0.756702
O O17 0.505220 0.182898 0.128204
O O18 0.490284 0.000000 0.159136
O O19 0.000000 0.769355 0.000000
O O20 0.250000 0.750000 0.500000
#
# Coordination Sequence:
#
# PCOD8099768 Si02
#       8
#     8   8   8   8   8   8   8   8
#     4  10  22  41  60  81 115 160 204 238 283 349
#     4  10  20  35  56  87 118 146 187 242 298 344
#     4   9  17  36  60  83 111 145 187 234 294 355
#     4  11  21  37  61  88 120 153 197 251 294 339
#     4  11  22  37  59  89 120 151 193 248 304 346
#     4  10  21  36  58  85 116 153 191 239 293 350
#     4  10  21  35  57  84 114 154 192 233 288 353
#     4  10  22  37  59  86 115 154 198 236 286 343
#
# _framework density 19.571095
#
# number of rings (size 3 to 8) (size 9 to 14) (size 15 to 20)
#    0.000    1.875    1.250    3.375    3.500    4.250 
#    0.000    0.000    0.000    1.500    0.000    0.000 
#    0.000    0.000    0.000    0.000    0.000    0.000 
#
# Total GULP energy -396519.861077 kJ/mol
# GULP energy per Si atom -12391.245659 kJ/mol
# Density = 1.952655 g / cm^3
# Si number density = 19.571095 Si / 1000 Ang^3
#
#
#
# Elastic Constant Matrix: (Units=GPa)
#
#
# Indices 1 2 3 4 5 6 
#
# 1 88.7310 24.3625 37.4036 0.0000 8.6244 0.0000
# 2 24.3625 129.7444 46.4866 0.0000 -7.8302 0.0000
# 3 37.4036 46.4866 47.8984 0.0000 2.7027 0.0000
# 4 0.0000 0.0000 0.0000 32.6442 0.0000 1.2846
# 5 8.6244 -7.8302 2.7027 0.0000 14.3451 0.0000
# 6 0.0000 0.0000 0.0000 1.2846 0.0000 10.0564
#
#
#
# Elastic Compliance Matrix: (Units=1/GPa)
#
#
# Indices 1 2 3 4 5 6 
#
# 1 0.017899 0.001661 -0.015195 0.000000 -0.006991 0.000000
# 2 0.001661 0.013153 -0.014567 0.000000 0.008925 0.000000
# 3 -0.015195 -0.014567 0.047317 0.000000 -0.007730 0.000000
# 4 0.000000 0.000000 0.000000 0.030788 0.000000 -0.003933
# 5 -0.006991 0.008925 -0.007730 0.000000 0.080242 0.000000
# 6 0.000000 0.000000 0.000000 -0.003933 0.000000 0.099942
#
#
# Mechanical properties :
#
#
# Convention : Reuss Voigt Hill
#
# Bulk Modulus (GPa) = 45.10943 53.65325 49.38134
# Shear Modulus (GPa) = 14.16714 21.95053 18.05883
#
# Velocity S-wave (km/s) = 2.69342 3.35263 3.04094
# Velocity P-wave (km/s) = 5.72466 6.51620 6.13321
#
# Compressibility (1/GPa) = 0.02216831
#
# Stress axis : x y z
#
# Youngs Moduli (GPa) = 55.87018 76.02694 21.13424
#
# Poissons Ratio (x) = -0.12632 0.32113
# Poissons Ratio (y) = -0.09283 0.30785
# Poissons Ratio (z) = 0.84894 1.10745
#
# Static dielectric constant tensor:
#      x y z
#    x 3.941660 0.000000 -0.114030 
#    y 0.000000 3.848720 0.000000 
#    z -0.114030 0.000000 3.522740 
# 
# 
# High freq. dielectric constant tensor:
#      x y z
#    x 1.759200 0.000000 0.014030 
#    y 0.000000 1.772150 0.000000 
#    z 0.014030 0.000000 1.744740 
# 
# From -- ./inp_files/270308.got.cif
#   From: 2010.06.25/outbox.cif.g09.slc.cpg/sg12_136_cif.got.tgz:270308.got - 2010.06.28 00:19:55.
