data_PCOD8099410
_publ_section_title
;
Structure prediction by ZEFSAII (Michael W. Deem and Ramdas Pophale) SiO2 
 PCOD8099410
Probable space group: C 2/M
;
_chemical_formula_sum "Si O2"
_cell_formula_units_Z 44
_cell_length_a 19.803804
_cell_length_b 18.306799
_cell_length_c 6.247579
_cell_angle_alpha 90.000000
_cell_angle_beta 93.283137
_cell_angle_gamma 90.000000
_cell_volume 2261.306352
_symmetry_space_group_name_H-M "C 2/M"
_symmetry_group_IT_number 12
_symmetry_cell_setting 'monoclinic'
loop_
_space_group_symop_operation_xyz
x,y,z
-x,y,-z
-x,-y,-z
x,-y,z
1/2+x,1/2+y,z
1/2-x,1/2+y,-z
1/2-x,1/2-y,-z
1/2+x,1/2-y,z
loop_
_atom_site_type_symbol
_atom_site_label
_atom_site_fract_x
_atom_site_fract_y
_atom_site_fract_z
Si Si1 0.218015 0.826958 0.531889
Si Si2 0.396317 0.321830 0.160967
Si Si3 0.186612 0.917030 0.125341
Si Si4 0.309913 0.915700 0.834430
Si Si5 0.567434 0.192565 0.133654
Si Si6 0.000000 0.768281 0.500000
O O1 0.250000 0.750000 0.500000
O O2 0.165542 0.803721 0.700596
O O3 0.181009 0.861587 0.321389
O O4 0.273253 0.885789 0.616579
O O5 0.463875 0.321496 0.319440
O O6 0.377299 0.398780 0.042984
O O7 0.400395 0.261485 0.978610
O O8 0.177758 0.000000 0.200957
O O9 0.259437 0.905319 0.026126
O O10 0.380208 0.873631 0.875343
O O11 0.327549 0.000000 0.801023
O O12 0.551403 0.215582 0.377446
O O13 0.500000 0.166160 0.000000
#
# Coordination Sequence:
#
# PCOD8099410 Si02
#       6
#     8   8   8   8   8   4
#     4  11  20  33  57  83 107 141 183 226 271 320
#     4  10  20  35  56  80 107 140 182 227 271 319
#     4  10  21  36  55  82 115 145 175 219 275 329
#     4  10  21  36  54  81 115 147 179 220 271 324
#     4  10  21  37  56  80 109 144 187 228 267 316
#     4  10  20  36  58  80 106 142 188 234 266 308
#
# _framework density 19.457778999999999
#
# number of rings (size 3 to 8) (size 9 to 14) (size 15 to 20)
#    0.000    1.818    0.000    4.909    0.000    5.455 
#    0.000    0.909    0.000   10.364    0.000    0.000 
#    0.000    0.000    0.000    0.000    0.000    0.000 
#
# Total GULP energy -272679.420235 kJ/mol
# GULP energy per Si atom -12394.519102 kJ/mol
# Density = 1.941349 g / cm^3
# Si number density = 19.457779 Si / 1000 Ang^3
#
#
#
# Elastic Constant Matrix: (Units=GPa)
#
#
# Indices 1 2 3 4 5 6 
#
# 1 95.0786 57.5442 34.1948 0.0000 3.5647 0.0000
# 2 57.5442 123.3520 56.0747 0.0000 -2.3143 0.0000
# 3 34.1948 56.0747 103.4818 0.0000 -4.5372 0.0000
# 4 0.0000 0.0000 0.0000 24.7578 0.0000 1.3478
# 5 3.5647 -2.3143 -4.5372 0.0000 30.9647 0.0000
# 6 0.0000 0.0000 0.0000 1.3478 0.0000 32.4527
#
#
#
# Elastic Compliance Matrix: (Units=1/GPa)
#
#
# Indices 1 2 3 4 5 6 
#
# 1 0.015017 -0.006298 -0.001656 0.000000 -0.002442 0.000000
# 2 -0.006298 0.013398 -0.005136 0.000000 0.000974 0.000000
# 3 -0.001656 -0.005136 0.013070 0.000000 0.001722 0.000000
# 4 0.000000 0.000000 0.000000 0.040483 0.000000 -0.001681
# 5 -0.002442 0.000974 0.001722 0.000000 0.032901 0.000000
# 6 0.000000 0.000000 0.000000 -0.001681 0.000000 0.030884
#
#
# Mechanical properties :
#
#
# Convention : Reuss Voigt Hill
#
# Bulk Modulus (GPa) = 65.34765 68.61553 66.98159
# Shear Modulus (GPa) = 28.24297 29.24161 28.74229
#
# Velocity S-wave (km/s) = 3.81399 3.88083 3.84756
# Velocity P-wave (km/s) = 7.28372 7.44456 7.36458
#
# Compressibility (1/GPa) = 0.01530277
#
# Stress axis : x y z
#
# Youngs Moduli (GPa) = 66.59235 74.63671 76.51312
#
# Poissons Ratio (x) = 0.47008 0.12673
# Poissons Ratio (y) = 0.41941 0.39300
# Poissons Ratio (z) = 0.11030 0.38336
#
# Static dielectric constant tensor:
#      x y z
#    x 3.658510 0.000000 -0.012820 
#    y 0.000000 3.471900 0.000000 
#    z -0.012820 0.000000 3.860910 
# 
# 
# High freq. dielectric constant tensor:
#      x y z
#    x 1.759640 0.000000 -0.002790 
#    y 0.000000 1.742820 0.000000 
#    z -0.002790 0.000000 1.771030 
# 
# From -- ./inp_files/20425.got.cif
#   From: 2010.06.25/outbox.cif.g09.slc.cpg/sg12_11_cif.got.tgz:20425.got - 2010.06.28 00:19:55.
