data_PCOD8099699
_publ_section_title
;
Structure prediction by ZEFSAII (Michael W. Deem and Ramdas Pophale) SiO2 
 PCOD8099699
Probable space group: C 2/M
;
_chemical_formula_sum "Si O2"
_cell_formula_units_Z 64
_cell_length_a 29.520638
_cell_length_b 9.208682
_cell_length_c 15.991764
_cell_angle_alpha 90.000000
_cell_angle_beta 132.594107
_cell_angle_gamma 90.000000
_cell_volume 3200.337324
_symmetry_space_group_name_H-M "C 2/M"
_symmetry_group_IT_number 12
_symmetry_cell_setting 'monoclinic'
loop_
_space_group_symop_operation_xyz
x,y,z
-x,y,-z
-x,-y,-z
x,-y,z
1/2+x,1/2+y,z
1/2-x,1/2+y,-z
1/2-x,1/2-y,-z
1/2+x,1/2-y,z
loop_
_atom_site_type_symbol
_atom_site_label
_atom_site_fract_x
_atom_site_fract_y
_atom_site_fract_z
Si Si1 0.862444 0.332006 0.990843
Si Si2 0.961183 0.831955 0.585801
Si Si3 0.747871 0.332052 0.741304
Si Si4 0.589272 0.664435 0.301676
Si Si5 0.972101 0.167752 0.050529
Si Si6 0.703489 0.830134 0.381064
Si Si7 0.872965 0.667996 0.361595
Si Si8 0.914110 0.666782 0.231347
O O1 0.875678 0.500000 0.991872
O O2 0.909264 0.248035 0.990633
O O3 0.871222 0.289715 0.099036
O O4 0.793657 0.293087 0.874849
O O5 0.912323 0.814076 0.600474
O O6 0.933850 0.746728 0.472671
O O7 0.026738 0.768543 0.693649
O O8 0.970104 0.000000 0.573316
O O9 0.727672 0.500000 0.718988
O O10 0.780655 0.294840 0.694856
O O11 0.687894 0.234821 0.674891
O O12 0.609553 0.500000 0.304307
O O13 0.520324 0.695344 0.184703
O O14 0.634974 0.775533 0.314548
O O15 0.955472 0.000000 0.018737
O O16 0.000000 0.231230 0.000000
O O17 0.750000 0.750000 0.500000
O O18 0.707150 0.000000 0.404292
O O19 0.876319 0.500000 0.391073
O O20 0.872536 0.690328 0.261370
O O21 0.936439 0.500000 0.252717
#
# Coordination Sequence:
#
# PCOD8099699 Si02
#       8
#     8   8   8   8   8   8   8   8
#     4  10  21  39  62  85 117 156 195 242 294 349
#     4  11  22  38  61  89 121 155 195 242 295 355
#     4  10  23  42  60  85 119 155 199 247 292 347
#     4  10  21  36  55  84 118 149 187 235 285 343
#     4  10  20  35  56  84 117 151 189 236 288 341
#     4  11  23  38  58  84 116 154 197 241 288 345
#     4  11  24  40  60  87 117 153 199 247 299 354
#     4  10  22  40  61  88 120 153 193 246 300 352
#
# _framework density 19.997893000000001
#
# number of rings (size 3 to 8) (size 9 to 14) (size 15 to 20)
#    0.000    1.625    1.250    3.000    0.000    9.250 
#    0.000    0.000    0.000    0.000    0.000    0.000 
#    0.000    0.000    0.000    0.000    0.000    0.000 
#
# Total GULP energy -396949.316314 kJ/mol
# GULP energy per Si atom -12404.666135 kJ/mol
# Density = 1.995238 g / cm^3
# Si number density = 19.997893 Si / 1000 Ang^3
#
#
#
# Elastic Constant Matrix: (Units=GPa)
#
#
# Indices 1 2 3 4 5 6 
#
# 1 68.8294 41.6239 18.7883 0.0000 -1.3597 0.0000
# 2 41.6239 94.8755 46.0288 0.0000 3.0677 0.0000
# 3 18.7883 46.0288 110.5908 0.0000 -7.1183 0.0000
# 4 0.0000 0.0000 0.0000 30.1958 0.0000 3.3213
# 5 -1.3597 3.0677 -7.1183 0.0000 30.9565 0.0000
# 6 0.0000 0.0000 0.0000 3.3213 0.0000 33.1372
#
#
#
# Elastic Compliance Matrix: (Units=1/GPa)
#
#
# Indices 1 2 3 4 5 6 
#
# 1 0.019890 -0.009030 0.000500 0.000000 0.001883 0.000000
# 2 -0.009030 0.017518 -0.005983 0.000000 -0.003508 0.000000
# 3 0.000500 -0.005983 0.011660 0.000000 0.003296 0.000000
# 4 0.000000 0.000000 0.000000 0.033486 0.000000 -0.003356
# 5 0.001883 -0.003508 0.003296 0.000000 0.033492 0.000000
# 6 0.000000 0.000000 0.000000 -0.003356 0.000000 0.030514
#
#
# Mechanical properties :
#
#
# Convention : Reuss Voigt Hill
#
# Bulk Modulus (GPa) = 49.89303 54.13085 52.01194
# Shear Modulus (GPa) = 27.43268 30.04820 28.74044
#
# Velocity S-wave (km/s) = 3.70777 3.88050 3.79512
# Velocity P-wave (km/s) = 6.58281 6.87057 6.72823
#
# Compressibility (1/GPa) = 0.02004288
#
# Stress axis : x y z
#
# Youngs Moduli (GPa) = 50.27662 57.08533 85.76672
#
# Poissons Ratio (x) = 0.51547 -0.04292
# Poissons Ratio (y) = 0.45399 0.51312
# Poissons Ratio (z) = -0.02516 0.34153
#
# Static dielectric constant tensor:
#      x y z
#    x 3.523620 0.000000 -0.164110 
#    y 0.000000 3.664690 0.000000 
#    z -0.164110 0.000000 3.869360 
# 
# 
# High freq. dielectric constant tensor:
#      x y z
#    x 1.778320 0.000000 -0.008750 
#    y 0.000000 1.780110 0.000000 
#    z -0.008750 0.000000 1.793190 
# 
# From -- ./inp_files/250123.got.cif
#   From: 2010.06.25/outbox.cif.g09.slc.cpg/sg12_126_cif.got.tgz:250123.got - 2010.06.28 00:19:55.
