data_PCOD8099757
_publ_section_title
;
Structure prediction by ZEFSAII (Michael W. Deem and Ramdas Pophale) SiO2 
 PCOD8099757
Probable space group: C 2/M
;
_chemical_formula_sum "Si O2"
_cell_formula_units_Z 64
_cell_length_a 15.615793
_cell_length_b 8.641451
_cell_length_c 30.659713
_cell_angle_alpha 90.000000
_cell_angle_beta 50.767568
_cell_angle_gamma 90.000000
_cell_volume 3204.710358
_symmetry_space_group_name_H-M "C 2/M"
_symmetry_group_IT_number 12
_symmetry_cell_setting 'monoclinic'
loop_
_space_group_symop_operation_xyz
x,y,z
-x,y,-z
-x,-y,-z
x,-y,z
1/2+x,1/2+y,z
1/2-x,1/2+y,-z
1/2-x,1/2-y,-z
1/2+x,1/2-y,z
loop_
_atom_site_type_symbol
_atom_site_label
_atom_site_fract_x
_atom_site_fract_y
_atom_site_fract_z
Si Si1 0.103858 0.316501 0.940608
Si Si2 0.525146 0.317535 0.559461
Si Si3 0.822792 0.816442 0.567763
Si Si4 0.292890 0.318367 0.941690
Si Si5 0.004975 0.816963 0.823561
Si Si6 0.316762 0.183404 0.176890
Si Si7 0.415548 0.683135 0.363453
Si Si8 0.923828 0.317805 0.759098
O O1 0.094364 0.500000 0.944979
O O2 0.214755 0.258133 0.928148
O O3 0.111783 0.260290 0.888115
O O4 0.000000 0.242408 0.000000
O O5 0.532164 0.500000 0.557323
O O6 0.401979 0.270008 0.583093
O O7 0.617406 0.258360 0.495722
O O8 0.553127 0.253438 0.598411
O O9 0.709927 0.722633 0.608461
O O10 0.799481 0.000000 0.574704
O O11 0.284445 0.500000 0.948924
O O12 0.416254 0.266069 0.889182
O O13 0.250000 0.250000 0.000000
O O14 0.123098 0.748360 0.799520
O O15 0.970876 0.750576 0.788365
O O16 0.012096 0.000000 0.816966
O O17 0.194485 0.248512 0.214234
O O18 0.309052 0.000000 0.181736
O O19 0.434892 0.500000 0.352999
O O20 0.493749 0.774453 0.305815
O O21 0.913817 0.500000 0.766991
#
# Coordination Sequence:
#
# PCOD8099757 Si02
#       8
#     8   8   8   8   8   8   8   8
#     4   9  17  32  56  85 119 154 190 234 293 359
#     4   8  17  34  59  87 121 162 200 244 300 361
#     4   9  17  35  60  88 121 160 205 247 293 361
#     4  10  20  35  56  86 122 156 192 242 299 361
#     4  11  23  42  64  89 121 157 200 252 307 368
#     4  11  22  41  66  90 120 158 199 249 309 370
#     4  11  22  37  58  87 121 158 202 254 312 365
#     4  12  26  44  63  86 118 163 213 262 312 367
#
# _framework density 19.970604000000002
#
# number of rings (size 3 to 8) (size 9 to 14) (size 15 to 20)
#    0.000    1.875    1.250    4.125    0.000    3.000 
#    0.000    6.875    0.000    2.625    0.000    0.000 
#    0.000    0.000    0.000    0.000    0.000    0.000 
#
# Total GULP energy -396775.029117 kJ/mol
# GULP energy per Si atom -12399.219660 kJ/mol
# Density = 1.992515 g / cm^3
# Si number density = 19.970604 Si / 1000 Ang^3
#
#
#
# Elastic Constant Matrix: (Units=GPa)
#
#
# Indices 1 2 3 4 5 6 
#
# 1 162.1472 41.4590 65.8549 0.0001 -9.9932 0.0004
# 2 41.4590 64.8209 33.0544 0.0002 1.3210 0.0005
# 3 65.8549 33.0544 116.7549 -0.0001 -7.3215 -0.0001
# 4 0.0001 0.0002 -0.0001 27.6582 0.0001 -5.7017
# 5 -9.9932 1.3210 -7.3215 0.0001 25.9672 0.0002
# 6 0.0004 0.0005 -0.0001 -5.7017 0.0002 27.7085
#
#
#
# Elastic Compliance Matrix: (Units=1/GPa)
#
#
# Indices 1 2 3 4 5 6 
#
# 1 0.008808 -0.003778 -0.003740 0.000000 0.002527 0.000000
# 2 -0.003778 0.019798 -0.003694 0.000000 -0.003503 0.000000
# 3 -0.003740 -0.003694 0.011851 0.000000 0.002090 0.000000
# 4 0.000000 0.000000 0.000000 0.037757 0.000000 0.007769
# 5 0.002527 -0.003503 0.002090 0.000000 0.040250 0.000000
# 6 0.000000 0.000000 0.000000 0.007769 0.000000 0.037689
#
#
# Mechanical properties :
#
#
# Convention : Reuss Voigt Hill
#
# Bulk Modulus (GPa) = 55.45031 69.38440 62.41735
# Shear Modulus (GPa) = 27.08723 29.82377 28.45550
#
# Velocity S-wave (km/s) = 3.68687 3.86862 3.77884
# Velocity P-wave (km/s) = 6.77866 7.40093 7.09662
#
# Compressibility (1/GPa) = 0.01803416
#
# Stress axis : x y z
#
# Youngs Moduli (GPa) = 113.53421 50.50912 84.37862
#
# Poissons Ratio (x) = 0.19081 0.31558
# Poissons Ratio (y) = 0.42891 0.31169
# Poissons Ratio (z) = 0.42462 0.18658
#
# Static dielectric constant tensor:
#      x y z
#    x 3.710770 0.000000 0.028270 
#    y 0.000000 3.395370 0.000000 
#    z 0.028270 0.000000 3.803870 
# 
# 
# High freq. dielectric constant tensor:
#      x y z
#    x 1.796560 0.000000 -0.001150 
#    y 0.000000 1.757660 0.000000 
#    z -0.001150 0.000000 1.781370 
# 
# From -- ./inp_files/375382.got.cif
#   From: 2010.06.25/outbox.cif.g09.slc.cpg/sg12_188_cif.got.tgz:375382.got - 2010.06.28 00:19:55.
