data_PCOD8099479
_publ_section_title
;
Structure prediction by ZEFSAII (Michael W. Deem and Ramdas Pophale) SiO2 
 PCOD8099479
Probable space group: C 2/M
;
_chemical_formula_sum "Si O2"
_cell_formula_units_Z 48
_cell_length_a 21.612117
_cell_length_b 18.862601
_cell_length_c 8.608531
_cell_angle_alpha 90.000000
_cell_angle_beta 136.395025
_cell_angle_gamma 90.000000
_cell_volume 2420.343981
_symmetry_space_group_name_H-M "C 2/M"
_symmetry_group_IT_number 12
_symmetry_cell_setting 'monoclinic'
loop_
_space_group_symop_operation_xyz
x,y,z
-x,y,-z
-x,-y,-z
x,-y,z
1/2+x,1/2+y,z
1/2-x,1/2+y,-z
1/2-x,1/2-y,-z
1/2+x,1/2-y,z
loop_
_atom_site_type_symbol
_atom_site_label
_atom_site_fract_x
_atom_site_fract_y
_atom_site_fract_z
Si Si1 0.187799 0.292234 0.179632
Si Si2 0.748177 0.921110 0.103784
Si Si3 0.923558 0.923577 0.237578
Si Si4 0.411693 0.079986 0.425779
Si Si5 0.476529 0.277600 0.275380
Si Si6 0.857754 0.297302 0.551515
O O1 0.234455 0.365519 0.216254
O O2 0.146641 0.306788 0.272807
O O3 0.262369 0.230205 0.313295
O O4 0.107905 0.272830 0.915845
O O5 0.834702 0.898537 0.164327
O O6 0.760163 0.000000 0.197488
O O7 0.665394 0.919706 0.839099
O O8 0.950796 0.858206 0.176011
O O9 0.000000 0.936382 0.500000
O O10 0.908438 0.000000 0.122261
O O11 0.500000 0.110650 0.500000
O O12 0.384571 0.128351 0.522096
O O13 0.429789 0.000000 0.520675
O O14 0.500000 0.272681 0.500000
O O15 0.564186 0.259231 0.336975
#
# Coordination Sequence:
#
# PCOD8099479 Si02
#       6
#     8   8   8   8   8   8
#     4  11  23  37  54  81 114 146 182 219 266 327
#     4  10  20  35  56  81 108 139 179 226 270 317
#     4   9  18  32  53  81 107 133 173 223 270 315
#     4  10  21  37  57  81 107 138 181 228 271 317
#     4  11  21  35  59  82 107 143 183 228 273 314
#     4  11  23  37  55  80 113 149 180 219 268 324
#
# _framework density 19.831890999999999
#
# number of rings (size 3 to 8) (size 9 to 14) (size 15 to 20)
#    0.000    1.667    0.000    6.000    0.000    2.667 
#    0.000    0.000    0.000    9.000    0.000    0.000 
#    0.000    0.000    0.000    0.000    0.000    0.000 
#
# Total GULP energy -297548.049341 kJ/mol
# GULP energy per Si atom -12397.835389 kJ/mol
# Density = 1.978675 g / cm^3
# Si number density = 19.831891 Si / 1000 Ang^3
#
#
#
# Elastic Constant Matrix: (Units=GPa)
#
#
# Indices 1 2 3 4 5 6 
#
# 1 100.4282 59.8121 28.7362 0.0000 12.6951 0.0000
# 2 59.8121 124.1472 12.9810 0.0000 -12.5357 0.0000
# 3 28.7362 12.9810 79.2695 0.0000 13.0117 0.0000
# 4 0.0000 0.0000 0.0000 21.3521 0.0000 9.5220
# 5 12.6951 -12.5357 13.0117 0.0000 29.3675 0.0000
# 6 0.0000 0.0000 0.0000 9.5220 0.0000 32.1471
#
#
#
# Elastic Compliance Matrix: (Units=1/GPa)
#
#
# Indices 1 2 3 4 5 6 
#
# 1 0.017620 -0.009172 -0.003227 0.000000 -0.010102 0.000000
# 2 -0.009172 0.013537 -0.000530 0.000000 0.009978 0.000000
# 3 -0.003227 -0.000530 0.014753 0.000000 -0.005367 0.000000
# 4 0.000000 0.000000 0.000000 0.053962 0.000000 -0.015983
# 5 -0.010102 0.009978 -0.005367 0.000000 0.045055 0.000000
# 6 0.000000 0.000000 0.000000 -0.015983 0.000000 0.035841
#
#
# Mechanical properties :
#
#
# Convention : Reuss Voigt Hill
#
# Bulk Modulus (GPa) = 49.86980 56.32260 53.09620
# Shear Modulus (GPa) = 23.44010 30.06105 26.75058
#
# Velocity S-wave (km/s) = 3.44167 3.89754 3.67668
# Velocity P-wave (km/s) = 6.40268 6.97969 6.69740
#
# Compressibility (1/GPa) = 0.02005222
#
# Stress axis : x y z
#
# Youngs Moduli (GPa) = 56.75292 73.87369 67.78309
#
# Poissons Ratio (x) = 0.67755 0.21876
# Poissons Ratio (y) = 0.52052 0.03590
# Poissons Ratio (z) = 0.18316 0.03913
#
# Static dielectric constant tensor:
#      x y z
#    x 3.504000 0.000000 0.335970 
#    y 0.000000 4.244630 0.000000 
#    z 0.335970 0.000000 3.527330 
# 
# 
# High freq. dielectric constant tensor:
#      x y z
#    x 1.761900 0.000000 0.036510 
#    y 0.000000 1.792350 0.000000 
#    z 0.036510 0.000000 1.768600 
# 
# From -- ./inp_files/89725.got.cif
#   From: 2010.06.25/outbox.cif.g09.slc.cpg/sg12_45_cif.got.tgz:89725.got - 2010.06.28 00:19:55.
