data_PCOD8099512
_publ_section_title
;
Structure prediction by ZEFSAII (Michael W. Deem and Ramdas Pophale) SiO2 
 PCOD8099512
Probable space group: C 2/M
;
_chemical_formula_sum "Si O2"
_cell_formula_units_Z 48
_cell_length_a 21.024867
_cell_length_b 13.692365
_cell_length_c 12.541355
_cell_angle_alpha 90.000000
_cell_angle_beta 138.121226
_cell_angle_gamma 90.000000
_cell_volume 2410.151764
_symmetry_space_group_name_H-M "C 2/M"
_symmetry_group_IT_number 12
_symmetry_cell_setting 'monoclinic'
loop_
_space_group_symop_operation_xyz
x,y,z
-x,y,-z
-x,-y,-z
x,-y,z
1/2+x,1/2+y,z
1/2-x,1/2+y,-z
1/2-x,1/2-y,-z
1/2+x,1/2-y,z
loop_
_atom_site_type_symbol
_atom_site_label
_atom_site_fract_x
_atom_site_fract_y
_atom_site_fract_z
Si Si1 0.292059 0.109078 0.857715
Si Si2 0.082561 0.889374 0.681778
Si Si3 0.630707 0.199698 0.451860
Si Si4 0.887070 0.608794 0.352275
Si Si5 0.759322 0.110585 0.437683
Si Si6 0.086348 0.288177 0.824214
O O1 0.180566 0.120082 0.741457
O O2 0.305908 0.125009 0.748838
O O3 0.326554 0.000000 0.934401
O O4 0.353550 0.191001 0.994690
O O5 0.084822 0.826603 0.793186
O O6 0.000000 0.847472 0.500000
O O7 0.058750 0.000000 0.685094
O O8 0.656027 0.174088 0.606150
O O9 0.693288 0.128934 0.456827
O O10 0.652958 0.313247 0.455240
O O11 0.520952 0.175281 0.290455
O O12 0.843773 0.500000 0.304552
O O13 0.859617 0.656132 0.204882
O O14 0.000000 0.605753 0.500000
O O15 0.800542 0.000000 0.493371
#
# Coordination Sequence:
#
# PCOD8099512 Si02
#       6
#     8   8   8   8   8   8
#     4  10  21  35  54  82 112 143 178 219 272 329
#     4  10  20  35  56  81 110 146 185 222 266 323
#     4  10  21  35  55  81 105 143 190 228 271 318
#     4   9  17  30  49  75 107 140 175 219 270 322
#     4  10  21  38  57  78 109 146 187 229 266 319
#     4  11  20  33  54  82 114 141 175 226 279 327
#
# _framework density 19.915758
#
# number of rings (size 3 to 8) (size 9 to 14) (size 15 to 20)
#    0.000    2.000    0.000    5.000    0.000    4.667 
#    0.000    1.667    0.000    4.500    0.000    5.833 
#    0.000    0.000    0.000    0.000    0.000    0.000 
#
# Total GULP energy -297626.959559 kJ/mol
# GULP energy per Si atom -12401.123315 kJ/mol
# Density = 1.987043 g / cm^3
# Si number density = 19.915758 Si / 1000 Ang^3
#
#
#
# Elastic Constant Matrix: (Units=GPa)
#
#
# Indices 1 2 3 4 5 6 
#
# 1 100.1924 32.2323 28.7560 0.0000 -9.6781 0.0000
# 2 32.2323 117.3031 32.0231 0.0000 -3.3655 0.0000
# 3 28.7560 32.0231 84.5850 0.0000 -4.9283 0.0000
# 4 0.0000 0.0000 0.0000 28.5640 0.0000 -3.8848
# 5 -9.6781 -3.3655 -4.9283 0.0000 22.2924 0.0000
# 6 0.0000 0.0000 0.0000 -3.8848 0.0000 23.3587
#
#
#
# Elastic Compliance Matrix: (Units=1/GPa)
#
#
# Indices 1 2 3 4 5 6 
#
# 1 0.011992 -0.002374 -0.002933 0.000000 0.004199 0.000000
# 2 -0.002374 0.009987 -0.002984 0.000000 -0.000183 0.000000
# 3 -0.002933 -0.002984 0.014030 0.000000 0.001378 0.000000
# 4 0.000000 0.000000 0.000000 0.035819 0.000000 0.005957
# 5 0.004199 -0.000183 0.001378 0.000000 0.046958 0.000000
# 6 0.000000 0.000000 0.000000 0.005957 0.000000 0.043801
#
#
# Mechanical properties :
#
#
# Convention : Reuss Voigt Hill
#
# Bulk Modulus (GPa) = 51.48013 54.23370 52.85692
# Shear Modulus (GPa) = 26.93292 28.78096 27.85694
#
# Velocity S-wave (km/s) = 3.68141 3.80562 3.74403
# Velocity P-wave (km/s) = 6.63140 6.82649 6.72965
#
# Compressibility (1/GPa) = 0.01942497
#
# Stress axis : x y z
#
# Youngs Moduli (GPa) = 83.38863 100.13304 71.27649
#
# Poissons Ratio (x) = 0.23770 0.20909
# Poissons Ratio (y) = 0.19795 0.21272
# Poissons Ratio (z) = 0.24462 0.29885
#
# Static dielectric constant tensor:
#      x y z
#    x 3.607970 0.000000 -0.120500 
#    y 0.000000 3.853700 0.000000 
#    z -0.120500 0.000000 3.277050 
# 
# 
# High freq. dielectric constant tensor:
#      x y z
#    x 1.770130 0.000000 -0.008120 
#    y 0.000000 1.791060 0.000000 
#    z -0.008120 0.000000 1.746490 
# 
# From -- ./inp_files/143156.got.cif
#   From: 2010.06.25/outbox.cif.g09.slc.cpg/sg12_72_cif.got.tgz:143156.got - 2010.06.28 00:19:55.
