data_PCOD8099302
_publ_section_title
;
Structure prediction by ZEFSAII (Michael W. Deem and Ramdas Pophale) SiO2 
 PCOD8099302
Probable space group: C 2/M
;
_chemical_formula_sum "Si O2"
_cell_formula_units_Z 56
_cell_length_a 21.821229
_cell_length_b 8.922763
_cell_length_c 30.011345
_cell_angle_alpha 90.000000
_cell_angle_beta 152.745998
_cell_angle_gamma 90.000000
_cell_volume 2675.893472
_symmetry_space_group_name_H-M "C 2/M"
_symmetry_group_IT_number 12
_symmetry_cell_setting 'monoclinic'
loop_
_space_group_symop_operation_xyz
x,y,z
-x,y,-z
-x,-y,-z
x,-y,z
1/2+x,1/2+y,z
1/2-x,1/2+y,-z
1/2-x,1/2-y,-z
1/2+x,1/2-y,z
loop_
_atom_site_type_symbol
_atom_site_label
_atom_site_fract_x
_atom_site_fract_y
_atom_site_fract_z
Si Si1 0.027047 0.328092 0.749469
Si Si2 0.989937 0.678536 0.044488
Si Si3 0.743743 0.322269 0.947037
Si Si4 0.476884 0.170920 0.351613
Si Si5 0.651322 0.332834 0.583362
Si Si6 0.248687 0.327350 0.564946
Si Si7 0.254052 0.329064 0.260589
O O1 0.035998 0.500000 0.771347
O O2 0.873784 0.282259 0.644823
O O3 0.103592 0.224216 0.834007
O O4 0.087164 0.307711 0.738738
O O5 0.985434 0.500000 0.041663
O O6 0.120432 0.744826 0.153756
O O7 0.861120 0.736366 0.989485
O O8 0.000000 0.738542 0.000000
O O9 0.749491 0.500000 0.956522
O O10 0.750000 0.250000 0.000000
O O11 0.634349 0.220770 0.454887
O O12 0.390757 0.261842 0.330766
O O13 0.472171 0.000000 0.364151
O O14 0.500000 0.318084 0.500000
O O15 0.675807 0.500000 0.578852
O O16 0.680763 0.198568 0.568903
O O17 0.750406 0.310696 0.689307
O O18 0.293370 0.500000 0.588272
O O19 0.256637 0.500000 0.247111
#
# Coordination Sequence:
#
# PCOD8099302 Si02
#       7
#     8   8   8   8   8   8   8
#     4  11  24  42  63  86 119 161 205 253 308 369
#     4   9  19  37  62  91 120 155 203 256 304 358
#     4  11  24  43  66  94 127 164 210 261 316 374
#     4  10  22  39  59  89 125 159 196 249 311 366
#     4  10  20  35  55  84 119 158 200 242 297 365
#     4  11  23  38  59  88 121 158 203 252 306 367
#     4  10  20  35  60  88 116 156 201 244 297 364
#
# _framework density 20.927591
#
# number of rings (size 3 to 8) (size 9 to 14) (size 15 to 20)
#    0.000    1.714    1.429    2.571    2.000    3.714 
#    0.000    1.429    0.000    3.857    0.000    0.000 
#    0.000    0.000    0.000    0.000    0.000    0.000 
#
# Total GULP energy -347115.269268 kJ/mol
# GULP energy per Si atom -12396.973902 kJ/mol
# Density = 2.087996 g / cm^3
# Si number density = 20.927591 Si / 1000 Ang^3
#
#
#
# Elastic Constant Matrix: (Units=GPa)
#
#
# Indices 1 2 3 4 5 6 
#
# 1 86.9298 21.0989 34.6767 -0.0008 -7.9977 -0.0004
# 2 21.0989 48.6960 23.5633 0.0000 -4.4029 -0.0009
# 3 34.6767 23.5633 127.4225 0.0047 -12.9185 0.0012
# 4 -0.0008 0.0000 0.0047 28.9542 -0.0004 0.1204
# 5 -7.9977 -4.4029 -12.9185 -0.0004 31.9032 -0.0003
# 6 -0.0004 -0.0009 0.0012 0.1204 -0.0003 30.0633
#
#
#
# Elastic Compliance Matrix: (Units=1/GPa)
#
#
# Indices 1 2 3 4 5 6 
#
# 1 0.013860 -0.004512 -0.002762 0.000001 0.001733 0.000000
# 2 -0.004512 0.024090 -0.003133 0.000000 0.000925 0.000001
# 3 -0.002762 -0.003133 0.009453 -0.000002 0.002703 0.000000
# 4 0.000001 0.000000 -0.000002 0.034538 0.000000 -0.000138
# 5 0.001733 0.000925 0.002703 0.000000 0.033002 0.000000
# 6 0.000000 0.000001 0.000000 -0.000138 0.000000 0.033264
#
#
# Mechanical properties :
#
#
# Convention : Reuss Voigt Hill
#
# Bulk Modulus (GPa) = 37.60931 46.85847 42.23389
# Shear Modulus (GPa) = 28.10836 30.43143 29.26989
#
# Velocity S-wave (km/s) = 3.66884 3.81744 3.74388
# Velocity P-wave (km/s) = 5.99645 6.47069 6.23808
#
# Compressibility (1/GPa) = 0.02658916
#
# Stress axis : x y z
#
# Youngs Moduli (GPa) = 72.15114 41.51055 105.78768
#
# Poissons Ratio (x) = 0.18730 0.29215
# Poissons Ratio (y) = 0.32555 0.33145
# Poissons Ratio (z) = 0.19926 0.13006
#
# Static dielectric constant tensor:
#      x y z
#    x 3.932090 0.000000 -0.196020 
#    y 0.000000 3.530530 0.000000 
#    z -0.196020 0.000000 4.055430 
# 
# 
# High freq. dielectric constant tensor:
#      x y z
#    x 1.822110 0.000000 -0.008000 
#    y 0.000000 1.796580 0.000000 
#    z -0.008000 0.000000 1.833740 
# 
# From -- ./inp_files/380763.got.cif
#   From: 2010.06.25/outbox.cif.g09.slc.cpg/sg12_191_cif.got.tgz:380763.got - 2010.06.28 00:19:55.
