data_PCOD8099573
_publ_section_title
;
Structure prediction by ZEFSAII (Michael W. Deem and Ramdas Pophale) SiO2 
 PCOD8099573
Probable space group: C 2/M
;
_chemical_formula_sum "Si O2"
_cell_formula_units_Z 64
_cell_length_a 24.818398
_cell_length_b 9.179273
_cell_length_c 28.701489
_cell_angle_alpha 90.000000
_cell_angle_beta 149.504184
_cell_angle_gamma 90.000000
_cell_volume 3318.191827
_symmetry_space_group_name_H-M "C 2/M"
_symmetry_group_IT_number 12
_symmetry_cell_setting 'monoclinic'
loop_
_space_group_symop_operation_xyz
x,y,z
-x,y,-z
-x,-y,-z
x,-y,z
1/2+x,1/2+y,z
1/2-x,1/2+y,-z
1/2-x,1/2-y,-z
1/2+x,1/2-y,z
loop_
_atom_site_type_symbol
_atom_site_label
_atom_site_fract_x
_atom_site_fract_y
_atom_site_fract_z
Si Si1 0.104884 0.164537 0.548307
Si Si2 0.386936 0.331149 0.700044
Si Si3 0.955178 0.834620 0.850312
Si Si4 0.846071 0.326645 0.501421
Si Si5 0.979347 0.831652 0.672957
Si Si6 0.226611 0.334726 0.712905
Si Si7 0.924341 0.329149 0.985320
Si Si8 0.191820 0.830355 0.778970
O O1 0.079271 0.251407 0.481823
O O2 0.196168 0.250792 0.643301
O O3 0.000000 0.163686 0.500000
O O4 0.142652 0.000000 0.565770
O O5 0.367969 0.500000 0.696490
O O6 0.429001 0.262829 0.780044
O O7 0.273458 0.269630 0.597907
O O8 0.473945 0.304009 0.724483
O O9 0.853725 0.829451 0.808942
O O10 0.995386 0.000000 0.874011
O O11 0.046832 0.743994 0.944004
O O12 0.856506 0.500000 0.508318
O O13 0.887962 0.267151 0.581848
O O14 0.097096 0.788942 0.743631
O O15 0.953657 0.000000 0.642356
O O16 0.184224 0.500000 0.678929
O O17 0.175567 0.258577 0.719589
O O18 0.939902 0.500000 0.002992
O O19 0.802750 0.286484 0.885033
O O20 0.000000 0.271749 0.000000
O O21 0.190016 0.000000 0.764177
#
# Coordination Sequence:
#
# PCOD8099573 Si02
#       8
#     8   8   8   8   8   8   8   8
#     4  11  23  36  51  76 112 151 188 223 269 332
#     4   9  19  38  59  80 110 147 187 228 273 326
#     4  10  20  36  57  82 109 140 181 225 275 331
#     4  11  21  36  57  82 113 144 185 235 276 321
#     4  10  21  38  59  80 108 149 190 227 272 329
#     4  11  21  34  55  81 111 144 179 225 279 327
#     4  10  20  35  56  82 112 144 180 226 275 325
#     4  10  21  37  56  81 113 147 184 225 276 335
#
# _framework density 19.287613
#
# number of rings (size 3 to 8) (size 9 to 14) (size 15 to 20)
#    0.000    1.750    2.500    2.250    0.000    5.750 
#    0.000    1.875    0.000    0.000    0.000    0.000 
#    0.000    0.000    0.000    0.000    0.000    0.000 
#
# Total GULP energy -396831.415572 kJ/mol
# GULP energy per Si atom -12400.981737 kJ/mol
# Density = 1.924371 g / cm^3
# Si number density = 19.287613 Si / 1000 Ang^3
#
#
#
# Elastic Constant Matrix: (Units=GPa)
#
#
# Indices 1 2 3 4 5 6 
#
# 1 113.8100 30.8969 39.1644 -0.0001 -7.4900 0.0000
# 2 30.8969 67.6327 32.1702 -0.0002 -7.6028 -0.0008
# 3 39.1644 32.1702 93.1645 -0.0002 -13.6749 -0.0002
# 4 -0.0001 -0.0002 -0.0002 29.8860 -0.0002 -8.2149
# 5 -7.4900 -7.6028 -13.6749 -0.0002 27.8519 -0.0001
# 6 0.0000 -0.0008 -0.0002 -8.2149 -0.0001 21.6835
#
#
#
# Elastic Compliance Matrix: (Units=1/GPa)
#
#
# Indices 1 2 3 4 5 6 
#
# 1 0.010872 -0.003323 -0.003370 0.000000 0.000362 0.000000
# 2 -0.003323 0.018808 -0.004823 0.000000 0.001873 0.000001
# 3 -0.003370 -0.004823 0.014537 0.000000 0.004915 0.000000
# 4 0.000000 0.000000 0.000000 0.037350 0.000000 0.014150
# 5 0.000362 0.001873 0.004915 0.000000 0.038926 0.000000
# 6 0.000000 0.000001 0.000000 0.014150 0.000000 0.051479
#
#
# Mechanical properties :
#
#
# Convention : Reuss Voigt Hill
#
# Bulk Modulus (GPa) = 47.20071 53.23001 50.21536
# Shear Modulus (GPa) = 24.74441 27.37600 26.06021
#
# Velocity S-wave (km/s) = 3.58567 3.77152 3.67977
# Velocity P-wave (km/s) = 6.45506 6.82816 6.64423
#
# Compressibility (1/GPa) = 0.02118612
#
# Stress axis : x y z
#
# Youngs Moduli (GPa) = 91.97775 53.16773 68.78992
#
# Poissons Ratio (x) = 0.17669 0.23181
# Poissons Ratio (y) = 0.30566 0.33176
# Poissons Ratio (z) = 0.30994 0.25642
#
# Static dielectric constant tensor:
#      x y z
#    x 3.529570 0.000000 -0.070520 
#    y 0.000000 3.438560 0.000000 
#    z -0.070520 0.000000 3.521470 
# 
# 
# High freq. dielectric constant tensor:
#      x y z
#    x 1.749860 0.000000 -0.006250 
#    y 0.000000 1.737620 0.000000 
#    z -0.006250 0.000000 1.743180 
# 
# From -- ./inp_files/243939.got.cif
#   From: 2010.06.25/outbox.cif.g09.slc.cpg/sg12_122_cif.got.tgz:243939.got - 2010.06.28 00:19:55.
