data_PCOD8099327
_publ_section_title
;
Structure prediction by ZEFSAII (Michael W. Deem and Ramdas Pophale) SiO2 
 PCOD8099327
Probable space group: C 2/M
;
_chemical_formula_sum "Si O2"
_cell_formula_units_Z 64
_cell_length_a 14.649508
_cell_length_b 13.504953
_cell_length_c 19.546068
_cell_angle_alpha 90.000000
_cell_angle_beta 46.690166
_cell_angle_gamma 90.000000
_cell_volume 2813.850769
_symmetry_space_group_name_H-M "C 2/M"
_symmetry_group_IT_number 12
_symmetry_cell_setting 'monoclinic'
loop_
_space_group_symop_operation_xyz
x,y,z
-x,y,-z
-x,-y,-z
x,-y,z
1/2+x,1/2+y,z
1/2-x,1/2+y,-z
1/2-x,1/2-y,-z
1/2+x,1/2-y,z
loop_
_atom_site_type_symbol
_atom_site_label
_atom_site_fract_x
_atom_site_fract_y
_atom_site_fract_z
Si Si1 0.570080 0.886552 0.391945
Si Si2 0.537189 0.109304 0.802475
Si Si3 0.438161 0.607944 0.598242
Si Si4 0.768154 0.249182 0.244142
Si Si5 0.663246 0.392610 0.580972
Si Si6 0.763018 0.389100 0.990685
Si Si7 0.614321 0.821020 0.622473
Si Si8 0.644443 0.747931 0.947831
O O1 0.500000 0.876235 0.500000
O O2 0.714431 0.845495 0.315627
O O3 0.497186 0.814922 0.376296
O O4 0.569295 0.000000 0.368229
O O5 0.594044 0.206698 0.810176
O O6 0.388474 0.120064 0.881959
O O7 0.572994 0.110651 0.705079
O O8 0.575595 0.000000 0.812843
O O9 0.500000 0.663498 0.500000
O O10 0.392550 0.500000 0.595952
O O11 0.317291 0.659631 0.690258
O O12 0.533209 0.595193 0.610708
O O13 0.771655 0.221472 0.162018
O O14 0.690643 0.500000 0.605829
O O15 0.652843 0.290172 0.630078
O O16 0.769980 0.377325 0.470210
O O17 0.716303 0.500000 0.026787
O O18 0.654393 0.336375 0.001567
O O19 0.791255 0.344751 0.051449
O O20 0.500000 0.765092 0.000000
#
# Coordination Sequence:
#
# PCOD8099327 Si02
#       8
#     8   8   8   8   8   8   8   8
#     4  11  25  43  62  91 131 180 231 275 331 411
#     4  11  23  40  66  98 128 171 229 280 341 414
#     4  10  20  35  55  87 128 162 206 266 328 393
#     4  12  23  39  66  98 129 175 221 281 345 408
#     4  10  21  34  54  85 118 165 213 265 333 389
#     4  10  24  46  74 102 137 181 226 282 352 425
#     4  11  22  38  60  85 126 172 222 281 332 402
#     4  11  24  46  71 104 143 175 226 292 349 415
#
# _framework density 22.744634000000001
#
# number of rings (size 3 to 8) (size 9 to 14) (size 15 to 20)
#    0.000    1.250    2.500    3.375    3.500    4.000 
#    0.000    0.000    0.000    0.000    0.000    0.000 
#    0.000    0.000    0.000    0.000    0.000    0.000 
#
# Total GULP energy -396429.336226 kJ/mol
# GULP energy per Si atom -12388.416757 kJ/mol
# Density = 2.269287 g / cm^3
# Si number density = 22.744634 Si / 1000 Ang^3
#
#
#
# Elastic Constant Matrix: (Units=GPa)
#
#
# Indices 1 2 3 4 5 6 
#
# 1 68.4080 18.1391 2.9771 0.0000 13.2379 0.0000
# 2 18.1391 146.7003 14.9487 0.0000 3.8170 0.0000
# 3 2.9771 14.9487 80.1864 0.0000 11.1456 0.0000
# 4 0.0000 0.0000 0.0000 24.2920 0.0000 -12.2933
# 5 13.2379 3.8170 11.1456 0.0000 19.7078 0.0000
# 6 0.0000 0.0000 0.0000 -12.2933 0.0000 51.3648
#
#
#
# Elastic Compliance Matrix: (Units=1/GPa)
#
#
# Indices 1 2 3 4 5 6 
#
# 1 0.017428 -0.001983 0.001407 0.000000 -0.012118 0.000000
# 2 -0.001983 0.007182 -0.001364 0.000000 0.000713 0.000000
# 3 0.001407 -0.001364 0.013857 0.000000 -0.008518 0.000000
# 4 0.000000 0.000000 0.000000 0.046839 0.000000 0.011210
# 5 -0.012118 0.000713 -0.008518 0.000000 0.063560 0.000000
# 6 0.000000 0.000000 0.000000 0.011210 0.000000 0.022152
#
#
# Mechanical properties :
#
#
# Convention : Reuss Voigt Hill
#
# Bulk Modulus (GPa) = 28.91319 40.82497 34.86908
# Shear Modulus (GPa) = 26.82014 36.35490 31.58752
#
# Velocity S-wave (km/s) = 3.43765 4.00233 3.73069
# Velocity P-wave (km/s) = 5.33819 6.27267 5.82420
#
# Compressibility (1/GPa) = 0.03458629
#
# Stress axis : x y z
#
# Youngs Moduli (GPa) = 57.37970 139.23123 72.16594
#
# Poissons Ratio (x) = 0.27609 -0.10154
# Poissons Ratio (y) = 0.11378 0.09846
# Poissons Ratio (z) = -0.08073 0.18996
#
# Static dielectric constant tensor:
#      x y z
#    x 4.181600 0.000000 -0.163740 
#    y 0.000000 -13.457570 0.000000 
#    z -0.163740 0.000000 4.117850 
# 
# 
# High freq. dielectric constant tensor:
#      x y z
#    x 1.886960 0.000000 -0.007910 
#    y 0.000000 1.909890 0.000000 
#    z -0.007910 0.000000 1.885100 
# 
# From -- ./inp_files/270644.got.cif
#   From: 2010.06.25/outbox.cif.g09.slc.cpg/sg12_136_cif.got.tgz:270644.got - 2010.06.28 00:19:55.
