data_PCOD8099522
_publ_section_title
;
Structure prediction by ZEFSAII (Michael W. Deem and Ramdas Pophale) SiO2 
 PCOD8099522
Probable space group: C 2/M
;
_chemical_formula_sum "Si O2"
_cell_formula_units_Z 40
_cell_length_a 18.158703
_cell_length_b 10.452655
_cell_length_c 10.298634
_cell_angle_alpha 90.000000
_cell_angle_beta 78.607118
_cell_angle_gamma 90.000000
_cell_volume 1916.232376
_symmetry_space_group_name_H-M "C 2/M"
_symmetry_group_IT_number 12
_symmetry_cell_setting 'monoclinic'
loop_
_space_group_symop_operation_xyz
x,y,z
-x,y,-z
-x,-y,-z
x,-y,z
1/2+x,1/2+y,z
1/2-x,1/2+y,-z
1/2-x,1/2-y,-z
1/2+x,1/2-y,z
loop_
_atom_site_type_symbol
_atom_site_label
_atom_site_fract_x
_atom_site_fract_y
_atom_site_fract_z
Si Si1 0.225244 0.135666 0.596535
Si Si2 0.542049 0.649556 0.358813
Si Si3 0.418727 0.355110 0.203280
Si Si4 0.190410 0.265463 0.204384
Si Si5 0.339151 0.855300 0.062822
O O1 0.250000 0.250000 0.500000
O O2 0.137145 0.148213 0.654664
O O3 0.267941 0.132477 0.719222
O O4 0.241636 0.000000 0.520332
O O5 0.500000 0.710290 0.500000
O O6 0.549050 0.500000 0.378957
O O7 0.498610 0.679857 0.238989
O O8 0.625707 0.703077 0.314512
O O9 0.419446 0.500000 0.141528
O O10 0.396012 0.248843 0.105193
O O11 0.252952 0.161508 0.139093
O O12 0.156057 0.337976 0.093294
O O13 0.364638 0.000000 0.089633
#
# Coordination Sequence:
#
# PCOD8099522 Si02
#       5
#     8   8   8   8   8
#     4  10  20  35  56  81 111 147 187 231 278 329
#     4  10  20  36  58  84 114 149 189 231 277 333
#     4   9  20  37  56  81 113 146 184 232 281 328
#     4  10  21  36  58  84 113 146 187 234 280 327
#     4  10  21  38  60  84 112 148 189 231 278 333
#
# _framework density 20.874295
#
# number of rings (size 3 to 8) (size 9 to 14) (size 15 to 20)
#    0.000    2.200    0.000    2.400    0.000   12.000 
#    0.000    5.000    0.000    4.200    0.000    0.000 
#    0.000    0.000    0.000    0.000    0.000    0.000 
#
# Total GULP energy -247908.892487 kJ/mol
# GULP energy per Si atom -12395.444624 kJ/mol
# Density = 2.082678 g / cm^3
# Si number density = 20.874295 Si / 1000 Ang^3
#
#
#
# Elastic Constant Matrix: (Units=GPa)
#
#
# Indices 1 2 3 4 5 6 
#
# 1 62.5610 8.6477 2.0878 0.0000 -6.6217 0.0000
# 2 8.6477 120.6738 27.4730 0.0000 13.4796 0.0000
# 3 2.0878 27.4730 69.9771 0.0000 -8.0495 0.0000
# 4 0.0000 0.0000 0.0000 28.0026 0.0000 3.1009
# 5 -6.6217 13.4796 -8.0495 0.0000 26.3665 0.0000
# 6 0.0000 0.0000 0.0000 3.1009 0.0000 11.8800
#
#
#
# Elastic Compliance Matrix: (Units=1/GPa)
#
#
# Indices 1 2 3 4 5 6 
#
# 1 0.016823 -0.002039 0.000938 0.000000 0.005554 0.000000
# 2 -0.002039 0.010348 -0.004839 0.000000 -0.007280 0.000000
# 3 0.000938 -0.004839 0.017073 0.000000 0.007922 0.000000
# 4 0.000000 0.000000 0.000000 0.036774 0.000000 -0.009599
# 5 0.005554 -0.007280 0.007922 0.000000 0.045462 0.000000
# 6 0.000000 0.000000 0.000000 -0.009599 0.000000 0.086680
#
#
# Mechanical properties :
#
#
# Convention : Reuss Voigt Hill
#
# Bulk Modulus (GPa) = 30.90008 36.62543 33.76275
# Shear Modulus (GPa) = 21.20178 27.58339 24.39259
#
# Velocity S-wave (km/s) = 3.19044 3.63906 3.42211
# Velocity P-wave (km/s) = 5.32982 5.93639 5.64127
#
# Compressibility (1/GPa) = 0.03236238
#
# Stress axis : x y z
#
# Youngs Moduli (GPa) = 59.44300 96.63896 58.57035
#
# Poissons Ratio (x) = 0.19708 -0.05492
# Poissons Ratio (y) = 0.12123 0.28343
# Poissons Ratio (z) = -0.05573 0.46764
#
# Static dielectric constant tensor:
#      x y z
#    x 3.916100 0.000000 0.058960 
#    y 0.000000 3.660300 0.000000 
#    z 0.058960 0.000000 3.771230 
# 
# 
# High freq. dielectric constant tensor:
#      x y z
#    x 1.819830 0.000000 0.008210 
#    y 0.000000 1.801670 0.000000 
#    z 0.008210 0.000000 1.815170 
# 
# From -- ./inp_files/71228.got.cif
#   From: 2010.06.25/outbox.cif.g09.slc.cpg/sg12_36_cif.got.tgz:71228.got - 2010.06.28 00:19:55.
