data_PCOD8099262
_publ_section_title
;
Structure prediction by ZEFSAII (Michael W. Deem and Ramdas Pophale) SiO2 
 PCOD8099262
Probable space group: C 2/M
;
_chemical_formula_sum "Si O2"
_cell_formula_units_Z 48
_cell_length_a 15.248770
_cell_length_b 22.594399
_cell_length_c 11.577059
_cell_angle_alpha 90.000000
_cell_angle_beta 140.617596
_cell_angle_gamma 90.000000
_cell_volume 2530.817368
_symmetry_space_group_name_H-M "C 2/M"
_symmetry_group_IT_number 12
_symmetry_cell_setting 'monoclinic'
loop_
_space_group_symop_operation_xyz
x,y,z
-x,y,-z
-x,-y,-z
x,-y,z
1/2+x,1/2+y,z
1/2-x,1/2+y,-z
1/2-x,1/2-y,-z
1/2+x,1/2-y,z
loop_
_atom_site_type_symbol
_atom_site_label
_atom_site_fract_x
_atom_site_fract_y
_atom_site_fract_z
Si Si1 0.774271 0.768661 0.847985
Si Si2 0.305829 0.882002 0.558146
Si Si3 0.884112 0.183987 0.475107
Si Si4 0.528853 0.777865 0.764489
Si Si5 0.932465 0.500000 0.629751
Si Si6 0.846978 0.107009 0.837893
Si Si7 0.186542 0.500000 0.749550
O O1 0.724711 0.729732 0.690151
O O2 0.639025 0.791822 0.777067
O O3 0.852727 0.826885 0.890682
O O4 0.884412 0.729146 0.029948
O O5 0.203991 0.870801 0.563641
O O6 0.416912 0.829606 0.658090
O O7 0.213457 0.890502 0.351547
O O8 0.387392 0.943263 0.659246
O O9 0.000000 0.162473 0.500000
O O10 0.954977 0.216128 0.656518
O O11 0.880538 0.500000 0.445412
O O12 0.096005 0.500000 0.774181
O O13 0.767686 0.061729 0.840700
O O14 0.000000 0.081297 0.000000
#
# Coordination Sequence:
#
# PCOD8099262 Si02
#       7
#     8   8   8   8   4   8   4
#     4  10  21  33  53  84 115 148 183 233 279 337
#     4  11  21  36  58  80 111 149 191 233 277 342
#     4  10  21  36  53  79 115 149 184 235 287 328
#     4  10  20  35  55  82 113 148 189 225 286 337
#     4   9  20  36  59  81 104 147 197 225 284 335
#     4  11  21  32  54  83 118 148 185 224 284 340
#     4   9  19  36  54  82 115 146 178 237 282 340
#
# _framework density 18.966204000000001
#
# number of rings (size 3 to 8) (size 9 to 14) (size 15 to 20)
#    0.000    1.833    1.667    2.750    2.333    1.333 
#    0.000    0.417    0.000    2.000    0.000    3.500 
#    0.000    0.000    0.000    0.000    0.000    0.000 
#
# Total GULP energy -297476.762622 kJ/mol
# GULP energy per Si atom -12394.865109 kJ/mol
# Density = 1.892304 g / cm^3
# Si number density = 18.966204 Si / 1000 Ang^3
#
#
#
# Elastic Constant Matrix: (Units=GPa)
#
#
# Indices 1 2 3 4 5 6 
#
# 1 114.4518 79.2991 33.3455 0.0000 25.4120 0.0000
# 2 79.2991 106.2751 18.7427 0.0000 14.3578 0.0000
# 3 33.3455 18.7427 82.5017 0.0000 17.6735 0.0000
# 4 0.0000 0.0000 0.0000 3.7866 0.0000 10.1420
# 5 25.4120 14.3578 17.6735 0.0000 23.9527 0.0000
# 6 0.0000 0.0000 0.0000 10.1420 0.0000 32.9968
#
#
#
# Elastic Compliance Matrix: (Units=1/GPa)
#
#
# Indices 1 2 3 4 5 6 
#
# 1 0.022613 -0.014579 -0.003041 0.000000 -0.013007 0.000000
# 2 -0.014579 0.019740 0.000748 0.000000 0.003083 0.000000
# 3 -0.003041 0.000748 0.014948 0.000000 -0.008251 0.000000
# 4 0.000000 0.000000 0.000000 1.493930 0.000000 -0.459178
# 5 -0.013007 0.003083 -0.008251 0.000000 0.059788 0.000000
# 6 0.000000 0.000000 0.000000 -0.459178 0.000000 0.171440
#
#
# Mechanical properties :
#
#
# Convention : Reuss Voigt Hill
#
# Bulk Modulus (GPa) = 42.45404 62.88925 52.67164
# Shear Modulus (GPa) = 2.74114 23.60330 13.17222
#
# Velocity S-wave (km/s) = 1.20350 3.53156 2.63822
# Velocity P-wave (km/s) = 4.93598 7.06115 6.09195
#
# Compressibility (1/GPa) = 0.02355489
#
# Stress axis : x y z
#
# Youngs Moduli (GPa) = 44.22261 50.65909 66.89954
#
# Poissons Ratio (x) = 0.73858 0.20345
# Poissons Ratio (y) = 0.64474 -0.05002
# Poissons Ratio (z) = 0.13448 -0.03788
#
# Static dielectric constant tensor:
#      x y z
#    x 3.584100 0.000000 0.250270 
#    y 0.000000 3.421180 0.000000 
#    z 0.250270 0.000000 3.494180 
# 
# 
# High freq. dielectric constant tensor:
#      x y z
#    x 1.737250 0.000000 0.023130 
#    y 0.000000 1.722550 0.000000 
#    z 0.023130 0.000000 1.734850 
# 
# From -- ./inp_files/147952.got.cif
#   From: 2010.06.25/outbox.cif.g09.slc.cpg/sg12_74_cif.got.tgz:147952.got - 2010.06.28 00:19:55.
