data_PCOD8099638
_publ_section_title
;
Structure prediction by ZEFSAII (Michael W. Deem and Ramdas Pophale) SiO2 
 PCOD8099638
Probable space group: C 2/M
;
_chemical_formula_sum "Si O2"
_cell_formula_units_Z 64
_cell_length_a 29.346480
_cell_length_b 9.053948
_cell_length_c 14.561370
_cell_angle_alpha 90.000000
_cell_angle_beta 61.053144
_cell_angle_gamma 90.000000
_cell_volume 3385.622668
_symmetry_space_group_name_H-M "C 2/M"
_symmetry_group_IT_number 12
_symmetry_cell_setting 'monoclinic'
loop_
_space_group_symop_operation_xyz
x,y,z
-x,y,-z
-x,-y,-z
x,-y,z
1/2+x,1/2+y,z
1/2-x,1/2+y,-z
1/2-x,1/2-y,-z
1/2+x,1/2-y,z
loop_
_atom_site_type_symbol
_atom_site_label
_atom_site_fract_x
_atom_site_fract_y
_atom_site_fract_z
Si Si1 0.372745 0.828098 0.694281
Si Si2 0.351647 0.667870 0.059778
Si Si3 0.722905 0.825261 0.611624
Si Si4 0.584792 0.174479 0.153069
Si Si5 0.757901 0.330353 0.754916
Si Si6 0.477552 0.672275 0.260974
Si Si7 0.950058 0.173908 0.491636
Si Si8 0.379341 0.329684 0.237562
O O1 0.396855 0.766537 0.765362
O O2 0.311163 0.795407 0.756100
O O3 0.398362 0.747402 0.582605
O O4 0.384409 0.000000 0.671962
O O5 0.362148 0.500000 0.018289
O O6 0.289986 0.698690 0.129379
O O7 0.380824 0.700053 0.127397
O O8 0.373090 0.777967 0.962918
O O9 0.750000 0.750000 0.500000
O O10 0.753805 0.776740 0.672198
O O11 0.663167 0.773320 0.672924
O O12 0.725192 0.000000 0.599124
O O13 0.529115 0.241402 0.182325
O O14 0.580864 0.000000 0.156245
O O15 0.755829 0.500000 0.721968
O O16 0.491256 0.500000 0.250798
O O17 0.456367 0.725288 0.380448
O O18 0.435265 0.709983 0.224797
O O19 0.000000 0.229358 0.500000
O O20 0.943089 0.000000 0.506550
O O21 0.364468 0.500000 0.272091
#
# Coordination Sequence:
#
# PCOD8099638 Si02
#       8
#     8   8   8   8   8   8   8   8
#     4  10  22  38  57  83 116 151 187 231 285 341
#     4   9  19  38  61  80 108 148 189 237 288 337
#     4  11  22  36  56  83 115 150 188 231 280 335
#     4  11  23  37  56  84 116 149 190 237 286 338
#     4   9  20  40  60  82 112 148 190 233 282 339
#     4  10  21  38  59  83 114 150 190 232 280 341
#     4  10  20  35  56  83 114 147 186 234 279 333
#     4   9  20  39  60  83 112 148 190 235 283 338
#
# _framework density 18.903464
#
# number of rings (size 3 to 8) (size 9 to 14) (size 15 to 20)
#    0.000    2.125    1.250    2.250    1.750    5.250 
#    0.000    2.500    0.000    0.000    0.000    0.000 
#    0.000    0.000    0.000    0.000    0.000    0.000 
#
# Total GULP energy -396923.863189 kJ/mol
# GULP energy per Si atom -12403.870725 kJ/mol
# Density = 1.886044 g / cm^3
# Si number density = 18.903464 Si / 1000 Ang^3
#
#
#
# Elastic Constant Matrix: (Units=GPa)
#
#
# Indices 1 2 3 4 5 6 
#
# 1 109.3582 29.6979 31.6506 0.0000 -16.6393 0.0000
# 2 29.6979 75.0038 39.8790 0.0000 -9.4086 0.0000
# 3 31.6506 39.8790 101.3832 0.0000 -15.7669 0.0000
# 4 0.0000 0.0000 0.0000 35.5624 0.0000 -5.3977
# 5 -16.6393 -9.4086 -15.7669 0.0000 20.4853 0.0000
# 6 0.0000 0.0000 0.0000 -5.3977 0.0000 26.3170
#
#
#
# Elastic Compliance Matrix: (Units=1/GPa)
#
#
# Indices 1 2 3 4 5 6 
#
# 1 0.011370 -0.002935 -0.001327 0.000000 0.006866 0.000000
# 2 -0.002935 0.017780 -0.005882 0.000000 0.001255 0.000000
# 3 -0.001327 -0.005882 0.013636 0.000000 0.006716 0.000000
# 4 0.000000 0.000000 0.000000 0.029023 0.000000 0.005953
# 5 0.006866 0.001255 0.006716 0.000000 0.060137 0.000000
# 6 0.000000 0.000000 0.000000 0.005953 0.000000 0.039219
#
#
# Mechanical properties :
#
#
# Convention : Reuss Voigt Hill
#
# Bulk Modulus (GPa) = 44.45094 54.24446 49.34770
# Shear Modulus (GPa) = 25.13145 28.77410 26.95278
#
# Velocity S-wave (km/s) = 3.65014 3.90572 3.78009
# Velocity P-wave (km/s) = 6.42887 7.00695 6.72413
#
# Compressibility (1/GPa) = 0.02249671
#
# Stress axis : x y z
#
# Youngs Moduli (GPa) = 87.94954 56.24388 73.33465
#
# Poissons Ratio (x) = 0.16508 0.09734
# Poissons Ratio (y) = 0.25813 0.43137
# Poissons Ratio (z) = 0.11674 0.33084
#
# Static dielectric constant tensor:
#      x y z
#    x 3.665980 0.000000 0.025450 
#    y 0.000000 3.359880 0.000000 
#    z 0.025450 0.000000 3.407090 
# 
# 
# High freq. dielectric constant tensor:
#      x y z
#    x 1.741070 0.000000 -0.003140 
#    y 0.000000 1.727170 0.000000 
#    z -0.003140 0.000000 1.734460 
# 
# From -- ./inp_files/249106.got.cif
#   From: 2010.06.25/outbox.cif.g09.slc.cpg/sg12_125_cif.got.tgz:249106.got - 2010.06.28 00:19:55.
