data_PCOD8099710
_publ_section_title
;
Structure prediction by ZEFSAII (Michael W. Deem and Ramdas Pophale) SiO2 
 PCOD8099710
Probable space group: C 2/M
;
_chemical_formula_sum "Si O2"
_cell_formula_units_Z 56
_cell_length_a 26.454567
_cell_length_b 8.644443
_cell_length_c 13.244796
_cell_angle_alpha 90.000000
_cell_angle_beta 114.585608
_cell_angle_gamma 90.000000
_cell_volume 2754.289265
_symmetry_space_group_name_H-M "C 2/M"
_symmetry_group_IT_number 12
_symmetry_cell_setting 'monoclinic'
loop_
_space_group_symop_operation_xyz
x,y,z
-x,y,-z
-x,-y,-z
x,-y,z
1/2+x,1/2+y,z
1/2-x,1/2+y,-z
1/2-x,1/2-y,-z
1/2+x,1/2-y,z
loop_
_atom_site_type_symbol
_atom_site_label
_atom_site_fract_x
_atom_site_fract_y
_atom_site_fract_z
Si Si1 0.951098 0.179008 0.670066
Si Si2 0.161803 0.179556 0.879185
Si Si3 0.163768 0.679490 0.095351
Si Si4 0.437955 0.821204 0.304618
Si Si5 0.624237 0.820961 0.544201
Si Si6 0.556921 0.320169 0.103115
Si Si7 0.771235 0.680881 0.243935
O O1 0.892733 0.220020 0.567340
O O2 0.948177 0.224353 0.784366
O O3 0.997764 0.280723 0.654018
O O4 0.965362 0.000000 0.668361
O O5 0.097410 0.218738 0.803262
O O6 0.201552 0.280092 0.841249
O O7 0.173570 0.000000 0.869481
O O8 0.174261 0.219528 0.004721
O O9 0.165822 0.500000 0.069582
O O10 0.105208 0.716922 0.096823
O O11 0.214120 0.724711 0.212916
O O12 0.419366 0.784559 0.402884
O O13 0.427218 0.000000 0.269978
O O14 0.686021 0.772301 0.631373
O O15 0.622641 0.000000 0.512704
O O16 0.571703 0.500000 0.100162
O O17 0.500000 0.276661 0.000000
O O18 0.758281 0.500000 0.236607
#
# Coordination Sequence:
#
# PCOD8099710 Si02
#       7
#     8   8   8   8   8   8   8
#     4  11  22  35  57  86 114 149 192 238 287 340
#     4  11  21  35  57  86 120 153 187 232 285 339
#     4  12  24  38  59  86 114 149 192 235 283 338
#     4  10  20  35  56  84 118 154 192 233 282 339
#     4   9  20  37  57  82 115 153 188 230 283 338
#     4  10  23  43  62  82 112 149 189 234 283 334
#     4  10  21  39  60  84 116 152 190 233 283 336
#
# _framework density 20.331921999999999
#
# number of rings (size 3 to 8) (size 9 to 14) (size 15 to 20)
#    0.000    1.571    0.000    6.429    0.000    7.714 
#    0.000    0.714    0.000    0.000    0.000    0.000 
#    0.000    0.000    0.000    0.000    0.000    0.000 
#
# Total GULP energy -347352.360083 kJ/mol
# GULP energy per Si atom -12405.441432 kJ/mol
# Density = 2.028565 g / cm^3
# Si number density = 20.331922 Si / 1000 Ang^3
#
#
#
# Elastic Constant Matrix: (Units=GPa)
#
#
# Indices 1 2 3 4 5 6 
#
# 1 91.0271 24.2250 44.6032 0.0000 21.4036 0.0000
# 2 24.2250 69.8836 36.0220 0.0000 3.0554 0.0000
# 3 44.6032 36.0220 129.0248 0.0000 16.7012 0.0000
# 4 0.0000 0.0000 0.0000 30.3962 0.0000 2.3986
# 5 21.4036 3.0554 16.7012 0.0000 23.1910 0.0000
# 6 0.0000 0.0000 0.0000 2.3986 0.0000 33.2315
#
#
#
# Elastic Compliance Matrix: (Units=1/GPa)
#
#
# Indices 1 2 3 4 5 6 
#
# 1 0.016347 -0.003550 -0.003052 0.000000 -0.012421 0.000000
# 2 -0.003550 0.017520 -0.004179 0.000000 0.003978 0.000000
# 3 -0.003052 -0.004179 0.010517 0.000000 -0.004206 0.000000
# 4 0.000000 0.000000 0.000000 0.033087 0.000000 -0.002388
# 5 -0.012421 0.003978 -0.004206 0.000000 0.057089 0.000000
# 6 0.000000 0.000000 0.000000 -0.002388 0.000000 0.030264
#
#
# Mechanical properties :
#
#
# Convention : Reuss Voigt Hill
#
# Bulk Modulus (GPa) = 43.81902 55.51511 49.66707
# Shear Modulus (GPa) = 25.77397 29.70277 27.73837
#
# Velocity S-wave (km/s) = 3.56428 3.82631 3.69762
# Velocity P-wave (km/s) = 6.20785 6.84723 6.53537
#
# Compressibility (1/GPa) = 0.02282114
#
# Stress axis : x y z
#
# Youngs Moduli (GPa) = 61.17462 57.07627 95.08677
#
# Poissons Ratio (x) = 0.20264 0.29020
# Poissons Ratio (y) = 0.21719 0.39737
# Poissons Ratio (z) = 0.18670 0.23852
#
# Static dielectric constant tensor:
#      x y z
#    x 3.618930 0.000000 0.282410 
#    y 0.000000 3.588880 0.000000 
#    z 0.282410 0.000000 3.755850 
# 
# 
# High freq. dielectric constant tensor:
#      x y z
#    x 1.784040 0.000000 0.023070 
#    y 0.000000 1.796780 0.000000 
#    z 0.023070 0.000000 1.795610 
# 
# From -- ./inp_files/181043.got.cif
#   From: 2010.06.25/outbox.cif.g09.slc.cpg/sg12_91_cif.got.tgz:181043.got - 2010.06.28 00:19:55.
