data_PCOD8099021
_publ_section_title
;
Structure prediction by ZEFSAII (Michael W. Deem and Ramdas Pophale) SiO2 
 PCOD8099021
Probable space group: C 2/M
;
_chemical_formula_sum "Si O2"
_cell_formula_units_Z 64
_cell_length_a 10.563573
_cell_length_b 20.715215
_cell_length_c 19.776169
_cell_angle_alpha 90.000000
_cell_angle_beta 126.901577
_cell_angle_gamma 90.000000
_cell_volume 3460.606642
_symmetry_space_group_name_H-M "C 2/M"
_symmetry_group_IT_number 12
_symmetry_cell_setting 'monoclinic'
loop_
_space_group_symop_operation_xyz
x,y,z
-x,y,-z
-x,-y,-z
x,-y,z
1/2+x,1/2+y,z
1/2-x,1/2+y,-z
1/2-x,1/2-y,-z
1/2+x,1/2-y,z
loop_
_atom_site_type_symbol
_atom_site_label
_atom_site_fract_x
_atom_site_fract_y
_atom_site_fract_z
Si Si1 0.843920 0.571875 0.671450
Si Si2 0.490445 0.726475 0.888514
Si Si3 0.783556 0.173098 0.580831
Si Si4 0.998651 0.929041 0.419220
Si Si5 0.419016 0.190375 0.605935
Si Si6 0.684311 0.928251 0.820336
Si Si7 0.739876 0.347156 0.276551
Si Si8 0.265194 0.308466 0.928465
O O1 0.846652 0.500000 0.638030
O O2 0.683766 0.579509 0.663882
O O3 0.845585 0.626431 0.615093
O O4 0.995195 0.578362 0.769011
O O5 0.415652 0.689462 0.800672
O O6 0.351547 0.739313 0.900426
O O7 0.583701 0.788400 0.887621
O O8 0.631106 0.686214 0.970157
O O9 0.619760 0.182274 0.486590
O O10 0.845363 0.245329 0.614365
O O11 0.770606 0.135659 0.647749
O O12 0.903727 0.130833 0.576287
O O13 0.000000 0.926040 0.500000
O O14 0.061929 0.000000 0.415554
O O15 0.605134 0.197930 0.680366
O O16 0.732272 0.911967 0.758067
O O17 0.768331 0.879641 0.898304
O O18 0.744066 0.000000 0.856213
#
# Coordination Sequence:
#
# PCOD8099021 Si02
#       8
#     8   8   8   8   8   8   8   8
#     4   9  18  35  56  77 102 139 188 228 262 317
#     4   9  19  34  57  85 115 138 186 220 280 332
#     4  11  23  33  52  78 109 147 179 230 277 334
#     4  10  20  35  55  75 100 139 187 230 269 318
#     4  10  22  35  50  74 110 142 182 222 274 324
#     4   9  19  36  57  81 110 145 185 224 267 333
#     4  10  22  35  51  78 109 143 176 223 279 327
#     4   9  18  36  58  86 112 144 176 233 271 334
#
# _framework density 18.493867999999999
#
# number of rings (size 3 to 8) (size 9 to 14) (size 15 to 20)
#    0.000    2.375    1.250    0.375    7.000    0.500 
#    0.000    5.000    0.000    3.750    0.000    7.000 
#    0.000    0.000    0.000    0.000    0.000    0.000 
#
# Total GULP energy -396435.728723 kJ/mol
# GULP energy per Si atom -12388.616523 kJ/mol
# Density = 1.845178 g / cm^3
# Si number density = 18.493868 Si / 1000 Ang^3
#
#
#
# Elastic Constant Matrix: (Units=GPa)
#
#
# Indices 1 2 3 4 5 6 
#
# 1 61.0231 35.6451 22.5064 0.0000 5.9821 0.0000
# 2 35.6451 111.3951 27.6422 0.0000 -1.1127 0.0000
# 3 22.5064 27.6422 69.1678 0.0000 2.9074 0.0000
# 4 0.0000 0.0000 0.0000 22.6151 0.0000 0.8243
# 5 5.9821 -1.1127 2.9074 0.0000 28.6278 0.0000
# 6 0.0000 0.0000 0.0000 0.8243 0.0000 14.3704
#
#
#
# Elastic Compliance Matrix: (Units=1/GPa)
#
#
# Indices 1 2 3 4 5 6 
#
# 1 0.021976 -0.005935 -0.004596 0.000000 -0.004356 0.000000
# 2 -0.005935 0.011586 -0.002782 0.000000 0.001973 0.000000
# 3 -0.004596 -0.002782 0.017102 0.000000 -0.000885 0.000000
# 4 0.000000 0.000000 0.000000 0.044311 0.000000 -0.002542
# 5 -0.004356 0.001973 -0.000885 0.000000 0.036008 0.000000
# 6 0.000000 0.000000 0.000000 -0.002542 0.000000 0.069733
#
#
# Mechanical properties :
#
#
# Convention : Reuss Voigt Hill
#
# Bulk Modulus (GPa) = 41.59993 45.90814 43.75404
# Shear Modulus (GPa) = 21.24448 23.50881 22.37665
#
# Velocity S-wave (km/s) = 3.39297 3.56921 3.48221
# Velocity P-wave (km/s) = 6.15568 6.47016 6.31488
#
# Compressibility (1/GPa) = 0.02403850
#
# Stress axis : x y z
#
# Youngs Moduli (GPa) = 45.50385 86.30867 58.47276
#
# Poissons Ratio (x) = 0.51226 0.26872
# Poissons Ratio (y) = 0.27008 0.16267
# Poissons Ratio (z) = 0.20912 0.24011
#
# Static dielectric constant tensor:
#      x y z
#    x 3.497460 0.000000 0.227270 
#    y 0.000000 3.293130 0.000000 
#    z 0.227270 0.000000 3.497230 
# 
# 
# High freq. dielectric constant tensor:
#      x y z
#    x 1.705110 0.000000 0.020730 
#    y 0.000000 1.700750 0.000000 
#    z 0.020730 0.000000 1.720440 
# 
# From -- ./inp_files/306249.got.cif
#   From: 2010.06.25/outbox.cif.g09.slc.cpg/sg12_154_cif.got.tgz:306249.got - 2010.06.28 00:19:55.
