data_PCOD8099752
_publ_section_title
;
Structure prediction by ZEFSAII (Michael W. Deem and Ramdas Pophale) SiO2 
 PCOD8099752
Probable space group: C 2/M
;
_chemical_formula_sum "Si O2"
_cell_formula_units_Z 64
_cell_length_a 14.960143
_cell_length_b 16.116306
_cell_length_c 17.144347
_cell_angle_alpha 90.000000
_cell_angle_beta 49.647918
_cell_angle_gamma 90.000000
_cell_volume 3150.088885
_symmetry_space_group_name_H-M "C 2/M"
_symmetry_group_IT_number 12
_symmetry_cell_setting 'monoclinic'
loop_
_space_group_symop_operation_xyz
x,y,z
-x,y,-z
-x,-y,-z
x,-y,z
1/2+x,1/2+y,z
1/2-x,1/2+y,-z
1/2-x,1/2-y,-z
1/2+x,1/2-y,z
loop_
_atom_site_type_symbol
_atom_site_label
_atom_site_fract_x
_atom_site_fract_y
_atom_site_fract_z
Si Si1 0.244262 0.665204 0.048489
Si Si2 0.818234 0.822024 0.297388
Si Si3 0.294545 0.262674 0.779566
Si Si4 0.378671 0.905765 0.106393
Si Si5 0.551349 0.778481 0.651919
Si Si6 0.010663 0.095779 0.082060
Si Si7 0.385647 0.092809 0.512419
Si Si8 0.491682 0.091154 0.813578
O O1 0.234409 0.685410 0.146726
O O2 0.134126 0.613605 0.076821
O O3 0.250000 0.750000 0.000000
O O4 0.356317 0.609145 0.966357
O O5 0.754116 0.754788 0.279218
O O6 0.857018 0.782339 0.357999
O O7 0.930208 0.854525 0.187313
O O8 0.728154 0.895753 0.368358
O O9 0.232254 0.346216 0.848551
O O10 0.435679 0.274019 0.691699
O O11 0.402345 0.904242 0.185459
O O12 0.350727 0.000000 0.093959
O O13 0.500000 0.872841 0.000000
O O14 0.612571 0.829973 0.548226
O O15 0.509612 0.846028 0.735389
O O16 0.974837 0.000000 0.105256
O O17 0.000000 0.130842 0.000000
O O18 0.500000 0.098481 0.500000
O O19 0.377859 0.000000 0.478659
O O20 0.483716 0.000000 0.781282
#
# Coordination Sequence:
#
# PCOD8099752 Si02
#       8
#     8   8   8   8   8   8   8   8
#     4  11  22  35  55  85 121 167 211 252 301 360
#     4  12  23  42  64  94 126 163 206 257 313 380
#     4  11  22  37  60  89 127 161 210 256 304 366
#     4  10  21  36  57  86 125 172 211 251 301 355
#     4  11  23  42  65  94 118 162 205 257 316 378
#     4  11  23  38  57  87 128 170 206 250 311 372
#     4  11  24  44  69  96 126 157 201 264 330 382
#     4  10  20  35  56  86 117 153 205 255 302 357
#
# _framework density 20.316887000000001
#
# number of rings (size 3 to 8) (size 9 to 14) (size 15 to 20)
#    0.000    1.125    3.750    3.750    1.750    0.000 
#    0.000    4.375    0.000    0.000    0.000    1.750 
#    0.000    0.000    0.000    0.000    0.000    0.000 
#
# Total GULP energy -396739.387405 kJ/mol
# GULP energy per Si atom -12398.105856 kJ/mol
# Density = 2.027064 g / cm^3
# Si number density = 20.316887 Si / 1000 Ang^3
#
#
#
# Elastic Constant Matrix: (Units=GPa)
#
#
# Indices 1 2 3 4 5 6 
#
# 1 73.3268 27.9847 17.9681 0.0000 -9.9964 0.0000
# 2 27.9847 85.2371 22.5283 0.0000 -9.6590 0.0000
# 3 17.9681 22.5283 79.2718 0.0000 -9.9595 0.0000
# 4 0.0000 0.0000 0.0000 111.6374 0.0000 -16.1834
# 5 -9.9964 -9.6590 -9.9595 0.0000 28.9983 0.0000
# 6 0.0000 0.0000 0.0000 -16.1834 0.0000 29.7880
#
#
#
# Elastic Compliance Matrix: (Units=1/GPa)
#
#
# Indices 1 2 3 4 5 6 
#
# 1 0.016288 -0.004428 -0.002000 0.000000 0.003453 0.000000
# 2 -0.004428 0.014165 -0.002739 0.000000 0.002251 0.000000
# 3 -0.002000 -0.002739 0.014261 0.000000 0.003296 0.000000
# 4 0.000000 0.000000 0.000000 0.009723 0.000000 0.005283
# 5 0.003453 0.002251 0.003296 0.000000 0.037557 0.000000
# 6 0.000000 0.000000 0.000000 0.005283 0.000000 0.036440
#
#
# Mechanical properties :
#
#
# Convention : Reuss Voigt Hill
#
# Bulk Modulus (GPa) = 37.90704 41.64422 39.77563
# Shear Modulus (GPa) = 32.14171 45.37505 38.75838
#
# Velocity S-wave (km/s) = 3.98178 4.73098 4.37245
# Velocity P-wave (km/s) = 6.31172 7.09822 6.71649
#
# Compressibility (1/GPa) = 0.02638032
#
# Stress axis : x y z
#
# Youngs Moduli (GPa) = 61.39405 70.59788 70.12311
#
# Poissons Ratio (x) = 0.31260 0.14023
# Poissons Ratio (y) = 0.27184 0.19207
# Poissons Ratio (z) = 0.12277 0.19337
#
# Static dielectric constant tensor:
#      x y z
#    x 3.825650 0.000000 -0.078520 
#    y 0.000000 3.784260 0.000000 
#    z -0.078520 0.000000 3.817130 
# 
# 
# High freq. dielectric constant tensor:
#      x y z
#    x 1.800060 0.000000 -0.002450 
#    y 0.000000 1.786970 0.000000 
#    z -0.002450 0.000000 1.784970 
# 
# From -- ./inp_files/270649.got.cif
#   From: 2010.06.25/outbox.cif.g09.slc.cpg/sg12_136_cif.got.tgz:270649.got - 2010.06.28 00:19:55.
