data_PCOD8099208
_publ_section_title
;
Structure prediction by ZEFSAII (Michael W. Deem and Ramdas Pophale) SiO2 
 PCOD8099208
Probable space group: C 2/M
;
_chemical_formula_sum "Si O2"
_cell_formula_units_Z 56
_cell_length_a 19.057852
_cell_length_b 9.500609
_cell_length_c 25.025274
_cell_angle_alpha 90.000000
_cell_angle_beta 40.695498
_cell_angle_gamma 90.000000
_cell_volume 2954.457158
_symmetry_space_group_name_H-M "C 2/M"
_symmetry_group_IT_number 12
_symmetry_cell_setting 'monoclinic'
loop_
_space_group_symop_operation_xyz
x,y,z
-x,y,-z
-x,-y,-z
x,-y,z
1/2+x,1/2+y,z
1/2-x,1/2+y,-z
1/2-x,1/2-y,-z
1/2+x,1/2-y,z
loop_
_atom_site_type_symbol
_atom_site_label
_atom_site_fract_x
_atom_site_fract_y
_atom_site_fract_z
Si Si1 0.822330 0.334398 0.500396
Si Si2 0.063814 0.662852 0.360444
Si Si3 0.446062 0.842136 0.193918
Si Si4 0.418931 0.842329 0.089809
Si Si5 0.739719 0.164512 0.342386
Si Si6 0.681892 0.165557 0.082561
Si Si7 0.224543 0.661611 0.177816
O O1 0.817974 0.500000 0.488300
O O2 0.750000 0.250000 0.500000
O O3 0.780988 0.305831 0.583775
O O4 0.944096 0.272044 0.428572
O O5 0.049660 0.500000 0.382429
O O6 0.141767 0.725479 0.362132
O O7 0.112603 0.688795 0.273286
O O8 0.474706 0.842434 0.114844
O O9 0.350646 0.738756 0.263712
O O10 0.556837 0.790437 0.156350
O O11 0.415201 0.000000 0.230872
O O12 0.312416 0.751895 0.157527
O O13 0.388202 0.000000 0.088851
O O14 0.500000 0.773574 0.000000
O O15 0.754348 0.000000 0.321647
O O16 0.722414 0.208065 0.117706
O O17 0.694691 0.000000 0.063357
O O18 0.750000 0.250000 0.000000
O O19 0.257899 0.500000 0.164068
#
# Coordination Sequence:
#
# PCOD8099208 Si02
#       7
#     8   8   8   8   8   8   8
#     4  10  22  38  60  88 115 147 183 224 276 332
#     4   9  18  36  60  83 111 145 183 227 272 322
#     4  10  21  36  56  82 113 149 185 225 281 337
#     4  10  20  35  55  80 111 146 182 225 278 330
#     4  10  20  37  60  85 111 145 190 229 270 327
#     4  10  22  38  56  80 110 148 192 231 280 335
#     4  10  20  35  57  83 107 142 189 229 269 324
#
# _framework density 18.954412000000001
#
# number of rings (size 3 to 8) (size 9 to 14) (size 15 to 20)
#    0.000    2.143    1.429    1.286    2.000    4.857 
#    0.000    1.429    0.000    1.714    0.000    0.000 
#    0.000    0.000    0.000    0.000    0.000    0.000 
#
# Total GULP energy -347154.010465 kJ/mol
# GULP energy per Si atom -12398.357517 kJ/mol
# Density = 1.891127 g / cm^3
# Si number density = 18.954412 Si / 1000 Ang^3
#
#
#
# Elastic Constant Matrix: (Units=GPa)
#
#
# Indices 1 2 3 4 5 6 
#
# 1 99.5242 35.8439 37.7632 0.0000 -2.8848 0.0001
# 2 35.8439 47.0852 40.0572 -0.0001 -2.8962 0.0002
# 3 37.7632 40.0572 104.8691 0.0000 -3.5736 0.0000
# 4 0.0000 -0.0001 0.0000 29.3617 0.0000 -1.9171
# 5 -2.8848 -2.8962 -3.5736 0.0000 36.6445 0.0000
# 6 0.0001 0.0002 0.0000 -1.9171 0.0000 28.2521
#
#
#
# Elastic Compliance Matrix: (Units=1/GPa)
#
#
# Indices 1 2 3 4 5 6 
#
# 1 0.013989 -0.009417 -0.001433 0.000000 0.000217 0.000000
# 2 -0.009417 0.037865 -0.011032 0.000000 0.001175 0.000000
# 3 -0.001433 -0.011032 0.014280 0.000000 0.000408 0.000000
# 4 0.000000 0.000000 0.000000 0.034210 0.000000 0.002321
# 5 0.000217 0.001175 0.000408 0.000000 0.027439 0.000000
# 6 0.000000 0.000000 0.000000 0.002321 0.000000 0.035553
#
#
# Mechanical properties :
#
#
# Convention : Reuss Voigt Hill
#
# Bulk Modulus (GPa) = 44.70442 53.20078 48.95260
# Shear Modulus (GPa) = 23.30389 28.03927 25.67158
#
# Velocity S-wave (km/s) = 3.51018 3.85034 3.68419
# Velocity P-wave (km/s) = 6.32969 6.92066 6.63176
#
# Compressibility (1/GPa) = 0.02236915
#
# Stress axis : x y z
#
# Youngs Moduli (GPa) = 71.48258 26.40987 70.02958
#
# Poissons Ratio (x) = 0.24870 0.10036
# Poissons Ratio (y) = 0.67315 0.77258
# Poissons Ratio (z) = 0.10244 0.29136
#
# Static dielectric constant tensor:
#      x y z
#    x 3.634990 0.000000 0.031700 
#    y 0.000000 3.264760 0.000000 
#    z 0.031700 0.000000 3.490660 
# 
# 
# High freq. dielectric constant tensor:
#      x y z
#    x 1.747770 0.000000 0.004380 
#    y 0.000000 1.709700 0.000000 
#    z 0.004380 0.000000 1.746640 
# 
# From -- ./inp_files/342303.got.cif
#   From: 2010.06.25/outbox.cif.g09.slc.cpg/sg12_172_cif.got.tgz:342303.got - 2010.06.28 00:19:55.
