data_PCOD8099923
_publ_section_title
;
Structure prediction by ZEFSAII (Michael W. Deem and Ramdas Pophale) SiO2 
 PCOD8099923
Probable space group: C 2/M
;
_chemical_formula_sum "Si O2"
_cell_formula_units_Z 56
_cell_length_a 30.125666
_cell_length_b 8.977092
_cell_length_c 10.977103
_cell_angle_alpha 90.000000
_cell_angle_beta 66.374531
_cell_angle_gamma 90.000000
_cell_volume 2719.838368
_symmetry_space_group_name_H-M "C 2/M"
_symmetry_group_IT_number 12
_symmetry_cell_setting 'monoclinic'
loop_
_space_group_symop_operation_xyz
x,y,z
-x,y,-z
-x,-y,-z
x,-y,z
1/2+x,1/2+y,z
1/2-x,1/2+y,-z
1/2-x,1/2-y,-z
1/2+x,1/2-y,z
loop_
_atom_site_type_symbol
_atom_site_label
_atom_site_fract_x
_atom_site_fract_y
_atom_site_fract_z
Si Si1 0.631964 0.164735 0.354002
Si Si2 0.295860 0.832976 0.302492
Si Si3 0.035948 0.675929 0.071357
Si Si4 0.810652 0.832501 0.528310
Si Si5 0.031680 0.674642 0.352484
Si Si6 0.363228 0.675235 0.046101
Si Si7 0.199939 0.665807 0.068788
O O1 0.641686 0.285398 0.448220
O O2 0.587361 0.217118 0.318771
O O3 0.682691 0.153084 0.226162
O O4 0.619913 0.000000 0.421378
O O5 0.238428 0.827499 0.336905
O O6 0.305256 0.789929 0.430741
O O7 0.323556 0.713945 0.190950
O O8 0.315853 0.000000 0.258386
O O9 0.044902 0.500000 0.066589
O O10 0.019075 0.731386 0.227139
O O11 0.085257 0.755272 0.977951
O O12 0.000000 0.718452 0.000000
O O13 0.818912 0.000000 0.468715
O O14 0.022491 0.500000 0.361904
O O15 0.000000 0.744631 0.500000
O O16 0.368503 0.500000 0.027752
O O17 0.343702 0.744059 0.943464
O O18 0.205668 0.500000 0.004854
O O19 0.250000 0.750000 0.000000
#
# Coordination Sequence:
#
# PCOD8099923 Si02
#       7
#     8   8   8   8   8   8   8
#     4  10  20  35  57  83 116 154 196 246 299 364
#     4  10  21  38  59  82 116 161 205 249 300 365
#     4  10  21  40  65  91 119 159 212 266 321 386
#     4  10  21  36  56  85 120 156 198 248 302 368
#     4   9  18  36  61  88 117 152 201 260 315 373
#     4  12  24  38  59  87 122 161 203 254 314 371
#     4  11  22  37  58  88 123 160 205 250 303 367
#
# _framework density 20.589459999999999
#
# number of rings (size 3 to 8) (size 9 to 14) (size 15 to 20)
#    0.000    1.714    1.429    3.429    0.000    6.571 
#    0.000    2.857    0.000    1.714    0.000    0.000 
#    0.000    0.000    0.000    0.000    0.000    0.000 
#
# Total GULP energy -346993.014765 kJ/mol
# GULP energy per Si atom -12392.607670 kJ/mol
# Density = 2.054260 g / cm^3
# Si number density = 20.589460 Si / 1000 Ang^3
#
#
#
# Elastic Constant Matrix: (Units=GPa)
#
#
# Indices 1 2 3 4 5 6 
#
# 1 112.7704 47.2144 20.2527 0.0000 17.5422 0.0000
# 2 47.2144 83.6166 10.9072 0.0000 3.2767 0.0000
# 3 20.2527 10.9072 73.3476 0.0000 6.9215 0.0000
# 4 0.0000 0.0000 0.0000 24.0866 0.0000 0.5041
# 5 17.5422 3.2767 6.9215 0.0000 28.4799 0.0000
# 6 0.0000 0.0000 0.0000 0.5041 0.0000 28.7066
#
#
#
# Elastic Compliance Matrix: (Units=1/GPa)
#
#
# Indices 1 2 3 4 5 6 
#
# 1 0.013182 -0.006919 -0.001965 0.000000 -0.006846 0.000000
# 2 -0.006919 0.015854 -0.000693 0.000000 0.002606 0.000000
# 3 -0.001965 -0.000693 0.014490 0.000000 -0.002231 0.000000
# 4 0.000000 0.000000 0.000000 0.041532 0.000000 -0.000729
# 5 -0.006846 0.002606 -0.002231 0.000000 0.039572 0.000000
# 6 0.000000 0.000000 0.000000 -0.000729 0.000000 0.034848
#
#
# Mechanical properties :
#
#
# Convention : Reuss Voigt Hill
#
# Bulk Modulus (GPa) = 41.02953 47.38701 44.20827
# Shear Modulus (GPa) = 26.77287 29.01197 27.89242
#
# Velocity S-wave (km/s) = 3.60991 3.75783 3.68461
# Velocity P-wave (km/s) = 6.11113 6.47252 6.29442
#
# Compressibility (1/GPa) = 0.02437269
#
# Stress axis : x y z
#
# Youngs Moduli (GPa) = 75.86031 63.07424 69.01354
#
# Poissons Ratio (x) = 0.43639 0.13561
# Poissons Ratio (y) = 0.52486 0.04784
# Poissons Ratio (z) = 0.14906 0.04372
#
# Static dielectric constant tensor:
#      x y z
#    x 1.404870 0.000000 0.745080 
#    y 0.000000 3.600430 0.000000 
#    z 0.745080 0.000000 3.613100 
# 
# 
# High freq. dielectric constant tensor:
#      x y z
#    x 1.802180 0.000000 0.005280 
#    y 0.000000 1.789240 0.000000 
#    z 0.005280 0.000000 1.802350 
# 
# From -- ./inp_files/187197.got.cif
#   From: 2010.06.25/outbox.cif.g09.slc.cpg/sg12_94_cif.got.tgz:187197.got - 2010.06.28 00:19:55.
