data_PCOD8099276
_publ_section_title
;
Structure prediction by ZEFSAII (Michael W. Deem and Ramdas Pophale) SiO2 
 PCOD8099276
Probable space group: C 2/M
;
_chemical_formula_sum "Si O2"
_cell_formula_units_Z 64
_cell_length_a 15.441071
_cell_length_b 9.216796
_cell_length_c 23.940338
_cell_angle_alpha 90.000000
_cell_angle_beta 89.985027
_cell_angle_gamma 90.000000
_cell_volume 3407.121789
_symmetry_space_group_name_H-M "C 2/M"
_symmetry_group_IT_number 12
_symmetry_cell_setting 'monoclinic'
loop_
_space_group_symop_operation_xyz
x,y,z
-x,y,-z
-x,-y,-z
x,-y,z
1/2+x,1/2+y,z
1/2-x,1/2+y,-z
1/2-x,1/2-y,-z
1/2+x,1/2-y,z
loop_
_atom_site_type_symbol
_atom_site_label
_atom_site_fract_x
_atom_site_fract_y
_atom_site_fract_z
Si Si1 0.453196 0.663898 0.057265
Si Si2 0.124799 0.672201 0.759709
Si Si3 0.223419 0.830286 0.444281
Si Si4 0.214331 0.828324 0.171066
Si Si5 0.976335 0.834597 0.823443
Si Si6 0.217041 0.670919 0.945536
Si Si7 0.026086 0.830143 0.437612
Si Si8 0.882446 0.329382 0.367579
O O1 0.415080 0.500000 0.052951
O O2 0.518006 0.675888 0.109400
O O3 0.380198 0.782430 0.067737
O O4 0.500000 0.705309 0.000000
O O5 0.122053 0.500000 0.763904
O O6 0.211645 0.736459 0.788441
O O7 0.123844 0.724523 0.695936
O O8 0.042145 0.732047 0.791820
O O9 0.250000 0.750000 0.500000
O O10 0.126067 0.786201 0.425861
O O11 0.291585 0.785657 0.396427
O O12 0.226511 0.000000 0.457437
O O13 0.119997 0.780122 0.192840
O O14 0.226676 0.776367 0.107317
O O15 0.221857 0.000000 0.172014
O O16 0.992147 0.000000 0.803935
O O17 0.222156 0.500000 0.955094
O O18 0.250000 0.750000 0.000000
O O19 0.000000 0.783225 0.500000
O O20 0.964964 0.746720 0.394866
O O21 0.010934 0.000000 0.428507
O O22 0.898094 0.500000 0.371960
#
# Coordination Sequence:
#
# PCOD8099276 Si02
#       8
#     8   8   8   8   8   8   8   8
#     4  10  20  35  55  82 117 148 185 238 289 343
#     4  10  21  40  59  80 114 151 192 237 278 329
#     4  10  20  35  56  84 115 150 187 227 279 334
#     4   9  19  37  60  81 109 151 190 228 283 343
#     4  10  20  36  60  85 109 147 193 232 283 340
#     4  11  21  35  56  83 114 149 188 233 289 347
#     4  10  20  35  57  86 117 148 185 233 282 329
#     4  10  22  37  57  84 114 152 192 231 278 335
#
# _framework density 18.784182000000001
#
# number of rings (size 3 to 8) (size 9 to 14) (size 15 to 20)
#    0.000    2.000    2.500    1.125    0.000    4.500 
#    0.000    5.625    0.000    0.000    0.000    0.000 
#    0.000    0.000    0.000    0.000    0.000    0.000 
#
# Total GULP energy -396800.321615 kJ/mol
# GULP energy per Si atom -12400.010050 kJ/mol
# Density = 1.874143 g / cm^3
# Si number density = 18.784182 Si / 1000 Ang^3
#
#
#
# Elastic Constant Matrix: (Units=GPa)
#
#
# Indices 1 2 3 4 5 6 
#
# 1 155.8467 30.3892 74.0195 0.0000 6.3902 0.0000
# 2 30.3892 33.2738 34.3086 0.0000 5.3526 0.0000
# 3 74.0195 34.3086 138.5105 0.0000 3.2764 0.0000
# 4 0.0000 0.0000 0.0000 25.3971 0.0000 2.8061
# 5 6.3902 5.3526 3.2764 0.0000 30.1691 0.0000
# 6 0.0000 0.0000 0.0000 2.8061 0.0000 31.0072
#
#
#
# Elastic Compliance Matrix: (Units=1/GPa)
#
#
# Indices 1 2 3 4 5 6 
#
# 1 0.009072 -0.004276 -0.003771 0.000000 -0.000753 0.000000
# 2 -0.004276 0.043526 -0.008356 0.000000 -0.005909 0.000000
# 3 -0.003771 -0.008356 0.011280 0.000000 0.001056 0.000000
# 4 0.000000 0.000000 0.000000 0.039772 0.000000 -0.003599
# 5 -0.000753 -0.005909 0.001056 0.000000 0.034240 0.000000
# 6 0.000000 0.000000 0.000000 -0.003599 0.000000 0.032576
#
#
# Mechanical properties :
#
#
# Convention : Reuss Voigt Hill
#
# Bulk Modulus (GPa) = 32.18466 67.22953 49.70709
# Shear Modulus (GPa) = 23.40488 29.90894 26.65691
#
# Velocity S-wave (km/s) = 3.53369 3.99462 3.77120
# Velocity P-wave (km/s) = 5.81553 7.55938 6.74405
#
# Compressibility (1/GPa) = 0.03107071
#
# Stress axis : x y z
#
# Youngs Moduli (GPa) = 110.22380 22.97487 88.65359
#
# Poissons Ratio (x) = 0.09824 0.33434
# Poissons Ratio (y) = 0.47134 0.74081
# Poissons Ratio (z) = 0.41568 0.19198
#
# Static dielectric constant tensor:
#      x y z
#    x 3.946650 0.000000 0.303960 
#    y 0.000000 3.371810 0.000000 
#    z 0.303960 0.000000 3.911770 
# 
# 
# High freq. dielectric constant tensor:
#      x y z
#    x 1.742900 0.000000 0.001500 
#    y 0.000000 1.709620 0.000000 
#    z 0.001500 0.000000 1.732030 
# 
# From -- ./inp_files/338743.got.cif
#   From: 2010.06.25/outbox.cif.g09.slc.cpg/sg12_170_cif.got.tgz:338743.got - 2010.06.28 00:19:55.
