data_PCOD8099607
_publ_section_title
;
Structure prediction by ZEFSAII (Michael W. Deem and Ramdas Pophale) SiO2 
 PCOD8099607
Probable space group: C 2/M
;
_chemical_formula_sum "Si O2"
_cell_formula_units_Z 64
_cell_length_a 19.767406
_cell_length_b 8.773001
_cell_length_c 25.168373
_cell_angle_alpha 90.000000
_cell_angle_beta 128.115939
_cell_angle_gamma 90.000000
_cell_volume 3433.974911
_symmetry_space_group_name_H-M "C 2/M"
_symmetry_group_IT_number 12
_symmetry_cell_setting 'monoclinic'
loop_
_space_group_symop_operation_xyz
x,y,z
-x,y,-z
-x,-y,-z
x,-y,z
1/2+x,1/2+y,z
1/2-x,1/2+y,-z
1/2-x,1/2-y,-z
1/2+x,1/2-y,z
loop_
_atom_site_type_symbol
_atom_site_label
_atom_site_fract_x
_atom_site_fract_y
_atom_site_fract_z
Si Si1 0.203681 0.176532 0.827373
Si Si2 0.178363 0.679306 0.928221
Si Si3 0.324040 0.675740 0.807061
Si Si4 0.254425 0.321496 0.659088
Si Si5 0.080590 0.321142 0.299720
Si Si6 0.076048 0.177846 0.576703
Si Si7 0.037819 0.177344 0.677487
Si Si8 0.501069 0.322473 0.842475
O O1 0.194476 0.274925 0.875506
O O2 0.291537 0.221410 0.839853
O O3 0.125338 0.215940 0.750597
O O4 0.206891 0.000000 0.844633
O O5 0.181997 0.500000 0.935456
O O6 0.085755 0.736957 0.903709
O O7 0.250000 0.750000 0.000000
O O8 0.306213 0.500000 0.811974
O O9 0.273925 0.723806 0.729378
O O10 0.425545 0.706447 0.848460
O O11 0.267935 0.500000 0.656410
O O12 0.320555 0.232474 0.653094
O O13 0.158719 0.271837 0.597597
O O14 0.074774 0.500000 0.287161
O O15 0.040197 0.276147 0.336723
O O16 0.025554 0.236160 0.228224
O O17 0.000000 0.219474 0.500000
O O18 0.048322 0.229263 0.621911
O O19 0.099583 0.000000 0.586921
O O20 0.014183 0.000000 0.670381
O O21 0.521870 0.500000 0.846249
#
# Coordination Sequence:
#
# PCOD8099607 Si02
#       8
#     8   8   8   8   8   8   8   8
#     4  11  21  35  59  87 117 150 190 238 284 334
#     4  12  25  41  61  85 117 155 193 235 285 342
#     4   9  19  34  56  85 116 148 186 235 284 334
#     4  10  20  35  56  82 116 152 189 236 289 343
#     4  11  21  33  56  86 114 147 191 240 285 337
#     4  10  21  38  59  84 116 153 192 236 288 346
#     4  10  20  35  56  84 117 150 188 238 287 335
#     4  10  20  37  58  85 119 152 188 234 288 340
#
# _framework density 18.637293
#
# number of rings (size 3 to 8) (size 9 to 14) (size 15 to 20)
#    0.000    1.625    2.500    4.125    0.000    3.750 
#    0.000    1.250    0.000    3.750    0.000    0.000 
#    0.000    0.000    0.000    0.000    0.000    0.000 
#
# Total GULP energy -396961.948491 kJ/mol
# GULP energy per Si atom -12405.060890 kJ/mol
# Density = 1.859487 g / cm^3
# Si number density = 18.637293 Si / 1000 Ang^3
#
#
#
# Elastic Constant Matrix: (Units=GPa)
#
#
# Indices 1 2 3 4 5 6 
#
# 1 127.2276 55.4752 45.4952 0.0000 12.3546 0.0000
# 2 55.4752 108.1441 43.2440 0.0000 5.9577 0.0000
# 3 45.4952 43.2440 92.4386 0.0000 11.5287 0.0000
# 4 0.0000 0.0000 0.0000 24.9656 0.0000 2.9011
# 5 12.3546 5.9577 11.5287 0.0000 24.5314 0.0000
# 6 0.0000 0.0000 0.0000 2.9011 0.0000 37.6379
#
#
#
# Elastic Compliance Matrix: (Units=1/GPa)
#
#
# Indices 1 2 3 4 5 6 
#
# 1 0.011145 -0.004314 -0.003078 0.000000 -0.003118 0.000000
# 2 -0.004314 0.013047 -0.004096 0.000000 0.000929 0.000000
# 3 -0.003078 -0.004096 0.014799 0.000000 -0.004410 0.000000
# 4 0.000000 0.000000 0.000000 0.040417 0.000000 -0.003115
# 5 -0.003118 0.000929 -0.004410 0.000000 0.044182 0.000000
# 6 0.000000 0.000000 0.000000 -0.003115 0.000000 0.026809
#
#
# Mechanical properties :
#
#
# Convention : Reuss Voigt Hill
#
# Bulk Modulus (GPa) = 62.44491 68.47101 65.45796
# Shear Modulus (GPa) = 27.97800 29.66672 28.82236
#
# Velocity S-wave (km/s) = 3.87871 3.99406 3.93681
# Velocity P-wave (km/s) = 7.32375 7.62158 7.47415
#
# Compressibility (1/GPa) = 0.01601412
#
# Stress axis : x y z
#
# Youngs Moduli (GPa) = 89.73030 76.64742 67.57265
#
# Poissons Ratio (x) = 0.33068 0.20797
# Poissons Ratio (y) = 0.38713 0.27677
# Poissons Ratio (z) = 0.27616 0.31394
#
# Static dielectric constant tensor:
#      x y z
#    x 3.588020 0.000000 -0.036270 
#    y 0.000000 3.421240 0.000000 
#    z -0.036270 0.000000 2.957580 
# 
# 
# High freq. dielectric constant tensor:
#      x y z
#    x 1.738280 0.000000 0.007090 
#    y 0.000000 1.730180 0.000000 
#    z 0.007090 0.000000 1.693970 
# 
# From -- ./inp_files/346268.got.cif
#   From: 2010.06.25/outbox.cif.g09.slc.cpg/sg12_174_cif.got.tgz:346268.got - 2010.06.28 00:19:55.
