data_PCOD8099017
_publ_section_title
;
Structure prediction by ZEFSAII (Michael W. Deem and Ramdas Pophale) SiO2 
 PCOD8099017
Probable space group: C 2/M
;
_chemical_formula_sum "Si O2"
_cell_formula_units_Z 64
_cell_length_a 15.652330
_cell_length_b 27.507879
_cell_length_c 12.775964
_cell_angle_alpha 90.000000
_cell_angle_beta 37.958022
_cell_angle_gamma 90.000000
_cell_volume 3383.484487
_symmetry_space_group_name_H-M "C 2/M"
_symmetry_group_IT_number 12
_symmetry_cell_setting 'monoclinic'
loop_
_space_group_symop_operation_xyz
x,y,z
-x,y,-z
-x,-y,-z
x,-y,z
1/2+x,1/2+y,z
1/2-x,1/2+y,-z
1/2-x,1/2-y,-z
1/2+x,1/2-y,z
loop_
_atom_site_type_symbol
_atom_site_label
_atom_site_fract_x
_atom_site_fract_y
_atom_site_fract_z
Si Si1 0.348383 0.874042 0.030428
Si Si2 0.840702 0.057145 0.122524
Si Si3 0.339142 0.203996 0.444092
Si Si4 0.847874 0.054496 0.877465
Si Si5 0.336033 0.149676 0.659615
Si Si6 0.158976 0.374197 0.729824
Si Si7 0.662579 0.204995 0.128038
Si Si8 0.594326 0.444756 0.501531
O O1 0.245012 0.918678 0.118416
O O2 0.332692 0.851598 0.161548
O O3 0.503683 0.893211 0.857912
O O4 0.303431 0.834784 0.990514
O O5 0.742532 0.097246 0.273607
O O6 0.797649 0.000000 0.185762
O O7 0.824704 0.072064 0.017297
O O8 0.000000 0.064727 0.000000
O O9 0.250000 0.250000 0.500000
O O10 0.295172 0.181737 0.598262
O O11 0.299693 0.166175 0.392583
O O12 0.500605 0.219076 0.287478
O O13 0.010074 0.059822 0.691619
O O14 0.797394 0.000000 0.915378
O O15 0.500000 0.137821 0.500000
O O16 0.292879 0.182590 0.802083
O O17 0.260305 0.419261 0.620651
O O18 0.750000 0.250000 0.000000
O O19 0.500000 0.421432 0.500000
O O20 0.628382 0.500000 0.438529
#
# Coordination Sequence:
#
# PCOD8099017 Si02
#       8
#     8   8   8   8   8   8   8   8
#     4  10  20  38  59  85 115 150 198 240 289 349
#     4  10  22  39  60  89 121 157 201 248 298 354
#     4  10  24  42  58  86 120 149 190 245 299 347
#     4  10  20  36  57  82 118 155 194 242 291 348
#     4  10  22  42  64  87 120 155 199 248 296 357
#     4  10  22  37  58  84 118 155 192 242 287 349
#     4  10  22  40  63  85 111 151 197 242 296 352
#     4  10  20  35  54  83 119 155 193 237 286 339
#
# _framework density 18.915410999999999
#
# number of rings (size 3 to 8) (size 9 to 14) (size 15 to 20)
#    0.000    2.000    2.500    0.000    3.500    2.750 
#    0.000    1.250    0.000    0.000    0.000    0.000 
#    0.000    0.000    0.000    0.000    0.000    0.000 
#
# Total GULP energy -396631.742957 kJ/mol
# GULP energy per Si atom -12394.741967 kJ/mol
# Density = 1.887236 g / cm^3
# Si number density = 18.915411 Si / 1000 Ang^3
#
#
#
# Elastic Constant Matrix: (Units=GPa)
#
#
# Indices 1 2 3 4 5 6 
#
# 1 104.8612 68.6432 44.8658 0.0000 10.1746 0.0000
# 2 68.6432 109.0101 64.6502 0.0000 -2.9181 0.0000
# 3 44.8658 64.6502 87.0890 0.0000 9.8891 0.0000
# 4 0.0000 0.0000 0.0000 38.7510 0.0000 -4.4526
# 5 10.1746 -2.9181 9.8891 0.0000 32.2867 0.0000
# 6 0.0000 0.0000 0.0000 -4.4526 0.0000 33.9501
#
#
#
# Elastic Compliance Matrix: (Units=1/GPa)
#
#
# Indices 1 2 3 4 5 6 
#
# 1 0.017496 -0.011234 0.000070 0.000000 -0.006550 0.000000
# 2 -0.011234 0.024562 -0.013572 0.000000 0.009917 0.000000
# 3 0.000070 -0.013572 0.022444 0.000000 -0.008123 0.000000
# 4 0.000000 0.000000 0.000000 0.026201 0.000000 0.003436
# 5 -0.006550 0.009917 -0.008123 0.000000 0.036421 0.000000
# 6 0.000000 0.000000 0.000000 0.003436 0.000000 0.029906
#
#
# Mechanical properties :
#
#
# Convention : Reuss Voigt Hill
#
# Bulk Modulus (GPa) = 66.53552 73.03096 69.78324
# Shear Modulus (GPa) = 23.63925 29.18430 26.41177
#
# Velocity S-wave (km/s) = 3.53899 3.93222 3.74078
# Velocity P-wave (km/s) = 7.20770 7.70127 7.45857
#
# Compressibility (1/GPa) = 0.01502957
#
# Stress axis : x y z
#
# Youngs Moduli (GPa) = 57.15614 40.71301 44.55459
#
# Poissons Ratio (x) = 0.45736 -0.00311
# Poissons Ratio (y) = 0.64208 0.60471
# Poissons Ratio (z) = -0.00399 0.55257
#
# Static dielectric constant tensor:
#      x y z
#    x 3.694880 0.000000 0.257770 
#    y 0.000000 3.424210 0.000000 
#    z 0.257770 0.000000 3.670160 
# 
# 
# High freq. dielectric constant tensor:
#      x y z
#    x 1.742790 0.000000 0.010460 
#    y 0.000000 1.724440 0.000000 
#    z 0.010460 0.000000 1.742740 
# 
# From -- ./inp_files/149729.got.cif
#   From: 2010.06.25/outbox.cif.g09.slc.cpg/sg12_75_cif.got.tgz:149729.got - 2010.06.28 00:19:55.
