data_PCOD8099233
_publ_section_title
;
Structure prediction by ZEFSAII (Michael W. Deem and Ramdas Pophale) SiO2 
 PCOD8099233
Probable space group: C 2/M
;
_chemical_formula_sum "Si O2"
_cell_formula_units_Z 48
_cell_length_a 14.473547
_cell_length_b 8.837634
_cell_length_c 19.603388
_cell_angle_alpha 90.000000
_cell_angle_beta 91.956822
_cell_angle_gamma 90.000000
_cell_volume 2506.044553
_symmetry_space_group_name_H-M "C 2/M"
_symmetry_group_IT_number 12
_symmetry_cell_setting 'monoclinic'
loop_
_space_group_symop_operation_xyz
x,y,z
-x,y,-z
-x,-y,-z
x,-y,z
1/2+x,1/2+y,z
1/2-x,1/2+y,-z
1/2-x,1/2-y,-z
1/2+x,1/2-y,z
loop_
_atom_site_type_symbol
_atom_site_label
_atom_site_fract_x
_atom_site_fract_y
_atom_site_fract_z
Si Si1 0.845177 0.678555 0.169579
Si Si2 0.741670 0.324668 0.393951
Si Si3 0.105768 0.675723 0.492003
Si Si4 0.701483 0.177940 0.255005
Si Si5 0.520198 0.671635 0.212479
Si Si6 0.457852 0.328553 0.067925
O O1 0.845676 0.500000 0.174457
O O2 0.746664 0.742757 0.190138
O O3 0.920789 0.749954 0.223996
O O4 0.869363 0.731646 0.092505
O O5 0.729811 0.500000 0.375428
O O6 0.835720 0.294432 0.438027
O O7 0.650770 0.272096 0.432555
O O8 0.751692 0.229973 0.325147
O O9 0.109849 0.500000 0.471015
O O10 0.000000 0.728719 0.500000
O O11 0.595516 0.230601 0.254088
O O12 0.708403 0.000000 0.247032
O O13 0.520427 0.500000 0.240515
O O14 0.535351 0.673317 0.130180
O O15 0.424576 0.500000 0.052276
O O16 0.500000 0.256061 0.000000
#
# Coordination Sequence:
#
# PCOD8099233 Si02
#       6
#     8   8   8   8   8   8
#     4  10  20  35  55  81 112 146 185 229 279 334
#     4  10  21  36  56  82 112 144 181 230 280 327
#     4   9  19  38  60  82 110 143 182 224 271 330
#     4  12  23  37  56  80 113 152 192 233 280 330
#     4   9  19  36  56  80 110 143 183 231 281 335
#     4   8  16  34  58  81 110 146 183 230 283 333
#
# _framework density 19.153690000000001
#
# number of rings (size 3 to 8) (size 9 to 14) (size 15 to 20)
#    1.000    1.333    0.000    3.500    0.000    2.667 
#    0.000    5.833    0.000    0.000    0.000    0.000 
#    0.000    0.000    0.000    0.000    0.000    0.000 
#
# Total GULP energy -297467.080257 kJ/mol
# GULP energy per Si atom -12394.461677 kJ/mol
# Density = 1.911009 g / cm^3
# Si number density = 19.153690 Si / 1000 Ang^3
#
#
#
# Elastic Constant Matrix: (Units=GPa)
#
#
# Indices 1 2 3 4 5 6 
#
# 1 76.8216 23.7288 -0.6451 0.0000 -3.4680 0.0000
# 2 23.7288 127.8844 21.7981 0.0000 -6.4721 0.0000
# 3 -0.6451 21.7981 40.7965 0.0000 -3.9011 0.0000
# 4 0.0000 0.0000 0.0000 30.2137 0.0000 -2.7528
# 5 -3.4680 -6.4721 -3.9011 0.0000 21.4989 0.0000
# 6 0.0000 0.0000 0.0000 -2.7528 0.0000 30.4830
#
#
#
# Elastic Compliance Matrix: (Units=1/GPa)
#
#
# Indices 1 2 3 4 5 6 
#
# 1 0.013986 -0.002831 0.001901 0.000000 0.001749 0.000000
# 2 -0.002831 0.009244 -0.004846 0.000000 0.001447 0.000000
# 3 0.001901 -0.004846 0.027498 0.000000 0.003838 0.000000
# 4 0.000000 0.000000 0.000000 0.033372 0.000000 0.003014
# 5 0.001749 0.001447 0.003838 0.000000 0.047928 0.000000
# 6 0.000000 0.000000 0.000000 0.003014 0.000000 0.033077
#
#
# Mechanical properties :
#
#
# Convention : Reuss Voigt Hill
#
# Bulk Modulus (GPa) = 25.52477 37.25179 31.38828
# Shear Modulus (GPa) = 26.35521 29.81383 28.08452
#
# Velocity S-wave (km/s) = 3.71345 3.94960 3.83335
# Velocity P-wave (km/s) = 5.63396 6.34746 6.00133
#
# Compressibility (1/GPa) = 0.03917763
#
# Stress axis : x y z
#
# Youngs Moduli (GPa) = 71.49788 108.17884 36.36630
#
# Poissons Ratio (x) = 0.30622 -0.06913
# Poissons Ratio (y) = 0.20239 0.17621
# Poissons Ratio (z) = -0.13591 0.52419
#
# Static dielectric constant tensor:
#      x y z
#    x 3.361720 0.000000 -0.054980 
#    y 0.000000 3.434850 0.000000 
#    z -0.054980 0.000000 3.352510 
# 
# 
# High freq. dielectric constant tensor:
#      x y z
#    x 1.731270 0.000000 -0.006210 
#    y 0.000000 1.751310 0.000000 
#    z -0.006210 0.000000 1.728310 
# 
# From -- ./inp_files/307986.got.cif
#   From: 2010.06.25/outbox.cif.g09.slc.cpg/sg12_154_cif.got.tgz:307986.got - 2010.06.28 00:19:55.
