data_PCOD8099163
_publ_section_title
;
Structure prediction by ZEFSAII (Michael W. Deem and Ramdas Pophale) SiO2 
 PCOD8099163
Probable space group: C 2/M
;
_chemical_formula_sum "Si O2"
_cell_formula_units_Z 48
_cell_length_a 18.650249
_cell_length_b 8.972401
_cell_length_c 31.879058
_cell_angle_alpha 90.000000
_cell_angle_beta 151.351613
_cell_angle_gamma 90.000000
_cell_volume 2557.566021
_symmetry_space_group_name_H-M "C 2/M"
_symmetry_group_IT_number 12
_symmetry_cell_setting 'monoclinic'
loop_
_space_group_symop_operation_xyz
x,y,z
-x,y,-z
-x,-y,-z
x,-y,z
1/2+x,1/2+y,z
1/2-x,1/2+y,-z
1/2-x,1/2-y,-z
1/2+x,1/2-y,z
loop_
_atom_site_type_symbol
_atom_site_label
_atom_site_fract_x
_atom_site_fract_y
_atom_site_fract_z
Si Si1 0.313103 0.175491 0.073837
Si Si2 0.302410 0.673499 0.234293
Si Si3 0.674904 0.827521 0.082922
Si Si4 0.656736 0.175781 0.244556
Si Si5 0.071943 0.670695 0.582030
Si Si6 0.595791 0.673862 0.430863
O O1 0.224560 0.233759 0.068462
O O2 0.487123 0.217701 0.167738
O O3 0.291019 0.000000 0.058451
O O4 0.250000 0.250000 0.000000
O O5 0.267592 0.500000 0.213020
O O6 0.256657 0.742684 0.165972
O O7 0.201013 0.735025 0.220637
O O8 0.476933 0.706604 0.332672
O O9 0.717660 0.000000 0.097206
O O10 0.500000 0.808328 0.000000
O O11 0.761294 0.259784 0.332003
O O12 0.687976 0.000000 0.263978
O O13 0.080005 0.500000 0.601021
O O14 0.000000 0.685377 0.500000
O O15 0.965226 0.763129 0.557325
O O16 0.622815 0.500000 0.450229
O O17 0.750000 0.750000 0.500000
#
# Coordination Sequence:
#
# PCOD8099163 Si02
#       6
#     8   8   8   8   8   8
#     4  11  23  38  57  83 113 144 182 226 272 324
#     4   8  16  33  55  76 101 137 178 220 269 323
#     4  10  20  36  58  81 108 143 179 218 270 328
#     4   9  19  37  58  79 106 143 186 229 274 325
#     4  10  21  36  55  81 112 146 185 228 275 328
#     4  10  20  35  55  79 110 146 185 228 273 324
#
# _framework density 18.767844
#
# number of rings (size 3 to 8) (size 9 to 14) (size 15 to 20)
#    0.000    2.333    0.000    3.500    0.000    7.000 
#    0.000    9.167    0.000    0.000    0.000    0.000 
#    0.000    0.000    0.000    0.000    0.000    0.000 
#
# Total GULP energy -297595.062544 kJ/mol
# GULP energy per Si atom -12399.794273 kJ/mol
# Density = 1.872513 g / cm^3
# Si number density = 18.767844 Si / 1000 Ang^3
#
#
#
# Elastic Constant Matrix: (Units=GPa)
#
#
# Indices 1 2 3 4 5 6 
#
# 1 100.0914 50.9405 65.5561 0.0000 2.9990 0.0000
# 2 50.9405 89.2437 67.5658 0.0000 5.9818 0.0000
# 3 65.5561 67.5658 126.5185 -0.0001 0.4496 0.0001
# 4 0.0000 0.0000 -0.0001 30.7701 0.0000 1.5470
# 5 2.9990 5.9818 0.4496 0.0000 36.4259 0.0000
# 6 0.0000 0.0000 0.0001 1.5470 0.0000 32.0594
#
#
#
# Elastic Compliance Matrix: (Units=1/GPa)
#
#
# Indices 1 2 3 4 5 6 
#
# 1 0.016308 -0.004836 -0.005866 0.000000 -0.000476 0.000000
# 2 -0.004836 0.020571 -0.008470 0.000000 -0.002875 0.000000
# 3 -0.005866 -0.008470 0.015461 0.000000 0.001683 0.000000
# 4 0.000000 0.000000 0.000000 0.032578 0.000000 -0.001572
# 5 -0.000476 -0.002875 0.001683 0.000000 0.027944 0.000000
# 6 0.000000 0.000000 0.000000 -0.001572 0.000000 0.031268
#
#
# Mechanical properties :
#
#
# Convention : Reuss Voigt Hill
#
# Bulk Modulus (GPa) = 71.44552 75.99758 73.72155
# Shear Modulus (GPa) = 26.71835 28.63716 27.67776
#
# Velocity S-wave (km/s) = 3.77719 3.91047 3.84441
# Velocity P-wave (km/s) = 7.56132 7.80836 7.68583
#
# Compressibility (1/GPa) = 0.01399668
#
# Stress axis : x y z
#
# Youngs Moduli (GPa) = 61.31863 48.61324 64.68054
#
# Poissons Ratio (x) = 0.23508 0.37942
# Poissons Ratio (y) = 0.29652 0.54782
# Poissons Ratio (z) = 0.35970 0.41173
#
# Static dielectric constant tensor:
#      x y z
#    x 2.981920 0.000000 -0.065680 
#    y 0.000000 3.460800 0.000000 
#    z -0.065680 0.000000 3.650160 
# 
# 
# High freq. dielectric constant tensor:
#      x y z
#    x 1.726570 0.000000 0.000450 
#    y 0.000000 1.718560 0.000000 
#    z 0.000450 0.000000 1.744190 
# 
# From -- ./inp_files/274070.got.cif
#   From: 2010.06.25/outbox.cif.g09.slc.cpg/sg12_138_cif.got.tgz:274070.got - 2010.06.28 00:19:55.
