data_PCOD8099599
_publ_section_title
;
Structure prediction by ZEFSAII (Michael W. Deem and Ramdas Pophale) SiO2 
 PCOD8099599
Probable space group: C 2/M
;
_chemical_formula_sum "Si O2"
_cell_formula_units_Z 48
_cell_length_a 18.362003
_cell_length_b 8.732520
_cell_length_c 15.331537
_cell_angle_alpha 90.000000
_cell_angle_beta 90.252264
_cell_angle_gamma 90.000000
_cell_volume 2458.335366
_symmetry_space_group_name_H-M "C 2/M"
_symmetry_group_IT_number 12
_symmetry_cell_setting 'monoclinic'
loop_
_space_group_symop_operation_xyz
x,y,z
-x,y,-z
-x,-y,-z
x,-y,z
1/2+x,1/2+y,z
1/2-x,1/2+y,-z
1/2-x,1/2-y,-z
1/2+x,1/2-y,z
loop_
_atom_site_type_symbol
_atom_site_label
_atom_site_fract_x
_atom_site_fract_y
_atom_site_fract_z
Si Si1 0.541189 0.678133 0.734955
Si Si2 0.710059 0.678940 0.737218
Si Si3 0.541119 0.175237 0.915081
Si Si4 0.788916 0.675415 0.081396
Si Si5 0.793935 0.820137 0.579494
Si Si6 0.451203 0.178709 0.582149
O O1 0.525602 0.500000 0.718841
O O2 0.625683 0.719298 0.719688
O O3 0.517995 0.721415 0.832942
O O4 0.493843 0.778952 0.669745
O O5 0.724933 0.500000 0.727687
O O6 0.734558 0.732588 0.832789
O O7 0.759550 0.768324 0.669847
O O8 0.625868 0.190085 0.934868
O O9 0.518851 0.000000 0.895190
O O10 0.500000 0.238406 0.000000
O O11 0.764557 0.500000 0.092052
O O12 0.750000 0.750000 0.000000
O O13 0.750000 0.750000 0.500000
O O14 0.877486 0.772829 0.574875
O O15 0.788260 0.000000 0.571499
O O16 0.500000 0.224482 0.500000
O O17 0.432375 0.000000 0.582991
#
# Coordination Sequence:
#
# PCOD8099599 Si02
#       6
#     8   8   8   8   8   8
#     4  10  21  37  59  86 116 151 190 237 288 338
#     4  10  21  39  61  85 116 153 194 240 291 345
#     4   9  19  36  57  80 109 149 193 236 283 336
#     4  10  20  35  56  82 114 152 194 241 292 344
#     4  12  25  41  62  88 118 151 190 236 287 343
#     4  11  24  41  62  87 116 152 192 234 282 338
#
# _framework density 19.525407999999999
#
# number of rings (size 3 to 8) (size 9 to 14) (size 15 to 20)
#    0.000    1.667    0.000    4.500    0.000    8.333 
#    0.000    5.000    0.000    0.000    0.000    0.000 
#    0.000    0.000    0.000    0.000    0.000    0.000 
#
# Total GULP energy -297741.153375 kJ/mol
# GULP energy per Si atom -12405.881391 kJ/mol
# Density = 1.948097 g / cm^3
# Si number density = 19.525408 Si / 1000 Ang^3
#
#
#
# Elastic Constant Matrix: (Units=GPa)
#
#
# Indices 1 2 3 4 5 6 
#
# 1 88.5593 57.2405 74.3524 0.0000 -3.6841 0.0000
# 2 57.2405 116.6988 57.1334 0.0000 -2.8632 0.0000
# 3 74.3524 57.1334 144.7790 0.0000 -2.9472 0.0000
# 4 0.0000 0.0000 0.0000 38.6977 0.0000 3.2521
# 5 -3.6841 -2.8632 -2.9472 0.0000 41.3976 0.0000
# 6 0.0000 0.0000 0.0000 3.2521 0.0000 31.9953
#
#
#
# Elastic Compliance Matrix: (Units=1/GPa)
#
#
# Indices 1 2 3 4 5 6 
#
# 1 0.023786 -0.007031 -0.009422 0.000000 0.000960 0.000000
# 2 -0.007031 0.012707 -0.001401 0.000000 0.000153 0.000000
# 3 -0.009422 -0.001401 0.012297 0.000000 -0.000060 0.000000
# 4 0.000000 0.000000 0.000000 0.026064 0.000000 -0.002649
# 5 0.000960 0.000153 -0.000060 0.000000 0.024248 0.000000
# 6 0.000000 0.000000 0.000000 -0.002649 0.000000 0.031524
#
#
# Mechanical properties :
#
#
# Convention : Reuss Voigt Hill
#
# Bulk Modulus (GPa) = 76.42716 80.83217 78.62966
# Shear Modulus (GPa) = 29.29214 33.17218 31.23216
#
# Velocity S-wave (km/s) = 3.87745 4.12627 4.00380
# Velocity P-wave (km/s) = 7.69893 8.01185 7.85695
#
# Compressibility (1/GPa) = 0.01308435
#
# Stress axis : x y z
#
# Youngs Moduli (GPa) = 42.04077 78.69512 81.32005
#
# Poissons Ratio (x) = 0.55331 0.76616
# Poissons Ratio (y) = 0.29559 0.11390
# Poissons Ratio (z) = 0.39609 0.11022
#
# Static dielectric constant tensor:
#      x y z
#    x 3.519840 0.000000 -0.072020 
#    y 0.000000 3.687340 0.000000 
#    z -0.072020 0.000000 3.677320 
# 
# 
# High freq. dielectric constant tensor:
#      x y z
#    x 1.758960 0.000000 -0.001110 
#    y 0.000000 1.772630 0.000000 
#    z -0.001110 0.000000 1.776260 
# 
# From -- ./inp_files/221564.got.cif
#   From: 2010.06.25/outbox.cif.g09.slc.cpg/sg12_111_cif.got.tgz:221564.got - 2010.06.28 00:19:55.
