data_PCOD8099946
_publ_section_title
;
Structure prediction by ZEFSAII (Michael W. Deem and Ramdas Pophale) SiO2 
 PCOD8099946
Probable space group: C 2/M
;
_chemical_formula_sum "Si O2"
_cell_formula_units_Z 64
_cell_length_a 16.182603
_cell_length_b 9.190744
_cell_length_c 21.780075
_cell_angle_alpha 90.000000
_cell_angle_beta 90.049135
_cell_angle_gamma 90.000000
_cell_volume 3239.352879
_symmetry_space_group_name_H-M "C 2/M"
_symmetry_group_IT_number 12
_symmetry_cell_setting 'monoclinic'
loop_
_space_group_symop_operation_xyz
x,y,z
-x,y,-z
-x,-y,-z
x,-y,z
1/2+x,1/2+y,z
1/2-x,1/2+y,-z
1/2-x,1/2-y,-z
1/2+x,1/2-y,z
loop_
_atom_site_type_symbol
_atom_site_label
_atom_site_fract_x
_atom_site_fract_y
_atom_site_fract_z
Si Si1 0.493376 0.669079 0.071892
Si Si2 0.838145 0.672226 0.627662
Si Si3 0.156617 0.169984 0.138340
Si Si4 0.574745 0.162811 0.747083
Si Si5 0.908079 0.672696 0.498720
Si Si6 0.581655 0.331807 0.264391
Si Si7 0.339452 0.167641 0.130128
Si Si8 0.173467 0.332021 0.625971
O O1 0.485536 0.500000 0.089422
O O2 0.577265 0.737371 0.102346
O O3 0.409834 0.745865 0.094188
O O4 0.500000 0.694534 0.000000
O O5 0.839337 0.500000 0.632507
O O6 0.860305 0.726018 0.559178
O O7 0.903630 0.735115 0.675591
O O8 0.749893 0.734281 0.645755
O O9 0.148706 0.198109 0.211334
O O10 0.246560 0.231217 0.116615
O O11 0.156401 0.000000 0.124317
O O12 0.506451 0.283294 0.762912
O O13 0.647762 0.181616 0.796494
O O14 0.605779 0.188329 0.678223
O O15 0.537033 0.000000 0.752370
O O16 0.913199 0.500000 0.496069
O O17 0.861759 0.729849 0.438158
O O18 0.000000 0.739119 0.500000
O O19 0.579796 0.500000 0.283292
O O20 0.345010 0.000000 0.109301
O O21 0.201327 0.500000 0.620392
#
# Coordination Sequence:
#
# PCOD8099946 Si02
#       8
#     8   8   8   8   8   8   8   8
#     4  10  21  39  61  86 119 156 194 237 285 338
#     4  11  22  35  53  80 112 143 185 239 288 336
#     4   9  19  37  59  84 116 155 192 233 289 348
#     4  10  20  35  57  84 112 144 188 240 288 338
#     4   9  18  34  55  76 102 142 186 231 285 344
#     4  11  21  36  59  82 111 151 192 232 288 350
#     4  10  20  36  59  85 117 153 192 236 286 342
#     4  10  20  36  57  79 108 148 190 229 283 351
#
# _framework density 19.757033
#
# number of rings (size 3 to 8) (size 9 to 14) (size 15 to 20)
#    0.000    2.000    1.250    2.625    0.000    5.250 
#    0.000    3.750    0.000    2.625    0.000    0.000 
#    0.000    0.000    0.000    0.000    0.000    0.000 
#
# Total GULP energy -396752.644355 kJ/mol
# GULP energy per Si atom -12398.520136 kJ/mol
# Density = 1.971207 g / cm^3
# Si number density = 19.757033 Si / 1000 Ang^3
#
#
#
# Elastic Constant Matrix: (Units=GPa)
#
#
# Indices 1 2 3 4 5 6 
#
# 1 143.8360 45.4405 42.9451 0.0000 -5.9272 0.0000
# 2 45.4405 60.0995 37.0687 0.0000 -6.7873 0.0000
# 3 42.9451 37.0687 88.0646 0.0000 -2.5339 0.0000
# 4 0.0000 0.0000 0.0000 23.7673 0.0000 0.5602
# 5 -5.9272 -6.7873 -2.5339 0.0000 25.6409 0.0000
# 6 0.0000 0.0000 0.0000 0.5602 0.0000 29.5764
#
#
#
# Elastic Compliance Matrix: (Units=1/GPa)
#
#
# Indices 1 2 3 4 5 6 
#
# 1 0.009433 -0.005744 -0.002170 0.000000 0.000446 0.000000
# 2 -0.005744 0.026637 -0.008270 0.000000 0.004906 0.000000
# 3 -0.002170 -0.008270 0.015862 0.000000 -0.001123 0.000000
# 4 0.000000 0.000000 0.000000 0.042093 0.000000 -0.000797
# 5 0.000446 0.004906 -0.001123 0.000000 0.040291 0.000000
# 6 0.000000 0.000000 0.000000 -0.000797 0.000000 0.033826
#
#
# Mechanical properties :
#
#
# Convention : Reuss Voigt Hill
#
# Bulk Modulus (GPa) = 51.11093 60.32317 55.71705
# Shear Modulus (GPa) = 24.15105 26.89996 25.52550
#
# Velocity S-wave (km/s) = 3.50008 3.69391 3.59830
# Velocity P-wave (km/s) = 6.50077 6.98513 6.74730
#
# Compressibility (1/GPa) = 0.01956529
#
# Stress axis : x y z
#
# Youngs Moduli (GPa) = 106.01036 37.54217 63.04362
#
# Poissons Ratio (x) = 0.21563 0.13678
# Poissons Ratio (y) = 0.60889 0.52137
# Poissons Ratio (z) = 0.23000 0.31047
#
# Static dielectric constant tensor:
#      x y z
#    x 3.719510 0.000000 0.124320 
#    y 0.000000 3.301420 0.000000 
#    z 0.124320 0.000000 3.671290 
# 
# 
# High freq. dielectric constant tensor:
#      x y z
#    x 1.779850 0.000000 0.004240 
#    y 0.000000 1.737270 0.000000 
#    z 0.004240 0.000000 1.776780 
# 
# From -- ./inp_files/314078.got.cif
#   From: 2010.06.25/outbox.cif.g09.slc.cpg/sg12_158_cif.got.tgz:314078.got - 2010.06.28 00:19:55.
