data_PCOD8099048
_publ_section_title
;
Structure prediction by ZEFSAII (Michael W. Deem and Ramdas Pophale) SiO2 
 PCOD8099048
Probable space group: C 2/M
;
_chemical_formula_sum "Si O2"
_cell_formula_units_Z 48
_cell_length_a 18.352996
_cell_length_b 9.099488
_cell_length_c 31.595122
_cell_angle_alpha 90.000000
_cell_angle_beta 150.797328
_cell_angle_gamma 90.000000
_cell_volume 2574.394557
_symmetry_space_group_name_H-M "C 2/M"
_symmetry_group_IT_number 12
_symmetry_cell_setting 'monoclinic'
loop_
_space_group_symop_operation_xyz
x,y,z
-x,y,-z
-x,-y,-z
x,-y,z
1/2+x,1/2+y,z
1/2-x,1/2+y,-z
1/2-x,1/2-y,-z
1/2+x,1/2-y,z
loop_
_atom_site_type_symbol
_atom_site_label
_atom_site_fract_x
_atom_site_fract_y
_atom_site_fract_z
Si Si1 0.592989 0.827874 0.422249
Si Si2 0.166499 0.669155 0.082687
Si Si3 0.832714 0.170807 0.079856
Si Si4 0.408560 0.170908 0.411694
Si Si5 0.404282 0.826789 0.744345
Si Si6 0.573523 0.828363 0.745380
O O1 0.750000 0.750000 0.500000
O O2 0.510587 0.786528 0.423708
O O3 0.494879 0.770835 0.333158
O O4 0.622035 0.000000 0.433148
O O5 0.165431 0.500000 0.095548
O O6 0.228927 0.693720 0.067691
O O7 0.267060 0.751843 0.168010
O O8 0.000000 0.735230 0.000000
O O9 0.992930 0.246332 0.168786
O O10 0.858082 0.000000 0.082131
O O11 0.750000 0.250000 0.000000
O O12 0.500000 0.210489 0.500000
O O13 0.262816 0.270242 0.335673
O O14 0.362033 0.000000 0.387385
O O15 0.460804 0.785980 0.726029
O O16 0.410318 0.000000 0.755898
O O17 0.604314 0.000000 0.759790
#
# Coordination Sequence:
#
# PCOD8099048 Si02
#       6
#     8   8   8   8   8   8
#     4  10  21  36  54  78 106 136 173 215 259 309
#     4   9  19  35  54  77 104 135 173 214 256 305
#     4  10  20  35  55  78 107 140 174 215 261 310
#     4  10  21  36  54  78 108 140 174 214 262 314
#     4  10  20  35  55  77 103 137 177 218 261 310
#     4   9  19  35  53  75 103 135 173 215 258 305
#
# _framework density 18.645161000000002
#
# number of rings (size 3 to 8) (size 9 to 14) (size 15 to 20)
#    0.000    2.333    0.000    2.000    0.000    4.667 
#    0.000    3.333    0.000    0.000    0.000    0.000 
#    0.000    0.000    0.000    0.000    0.000    0.000 
#
# Total GULP energy -297692.109902 kJ/mol
# GULP energy per Si atom -12403.837913 kJ/mol
# Density = 1.860272 g / cm^3
# Si number density = 18.645161 Si / 1000 Ang^3
#
#
#
# Elastic Constant Matrix: (Units=GPa)
#
#
# Indices 1 2 3 4 5 6 
#
# 1 93.3559 48.9480 87.7053 0.0000 -1.3833 0.0000
# 2 48.9480 78.1778 76.5872 -0.0001 2.1368 0.0001
# 3 87.7053 76.5872 192.6453 -0.0001 -1.5917 0.0000
# 4 0.0000 -0.0001 -0.0001 41.9431 0.0000 4.4061
# 5 -1.3833 2.1368 -1.5917 0.0000 40.6798 0.0000
# 6 0.0000 0.0001 0.0000 4.4061 0.0000 22.4647
#
#
#
# Elastic Compliance Matrix: (Units=1/GPa)
#
#
# Indices 1 2 3 4 5 6 
#
# 1 0.020317 -0.006036 -0.006844 0.000000 0.000740 0.000000
# 2 -0.006036 0.022828 -0.006341 0.000000 -0.001652 0.000000
# 3 -0.006844 -0.006341 0.010832 0.000000 0.000524 0.000000
# 4 0.000000 0.000000 0.000000 0.024343 0.000000 -0.004775
# 5 0.000740 -0.001652 0.000524 0.000000 0.024715 0.000000
# 6 0.000000 0.000000 0.000000 -0.004775 0.000000 0.045451
#
#
# Mechanical properties :
#
#
# Convention : Reuss Voigt Hill
#
# Bulk Modulus (GPa) = 64.37205 87.85110 76.11157
# Shear Modulus (GPa) = 26.02728 31.08009 28.55369
#
# Velocity S-wave (km/s) = 3.74026 4.08723 3.91759
# Velocity P-wave (km/s) = 7.29743 8.33628 7.83410
#
# Compressibility (1/GPa) = 0.01553469
#
# Stress axis : x y z
#
# Youngs Moduli (GPa) = 49.21911 43.80628 92.32065
#
# Poissons Ratio (x) = 0.26444 0.63183
# Poissons Ratio (y) = 0.29711 0.58538
# Poissons Ratio (z) = 0.33685 0.27776
#
# Static dielectric constant tensor:
#      x y z
#    x 3.439630 0.000000 -0.098050 
#    y 0.000000 3.412430 0.000000 
#    z -0.098050 0.000000 3.621430 
# 
# 
# High freq. dielectric constant tensor:
#      x y z
#    x 1.721120 0.000000 -0.001470 
#    y 0.000000 1.722790 0.000000 
#    z -0.001470 0.000000 1.738210 
# 
# From -- ./inp_files/244886.got.cif
#   From: 2010.06.25/outbox.cif.g09.slc.cpg/sg12_123_cif.got.tgz:244886.got - 2010.06.28 00:19:55.
