data_PCOD8099868
_publ_section_title
;
Structure prediction by ZEFSAII (Michael W. Deem and Ramdas Pophale) SiO2 
 PCOD8099868
Probable space group: C 2/M
;
_chemical_formula_sum "Si O2"
_cell_formula_units_Z 56
_cell_length_a 22.806924
_cell_length_b 18.691169
_cell_length_c 15.470798
_cell_angle_alpha 90.000000
_cell_angle_beta 155.448692
_cell_angle_gamma 90.000000
_cell_volume 2740.281781
_symmetry_space_group_name_H-M "C 2/M"
_symmetry_group_IT_number 12
_symmetry_cell_setting 'monoclinic'
loop_
_space_group_symop_operation_xyz
x,y,z
-x,y,-z
-x,-y,-z
x,-y,z
1/2+x,1/2+y,z
1/2-x,1/2+y,-z
1/2-x,1/2-y,-z
1/2+x,1/2-y,z
loop_
_atom_site_type_symbol
_atom_site_label
_atom_site_fract_x
_atom_site_fract_y
_atom_site_fract_z
Si Si1 0.616520 0.809417 0.581277
Si Si2 0.642303 0.917539 0.021649
Si Si3 0.163572 0.846743 0.591118
Si Si4 0.380519 0.333135 0.662373
Si Si5 0.911520 0.320100 0.650169
Si Si6 0.629242 0.417671 0.808454
Si Si7 0.653448 0.416696 0.040334
O O1 0.500000 0.810360 0.500000
O O2 0.687827 0.731369 0.666118
O O3 0.546056 0.826981 0.393874
O O4 0.733309 0.869572 0.756907
O O5 0.720544 0.900308 0.215729
O O6 0.741765 0.891594 0.076862
O O7 0.606906 0.000000 0.968697
O O8 0.493206 0.878483 0.815290
O O9 0.189405 0.852064 0.523503
O O10 0.004447 0.870877 0.398677
O O11 0.257155 0.330988 0.567912
O O12 0.455888 0.256370 0.750077
O O13 0.494768 0.390442 0.849058
O O14 0.589855 0.500000 0.738028
O O15 0.677700 0.405316 0.971244
O O16 0.669449 0.500000 0.088398
#
# Coordination Sequence:
#
# PCOD8099868 Si02
#       7
#     8   8   8   8   8   8   8
#     4  11  22  36  58  85 110 139 178 227 275 318
#     4  11  21  33  54  84 116 146 175 218 275 326
#     4  10  20  35  57  83 110 142 182 223 265 319
#     4   9  21  41  59  76 104 146 189 225 263 314
#     4  10  22  39  57  79 110 145 182 223 267 320
#     4   9  18  34  55  81 113 146 179 217 267 325
#     4  10  21  37  58  80 107 145 184 225 270 319
#
# _framework density 20.435856000000001
#
# number of rings (size 3 to 8) (size 9 to 14) (size 15 to 20)
#    0.000    2.000    0.000    3.429    0.000    4.286 
#    0.000   11.429    0.000    0.000    0.000    0.000 
#    0.000    0.000    0.000    0.000    0.000    0.000 
#
# Total GULP energy -347245.102821 kJ/mol
# GULP energy per Si atom -12401.610815 kJ/mol
# Density = 2.038934 g / cm^3
# Si number density = 20.435856 Si / 1000 Ang^3
#
#
#
# Elastic Constant Matrix: (Units=GPa)
#
#
# Indices 1 2 3 4 5 6 
#
# 1 68.9901 22.0221 21.4786 0.0000 5.0209 0.0000
# 2 22.0221 86.8707 45.3756 0.0000 -4.7551 0.0000
# 3 21.4786 45.3756 75.2519 0.0000 -5.7520 0.0000
# 4 0.0000 0.0000 0.0000 43.1710 0.0000 -3.5139
# 5 5.0209 -4.7551 -5.7520 0.0000 15.0830 0.0000
# 6 0.0000 0.0000 0.0000 -3.5139 0.0000 25.2613
#
#
#
# Elastic Compliance Matrix: (Units=1/GPa)
#
#
# Indices 1 2 3 4 5 6 
#
# 1 0.017165 -0.002791 -0.003832 0.000000 -0.008055 0.000000
# 2 -0.002791 0.017290 -0.009416 0.000000 0.002789 0.000000
# 3 -0.003832 -0.009416 0.020529 0.000000 0.006136 0.000000
# 4 0.000000 0.000000 0.000000 0.023429 0.000000 0.003259
# 5 -0.008055 0.002789 0.006136 0.000000 0.072201 0.000000
# 6 0.000000 0.000000 0.000000 0.003259 0.000000 0.040040
#
#
# Mechanical properties :
#
#
# Convention : Reuss Voigt Hill
#
# Bulk Modulus (GPa) = 43.65573 45.42948 44.54260
# Shear Modulus (GPa) = 21.70464 26.18548 23.94506
#
# Velocity S-wave (km/s) = 3.26250 3.58348 3.42675
# Velocity P-wave (km/s) = 5.96662 6.27697 6.12376
#
# Compressibility (1/GPa) = 0.02290650
#
# Stress axis : x y z
#
# Youngs Moduli (GPa) = 58.25823 57.83839 48.71153
#
# Poissons Ratio (x) = 0.16140 0.18668
# Poissons Ratio (y) = 0.16257 0.45865
# Poissons Ratio (z) = 0.22326 0.54458
#
# Static dielectric constant tensor:
#      x y z
#    x 3.689050 0.000000 -0.042610 
#    y 0.000000 3.753630 0.000000 
#    z -0.042610 0.000000 3.431910 
# 
# 
# High freq. dielectric constant tensor:
#      x y z
#    x 1.796610 0.000000 -0.004260 
#    y 0.000000 1.803400 0.000000 
#    z -0.004260 0.000000 1.787990 
# 
# From -- ./inp_files/293918.got.cif
#   From: 2010.06.25/outbox.cif.g09.slc.cpg/sg12_147_cif.got.tgz:293918.got - 2010.06.28 00:19:55.
