data_PCOD8099368
_publ_section_title
;
Structure prediction by ZEFSAII (Michael W. Deem and Ramdas Pophale) SiO2 
 PCOD8099368
Probable space group: C 2/M
;
_chemical_formula_sum "Si O2"
_cell_formula_units_Z 60
_cell_length_a 9.177152
_cell_length_b 19.228540
_cell_length_c 18.749318
_cell_angle_alpha 90.000000
_cell_angle_beta 107.192963
_cell_angle_gamma 90.000000
_cell_volume 3160.720975
_symmetry_space_group_name_H-M "C 2/M"
_symmetry_group_IT_number 12
_symmetry_cell_setting 'monoclinic'
loop_
_space_group_symop_operation_xyz
x,y,z
-x,y,-z
-x,-y,-z
x,-y,z
1/2+x,1/2+y,z
1/2-x,1/2+y,-z
1/2-x,1/2-y,-z
1/2+x,1/2-y,z
loop_
_atom_site_type_symbol
_atom_site_label
_atom_site_fract_x
_atom_site_fract_y
_atom_site_fract_z
Si Si1 0.745463 0.180489 0.304477
Si Si2 0.000000 0.251660 0.000000
Si Si3 0.395391 0.793717 0.236413
Si Si4 0.836301 0.419388 0.450524
Si Si5 0.385472 0.419519 0.216989
Si Si6 0.689573 0.304324 0.901981
Si Si7 0.823413 0.816943 0.476800
Si Si8 0.757368 0.079238 0.721833
O O1 0.575517 0.199283 0.256735
O O2 0.853174 0.244838 0.297470
O O3 0.795388 0.109859 0.272170
O O4 0.754002 0.167517 0.389464
O O5 0.930538 0.201802 0.050897
O O6 0.135224 0.301648 0.047166
O O7 0.335349 0.759601 0.155372
O O8 0.317366 0.869329 0.231520
O O9 0.817602 0.500000 0.464273
O O10 0.705007 0.382501 0.476574
O O11 0.818376 0.402934 0.364824
O O12 0.000000 0.391119 0.500000
O O13 0.343400 0.500000 0.200594
O O14 0.337360 0.378518 0.138925
O O15 0.563325 0.407937 0.257559
O O16 0.750000 0.750000 0.500000
O O17 0.000000 0.802629 0.500000
O O18 0.721572 0.000000 0.739698
#
# Coordination Sequence:
#
# PCOD8099368 Si02
#       8
#     8   4   8   8   8   8   8   8
#     4  11  22  34  55  79 106 146 186 234 279 321
#     4  10  20  36  60  86 112 134 176 208 256 328
#     4  11  20  36  57  81 109 138 183 224 268 322
#     4  10  21  37  54  74 106 145 185 231 283 331
#     4  10  21  38  57  81 113 145 183 225 270 318
#     4  10  20  36  59  85 109 143 172 215 261 314
#     4  12  23  35  52  76 108 144 187 237 285 331
#     4  10  20  35  56  79 107 145 185 230 275 320
#
# _framework density 18.983011999999999
#
# number of rings (size 3 to 8) (size 9 to 14) (size 15 to 20)
#    0.000    1.467    0.000    7.600    0.000    1.333 
#    0.000    0.667    0.000    3.200    0.000    0.000 
#    0.000    0.000    0.000    0.000    0.000    0.000 
#
# Total GULP energy -372158.873329 kJ/mol
# GULP energy per Si atom -12405.295778 kJ/mol
# Density = 1.893981 g / cm^3
# Si number density = 18.983012 Si / 1000 Ang^3
#
#
#
# Elastic Constant Matrix: (Units=GPa)
#
#
# Indices 1 2 3 4 5 6 
#
# 1 122.3518 62.7161 39.6629 0.0000 4.8389 0.0000
# 2 62.7161 131.9911 60.7472 0.0000 -7.6367 0.0000
# 3 39.6629 60.7472 97.6726 0.0000 0.9439 0.0000
# 4 0.0000 0.0000 0.0000 46.0544 0.0000 -32.8115
# 5 4.8389 -7.6367 0.9439 0.0000 36.1761 0.0000
# 6 0.0000 0.0000 0.0000 -32.8115 0.0000 80.7248
#
#
#
# Elastic Compliance Matrix: (Units=1/GPa)
#
#
# Indices 1 2 3 4 5 6 
#
# 1 0.011214 -0.004744 -0.001580 0.000000 -0.002460 0.000000
# 2 -0.004744 0.012836 -0.006091 0.000000 0.003503 0.000000
# 3 -0.001580 -0.006091 0.014682 0.000000 -0.001458 0.000000
# 4 0.000000 0.000000 0.000000 0.030564 0.000000 0.012423
# 5 -0.002460 0.003503 -0.001458 0.000000 0.028749 0.000000
# 6 0.000000 0.000000 0.000000 0.012423 0.000000 0.017437
#
#
# Mechanical properties :
#
#
# Convention : Reuss Voigt Hill
#
# Bulk Modulus (GPa) = 71.92357 75.36312 73.64335
# Shear Modulus (GPa) = 34.49539 45.18367 39.83953
#
# Velocity S-wave (km/s) = 4.26745 4.88404 4.58612
# Velocity P-wave (km/s) = 7.89001 8.46118 8.18058
#
# Compressibility (1/GPa) = 0.01390365
#
# Stress axis : x y z
#
# Youngs Moduli (GPa) = 89.17318 77.90422 68.10992
#
# Poissons Ratio (x) = 0.36956 0.10759
# Poissons Ratio (y) = 0.42301 0.41486
# Poissons Ratio (z) = 0.14087 0.47451
#
# Static dielectric constant tensor:
#      x y z
#    x 3.778790 0.000000 0.036370 
#    y 0.000000 3.452400 0.000000 
#    z 0.036370 0.000000 3.540150 
# 
# 
# High freq. dielectric constant tensor:
#      x y z
#    x 1.752160 0.000000 0.004940 
#    y 0.000000 1.734180 0.000000 
#    z 0.004940 0.000000 1.738870 
# 
# From -- ./inp_files/300855.got.cif
#   From: 2010.06.25/outbox.cif.g09.slc.cpg/sg12_151_cif.got.tgz:300855.got - 2010.06.28 00:19:55.
