data_PCOD8099131
_publ_section_title
;
Structure prediction by ZEFSAII (Michael W. Deem and Ramdas Pophale) SiO2 
 PCOD8099131
Probable space group: C 2/M
;
_chemical_formula_sum "Si O2"
_cell_formula_units_Z 48
_cell_length_a 14.111360
_cell_length_b 8.559814
_cell_length_c 22.220065
_cell_angle_alpha 90.000000
_cell_angle_beta 71.553871
_cell_angle_gamma 90.000000
_cell_volume 2546.076930
_symmetry_space_group_name_H-M "C 2/M"
_symmetry_group_IT_number 12
_symmetry_cell_setting 'monoclinic'
loop_
_space_group_symop_operation_xyz
x,y,z
-x,y,-z
-x,-y,-z
x,-y,z
1/2+x,1/2+y,z
1/2-x,1/2+y,-z
1/2-x,1/2-y,-z
1/2+x,1/2-y,z
loop_
_atom_site_type_symbol
_atom_site_label
_atom_site_fract_x
_atom_site_fract_y
_atom_site_fract_z
Si Si1 0.227628 0.817024 0.824802
Si Si2 0.033503 0.815728 0.929905
Si Si3 0.799696 0.179480 0.398028
Si Si4 0.929649 0.818079 0.830233
Si Si5 0.611489 0.318514 0.491859
Si Si6 0.622993 0.180752 0.737054
O O1 0.144105 0.757107 0.889232
O O2 0.336138 0.783224 0.828690
O O3 0.211410 0.728644 0.765005
O O4 0.214553 0.000000 0.815131
O O5 0.954978 0.769125 0.893704
O O6 0.036243 0.000000 0.936761
O O7 0.000000 0.737710 0.000000
O O8 0.684747 0.219071 0.435058
O O9 0.867169 0.215147 0.442601
O O10 0.840002 0.289310 0.337544
O O11 0.807307 0.000000 0.376388
O O12 0.024002 0.781871 0.769096
O O13 0.903420 0.000000 0.830040
O O14 0.500000 0.262475 0.500000
O O15 0.627261 0.500000 0.473248
O O16 0.596636 0.000000 0.750473
#
# Coordination Sequence:
#
# PCOD8099131 Si02
#       6
#     8   8   8   8   8   8
#     4  10  20  35  55  79 108 140 178 222 269 321
#     4   8  16  32  53  77 107 142 178 218 263 314
#     4  10  20  35  55  79 108 138 174 220 267 315
#     4  10  20  35  55  79 109 142 178 220 268 320
#     4   9  19  36  56  78 106 140 176 214 259 313
#     4  11  22  37  56  77 106 142 182 225 270 318
#
# _framework density 18.852532
#
# number of rings (size 3 to 8) (size 9 to 14) (size 15 to 20)
#    0.000    2.333    0.000    4.000    0.000    3.000 
#    0.000    5.000    0.000   17.000    0.000    0.000 
#    0.000    0.000    0.000    0.000    0.000    0.000 
#
# Total GULP energy -297658.197712 kJ/mol
# GULP energy per Si atom -12402.424905 kJ/mol
# Density = 1.880962 g / cm^3
# Si number density = 18.852532 Si / 1000 Ang^3
#
#
#
# Elastic Constant Matrix: (Units=GPa)
#
#
# Indices 1 2 3 4 5 6 
#
# 1 122.0350 13.8282 43.9860 0.0000 1.6664 0.0000
# 2 13.8282 52.4516 24.4933 0.0000 1.8456 0.0000
# 3 43.9860 24.4933 119.5209 0.0000 2.0462 0.0000
# 4 0.0000 0.0000 0.0000 22.0219 0.0000 -0.8763
# 5 1.6664 1.8456 2.0462 0.0000 12.7477 0.0000
# 6 0.0000 0.0000 0.0000 -0.8763 0.0000 30.3450
#
#
#
# Elastic Compliance Matrix: (Units=1/GPa)
#
#
# Indices 1 2 3 4 5 6 
#
# 1 0.009496 -0.000946 -0.003291 0.000000 -0.000576 0.000000
# 2 -0.000946 0.021248 -0.003966 0.000000 -0.002316 0.000000
# 3 -0.003291 -0.003966 0.010402 0.000000 -0.000665 0.000000
# 4 0.000000 0.000000 0.000000 0.045461 0.000000 0.001313
# 5 -0.000576 -0.002316 -0.000665 0.000000 0.078963 0.000000
# 6 0.000000 0.000000 0.000000 0.001313 0.000000 0.032992
#
#
# Mechanical properties :
#
#
# Convention : Reuss Voigt Hill
#
# Bulk Modulus (GPa) = 40.42242 50.95804 45.69023
# Shear Modulus (GPa) = 22.39978 27.13626 24.76802
#
# Velocity S-wave (km/s) = 3.45071 3.79805 3.62854
# Velocity P-wave (km/s) = 6.11264 6.80603 6.46864
#
# Compressibility (1/GPa) = 0.02473875
#
# Stress axis : x y z
#
# Youngs Moduli (GPa) = 105.31211 47.06233 96.13511
#
# Poissons Ratio (x) = 0.04454 0.31636
# Poissons Ratio (y) = 0.09967 0.38132
# Poissons Ratio (z) = 0.34656 0.18667
#
# Static dielectric constant tensor:
#      x y z
#    x 3.439110 0.000000 0.004690 
#    y 0.000000 3.329780 0.000000 
#    z 0.004690 0.000000 3.584360 
# 
# 
# High freq. dielectric constant tensor:
#      x y z
#    x 1.732720 0.000000 0.000590 
#    y 0.000000 1.725500 0.000000 
#    z 0.000590 0.000000 1.733750 
# 
# From -- ./inp_files/308312.got.cif
#   From: 2010.06.25/outbox.cif.g09.slc.cpg/sg12_155_cif.got.tgz:308312.got - 2010.06.28 00:19:55.
