data_PCOD8099807
_publ_section_title
;
Structure prediction by ZEFSAII (Michael W. Deem and Ramdas Pophale) SiO2 
 PCOD8099807
Probable space group: C 2/M
;
_chemical_formula_sum "Si O2"
_cell_formula_units_Z 56
_cell_length_a 16.619030
_cell_length_b 11.788272
_cell_length_c 15.871443
_cell_angle_alpha 90.000000
_cell_angle_beta 116.117972
_cell_angle_gamma 90.000000
_cell_volume 2791.869690
_symmetry_space_group_name_H-M "C 2/M"
_symmetry_group_IT_number 12
_symmetry_cell_setting 'monoclinic'
loop_
_space_group_symop_operation_xyz
x,y,z
-x,y,-z
-x,-y,-z
x,-y,z
1/2+x,1/2+y,z
1/2-x,1/2+y,-z
1/2-x,1/2-y,-z
1/2+x,1/2-y,z
loop_
_atom_site_type_symbol
_atom_site_label
_atom_site_fract_x
_atom_site_fract_y
_atom_site_fract_z
Si Si1 0.994399 0.371081 0.590182
Si Si2 0.285700 0.131261 0.763699
Si Si3 0.124320 0.254981 0.773310
Si Si4 0.746161 0.369479 0.052148
Si Si5 0.411679 0.301029 0.909046
Si Si6 0.460590 0.624480 0.756842
Si Si7 0.826748 0.281049 0.601998
O O1 0.024420 0.500000 0.601417
O O2 0.896499 0.363217 0.587028
O O3 0.000000 0.317723 0.500000
O O4 0.071404 0.304969 0.672011
O O5 0.195168 0.166836 0.768597
O O6 0.369176 0.187731 0.849973
O O7 0.282452 0.159497 0.662741
O O8 0.300034 0.000000 0.782467
O O9 0.171160 0.357549 0.845443
O O10 0.053725 0.192801 0.801216
O O11 0.753808 0.500000 0.014147
O O12 0.652830 0.369034 0.058080
O O13 0.750000 0.250000 0.000000
O O14 0.430232 0.384040 0.839532
O O15 0.500000 0.264583 0.000000
O O16 0.479621 0.500000 0.730190
O O17 0.382997 0.673067 0.660388
O O18 0.750000 0.250000 0.500000
#
# Coordination Sequence:
#
# PCOD8099807 Si02
#       7
#     8   8   8   8   8   8   8
#     4  10  20  35  57  81 107 145 188 230 279 336
#     4  10  21  37  58  84 114 150 190 235 293 353
#     4  10  21  38  58  83 116 147 185 237 290 345
#     4  11  24  40  61  88 118 155 197 242 293 350
#     4  10  22  39  58  84 115 149 189 237 287 343
#     4  10  21  37  59  85 112 148 193 238 287 345
#     4  10  21  37  55  81 116 149 189 237 288 348
#
# _framework density 20.058243999999998
#
# number of rings (size 3 to 8) (size 9 to 14) (size 15 to 20)
#    0.000    1.857    0.000    3.429    0.000    6.571 
#    0.000    8.571    0.000    4.714    0.000    0.000 
#    0.000    0.000    0.000    0.000    0.000    0.000 
#
# Total GULP energy -346980.660324 kJ/mol
# GULP energy per Si atom -12392.166440 kJ/mol
# Density = 2.001259 g / cm^3
# Si number density = 20.058244 Si / 1000 Ang^3
#
#
#
# Elastic Constant Matrix: (Units=GPa)
#
#
# Indices 1 2 3 4 5 6 
#
# 1 98.9912 31.6624 47.4790 0.0000 7.5672 0.0000
# 2 31.6624 131.1998 42.7195 0.0000 4.7111 0.0000
# 3 47.4790 42.7195 104.7472 0.0000 11.5783 0.0000
# 4 0.0000 0.0000 0.0000 11.9387 0.0000 -4.2738
# 5 7.5672 4.7111 11.5783 0.0000 40.5673 0.0000
# 6 0.0000 0.0000 0.0000 -4.2738 0.0000 16.2823
#
#
#
# Elastic Compliance Matrix: (Units=1/GPa)
#
#
# Indices 1 2 3 4 5 6 
#
# 1 0.013157 -0.001422 -0.005298 0.000000 -0.000777 0.000000
# 2 -0.001422 0.008943 -0.003012 0.000000 0.000086 0.000000
# 3 -0.005298 -0.003012 0.013453 0.000000 -0.002502 0.000000
# 4 0.000000 0.000000 0.000000 0.092448 0.000000 0.024266
# 5 -0.000777 0.000086 -0.002502 0.000000 0.025499 0.000000
# 6 0.000000 0.000000 0.000000 0.024266 0.000000 0.067786
#
#
# Mechanical properties :
#
#
# Convention : Reuss Voigt Hill
#
# Bulk Modulus (GPa) = 62.15526 64.29556 63.22541
# Shear Modulus (GPa) = 20.31585 27.96282 24.13934
#
# Velocity S-wave (km/s) = 3.18597 3.73779 3.47286
# Velocity P-wave (km/s) = 6.67747 7.12405 6.90437
#
# Compressibility (1/GPa) = 0.01608874
#
# Stress axis : x y z
#
# Youngs Moduli (GPa) = 76.00380 111.82115 74.33229
#
# Poissons Ratio (x) = 0.15905 0.39380
# Poissons Ratio (y) = 0.10810 0.22389
# Poissons Ratio (z) = 0.40266 0.33681
#
# Static dielectric constant tensor:
#      x y z
#    x 3.958170 0.000000 -0.080310 
#    y 0.000000 3.877580 0.000000 
#    z -0.080310 0.000000 3.763910 
# 
# 
# High freq. dielectric constant tensor:
#      x y z
#    x 1.794900 0.000000 -0.000240 
#    y 0.000000 1.777440 0.000000 
#    z -0.000240 0.000000 1.790840 
# 
# From -- ./inp_files/223745.got.cif
#   From: 2010.06.25/outbox.cif.g09.slc.cpg/sg12_112_cif.got.tgz:223745.got - 2010.06.28 00:19:55.
