data_PCOD8099874
_publ_section_title
;
Structure prediction by ZEFSAII (Michael W. Deem and Ramdas Pophale) SiO2 
 PCOD8099874
Probable space group: C 2/M
;
_chemical_formula_sum "Si O2"
_cell_formula_units_Z 56
_cell_length_a 8.819740
_cell_length_b 27.434073
_cell_length_c 18.340916
_cell_angle_alpha 90.000000
_cell_angle_beta 136.056968
_cell_angle_gamma 90.000000
_cell_volume 3079.574892
_symmetry_space_group_name_H-M "C 2/M"
_symmetry_group_IT_number 12
_symmetry_cell_setting 'monoclinic'
loop_
_space_group_symop_operation_xyz
x,y,z
-x,y,-z
-x,-y,-z
x,-y,z
1/2+x,1/2+y,z
1/2-x,1/2+y,-z
1/2-x,1/2-y,-z
1/2+x,1/2-y,z
loop_
_atom_site_type_symbol
_atom_site_label
_atom_site_fract_x
_atom_site_fract_y
_atom_site_fract_z
Si Si1 0.149061 0.944869 0.196073
Si Si2 0.735817 0.942316 0.602184
Si Si3 0.084169 0.197397 0.907508
Si Si4 0.166922 0.288498 0.861032
Si Si5 0.911551 0.057430 0.390040
Si Si6 0.291162 0.903361 0.977829
Si Si7 0.536743 0.890710 0.801474
O O1 0.201603 0.926221 0.295342
O O2 0.268160 0.907528 0.183567
O O3 0.887180 0.946219 0.092538
O O4 0.237175 0.000000 0.214914
O O5 0.500000 0.919910 0.500000
O O6 0.916171 0.921936 0.608706
O O7 0.728712 0.000000 0.591332
O O8 0.080628 0.232558 0.833672
O O9 0.147382 0.143518 0.902398
O O10 0.853667 0.203457 0.866772
O O11 0.267427 0.207278 0.031577
O O12 0.996323 0.331908 0.783862
O O13 0.683325 0.083231 0.297057
O O14 0.000000 0.071246 0.500000
O O15 0.872607 0.000000 0.368903
O O16 0.500000 0.912099 0.000000
O O17 0.379962 0.904067 0.089950
#
# Coordination Sequence:
#
# PCOD8099874 Si02
#       7
#     8   8   8   8   8   8   8
#     4  11  22  36  53  74 109 153 186 222 271 325
#     4   9  18  34  54  76 102 136 183 230 269 312
#     4   9  18  32  50  74 104 136 174 223 272 325
#     4   9  18  31  51  75 103 136 174 221 276 321
#     4  10  20  35  57  83 110 144 185 230 276 323
#     4  11  23  35  50  77 112 146 185 225 270 333
#     4  11  21  35  52  80 110 142 185 226 271 332
#
# _framework density 18.184329000000002
#
# number of rings (size 3 to 8) (size 9 to 14) (size 15 to 20)
#    0.000    2.000    1.429    2.571    6.000    4.286 
#    0.000    0.000    0.000    0.000    0.000    2.000 
#    0.000    0.000    0.000    0.000    0.000    0.000 
#
# Total GULP energy -346958.560326 kJ/mol
# GULP energy per Si atom -12391.377154 kJ/mol
# Density = 1.814294 g / cm^3
# Si number density = 18.184329 Si / 1000 Ang^3
#
#
#
# Elastic Constant Matrix: (Units=GPa)
#
#
# Indices 1 2 3 4 5 6 
#
# 1 124.1227 31.7956 49.7095 0.0000 2.3023 -0.0002
# 2 31.7956 66.4141 37.5340 0.0000 -2.1285 -0.0001
# 3 49.7095 37.5340 111.4828 0.0001 4.4030 -0.0007
# 4 0.0000 0.0000 0.0001 18.8263 0.0001 -7.0530
# 5 2.3023 -2.1285 4.4030 0.0001 28.6187 -0.0005
# 6 -0.0002 -0.0001 -0.0007 -7.0530 -0.0005 50.5240
#
#
#
# Elastic Compliance Matrix: (Units=1/GPa)
#
#
# Indices 1 2 3 4 5 6 
#
# 1 0.010238 -0.002900 -0.003569 0.000000 -0.000490 0.000000
# 2 -0.002900 0.019576 -0.005397 0.000000 0.002520 0.000000
# 3 -0.003569 -0.005397 0.012459 0.000000 -0.002031 0.000000
# 4 0.000000 0.000000 0.000000 0.056049 0.000000 0.007824
# 5 -0.000490 0.002520 -0.002031 0.000000 0.035482 0.000000
# 6 0.000000 0.000000 0.000000 0.007824 0.000000 0.020885
#
#
# Mechanical properties :
#
#
# Convention : Reuss Voigt Hill
#
# Bulk Modulus (GPa) = 53.93743 60.01087 56.97415
# Shear Modulus (GPa) = 27.08534 31.79249 29.43891
#
# Velocity S-wave (km/s) = 3.86358 4.18586 4.02794
# Velocity P-wave (km/s) = 7.04477 7.51232 7.28230
#
# Compressibility (1/GPa) = 0.01854000
#
# Stress axis : x y z
#
# Youngs Moduli (GPa) = 97.67579 51.08168 80.26329
#
# Poissons Ratio (x) = 0.14813 0.28649
# Poissons Ratio (y) = 0.28325 0.43322
# Poissons Ratio (z) = 0.34864 0.27571
#
# Static dielectric constant tensor:
#      x y z
#    x 3.436070 0.000000 -0.000180 
#    y 0.000000 3.497000 0.000000 
#    z -0.000180 0.000000 3.152950 
# 
# 
# High freq. dielectric constant tensor:
#      x y z
#    x 1.720790 0.000000 0.000800 
#    y 0.000000 1.690160 0.000000 
#    z 0.000800 0.000000 1.674680 
# 
# From -- ./inp_files/260170.got.cif
#   From: 2010.06.25/outbox.cif.g09.slc.cpg/sg12_131_cif.got.tgz:260170.got - 2010.06.28 00:19:55.
