data_PCOD8099609
_publ_section_title
;
Structure prediction by ZEFSAII (Michael W. Deem and Ramdas Pophale) SiO2 
 PCOD8099609
Probable space group: C 2/M
;
_chemical_formula_sum "Si O2"
_cell_formula_units_Z 64
_cell_length_a 30.746807
_cell_length_b 8.944401
_cell_length_c 25.155450
_cell_angle_alpha 90.000000
_cell_angle_beta 27.584005
_cell_angle_gamma 90.000000
_cell_volume 3203.391124
_symmetry_space_group_name_H-M "C 2/M"
_symmetry_group_IT_number 12
_symmetry_cell_setting 'monoclinic'
loop_
_space_group_symop_operation_xyz
x,y,z
-x,y,-z
-x,-y,-z
x,-y,z
1/2+x,1/2+y,z
1/2-x,1/2+y,-z
1/2-x,1/2-y,-z
1/2+x,1/2-y,z
loop_
_atom_site_type_symbol
_atom_site_label
_atom_site_fract_x
_atom_site_fract_y
_atom_site_fract_z
Si Si1 0.759427 0.675613 0.341496
Si Si2 0.679834 0.324028 0.617050
Si Si3 0.102701 0.676180 0.902375
Si Si4 0.978243 0.672854 0.269112
Si Si5 0.766265 0.677892 0.146715
Si Si6 0.570421 0.172735 0.558344
Si Si7 0.927878 0.673371 0.623106
Si Si8 0.307199 0.173846 0.984324
O O1 0.763155 0.500000 0.349720
O O2 0.798912 0.768085 0.347591
O O3 0.823375 0.721117 0.222749
O O4 0.652796 0.724965 0.445092
O O5 0.692800 0.500000 0.600504
O O6 0.750000 0.250000 0.500000
O O7 0.574994 0.276335 0.715288
O O8 0.090256 0.500000 0.919106
O O9 0.146343 0.733785 0.911171
O O10 0.000000 0.747583 0.000000
O O11 0.954617 0.500000 0.283414
O O12 0.948312 0.718574 0.360787
O O13 0.085820 0.708438 0.143810
O O14 0.762461 0.500000 0.151842
O O15 0.668676 0.736734 0.276218
O O16 0.781296 0.739117 0.070569
O O17 0.475010 0.202190 0.629338
O O18 0.600811 0.000000 0.520532
O O19 0.904298 0.500000 0.639541
O O20 0.000000 0.730648 0.500000
O O21 0.284148 0.000000 0.007731
O O22 0.250000 0.250000 0.000000
#
# Coordination Sequence:
#
# PCOD8099609 Si02
#       8
#     8   8   8   8   8   8   8   8
#     4  11  22  36  60  88 117 155 196 246 301 349
#     4  12  24  39  59  87 121 156 196 245 298 359
#     4   9  20  38  61  87 116 155 202 246 294 356
#     4  10  21  37  58  84 115 156 200 243 295 353
#     4  10  21  38  61  90 120 155 201 252 297 346
#     4  10  20  35  56  82 116 154 192 240 292 353
#     4  10  21  37  59  86 117 156 195 236 298 360
#     4  10  22  39  62  90 123 162 203 247 297 353
#
# _framework density 19.978829000000001
#
# number of rings (size 3 to 8) (size 9 to 14) (size 15 to 20)
#    0.000    1.750    1.250    3.000    1.750    2.750 
#    0.000    0.625    0.000    1.875    0.000    0.000 
#    0.000    0.000    0.000    0.000    0.000    0.000 
#
# Total GULP energy -396860.502910 kJ/mol
# GULP energy per Si atom -12401.890716 kJ/mol
# Density = 1.993336 g / cm^3
# Si number density = 19.978829 Si / 1000 Ang^3
#
#
#
# Elastic Constant Matrix: (Units=GPa)
#
#
# Indices 1 2 3 4 5 6 
#
# 1 147.4758 37.8394 61.7705 0.0010 -5.8611 -0.0006
# 2 37.8394 62.9225 39.7006 -0.0050 -1.6164 -0.0005
# 3 61.7705 39.7006 130.8663 0.0030 -2.9533 -0.0008
# 4 0.0010 -0.0050 0.0030 26.9891 0.0011 0.0389
# 5 -5.8611 -1.6164 -2.9533 0.0011 26.0495 -0.0029
# 6 -0.0006 -0.0005 -0.0008 0.0389 -0.0029 23.8167
#
#
#
# Elastic Compliance Matrix: (Units=1/GPa)
#
#
# Indices 1 2 3 4 5 6 
#
# 1 0.009052 -0.003378 -0.003215 -0.000001 0.001463 0.000000
# 2 -0.003378 0.020923 -0.004753 0.000005 -0.000001 0.000000
# 3 -0.003215 -0.004753 0.010605 -0.000002 0.000184 0.000000
# 4 -0.000001 0.000005 -0.000002 0.037052 -0.000002 -0.000061
# 5 0.001463 -0.000001 0.000184 -0.000002 0.038738 0.000005
# 6 0.000000 0.000000 0.000000 -0.000061 0.000005 0.041987
#
#
# Mechanical properties :
#
#
# Convention : Reuss Voigt Hill
#
# Bulk Modulus (GPa) = 55.90192 68.87619 62.38906
# Shear Modulus (GPa) = 26.73629 28.83466 27.78547
#
# Velocity S-wave (km/s) = 3.66215 3.80315 3.73332
# Velocity P-wave (km/s) = 6.77666 7.33721 7.06250
#
# Compressibility (1/GPa) = 0.01788847
#
# Stress axis : x y z
#
# Youngs Moduli (GPa) = 110.47093 47.79528 94.29508
#
# Poissons Ratio (x) = 0.16143 0.30317
# Poissons Ratio (y) = 0.37312 0.44819
# Poissons Ratio (z) = 0.35517 0.22717
#
# Static dielectric constant tensor:
#      x y z
#    x 3.969170 -0.000100 -0.118570 
#    y -0.000100 2.930930 0.000150 
#    z -0.118570 0.000150 3.544530 
# 
# 
# High freq. dielectric constant tensor:
#      x y z
#    x 1.799230 0.000000 -0.002010 
#    y 0.000000 1.755600 0.000000 
#    z -0.002010 0.000000 1.786700 
# 
# From -- ./inp_files/353374.got.cif
#   From: 2010.06.25/outbox.cif.g09.slc.cpg/sg12_177_cif.got.tgz:353374.got - 2010.06.28 00:19:55.
