data_PCOD8099527
_publ_section_title
;
Structure prediction by ZEFSAII (Michael W. Deem and Ramdas Pophale) SiO2 
 PCOD8099527
Probable space group: C 2/M
;
_chemical_formula_sum "Si O2"
_cell_formula_units_Z 56
_cell_length_a 17.783367
_cell_length_b 8.835694
_cell_length_c 18.559397
_cell_angle_alpha 90.000000
_cell_angle_beta 103.460471
_cell_angle_gamma 90.000000
_cell_volume 2836.102089
_symmetry_space_group_name_H-M "C 2/M"
_symmetry_group_IT_number 12
_symmetry_cell_setting 'monoclinic'
loop_
_space_group_symop_operation_xyz
x,y,z
-x,y,-z
-x,-y,-z
x,-y,z
1/2+x,1/2+y,z
1/2-x,1/2+y,-z
1/2-x,1/2-y,-z
1/2+x,1/2-y,z
loop_
_atom_site_type_symbol
_atom_site_label
_atom_site_fract_x
_atom_site_fract_y
_atom_site_fract_z
Si Si1 0.943113 0.672943 0.923998
Si Si2 0.732444 0.825980 0.071484
Si Si3 0.369692 0.679662 0.646884
Si Si4 0.846146 0.678869 0.208049
Si Si5 0.198426 0.679083 0.642298
Si Si6 0.508469 0.321711 0.208856
Si Si7 0.586042 0.320522 0.501260
O O1 0.960239 0.500000 0.904450
O O2 0.857434 0.692617 0.933765
O O3 0.955209 0.783970 0.859969
O O4 0.000000 0.724601 0.000000
O O5 0.777943 0.744401 0.144953
O O6 0.758107 0.000000 0.074061
O O7 0.750000 0.750000 0.000000
O O8 0.369818 0.500000 0.648247
O O9 0.285445 0.740862 0.650666
O O10 0.433235 0.740761 0.717148
O O11 0.391279 0.740536 0.572600
O O12 0.844790 0.500000 0.200235
O O13 0.831656 0.731419 0.286578
O O14 0.927446 0.739238 0.198922
O O15 0.195385 0.500000 0.632767
O O16 0.144704 0.752359 0.570934
O O17 0.495685 0.500000 0.213152
O O18 0.500000 0.263617 0.500000
O O19 0.591481 0.500000 0.506681
#
# Coordination Sequence:
#
# PCOD8099527 Si02
#       7
#     8   8   8   8   8   8   8
#     4  10  22  40  60  85 119 153 185 231 289 341
#     4  11  23  39  62  90 120 155 194 236 284 342
#     4   9  19  36  56  81 113 147 185 233 289 346
#     4  11  23  39  58  82 117 155 193 242 293 339
#     4  10  21  37  57  81 111 149 191 235 284 339
#     4  11  22  38  62  87 113 149 194 239 287 349
#     4  10  20  35  56  81 112 148 185 232 288 342
#
# _framework density 19.74541
#
# number of rings (size 3 to 8) (size 9 to 14) (size 15 to 20)
#    0.000    1.714    0.000    4.286    0.000    6.286 
#    0.000    2.857    0.000    0.000    0.000    0.000 
#    0.000    0.000    0.000    0.000    0.000    0.000 
#
# Total GULP energy -347344.778652 kJ/mol
# GULP energy per Si atom -12405.170666 kJ/mol
# Density = 1.970047 g / cm^3
# Si number density = 19.745410 Si / 1000 Ang^3
#
#
#
# Elastic Constant Matrix: (Units=GPa)
#
#
# Indices 1 2 3 4 5 6 
#
# 1 99.5433 29.2911 48.7540 0.0000 2.1296 0.0000
# 2 29.2911 54.2447 46.1126 0.0000 -1.6130 0.0000
# 3 48.7540 46.1126 163.7387 0.0000 6.7050 0.0000
# 4 0.0000 0.0000 0.0000 35.9570 0.0000 3.1961
# 5 2.1296 -1.6130 6.7050 0.0000 45.6297 0.0000
# 6 0.0000 0.0000 0.0000 3.1961 0.0000 17.9390
#
#
#
# Elastic Compliance Matrix: (Units=1/GPa)
#
#
# Indices 1 2 3 4 5 6 
#
# 1 0.012641 -0.004802 -0.002395 0.000000 -0.000408 0.000000
# 2 -0.004802 0.026222 -0.006038 0.000000 0.002038 0.000000
# 3 -0.002395 -0.006038 0.008577 0.000000 -0.001362 0.000000
# 4 0.000000 0.000000 0.000000 0.028258 0.000000 -0.005035
# 5 -0.000408 0.002038 -0.001362 0.000000 0.022207 0.000000
# 6 0.000000 0.000000 0.000000 -0.005035 0.000000 0.056641
#
#
# Mechanical properties :
#
#
# Convention : Reuss Voigt Hill
#
# Bulk Modulus (GPa) = 47.69008 62.87135 55.28072
# Shear Modulus (GPa) = 26.59504 32.79642 29.69573
#
# Velocity S-wave (km/s) = 3.67399 4.07991 3.88226
# Velocity P-wave (km/s) = 6.49635 7.35557 6.93927
#
# Compressibility (1/GPa) = 0.02096872
#
# Stress axis : x y z
#
# Youngs Moduli (GPa) = 79.11073 38.13649 116.59629
#
# Poissons Ratio (x) = 0.18313 0.27921
# Poissons Ratio (y) = 0.37989 0.70404
# Poissons Ratio (z) = 0.18945 0.23028
#
# Static dielectric constant tensor:
#      x y z
#    x 3.859420 0.000000 0.030100 
#    y 0.000000 3.491010 0.000000 
#    z 0.030100 0.000000 3.669100 
# 
# 
# High freq. dielectric constant tensor:
#      x y z
#    x 1.789830 0.000000 0.001210 
#    y 0.000000 1.755320 0.000000 
#    z 0.001210 0.000000 1.788820 
# 
# From -- ./inp_files/275632.got.cif
#   From: 2010.06.25/outbox.cif.g09.slc.cpg/sg12_138_cif.got.tgz:275632.got - 2010.06.28 00:19:55.
