data_PCOD8099862
_publ_section_title
;
Structure prediction by ZEFSAII (Michael W. Deem and Ramdas Pophale) SiO2 
 PCOD8099862
Probable space group: C 2/M
;
_chemical_formula_sum "Si O2"
_cell_formula_units_Z 56
_cell_length_a 14.819723
_cell_length_b 9.245890
_cell_length_c 24.329121
_cell_angle_alpha 90.000000
_cell_angle_beta 117.223984
_cell_angle_gamma 90.000000
_cell_volume 2964.332180
_symmetry_space_group_name_H-M "C 2/M"
_symmetry_group_IT_number 12
_symmetry_cell_setting 'monoclinic'
loop_
_space_group_symop_operation_xyz
x,y,z
-x,y,-z
-x,-y,-z
x,-y,z
1/2+x,1/2+y,z
1/2-x,1/2+y,-z
1/2-x,1/2-y,-z
1/2+x,1/2-y,z
loop_
_atom_site_type_symbol
_atom_site_label
_atom_site_fract_x
_atom_site_fract_y
_atom_site_fract_z
Si Si1 0.886592 0.168164 0.207880
Si Si2 0.473301 0.666717 0.114427
Si Si3 0.310223 0.329859 0.874349
Si Si4 0.574577 0.167659 0.568433
Si Si5 0.498273 0.669221 0.650633
Si Si6 0.889572 0.663007 0.995320
Si Si7 0.774837 0.833330 0.561792
O O1 0.951547 0.202777 0.171585
O O2 0.785656 0.264200 0.184065
O O3 0.957249 0.213793 0.278189
O O4 0.855383 0.000000 0.201398
O O5 0.452428 0.500000 0.094122
O O6 0.590239 0.705415 0.134110
O O7 0.395718 0.761254 0.056384
O O8 0.296015 0.500000 0.879166
O O9 0.315215 0.253662 0.935356
O O10 0.500000 0.227480 0.500000
O O11 0.560188 0.251715 0.620620
O O12 0.690205 0.196167 0.583864
O O13 0.550631 0.000000 0.572170
O O14 0.509138 0.500000 0.643180
O O15 0.381212 0.718968 0.616750
O O16 0.847240 0.500000 0.989937
O O17 0.000000 0.662521 0.000000
O O18 0.750000 0.750000 0.500000
O O19 0.778265 0.000000 0.546059
#
# Coordination Sequence:
#
# PCOD8099862 Si02
#       7
#     8   8   8   8   8   8   8
#     4  10  22  39  55  76 109 147 186 226 273 326
#     4   9  19  36  57  79 108 145 185 229 274 328
#     4  10  20  35  57  83 109 143 187 230 276 327
#     4  10  20  35  57  85 113 141 174 220 273 321
#     4  10  22  38  56  80 110 146 185 224 268 328
#     4   9  17  31  54  83 112 143 180 229 281 325
#     4  10  20  35  57  83 111 142 176 218 270 323
#
# _framework density 18.891269000000001
#
# number of rings (size 3 to 8) (size 9 to 14) (size 15 to 20)
#    0.000    2.286    1.429    0.857    0.000    6.000 
#    0.000    2.857    0.000    0.000    0.000    0.000 
#    0.000    0.000    0.000    0.000    0.000    0.000 
#
# Total GULP energy -347289.420773 kJ/mol
# GULP energy per Si atom -12403.193599 kJ/mol
# Density = 1.884827 g / cm^3
# Si number density = 18.891269 Si / 1000 Ang^3
#
#
#
# Elastic Constant Matrix: (Units=GPa)
#
#
# Indices 1 2 3 4 5 6 
#
# 1 91.2402 43.5727 63.0929 0.0000 2.5834 0.0000
# 2 43.5727 75.8875 62.5323 0.0000 0.8400 0.0000
# 3 63.0929 62.5323 156.0334 0.0000 -1.6638 0.0000
# 4 0.0000 0.0000 0.0000 33.2396 0.0000 -0.6023
# 5 2.5834 0.8400 -1.6638 0.0000 34.4421 0.0000
# 6 0.0000 0.0000 0.0000 -0.6023 0.0000 28.4605
#
#
#
# Elastic Compliance Matrix: (Units=1/GPa)
#
#
# Indices 1 2 3 4 5 6 
#
# 1 0.016968 -0.006065 -0.004445 0.000000 -0.001340 0.000000
# 2 -0.006065 0.021868 -0.006316 0.000000 -0.000383 0.000000
# 3 -0.004445 -0.006316 0.010748 0.000000 0.001007 0.000000
# 4 0.000000 0.000000 0.000000 0.030096 0.000000 0.000637
# 5 -0.001340 -0.000383 0.001007 0.000000 0.029193 0.000000
# 6 0.000000 0.000000 0.000000 0.000637 0.000000 0.035150
#
#
# Mechanical properties :
#
#
# Convention : Reuss Voigt Hill
#
# Bulk Modulus (GPa) = 62.76214 73.50632 68.13423
# Shear Modulus (GPa) = 27.32463 29.49266 28.40865
#
# Velocity S-wave (km/s) = 3.80730 3.95546 3.88209
# Velocity P-wave (km/s) = 7.25413 7.73664 7.49927
#
# Compressibility (1/GPa) = 0.01593317
#
# Stress axis : x y z
#
# Youngs Moduli (GPa) = 58.93417 45.72826 93.04192
#
# Poissons Ratio (x) = 0.27736 0.41354
# Poissons Ratio (y) = 0.35746 0.58761
# Poissons Ratio (z) = 0.26194 0.28880
#
# Static dielectric constant tensor:
#      x y z
#    x 3.497250 0.000000 0.109130 
#    y 0.000000 3.489010 0.000000 
#    z 0.109130 0.000000 3.495200 
# 
# 
# High freq. dielectric constant tensor:
#      x y z
#    x 1.737780 0.000000 0.003840 
#    y 0.000000 1.731650 0.000000 
#    z 0.003840 0.000000 1.730860 
# 
# From -- ./inp_files/338997.got.cif
#   From: 2010.06.25/outbox.cif.g09.slc.cpg/sg12_170_cif.got.tgz:338997.got - 2010.06.28 00:19:55.
