data_PCOD8099952
_publ_section_title
;
Structure prediction by ZEFSAII (Michael W. Deem and Ramdas Pophale) SiO2 
 PCOD8099952
Probable space group: C 2/M
;
_chemical_formula_sum "Si O2"
_cell_formula_units_Z 48
_cell_length_a 15.174964
_cell_length_b 8.414312
_cell_length_c 19.365440
_cell_angle_alpha 90.000000
_cell_angle_beta 102.192025
_cell_angle_gamma 90.000000
_cell_volume 2416.941352
_symmetry_space_group_name_H-M "C 2/M"
_symmetry_group_IT_number 12
_symmetry_cell_setting 'monoclinic'
loop_
_space_group_symop_operation_xyz
x,y,z
-x,y,-z
-x,-y,-z
x,-y,z
1/2+x,1/2+y,z
1/2-x,1/2+y,-z
1/2-x,1/2-y,-z
1/2+x,1/2-y,z
loop_
_atom_site_type_symbol
_atom_site_label
_atom_site_fract_x
_atom_site_fract_y
_atom_site_fract_z
Si Si1 0.566400 0.813189 0.914494
Si Si2 0.505367 0.812214 0.422464
Si Si3 0.616334 0.314184 0.067790
Si Si4 0.703646 0.187825 0.424143
Si Si5 0.670705 0.687475 0.675174
Si Si6 0.792682 0.813630 0.165092
O O1 0.463614 0.752372 0.897445
O O2 0.616602 0.721154 0.861845
O O3 0.568837 0.000000 0.900608
O O4 0.615384 0.776872 0.994866
O O5 0.500000 0.747311 0.500000
O O6 0.599912 0.757022 0.404900
O O7 0.428894 0.737930 0.362570
O O8 0.493648 0.000000 0.420388
O O9 0.601950 0.500000 0.051607
O O10 0.710929 0.285190 0.119776
O O11 0.750000 0.250000 0.500000
O O12 0.755645 0.258209 0.366155
O O13 0.709772 0.000000 0.426363
O O14 0.675640 0.500000 0.675821
O O15 0.693115 0.750883 0.755054
O O16 0.770153 0.000000 0.159073
#
# Coordination Sequence:
#
# PCOD8099952 Si02
#       6
#     8   8   8   8   8   8
#     4  11  22  39  63  91 120 158 202 246 297 352
#     4  10  20  35  57  84 113 145 186 237 291 347
#     4  11  22  39  63  92 122 157 199 246 296 352
#     4  10  20  36  57  82 110 144 185 233 287 343
#     4  10  23  39  57  83 115 152 194 239 292 349
#     4  11  23  40  58  84 123 161 202 250 298 353
#
# _framework density 19.859811000000001
#
# number of rings (size 3 to 8) (size 9 to 14) (size 15 to 20)
#    0.000    1.500    1.667    5.000    0.000    3.667 
#    0.000    1.667    0.000    0.000    0.000    0.000 
#    0.000    0.000    0.000    0.000    0.000    0.000 
#
# Total GULP energy -297695.255312 kJ/mol
# GULP energy per Si atom -12403.968971 kJ/mol
# Density = 1.981461 g / cm^3
# Si number density = 19.859811 Si / 1000 Ang^3
#
#
#
# Elastic Constant Matrix: (Units=GPa)
#
#
# Indices 1 2 3 4 5 6 
#
# 1 118.6992 9.2259 56.0764 0.0000 -27.6705 0.0000
# 2 9.2259 37.6081 5.7599 0.0000 -0.2236 0.0000
# 3 56.0764 5.7599 100.8249 0.0000 -28.3430 0.0000
# 4 0.0000 0.0000 0.0000 25.9097 0.0000 3.4058
# 5 -27.6705 -0.2236 -28.3430 0.0000 26.0621 0.0000
# 6 0.0000 0.0000 0.0000 3.4058 0.0000 33.0533
#
#
#
# Elastic Compliance Matrix: (Units=1/GPa)
#
#
# Indices 1 2 3 4 5 6 
#
# 1 0.012758 -0.002382 -0.004548 0.000000 0.008579 0.000000
# 2 -0.002382 0.027347 -0.001271 0.000000 -0.003677 0.000000
# 3 -0.004548 -0.001271 0.016074 0.000000 0.012641 0.000000
# 4 0.000000 0.000000 0.000000 0.039125 0.000000 -0.004031
# 5 0.008579 -0.003677 0.012641 0.000000 0.061194 0.000000
# 6 0.000000 0.000000 0.000000 -0.004031 0.000000 0.030670
#
#
# Mechanical properties :
#
#
# Convention : Reuss Voigt Hill
#
# Bulk Modulus (GPa) = 25.14027 44.36183 34.75105
# Shear Modulus (GPa) = 23.05953 29.40971 26.23462
#
# Velocity S-wave (km/s) = 3.41121 3.85238 3.63849
# Velocity P-wave (km/s) = 5.31051 6.49413 5.93191
#
# Compressibility (1/GPa) = 0.03977682
#
# Stress axis : x y z
#
# Youngs Moduli (GPa) = 78.37978 36.56678 62.21294
#
# Poissons Ratio (x) = 0.08711 0.28295
# Poissons Ratio (y) = 0.18672 0.07907
# Poissons Ratio (z) = 0.35648 0.04647
#
# Static dielectric constant tensor:
#      x y z
#    x 3.876700 0.000000 -0.226130 
#    y 0.000000 3.521700 0.000000 
#    z -0.226130 0.000000 3.799460 
# 
# 
# High freq. dielectric constant tensor:
#      x y z
#    x 1.790480 0.000000 -0.007170 
#    y 0.000000 1.771760 0.000000 
#    z -0.007170 0.000000 1.771560 
# 
# From -- ./inp_files/267697.got.cif
#   From: 2010.06.25/outbox.cif.g09.slc.cpg/sg12_134_cif.got.tgz:267697.got - 2010.06.28 00:19:55.
