data_PCOD8099825
_publ_section_title
;
Structure prediction by ZEFSAII (Michael W. Deem and Ramdas Pophale) SiO2 
 PCOD8099825
Probable space group: C 2/M
;
_chemical_formula_sum "Si O2"
_cell_formula_units_Z 40
_cell_length_a 9.979299
_cell_length_b 10.295093
_cell_length_c 19.152041
_cell_angle_alpha 90.000000
_cell_angle_beta 89.543121
_cell_angle_gamma 90.000000
_cell_volume 1967.576218
_symmetry_space_group_name_H-M "C 2/M"
_symmetry_group_IT_number 12
_symmetry_cell_setting 'monoclinic'
loop_
_space_group_symop_operation_xyz
x,y,z
-x,y,-z
-x,-y,-z
x,-y,z
1/2+x,1/2+y,z
1/2-x,1/2+y,-z
1/2-x,1/2-y,-z
1/2+x,1/2-y,z
loop_
_atom_site_type_symbol
_atom_site_label
_atom_site_fract_x
_atom_site_fract_y
_atom_site_fract_z
Si Si1 0.354835 0.351275 0.530650
Si Si2 0.614508 0.286950 0.904340
Si Si3 0.156848 0.860490 0.055756
Si Si4 0.836483 0.854925 0.249189
Si Si5 0.625707 0.350770 0.305297
O O1 0.500000 0.316678 0.500000
O O2 0.315600 0.500000 0.510776
O O3 0.250000 0.250000 0.500000
O O4 0.355904 0.332524 0.612995
O O5 0.703055 0.155553 0.903513
O O6 0.456719 0.258465 0.917484
O O7 0.638310 0.364535 0.833514
O O8 0.677177 0.360268 0.971884
O O9 0.097754 0.000000 0.077580
O O10 0.724021 0.748543 0.265962
O O11 0.973671 0.813285 0.286630
O O12 0.792424 0.000000 0.274362
O O13 0.656789 0.500000 0.282710
#
# Coordination Sequence:
#
# PCOD8099825 Si02
#       5
#     8   8   8   8   8
#     4  10  21  39  63  89 117 149 187 231 278 329
#     4  10  20  35  57  82 106 144 190 232 283 338
#     4  10  20  37  56  77 109 142 184 240 288 331
#     4  11  22  38  59  83 116 154 191 232 283 339
#     4  10  23  40  59  87 119 150 187 231 278 335
#
# _framework density 20.329578999999999
#
# number of rings (size 3 to 8) (size 9 to 14) (size 15 to 20)
#    0.000    1.800    0.000    4.800    0.000    6.000 
#    0.000   12.000    0.000    0.000    0.000    0.000 
#    0.000    0.000    0.000    0.000    0.000    0.000 
#
# Total GULP energy -247828.920176 kJ/mol
# GULP energy per Si atom -12391.446009 kJ/mol
# Density = 2.028331 g / cm^3
# Si number density = 20.329579 Si / 1000 Ang^3
#
#
#
# Elastic Constant Matrix: (Units=GPa)
#
#
# Indices 1 2 3 4 5 6 
#
# 1 107.7169 57.9285 20.5364 0.0000 2.0192 0.0000
# 2 57.9285 92.6935 24.7333 0.0000 0.7306 0.0000
# 3 20.5364 24.7333 69.0321 0.0000 -3.4043 0.0000
# 4 0.0000 0.0000 0.0000 13.2480 0.0000 -1.2618
# 5 2.0192 0.7306 -3.4043 0.0000 33.7472 0.0000
# 6 0.0000 0.0000 0.0000 -1.2618 0.0000 25.7316
#
#
#
# Elastic Compliance Matrix: (Units=1/GPa)
#
#
# Indices 1 2 3 4 5 6 
#
# 1 0.014085 -0.008478 -0.001191 0.000000 -0.000779 0.000000
# 2 -0.008478 0.017048 -0.003597 0.000000 -0.000225 0.000000
# 3 -0.001191 -0.003597 0.016217 0.000000 0.001785 0.000000
# 4 0.000000 0.000000 0.000000 0.075837 0.000000 0.003719
# 5 -0.000779 -0.000225 0.001785 0.000000 0.029864 0.000000
# 6 0.000000 0.000000 0.000000 0.003719 0.000000 0.039045
#
#
# Mechanical properties :
#
#
# Convention : Reuss Voigt Hill
#
# Bulk Modulus (GPa) = 48.03597 52.87098 50.45347
# Shear Modulus (GPa) = 22.16628 25.62830 23.89729
#
# Velocity S-wave (km/s) = 3.30562 3.55440 3.43227
# Velocity P-wave (km/s) = 6.18461 6.55045 6.37016
#
# Compressibility (1/GPa) = 0.02081773
#
# Stress axis : x y z
#
# Youngs Moduli (GPa) = 70.99875 58.65681 61.66336
#
# Poissons Ratio (x) = 0.49731 0.07343
# Poissons Ratio (y) = 0.60195 0.22181
# Poissons Ratio (z) = 0.08455 0.21099
#
# Static dielectric constant tensor:
#      x y z
#    x 3.738570 0.000000 0.074590 
#    y 0.000000 3.787080 0.000000 
#    z 0.074590 0.000000 3.752290 
# 
# 
# High freq. dielectric constant tensor:
#      x y z
#    x 1.798650 0.000000 0.002860 
#    y 0.000000 1.781430 0.000000 
#    z 0.002860 0.000000 1.803860 
# 
# From -- ./inp_files/254692.got.cif
#   From: 2010.06.25/outbox.cif.g09.slc.cpg/sg12_128_cif.got.tgz:254692.got - 2010.06.28 00:19:55.
