data_PCOD8099366
_publ_section_title
;
Structure prediction by ZEFSAII (Michael W. Deem and Ramdas Pophale) SiO2 
 PCOD8099366
Probable space group: C 2/M
;
_chemical_formula_sum "Si O2"
_cell_formula_units_Z 56
_cell_length_a 15.835403
_cell_length_b 14.970565
_cell_length_c 17.630986
_cell_angle_alpha 90.000000
_cell_angle_beta 45.067434
_cell_angle_gamma 90.000000
_cell_volume 2958.962451
_symmetry_space_group_name_H-M "C 2/M"
_symmetry_group_IT_number 12
_symmetry_cell_setting 'monoclinic'
loop_
_space_group_symop_operation_xyz
x,y,z
-x,y,-z
-x,-y,-z
x,-y,z
1/2+x,1/2+y,z
1/2-x,1/2+y,-z
1/2-x,1/2-y,-z
1/2+x,1/2-y,z
loop_
_atom_site_type_symbol
_atom_site_label
_atom_site_fract_x
_atom_site_fract_y
_atom_site_fract_z
Si Si1 0.991241 0.323519 0.189584
Si Si2 0.308106 0.102903 0.187187
Si Si3 0.965154 0.896818 0.607451
Si Si4 0.509859 0.898430 0.408348
Si Si5 0.314120 0.099429 0.828223
Si Si6 0.612203 0.251205 0.602337
Si Si7 0.613294 0.745235 0.973026
O O1 0.895915 0.380191 0.202011
O O2 0.919300 0.254226 0.288544
O O3 0.072750 0.389068 0.187983
O O4 0.077854 0.265218 0.081613
O O5 0.173610 0.127232 0.295630
O O6 0.343724 0.162860 0.092925
O O7 0.319150 0.000000 0.155057
O O8 0.000000 0.873751 0.500000
O O9 0.044940 0.837457 0.612400
O O10 0.990929 0.000000 0.610767
O O11 0.500000 0.861599 0.500000
O O12 0.642386 0.889876 0.287184
O O13 0.422650 0.840753 0.414091
O O14 0.464246 0.000000 0.434417
O O15 0.214780 0.171469 0.909332
O O16 0.262107 0.000000 0.873819
O O17 0.750000 0.250000 0.500000
O O18 0.500000 0.705727 0.000000
#
# Coordination Sequence:
#
# PCOD8099366 Si02
#       7
#     8   8   8   8   8   8   8
#     4  10  21  36  54  81 111 137 177 228 272 317
#     4  10  20  36  59  82 107 142 181 223 273 325
#     4  10  21  37  57  82 112 145 182 224 267 319
#     4   9  19  35  55  78 103 135 178 221 258 307
#     4  10  20  35  56  79 107 143 178 220 271 319
#     4  11  22  35  56  81 110 144 174 214 271 324
#     4  10  22  37  54  78 110 143 182 226 265 319
#
# _framework density 18.925552
#
# number of rings (size 3 to 8) (size 9 to 14) (size 15 to 20)
#    0.000    2.000    0.000    3.857    0.000    6.857 
#    0.000    2.143    0.000    0.857    0.000    0.000 
#    0.000    0.000    0.000    0.000    0.000    0.000 
#
# Total GULP energy -347163.731842 kJ/mol
# GULP energy per Si atom -12398.704709 kJ/mol
# Density = 1.888248 g / cm^3
# Si number density = 18.925552 Si / 1000 Ang^3
#
#
#
# Elastic Constant Matrix: (Units=GPa)
#
#
# Indices 1 2 3 4 5 6 
#
# 1 83.4340 53.5460 62.8358 0.0000 -9.4123 0.0000
# 2 53.5460 108.3448 63.9626 0.0000 -7.1616 0.0000
# 3 62.8358 63.9626 159.7821 0.0000 5.0917 0.0000
# 4 0.0000 0.0000 0.0000 13.2223 0.0000 10.0244
# 5 -9.4123 -7.1616 5.0917 0.0000 38.7932 0.0000
# 6 0.0000 0.0000 0.0000 10.0244 0.0000 15.1392
#
#
#
# Elastic Compliance Matrix: (Units=1/GPa)
#
#
# Indices 1 2 3 4 5 6 
#
# 1 0.021201 -0.006758 -0.005781 0.000000 0.004655 0.000000
# 2 -0.006758 0.014569 -0.003221 0.000000 0.001473 0.000000
# 3 -0.005781 -0.003221 0.009927 0.000000 -0.003300 0.000000
# 4 0.000000 0.000000 0.000000 0.151869 0.000000 -0.100560
# 5 0.004655 0.001473 -0.003300 0.000000 0.027612 0.000000
# 6 0.000000 0.000000 0.000000 -0.100560 0.000000 0.132639
#
#
# Mechanical properties :
#
#
# Convention : Reuss Voigt Hill
#
# Bulk Modulus (GPa) = 70.53744 79.13885 74.83814
# Shear Modulus (GPa) = 12.68836 24.84538 18.76687
#
# Velocity S-wave (km/s) = 2.59209 3.62718 3.15241
# Velocity P-wave (km/s) = 6.80518 7.71029 7.27183
#
# Compressibility (1/GPa) = 0.01417687
#
# Stress axis : x y z
#
# Youngs Moduli (GPa) = 47.16734 68.64049 100.73926
#
# Poissons Ratio (x) = 0.46384 0.58235
# Poissons Ratio (y) = 0.31873 0.32453
# Poissons Ratio (z) = 0.27266 0.22112
#
# Static dielectric constant tensor:
#      x y z
#    x 3.421320 0.000000 0.098990 
#    y 0.000000 3.666460 0.000000 
#    z 0.098990 0.000000 3.896240 
# 
# 
# High freq. dielectric constant tensor:
#      x y z
#    x 1.725800 0.000000 0.001800 
#    y 0.000000 1.736860 0.000000 
#    z 0.001800 0.000000 1.754820 
# 
# From -- ./inp_files/270197.got.cif
#   From: 2010.06.25/outbox.cif.g09.slc.cpg/sg12_136_cif.got.tgz:270197.got - 2010.06.28 00:19:55.
