data_PCOD8099237
_publ_section_title
;
Structure prediction by ZEFSAII (Michael W. Deem and Ramdas Pophale) SiO2 
 PCOD8099237
Probable space group: C 2/M
;
_chemical_formula_sum "Si O2"
_cell_formula_units_Z 64
_cell_length_a 20.993898
_cell_length_b 9.157947
_cell_length_c 19.017378
_cell_angle_alpha 90.000000
_cell_angle_beta 123.770364
_cell_angle_gamma 90.000000
_cell_volume 3039.380353
_symmetry_space_group_name_H-M "C 2/M"
_symmetry_group_IT_number 12
_symmetry_cell_setting 'monoclinic'
loop_
_space_group_symop_operation_xyz
x,y,z
-x,y,-z
-x,-y,-z
x,-y,z
1/2+x,1/2+y,z
1/2-x,1/2+y,-z
1/2-x,1/2-y,-z
1/2+x,1/2-y,z
loop_
_atom_site_type_symbol
_atom_site_label
_atom_site_fract_x
_atom_site_fract_y
_atom_site_fract_z
Si Si1 0.944092 0.168045 0.706980
Si Si2 0.818041 0.829975 0.846983
Si Si3 0.283810 0.829322 0.587626
Si Si4 0.292124 0.335911 0.314374
Si Si5 0.476308 0.667148 0.886198
Si Si6 0.304958 0.835552 0.087833
Si Si7 0.399397 0.332566 0.261389
Si Si8 0.882068 0.339511 0.000135
O O1 0.868042 0.266050 0.655456
O O2 0.981923 0.185952 0.806239
O O3 0.012102 0.219531 0.694929
O O4 0.919788 0.000000 0.677702
O O5 0.753274 0.787319 0.753904
O O6 0.895908 0.767609 0.862022
O O7 0.810412 0.752607 0.919694
O O8 0.818312 0.000000 0.856918
O O9 0.250000 0.750000 0.500000
O O10 0.220265 0.803156 0.610570
O O11 0.293370 0.000000 0.578006
O O12 0.261287 0.500000 0.280324
O O13 0.377717 0.321622 0.332200
O O14 0.485644 0.500000 0.913870
O O15 0.540685 0.752739 0.968949
O O16 0.335639 0.756713 0.177367
O O17 0.274690 0.000000 0.089232
O O18 0.250000 0.750000 0.000000
O O19 0.378137 0.852939 0.081589
O O20 0.393917 0.500000 0.231775
O O21 0.883091 0.500000 0.965814
#
# Coordination Sequence:
#
# PCOD8099237 Si02
#       8
#     8   8   8   8   8   8   8   8
#     4  10  20  39  66  93 123 159 200 247 303 364
#     4  11  22  35  54  81 116 157 202 252 303 355
#     4  11  24  43  70  99 128 157 192 240 296 366
#     4  10  22  40  62  91 122 155 198 246 299 355
#     4  10  20  35  55  81 112 152 201 249 300 356
#     4  11  23  36  51  75 111 158 211 260 303 351
#     4  10  21  39  63  88 119 160 204 251 302 357
#     4  11  23  35  49  75 113 155 204 257 303 349
#
# _framework density 21.056925
#
# number of rings (size 3 to 8) (size 9 to 14) (size 15 to 20)
#    0.000    1.500    2.500    2.625    0.000    9.000 
#    0.000    0.625    0.000    3.750    0.000    0.000 
#    0.000    0.000    0.000    0.000    0.000    0.000 
#
# Total GULP energy -396464.974158 kJ/mol
# GULP energy per Si atom -12389.530442 kJ/mol
# Density = 2.100900 g / cm^3
# Si number density = 21.056925 Si / 1000 Ang^3
#
#
#
# Elastic Constant Matrix: (Units=GPa)
#
#
# Indices 1 2 3 4 5 6 
#
# 1 116.7205 21.3471 35.7764 0.0000 -22.1096 0.0000
# 2 21.3471 100.9627 35.8723 0.0000 -4.6685 0.0000
# 3 35.7764 35.8723 65.9035 0.0000 -13.7110 0.0000
# 4 0.0000 0.0000 0.0000 32.5286 0.0000 0.6841
# 5 -22.1096 -4.6685 -13.7110 0.0000 29.2717 0.0000
# 6 0.0000 0.0000 0.0000 0.6841 0.0000 22.9271
#
#
#
# Elastic Compliance Matrix: (Units=1/GPa)
#
#
# Indices 1 2 3 4 5 6 
#
# 1 0.011234 -0.000474 -0.004533 0.000000 0.006287 0.000000
# 2 -0.000474 0.012344 -0.006788 0.000000 -0.001569 0.000000
# 3 -0.004533 -0.006788 0.022593 0.000000 0.006077 0.000000
# 4 0.000000 0.000000 0.000000 0.030762 0.000000 -0.000918
# 5 0.006287 -0.001569 0.006077 0.000000 0.041507 0.000000
# 6 0.000000 0.000000 0.000000 -0.000918 0.000000 0.043644
#
#
# Mechanical properties :
#
#
# Convention : Reuss Voigt Hill
#
# Bulk Modulus (GPa) = 44.28296 52.17536 48.22916
# Shear Modulus (GPa) = 25.87966 29.65155 27.76561
#
# Velocity S-wave (km/s) = 3.50956 3.75662 3.63519
# Velocity P-wave (km/s) = 6.12360 6.60668 6.36972
#
# Compressibility (1/GPa) = 0.02258205
#
# Stress axis : x y z
#
# Youngs Moduli (GPa) = 89.01236 81.00976 44.26079
#
# Poissons Ratio (x) = 0.03841 0.20062
# Poissons Ratio (y) = 0.04221 0.30045
# Poissons Ratio (z) = 0.40346 0.54990
#
# Static dielectric constant tensor:
#      x y z
#    x 4.575500 0.000000 -0.213690 
#    y 0.000000 3.869130 0.000000 
#    z -0.213690 0.000000 3.424880 
# 
# 
# High freq. dielectric constant tensor:
#      x y z
#    x 1.861290 0.000000 -0.014110 
#    y 0.000000 1.825930 0.000000 
#    z -0.014110 0.000000 1.781890 
# 
# From -- ./inp_files/324219.got.cif
#   From: 2010.06.25/outbox.cif.g09.slc.cpg/sg12_163_cif.got.tgz:324219.got - 2010.06.28 00:19:55.
