data_PCOD8099053
_publ_section_title
;
Structure prediction by ZEFSAII (Michael W. Deem and Ramdas Pophale) SiO2 
 PCOD8099053
Probable space group: C 2/M
;
_chemical_formula_sum "Si O2"
_cell_formula_units_Z 56
_cell_length_a 29.359700
_cell_length_b 8.970485
_cell_length_c 20.430187
_cell_angle_alpha 90.000000
_cell_angle_beta 147.313350
_cell_angle_gamma 90.000000
_cell_volume 2905.823369
_symmetry_space_group_name_H-M "C 2/M"
_symmetry_group_IT_number 12
_symmetry_cell_setting 'monoclinic'
loop_
_space_group_symop_operation_xyz
x,y,z
-x,y,-z
-x,-y,-z
x,-y,z
1/2+x,1/2+y,z
1/2-x,1/2+y,-z
1/2-x,1/2-y,-z
1/2+x,1/2-y,z
loop_
_atom_site_type_symbol
_atom_site_label
_atom_site_fract_x
_atom_site_fract_y
_atom_site_fract_z
Si Si1 0.322035 0.172067 0.731616
Si Si2 0.854902 0.177638 0.434506
Si Si3 0.545678 0.177038 0.208313
Si Si4 0.171746 0.327352 0.871571
Si Si5 0.796507 0.674547 0.237036
Si Si6 0.373736 0.173276 0.937754
Si Si7 0.513338 0.175594 0.314961
O O1 0.228326 0.240179 0.627822
O O2 0.373641 0.245234 0.733310
O O3 0.376813 0.195242 0.863381
O O4 0.309758 0.000000 0.700964
O O5 0.853522 0.240555 0.359271
O O6 0.937847 0.234761 0.570454
O O7 0.854243 0.000000 0.429730
O O8 0.550363 0.225264 0.289517
O O9 0.544957 0.000000 0.200177
O O10 0.459997 0.237434 0.072004
O O11 0.187883 0.500000 0.901476
O O12 0.164051 0.288370 0.785713
O O13 0.084669 0.278185 0.800716
O O14 0.250000 0.250000 0.000000
O O15 0.797757 0.500000 0.254414
O O16 0.700988 0.732198 0.121031
O O17 0.359042 0.000000 0.937974
O O18 0.524572 0.000000 0.340971
#
# Coordination Sequence:
#
# PCOD8099053 Si02
#       7
#     8   8   8   8   8   8   8
#     4   8  15  28  49  77 104 132 171 215 255 300
#     4  10  21  37  55  76 102 134 176 219 256 300
#     4   9  16  28  50  77 104 138 174 209 255 308
#     4  10  22  38  57  82 109 137 168 207 255 307
#     4  10  20  35  55  77 105 139 171 209 260 308
#     4   9  16  29  52  80 107 134 171 215 254 302
#     4  10  21  36  53  75 105 138 173 213 257 306
#
# _framework density 19.271647000000002
#
# number of rings (size 3 to 8) (size 9 to 14) (size 15 to 20)
#    0.000    2.571    0.000    3.000    0.000    5.714 
#    0.000    3.571    0.000   11.143    0.000    0.000 
#    0.000    0.000    0.000    0.000    0.000    0.000 
#
# Total GULP energy -347153.439300 kJ/mol
# GULP energy per Si atom -12398.337118 kJ/mol
# Density = 1.922778 g / cm^3
# Si number density = 19.271647 Si / 1000 Ang^3
#
#
#
# Elastic Constant Matrix: (Units=GPa)
#
#
# Indices 1 2 3 4 5 6 
#
# 1 108.8627 39.2123 35.9110 0.0000 -3.3613 0.0000
# 2 39.2123 51.5665 39.1706 0.0000 -4.8124 0.0000
# 3 35.9110 39.1706 116.1343 0.0000 -9.4090 0.0000
# 4 0.0000 0.0000 0.0000 29.6422 0.0000 -0.4768
# 5 -3.3613 -4.8124 -9.4090 0.0000 16.4777 0.0000
# 6 0.0000 0.0000 0.0000 -0.4768 0.0000 19.4816
#
#
#
# Elastic Compliance Matrix: (Units=1/GPa)
#
#
# Indices 1 2 3 4 5 6 
#
# 1 0.012726 -0.009016 -0.000941 0.000000 -0.000574 0.000000
# 2 -0.009016 0.032577 -0.007946 0.000000 0.003138 0.000000
# 3 -0.000941 -0.007946 0.011930 0.000000 0.004300 0.000000
# 4 0.000000 0.000000 0.000000 0.033749 0.000000 0.000826
# 5 -0.000574 0.003138 0.004300 0.000000 0.063943 0.000000
# 6 0.000000 0.000000 0.000000 0.000826 0.000000 0.051351
#
#
# Mechanical properties :
#
#
# Convention : Reuss Voigt Hill
#
# Bulk Modulus (GPa) = 46.66780 56.12793 51.39787
# Shear Modulus (GPa) = 20.06235 23.93827 22.00031
#
# Velocity S-wave (km/s) = 3.23000 3.52824 3.38241
# Velocity P-wave (km/s) = 6.17891 6.76652 6.47938
#
# Compressibility (1/GPa) = 0.02142805
#
# Stress axis : x y z
#
# Youngs Moduli (GPa) = 78.57865 30.69644 83.82318
#
# Poissons Ratio (x) = 0.27677 0.07884
# Poissons Ratio (y) = 0.70849 0.66602
# Poissons Ratio (z) = 0.07391 0.24390
#
# Static dielectric constant tensor:
#      x y z
#    x 3.937150 0.000000 0.146160 
#    y 0.000000 3.197290 0.000000 
#    z 0.146160 0.000000 3.499380 
# 
# 
# High freq. dielectric constant tensor:
#      x y z
#    x 1.760800 0.000000 -0.000360 
#    y 0.000000 1.714370 0.000000 
#    z -0.000360 0.000000 1.749810 
# 
# From -- ./inp_files/237485.got.cif
#   From: 2010.06.25/outbox.cif.g09.slc.cpg/sg12_119_cif.got.tgz:237485.got - 2010.06.28 00:19:55.
