data_PCOD8099971
_publ_section_title
;
Structure prediction by ZEFSAII (Michael W. Deem and Ramdas Pophale) SiO2 
 PCOD8099971
Probable space group: C 2/M
;
_chemical_formula_sum "Si O2"
_cell_formula_units_Z 64
_cell_length_a 30.626662
_cell_length_b 9.267889
_cell_length_c 19.526506
_cell_angle_alpha 90.000000
_cell_angle_beta 142.653206
_cell_angle_gamma 90.000000
_cell_volume 3362.285175
_symmetry_space_group_name_H-M "C 2/M"
_symmetry_group_IT_number 12
_symmetry_cell_setting 'monoclinic'
loop_
_space_group_symop_operation_xyz
x,y,z
-x,y,-z
-x,-y,-z
x,-y,z
1/2+x,1/2+y,z
1/2-x,1/2+y,-z
1/2-x,1/2-y,-z
1/2+x,1/2-y,z
loop_
_atom_site_type_symbol
_atom_site_label
_atom_site_fract_x
_atom_site_fract_y
_atom_site_fract_z
Si Si1 0.550867 0.671079 0.504447
Si Si2 0.194945 0.831346 0.883713
Si Si3 0.286932 0.667836 0.731879
Si Si4 0.706031 0.329596 0.740756
Si Si5 0.536128 0.330707 0.734743
Si Si6 0.058438 0.166600 0.131167
Si Si7 0.457256 0.170442 0.749486
Si Si8 0.201210 0.332504 0.492416
O O1 0.500000 0.737969 0.500000
O O2 0.549751 0.500000 0.510731
O O3 0.631537 0.728689 0.615411
O O4 0.521837 0.718339 0.394334
O O5 0.208967 0.782914 0.823394
O O6 0.114403 0.789261 0.804506
O O7 0.207845 0.000000 0.908522
O O8 0.250000 0.750000 0.000000
O O9 0.287453 0.500000 0.751021
O O10 0.271245 0.754657 0.781784
O O11 0.364229 0.716996 0.800175
O O12 0.226041 0.706686 0.600000
O O13 0.713431 0.500000 0.741722
O O14 0.530140 0.500000 0.743532
O O15 0.520774 0.240958 0.784114
O O16 0.037104 0.266219 0.167784
O O17 0.061061 0.000000 0.158234
O O18 0.000000 0.191439 0.000000
O O19 0.381372 0.213282 0.620300
O O20 0.468828 0.000000 0.767214
O O21 0.212868 0.500000 0.491747
O O22 0.250000 0.250000 0.500000
#
# Coordination Sequence:
#
# PCOD8099971 Si02
#       8
#     8   8   8   8   8   8   8   8
#     4   9  15  30  58  86 110 139 181 231 276 323
#     4  10  22  39  58  82 112 149 193 235 274 326
#     4  10  21  37  57  83 115 146 181 229 279 333
#     4  10  20  35  58  86 112 141 183 231 278 331
#     4  10  20  36  60  85 112 149 189 228 277 339
#     4  10  22  41  62  81 106 148 198 237 274 331
#     4  11  23  37  57  87 119 147 182 233 288 338
#     4  10  20  35  57  84 115 149 184 225 279 341
#
# _framework density 19.034673000000002
#
# number of rings (size 3 to 8) (size 9 to 14) (size 15 to 20)
#    0.000    2.000    2.500    1.125    0.000    3.750 
#    0.000    3.750    0.000    0.750    0.000    0.000 
#    0.000    0.000    0.000    0.000    0.000    0.000 
#
# Total GULP energy -396902.123647 kJ/mol
# GULP energy per Si atom -12403.191364 kJ/mol
# Density = 1.899135 g / cm^3
# Si number density = 19.034673 Si / 1000 Ang^3
#
#
#
# Elastic Constant Matrix: (Units=GPa)
#
#
# Indices 1 2 3 4 5 6 
#
# 1 139.7610 56.0539 36.6932 0.0000 -28.9179 0.0000
# 2 56.0539 52.3225 34.9361 0.0000 -11.9582 0.0000
# 3 36.6932 34.9361 102.1932 0.0000 -16.0362 0.0000
# 4 0.0000 0.0000 0.0000 26.0489 0.0000 -1.6827
# 5 -28.9179 -11.9582 -16.0362 0.0000 16.5313 0.0000
# 6 0.0000 0.0000 0.0000 -1.6827 0.0000 35.4407
#
#
#
# Elastic Compliance Matrix: (Units=1/GPa)
#
#
# Indices 1 2 3 4 5 6 
#
# 1 0.016800 -0.014743 0.002295 0.000000 0.020950 0.000000
# 2 -0.014743 0.039685 -0.009219 0.000000 -0.006025 0.000000
# 3 0.002295 -0.009219 0.013797 0.000000 0.010730 0.000000
# 4 0.000000 0.000000 0.000000 0.038508 0.000000 0.001828
# 5 0.020950 -0.006025 0.010730 0.000000 0.103190 0.000000
# 6 0.000000 0.000000 0.000000 0.001828 0.000000 0.028303
#
#
# Mechanical properties :
#
#
# Convention : Reuss Voigt Hill
#
# Bulk Modulus (GPa) = 37.10698 61.07147 49.08922
# Shear Modulus (GPa) = 17.08835 26.71041 21.89938
#
# Velocity S-wave (km/s) = 2.99950 3.75006 3.39558
# Velocity P-wave (km/s) = 5.61540 7.13475 6.42018
#
# Compressibility (1/GPa) = 0.02694911
#
# Stress axis : x y z
#
# Youngs Moduli (GPa) = 59.52326 25.19857 72.48177
#
# Poissons Ratio (x) = 0.37150 -0.16637
# Poissons Ratio (y) = 0.87754 0.66820
# Poissons Ratio (z) = -0.13663 0.23230
#
# Static dielectric constant tensor:
#      x y z
#    x 3.521820 0.000000 0.003170 
#    y 0.000000 3.255270 0.000000 
#    z 0.003170 0.000000 3.369290 
# 
# 
# High freq. dielectric constant tensor:
#      x y z
#    x 1.751570 0.000000 -0.001430 
#    y 0.000000 1.718420 0.000000 
#    z -0.001430 0.000000 1.742440 
# 
# From -- ./inp_files/295841.got.cif
#   From: 2010.06.25/outbox.cif.g09.slc.cpg/sg12_148_cif.got.tgz:295841.got - 2010.06.28 00:19:55.
