data_PCOD8099427
_publ_section_title
;
Structure prediction by ZEFSAII (Michael W. Deem and Ramdas Pophale) SiO2 
 PCOD8099427
Probable space group: C 2/M
;
_chemical_formula_sum "Si O2"
_cell_formula_units_Z 64
_cell_length_a 18.828118
_cell_length_b 8.787653
_cell_length_c 22.274588
_cell_angle_alpha 90.000000
_cell_angle_beta 63.671659
_cell_angle_gamma 90.000000
_cell_volume 3303.139944
_symmetry_space_group_name_H-M "C 2/M"
_symmetry_group_IT_number 12
_symmetry_cell_setting 'monoclinic'
loop_
_space_group_symop_operation_xyz
x,y,z
-x,y,-z
-x,-y,-z
x,-y,z
1/2+x,1/2+y,z
1/2-x,1/2+y,-z
1/2-x,1/2-y,-z
1/2+x,1/2-y,z
loop_
_atom_site_type_symbol
_atom_site_label
_atom_site_fract_x
_atom_site_fract_y
_atom_site_fract_z
Si Si1 0.232133 0.327215 0.751830
Si Si2 0.881387 0.675990 0.647097
Si Si3 0.381326 0.177152 0.099475
Si Si4 0.165867 0.680011 0.016046
Si Si5 0.078415 0.324568 0.734882
Si Si6 0.542801 0.320664 0.624619
Si Si7 0.984537 0.820696 0.874504
Si Si8 0.592184 0.332278 0.479525
O O1 0.264103 0.500000 0.737899
O O2 0.303407 0.210960 0.714710
O O3 0.194614 0.289444 0.830515
O O4 0.166997 0.300786 0.725096
O O5 0.903006 0.500000 0.644100
O O6 0.865639 0.718194 0.582868
O O7 0.952233 0.773822 0.647892
O O8 0.457484 0.269226 0.093620
O O9 0.404793 0.000000 0.094139
O O10 0.359378 0.230462 0.041299
O O11 0.171164 0.500000 0.019788
O O12 0.101150 0.744162 0.086282
O O13 0.250000 0.750000 0.000000
O O14 0.052693 0.500000 0.748836
O O15 0.078472 0.268825 0.666928
O O16 0.017250 0.227955 0.797417
O O17 0.544996 0.500000 0.635662
O O18 0.598200 0.276824 0.546483
O O19 0.974466 0.000000 0.880219
O O20 0.500000 0.342425 0.500000
O O21 0.630606 0.500000 0.457415
#
# Coordination Sequence:
#
# PCOD8099427 Si02
#       8
#     8   8   8   8   8   8   8   8
#     4   9  19  37  57  77 106 142 180 224 275 325
#     4  11  21  32  52  81 110 142 183 227 269 320
#     4   9  20  39  61  81 105 144 186 225 270 320
#     4  11  23  39  58  83 116 147 182 229 277 322
#     4  10  21  38  59  82 109 142 181 225 271 320
#     4  10  20  35  56  80 108 142 180 224 275 328
#     4  11  22  37  59  84 111 145 183 221 267 327
#     4   8  16  32  52  74 103 141 181 222 271 324
#
# _framework density 19.375503999999999
#
# number of rings (size 3 to 8) (size 9 to 14) (size 15 to 20)
#    0.000    2.125    0.000    5.250    0.000    8.750 
#    0.000    4.375    0.000    0.000    0.000    0.000 
#    0.000    0.000    0.000    0.000    0.000    0.000 
#
# Total GULP energy -396852.280178 kJ/mol
# GULP energy per Si atom -12401.633756 kJ/mol
# Density = 1.933140 g / cm^3
# Si number density = 19.375504 Si / 1000 Ang^3
#
#
#
# Elastic Constant Matrix: (Units=GPa)
#
#
# Indices 1 2 3 4 5 6 
#
# 1 24.7372 16.2294 0.4014 0.0001 0.2248 0.0004
# 2 16.2294 67.3311 11.1527 0.0002 -0.6625 0.0007
# 3 0.4014 11.1527 42.4537 0.0001 5.7909 0.0001
# 4 0.0001 0.0002 0.0001 31.3090 0.0000 0.7191
# 5 0.2248 -0.6625 5.7909 0.0000 34.4444 0.0001
# 6 0.0004 0.0007 0.0001 0.7191 0.0001 31.6263
#
#
#
# Elastic Compliance Matrix: (Units=1/GPa)
#
#
# Indices 1 2 3 4 5 6 
#
# 1 0.048353 -0.012141 0.002873 0.000000 -0.001032 0.000000
# 2 -0.012141 0.018610 -0.004947 0.000000 0.001269 0.000000
# 3 0.002873 -0.004947 0.025426 0.000000 -0.004389 0.000000
# 4 0.000000 0.000000 0.000000 0.031956 0.000000 -0.000727
# 5 -0.001032 0.001269 -0.004389 0.000000 0.029801 0.000000
# 6 0.000000 0.000000 0.000000 -0.000727 0.000000 0.031636
#
#
# Mechanical properties :
#
#
# Convention : Reuss Voigt Hill
#
# Bulk Modulus (GPa) = 15.63492 21.12099 18.37795
# Shear Modulus (GPa) = 21.22843 26.59186 23.91014
#
# Velocity S-wave (km/s) = 3.31362 3.70867 3.51670
# Velocity P-wave (km/s) = 4.76729 5.40958 5.09856
#
# Compressibility (1/GPa) = 0.06395938
#
# Stress axis : x y z
#
# Youngs Moduli (GPa) = 20.68118 53.73351 39.32952
#
# Poissons Ratio (x) = 0.65238 -0.11300
# Poissons Ratio (y) = 0.25109 0.19458
# Poissons Ratio (z) = -0.05942 0.26584
#
# Static dielectric constant tensor:
#      x y z
#    x 3.319770 0.000000 0.149610 
#    y 0.000000 3.491280 0.000000 
#    z 0.149610 0.000000 3.826880 
# 
# 
# High freq. dielectric constant tensor:
#      x y z
#    x 1.732790 0.000000 0.003210 
#    y 0.000000 1.756060 0.000000 
#    z 0.003210 0.000000 1.766420 
# 
# From -- ./inp_files/319860.got.cif
#   From: 2010.06.25/outbox.cif.g09.slc.cpg/sg12_160_cif.got.tgz:319860.got - 2010.06.28 00:19:55.
