data_PCOD8099301
_publ_section_title
;
Structure prediction by ZEFSAII (Michael W. Deem and Ramdas Pophale) SiO2 
 PCOD8099301
Probable space group: C 2/M
;
_chemical_formula_sum "Si O2"
_cell_formula_units_Z 48
_cell_length_a 12.257069
_cell_length_b 20.681089
_cell_length_c 17.357264
_cell_angle_alpha 90.000000
_cell_angle_beta 145.562566
_cell_angle_gamma 90.000000
_cell_volume 2488.161100
_symmetry_space_group_name_H-M "C 2/M"
_symmetry_group_IT_number 12
_symmetry_cell_setting 'monoclinic'
loop_
_space_group_symop_operation_xyz
x,y,z
-x,y,-z
-x,-y,-z
x,-y,z
1/2+x,1/2+y,z
1/2-x,1/2+y,-z
1/2-x,1/2-y,-z
1/2+x,1/2-y,z
loop_
_atom_site_type_symbol
_atom_site_label
_atom_site_fract_x
_atom_site_fract_y
_atom_site_fract_z
Si Si1 0.444552 0.574090 0.111682
Si Si2 0.834245 0.073069 0.455412
Si Si3 0.173010 0.179634 0.158961
Si Si4 0.388122 0.573805 0.255208
Si Si5 0.078918 0.627981 0.822658
Si Si6 0.605452 0.181825 0.142076
O O1 0.518510 0.500000 0.149958
O O2 0.616902 0.621605 0.184745
O O3 0.395750 0.594025 0.170679
O O4 0.252612 0.579164 0.946835
O O5 0.621737 0.097624 0.317748
O O6 0.000000 0.108221 0.500000
O O7 0.898430 0.079434 0.582543
O O8 0.825740 0.000000 0.422339
O O9 0.364351 0.165509 0.221806
O O10 0.208916 0.249228 0.220564
O O11 0.000000 0.189074 0.000000
O O12 0.309775 0.500000 0.217538
O O13 0.249202 0.620834 0.223034
O O14 0.048638 0.673848 0.878821
O O15 0.500000 0.184304 0.000000
#
# Coordination Sequence:
#
# PCOD8099301 Si02
#       6
#     8   8   8   8   8   8
#     4  10  21  38  61  89 117 147 193 240 281 340
#     4  10  20  35  55  84 119 148 183 234 295 344
#     4   9  23  37  57  87 117 156 188 233 293 338
#     4  10  21  36  57  85 119 153 184 238 293 333
#     4  11  21  36  60  86 110 154 193 233 289 334
#     4  11  21  35  59  86 119 148 193 240 283 346
#
# _framework density 19.291356
#
# number of rings (size 3 to 8) (size 9 to 14) (size 15 to 20)
#    0.000    1.833    3.333    0.500    2.333    6.667 
#    0.000    1.667    3.667    3.000    0.000    0.000 
#    0.000    0.000    0.000    0.000    0.000    0.000 
#
# Total GULP energy -297379.775287 kJ/mol
# GULP energy per Si atom -12390.823970 kJ/mol
# Density = 1.924745 g / cm^3
# Si number density = 19.291356 Si / 1000 Ang^3
#
#
#
# Elastic Constant Matrix: (Units=GPa)
#
#
# Indices 1 2 3 4 5 6 
#
# 1 115.2400 63.6485 26.8952 -0.0024 22.7960 -0.0006
# 2 63.6485 125.0692 23.9779 -0.0016 10.7669 -0.0002
# 3 26.8952 23.9779 79.7420 0.0052 7.7521 -0.0032
# 4 -0.0024 -0.0016 0.0052 6.3138 0.0008 2.1303
# 5 22.7960 10.7669 7.7521 0.0008 21.0669 -0.0011
# 6 -0.0006 -0.0002 -0.0032 2.1303 -0.0011 24.9022
#
#
#
# Elastic Compliance Matrix: (Units=1/GPa)
#
#
# Indices 1 2 3 4 5 6 
#
# 1 0.015003 -0.006190 -0.002000 0.000008 -0.012335 -0.000001
# 2 -0.006190 0.011298 -0.001451 0.000002 0.001458 0.000000
# 3 -0.002000 -0.001451 0.013865 -0.000013 -0.002196 0.000003
# 4 0.000008 0.000002 -0.000013 0.163091 -0.000011 -0.013952
# 5 -0.012335 0.001458 -0.002196 -0.000011 0.060879 0.000003
# 6 -0.000001 0.000000 0.000003 -0.013952 0.000003 0.041351
#
#
# Mechanical properties :
#
#
# Convention : Reuss Voigt Hill
#
# Bulk Modulus (GPa) = 47.88290 61.01049 54.44670
# Shear Modulus (GPa) = 15.07249 24.15855 19.61552
#
# Velocity S-wave (km/s) = 2.79822 3.54262 3.19220
# Velocity P-wave (km/s) = 5.94263 6.95903 6.47082
#
# Compressibility (1/GPa) = 0.02088428
#
# Stress axis : x y z
#
# Youngs Moduli (GPa) = 66.65311 88.50817 72.12483
#
# Poissons Ratio (x) = 0.54785 0.14424
# Poissons Ratio (y) = 0.41257 0.10468
# Poissons Ratio (z) = 0.13329 0.12846
#
# Static dielectric constant tensor:
#      x y z
#    x 8.670880 -0.000020 1.082300 
#    y -0.000020 3.889810 -0.000010 
#    z 1.082300 -0.000010 3.604530 
# 
# 
# High freq. dielectric constant tensor:
#      x y z
#    x 1.755620 0.000000 -0.007490 
#    y 0.000000 1.747890 0.000000 
#    z -0.007490 0.000000 1.727130 
# 
# From -- ./inp_files/133709.got.cif
#   From: 2010.06.25/outbox.cif.g09.slc.cpg/sg12_67_cif.got.tgz:133709.got - 2010.06.28 00:19:55.
