data_PCOD8099589
_publ_section_title
;
Structure prediction by ZEFSAII (Michael W. Deem and Ramdas Pophale) SiO2 
 PCOD8099589
Probable space group: C 2/M
;
_chemical_formula_sum "Si O2"
_cell_formula_units_Z 48
_cell_length_a 24.828013
_cell_length_b 8.926830
_cell_length_c 11.683898
_cell_angle_alpha 90.000000
_cell_angle_beta 90.598129
_cell_angle_gamma 90.000000
_cell_volume 2589.424903
_symmetry_space_group_name_H-M "C 2/M"
_symmetry_group_IT_number 12
_symmetry_cell_setting 'monoclinic'
loop_
_space_group_symop_operation_xyz
x,y,z
-x,y,-z
-x,-y,-z
x,-y,z
1/2+x,1/2+y,z
1/2-x,1/2+y,-z
1/2-x,1/2-y,-z
1/2+x,1/2-y,z
loop_
_atom_site_type_symbol
_atom_site_label
_atom_site_fract_x
_atom_site_fract_y
_atom_site_fract_z
Si Si1 0.493090 0.173620 0.366953
Si Si2 0.189519 0.325259 0.623958
Si Si3 0.938684 0.326947 0.012133
Si Si4 0.813764 0.174268 0.611267
Si Si5 0.600378 0.172495 0.240081
Si Si6 0.897783 0.823312 0.234398
O O1 0.500000 0.205778 0.500000
O O2 0.546474 0.226023 0.302561
O O3 0.443939 0.271508 0.321894
O O4 0.480645 0.000000 0.340962
O O5 0.176324 0.500000 0.626439
O O6 0.168780 0.262575 0.502111
O O7 0.252334 0.290129 0.642550
O O8 0.158925 0.245043 0.726806
O O9 0.938897 0.500000 0.050749
O O10 0.909065 0.229648 0.106351
O O11 0.906174 0.302595 0.894817
O O12 0.000000 0.270852 0.000000
O O13 0.849965 0.227259 0.717786
O O14 0.822599 0.000000 0.587632
O O15 0.612404 0.000000 0.269848
O O16 0.893451 0.000000 0.236296
#
# Coordination Sequence:
#
# PCOD8099589 Si02
#       6
#     8   8   8   8   8   8
#     4  10  20  35  56  82 113 150 188 227 279 347
#     4  10  21  39  61  83 114 156 193 227 280 348
#     4  10  20  39  61  80 110 155 200 231 273 345
#     4  10  21  37  60  89 118 147 185 238 289 334
#     4  10  20  35  58  85 113 152 193 230 278 342
#     4  12  24  36  56  86 116 146 188 243 292 329
#
# _framework density 18.536933999999999
#
# number of rings (size 3 to 8) (size 9 to 14) (size 15 to 20)
#    0.000    1.667    1.667    3.500    0.000    5.333 
#    0.000    0.833    0.000    0.000    0.000    0.000 
#    0.000    0.000    0.000    0.000    0.000    0.000 
#
# Total GULP energy -297755.265380 kJ/mol
# GULP energy per Si atom -12406.469391 kJ/mol
# Density = 1.849474 g / cm^3
# Si number density = 18.536934 Si / 1000 Ang^3
#
#
#
# Elastic Constant Matrix: (Units=GPa)
#
#
# Indices 1 2 3 4 5 6 
#
# 1 89.9746 52.0193 49.8260 0.0000 -13.0251 0.0000
# 2 52.0193 102.7665 49.4943 0.0000 -15.1179 0.0000
# 3 49.8260 49.4943 104.0800 0.0000 -17.3954 0.0000
# 4 0.0000 0.0000 0.0000 31.3134 0.0000 2.2186
# 5 -13.0251 -15.1179 -17.3954 0.0000 29.3109 0.0000
# 6 0.0000 0.0000 0.0000 2.2186 0.0000 31.2072
#
#
#
# Elastic Compliance Matrix: (Units=1/GPa)
#
#
# Indices 1 2 3 4 5 6 
#
# 1 0.017921 -0.006272 -0.005336 0.000000 0.001562 0.000000
# 2 -0.006272 0.015106 -0.003713 0.000000 0.002801 0.000000
# 3 -0.005336 -0.003713 0.014666 0.000000 0.004418 0.000000
# 4 0.000000 0.000000 0.000000 0.032097 0.000000 -0.002282
# 5 0.001562 0.002801 0.004418 0.000000 0.038878 0.000000
# 6 0.000000 0.000000 0.000000 -0.002282 0.000000 0.032206
#
#
# Mechanical properties :
#
#
# Convention : Reuss Voigt Hill
#
# Bulk Modulus (GPa) = 58.64249 66.61116 62.62682
# Shear Modulus (GPa) = 26.70947 28.06507 27.38727
#
# Velocity S-wave (km/s) = 3.80001 3.89525 3.84792
# Velocity P-wave (km/s) = 7.13846 7.49953 7.32122
#
# Compressibility (1/GPa) = 0.01705248
#
# Stress axis : x y z
#
# Youngs Moduli (GPa) = 55.79907 66.19999 68.18321
#
# Poissons Ratio (x) = 0.41521 0.36381
# Poissons Ratio (y) = 0.34997 0.25315
# Poissons Ratio (z) = 0.29773 0.24578
#
# Static dielectric constant tensor:
#      x y z
#    x 3.424570 0.000000 -0.075550 
#    y 0.000000 3.361130 0.000000 
#    z -0.075550 0.000000 3.394320 
# 
# 
# High freq. dielectric constant tensor:
#      x y z
#    x 1.719700 0.000000 -0.003320 
#    y 0.000000 1.718340 0.000000 
#    z -0.003320 0.000000 1.722580 
# 
# From -- ./inp_files/172279.got.cif
#   From: 2010.06.25/outbox.cif.g09.slc.cpg/sg12_87_cif.got.tgz:172279.got - 2010.06.28 00:19:55.
