data_PCOD8099072
_publ_section_title
;
Structure prediction by ZEFSAII (Michael W. Deem and Ramdas Pophale) SiO2 
 PCOD8099072
Probable space group: C 2/M
;
_chemical_formula_sum "Si O2"
_cell_formula_units_Z 56
_cell_length_a 20.009203
_cell_length_b 9.217545
_cell_length_c 29.280040
_cell_angle_alpha 90.000000
_cell_angle_beta 145.330735
_cell_angle_gamma 90.000000
_cell_volume 3071.889892
_symmetry_space_group_name_H-M "C 2/M"
_symmetry_group_IT_number 12
_symmetry_cell_setting 'monoclinic'
loop_
_space_group_symop_operation_xyz
x,y,z
-x,y,-z
-x,-y,-z
x,-y,z
1/2+x,1/2+y,z
1/2-x,1/2+y,-z
1/2-x,1/2-y,-z
1/2+x,1/2-y,z
loop_
_atom_site_type_symbol
_atom_site_label
_atom_site_fract_x
_atom_site_fract_y
_atom_site_fract_z
Si Si1 0.799419 0.834417 0.417297
Si Si2 0.074627 0.331227 0.351253
Si Si3 0.969840 0.168434 0.836453
Si Si4 0.292755 0.829169 0.319783
Si Si5 0.588327 0.168962 0.819759
Si Si6 0.004995 0.167390 0.399222
Si Si7 0.191945 0.832736 0.008245
O O1 0.690050 0.791975 0.387461
O O2 0.805310 0.726933 0.378245
O O3 0.919187 0.814871 0.512495
O O4 0.787055 0.000000 0.392779
O O5 0.073550 0.500000 0.364510
O O6 0.076727 0.234902 0.397591
O O7 0.959368 0.287279 0.256843
O O8 0.836089 0.210451 0.772405
O O9 0.014093 0.252066 0.816937
O O10 0.977498 0.000000 0.827986
O O11 0.051820 0.204059 0.927684
O O12 0.383088 0.751502 0.336780
O O13 0.317417 0.000000 0.333224
O O14 0.729924 0.205431 0.902621
O O15 0.563419 0.000000 0.813503
O O16 0.979099 0.000000 0.374151
O O17 0.209217 0.000000 0.007090
O O18 0.250000 0.750000 0.000000
#
# Coordination Sequence:
#
# PCOD8099072 Si02
#       7
#     8   8   8   8   8   8   8
#     4  10  21  38  57  77 102 132 170 216 262 306
#     4  10  20  35  55  78 105 134 168 211 256 308
#     4   9  17  29  47  74 105 133 165 206 248 295
#     4  11  22  35  54  78 105 138 173 212 255 302
#     4   9  16  28  50  76 102 133 165 202 251 301
#     4  11  24  38  53  74 102 138 175 214 260 307
#     4   8  14  25  43  71 103 130 160 200 246 295
#
# _framework density 18.22982
#
# number of rings (size 3 to 8) (size 9 to 14) (size 15 to 20)
#    0.000    2.286    1.429    1.714    0.000    4.571 
#    0.000    0.000    0.000    0.857    0.000    6.000 
#    0.000    0.000    0.000    0.000    0.000    0.000 
#
# Total GULP energy -346979.045021 kJ/mol
# GULP energy per Si atom -12392.108751 kJ/mol
# Density = 1.818833 g / cm^3
# Si number density = 18.229820 Si / 1000 Ang^3
#
#
#
# Elastic Constant Matrix: (Units=GPa)
#
#
# Indices 1 2 3 4 5 6 
#
# 1 53.5506 25.8384 10.2740 0.0000 11.1454 -0.0001
# 2 25.8384 58.3310 21.6170 0.0000 6.8146 0.0000
# 3 10.2740 21.6170 80.0477 0.0000 20.7000 0.0000
# 4 0.0000 0.0000 0.0000 21.5210 0.0000 1.4802
# 5 11.1454 6.8146 20.7000 0.0000 18.1933 0.0000
# 6 -0.0001 0.0000 0.0000 1.4802 0.0000 28.3280
#
#
#
# Elastic Compliance Matrix: (Units=1/GPa)
#
#
# Indices 1 2 3 4 5 6 
#
# 1 0.026907 -0.011433 0.003952 0.000000 -0.016698 0.000000
# 2 -0.011433 0.023950 -0.006364 0.000000 0.005274 0.000000
# 3 0.003952 -0.006364 0.019431 0.000000 -0.022145 0.000000
# 4 0.000000 0.000000 0.000000 0.046634 0.000000 -0.002437
# 5 -0.016698 0.005274 -0.022145 0.000000 0.088415 0.000000
# 6 0.000000 0.000000 0.000000 -0.002437 0.000000 0.035428
#
#
# Mechanical properties :
#
#
# Convention : Reuss Voigt Hill
#
# Bulk Modulus (GPa) = 23.47532 34.15424 28.81478
# Shear Modulus (GPa) = 17.68943 22.55512 20.12228
#
# Velocity S-wave (km/s) = 3.11843 3.52129 3.32597
# Velocity P-wave (km/s) = 5.08641 5.94211 5.53084
#
# Compressibility (1/GPa) = 0.04259793
#
# Stress axis : x y z
#
# Youngs Moduli (GPa) = 37.16455 41.75325 51.46524
#
# Poissons Ratio (x) = 0.47735 -0.20338
# Poissons Ratio (y) = 0.42489 0.32754
# Poissons Ratio (z) = -0.14687 0.26573
#
# Static dielectric constant tensor:
#      x y z
#    x 2.964470 0.000000 0.223880 
#    y 0.000000 3.350160 0.000000 
#    z 0.223880 0.000000 4.129700 
# 
# 
# High freq. dielectric constant tensor:
#      x y z
#    x 1.664260 0.000000 0.015840 
#    y 0.000000 1.708900 0.000000 
#    z 0.015840 0.000000 1.731170 
# 
# From -- ./inp_files/280160.got.cif
#   From: 2010.06.25/outbox.cif.g09.slc.cpg/sg12_141_cif.got.tgz:280160.got - 2010.06.28 00:19:55.
