data_PCOD8099152
_publ_section_title
;
Structure prediction by ZEFSAII (Michael W. Deem and Ramdas Pophale) SiO2 
 PCOD8099152
Probable space group: C 2/M
;
_chemical_formula_sum "Si O2"
_cell_formula_units_Z 48
_cell_length_a 18.818571
_cell_length_b 8.982161
_cell_length_c 15.013625
_cell_angle_alpha 90.000000
_cell_angle_beta 89.789193
_cell_angle_gamma 90.000000
_cell_volume 2537.757394
_symmetry_space_group_name_H-M "C 2/M"
_symmetry_group_IT_number 12
_symmetry_cell_setting 'monoclinic'
loop_
_space_group_symop_operation_xyz
x,y,z
-x,y,-z
-x,-y,-z
x,-y,z
1/2+x,1/2+y,z
1/2-x,1/2+y,-z
1/2-x,1/2-y,-z
1/2+x,1/2-y,z
loop_
_atom_site_type_symbol
_atom_site_label
_atom_site_fract_x
_atom_site_fract_y
_atom_site_fract_z
Si Si1 0.951227 0.672438 0.775887
Si Si2 0.799496 0.827679 0.569577
Si Si3 0.440584 0.168488 0.572333
Si Si4 0.695165 0.672537 0.230503
Si Si5 0.451146 0.325286 0.084698
Si Si6 0.200989 0.325595 0.927329
O O1 0.954266 0.500000 0.803395
O O2 0.969329 0.696440 0.671824
O O3 0.872957 0.733165 0.800817
O O4 0.011406 0.761634 0.827929
O O5 0.750000 0.750000 0.500000
O O6 0.879835 0.784207 0.548284
O O7 0.780728 0.778945 0.670642
O O8 0.788756 0.000000 0.555850
O O9 0.500000 0.199983 0.500000
O O10 0.411249 0.000000 0.564943
O O11 0.671865 0.500000 0.228202
O O12 0.762531 0.703625 0.168119
O O13 0.438392 0.500000 0.096673
O O14 0.376068 0.246854 0.070868
O O15 0.500000 0.289455 0.000000
O O16 0.194116 0.500000 0.947922
O O17 0.250000 0.250000 0.000000
#
# Coordination Sequence:
#
# PCOD8099152 Si02
#       6
#     8   8   8   8   8   8
#     4  10  20  35  58  84 108 140 182 225 267 315
#     4  10  20  35  55  79 109 144 182 223 267 317
#     4   9  19  36  56  79 110 145 179 219 270 323
#     4   9  20  38  57  78 109 146 178 217 272 325
#     4  11  24  40  57  79 110 146 180 218 268 321
#     4  11  23  39  59  83 110 141 179 221 268 321
#
# _framework density 18.914335999999999
#
# number of rings (size 3 to 8) (size 9 to 14) (size 15 to 20)
#    0.000    2.000    0.000    3.000    0.000    9.667 
#    0.000    6.667    0.000    0.000    0.000    0.000 
#    0.000    0.000    0.000    0.000    0.000    0.000 
#
# Total GULP energy -297669.322662 kJ/mol
# GULP energy per Si atom -12402.888444 kJ/mol
# Density = 1.887129 g / cm^3
# Si number density = 18.914336 Si / 1000 Ang^3
#
#
#
# Elastic Constant Matrix: (Units=GPa)
#
#
# Indices 1 2 3 4 5 6 
#
# 1 144.8492 78.9835 85.1506 0.0000 8.6411 0.0000
# 2 78.9835 100.1074 62.0507 0.0000 6.7241 0.0000
# 3 85.1506 62.0507 112.5140 0.0000 8.1707 0.0000
# 4 0.0000 0.0000 0.0000 33.3566 0.0000 5.3034
# 5 8.6411 6.7241 8.1707 0.0000 38.4243 0.0000
# 6 0.0000 0.0000 0.0000 5.3034 0.0000 40.6213
#
#
#
# Elastic Compliance Matrix: (Units=1/GPa)
#
#
# Indices 1 2 3 4 5 6 
#
# 1 0.015434 -0.007483 -0.007513 0.000000 -0.000564 0.000000
# 2 -0.007483 0.018835 -0.004680 0.000000 -0.000618 0.000000
# 3 -0.007513 -0.004680 0.017238 0.000000 -0.001157 0.000000
# 4 0.000000 0.000000 0.000000 0.030615 0.000000 -0.003997
# 5 -0.000564 -0.000618 -0.001157 0.000000 0.026506 0.000000
# 6 0.000000 0.000000 0.000000 -0.003997 0.000000 0.025139
#
#
# Mechanical properties :
#
#
# Convention : Reuss Voigt Hill
#
# Bulk Modulus (GPa) = 82.25631 89.98225 86.11928
# Shear Modulus (GPa) = 28.22138 31.23283 29.72710
#
# Velocity S-wave (km/s) = 3.86691 4.06800 3.96873
# Velocity P-wave (km/s) = 7.96998 8.35115 8.16279
#
# Compressibility (1/GPa) = 0.01215712
#
# Stress axis : x y z
#
# Youngs Moduli (GPa) = 64.79208 53.09229 58.00977
#
# Poissons Ratio (x) = 0.39726 0.43582
# Poissons Ratio (y) = 0.48481 0.27147
# Poissons Ratio (z) = 0.48678 0.24846
#
# Static dielectric constant tensor:
#      x y z
#    x 2.092010 0.000000 -0.058050 
#    y 0.000000 3.524960 0.000000 
#    z -0.058050 0.000000 3.765100 
# 
# 
# High freq. dielectric constant tensor:
#      x y z
#    x 1.731890 0.000000 0.000810 
#    y 0.000000 1.746800 0.000000 
#    z 0.000810 0.000000 1.747450 
# 
# From -- ./inp_files/221630.got.cif
#   From: 2010.06.25/outbox.cif.g09.slc.cpg/sg12_111_cif.got.tgz:221630.got - 2010.06.28 00:19:55.
