data_PCOD8099509
_publ_section_title
;
Structure prediction by ZEFSAII (Michael W. Deem and Ramdas Pophale) SiO2 
 PCOD8099509
Probable space group: C 2/M
;
_chemical_formula_sum "Si O2"
_cell_formula_units_Z 48
_cell_length_a 20.488323
_cell_length_b 8.730022
_cell_length_c 23.082188
_cell_angle_alpha 90.000000
_cell_angle_beta 141.109297
_cell_angle_gamma 90.000000
_cell_volume 2592.062510
_symmetry_space_group_name_H-M "C 2/M"
_symmetry_group_IT_number 12
_symmetry_cell_setting 'monoclinic'
loop_
_space_group_symop_operation_xyz
x,y,z
-x,y,-z
-x,-y,-z
x,-y,z
1/2+x,1/2+y,z
1/2-x,1/2+y,-z
1/2-x,1/2-y,-z
1/2+x,1/2-y,z
loop_
_atom_site_type_symbol
_atom_site_label
_atom_site_fract_x
_atom_site_fract_y
_atom_site_fract_z
Si Si1 0.883977 0.680439 0.434826
Si Si2 0.643705 0.817830 0.948661
Si Si3 0.064102 0.179895 0.231936
Si Si4 0.791321 0.176291 0.773541
Si Si5 0.241188 0.681627 0.430400
Si Si6 0.390942 0.819539 0.946067
O O1 0.877236 0.500000 0.443186
O O2 0.815216 0.723946 0.331499
O O3 0.840911 0.766490 0.461580
O O4 0.000000 0.734619 0.500000
O O5 0.550400 0.752006 0.845076
O O6 0.643624 0.000000 0.944298
O O7 0.750000 0.750000 0.000000
O O8 0.632935 0.756662 0.006767
O O9 0.112781 0.214347 0.202647
O O10 0.133973 0.258328 0.329126
O O11 0.059754 0.000000 0.241965
O O12 0.800649 0.271654 0.839056
O O13 0.789963 0.000000 0.790060
O O14 0.238649 0.500000 0.431786
O O15 0.250000 0.750000 0.500000
O O16 0.398117 0.000000 0.952847
O O17 0.500000 0.747704 0.000000
#
# Coordination Sequence:
#
# PCOD8099509 Si02
#       6
#     8   8   8   8   8   8
#     4   9  19  38  60  84 118 152 186 235 290 342
#     4  11  23  39  57  81 115 154 189 233 288 340
#     4  10  20  37  60  85 113 147 189 237 286 342
#     4   9  18  32  56  86 110 143 186 230 279 333
#     4  11  22  38  61  87 115 151 194 238 285 344
#     4  10  20  35  56  81 110 144 185 232 276 327
#
# _framework density 18.518072
#
# number of rings (size 3 to 8) (size 9 to 14) (size 15 to 20)
#    0.000    2.000    1.667    3.500    0.000    4.667 
#    3.000    0.000    0.000    0.000    0.000    0.000 
#    0.000    0.000    0.000    0.000    0.000    0.000 
#
# Total GULP energy -297648.261998 kJ/mol
# GULP energy per Si atom -12402.010917 kJ/mol
# Density = 1.847592 g / cm^3
# Si number density = 18.518072 Si / 1000 Ang^3
#
#
#
# Elastic Constant Matrix: (Units=GPa)
#
#
# Indices 1 2 3 4 5 6 
#
# 1 132.7801 54.6317 91.0302 0.0000 9.0961 0.0000
# 2 54.6317 89.2594 54.1419 0.0000 -1.1483 -0.0001
# 3 91.0302 54.1419 139.5070 0.0000 2.1088 0.0000
# 4 0.0000 0.0000 0.0000 36.5098 0.0000 -1.2474
# 5 9.0961 -1.1483 2.1088 0.0000 39.7923 0.0000
# 6 0.0000 -0.0001 0.0000 -1.2474 0.0000 28.5649
#
#
#
# Elastic Compliance Matrix: (Units=1/GPa)
#
#
# Indices 1 2 3 4 5 6 
#
# 1 0.015107 -0.004364 -0.008116 0.000000 -0.003149 0.000000
# 2 -0.004364 0.015934 -0.003361 0.000000 0.001635 0.000000
# 3 -0.008116 -0.003361 0.013753 0.000000 0.001029 0.000000
# 4 0.000000 0.000000 0.000000 0.027431 0.000000 0.001198
# 5 -0.003149 0.001635 0.001029 0.000000 0.025843 0.000000
# 6 0.000000 0.000000 0.000000 0.001198 0.000000 0.035060
#
#
# Mechanical properties :
#
#
# Convention : Reuss Voigt Hill
#
# Bulk Modulus (GPa) = 76.26960 84.57269 80.42114
# Shear Modulus (GPa) = 29.55432 31.75625 30.65528
#
# Velocity S-wave (km/s) = 3.99930 4.14560 4.07311
# Velocity P-wave (km/s) = 7.91213 8.28759 8.10204
#
# Compressibility (1/GPa) = 0.01311138
#
# Stress axis : x y z
#
# Youngs Moduli (GPa) = 66.19653 62.75906 72.71172
#
# Poissons Ratio (x) = 0.27385 0.59014
# Poissons Ratio (y) = 0.28885 0.24441
# Poissons Ratio (z) = 0.53726 0.21095
#
# Static dielectric constant tensor:
#      x y z
#    x 3.414630 0.000000 0.050820 
#    y 0.000000 3.345500 0.000000 
#    z 0.050820 0.000000 3.524230 
# 
# 
# High freq. dielectric constant tensor:
#      x y z
#    x 1.705110 0.000000 0.000120 
#    y 0.000000 1.719840 0.000000 
#    z 0.000120 0.000000 1.729020 
# 
# From -- ./inp_files/320329.got.cif
#   From: 2010.06.25/outbox.cif.g09.slc.cpg/sg12_161_cif.got.tgz:320329.got - 2010.06.28 00:19:55.
