data_PCOD8099439
_publ_section_title
;
Structure prediction by ZEFSAII (Michael W. Deem and Ramdas Pophale) SiO2 
 PCOD8099439
Probable space group: C 2/M
;
_chemical_formula_sum "Si O2"
_cell_formula_units_Z 48
_cell_length_a 28.682232
_cell_length_b 11.956306
_cell_length_c 20.676981
_cell_angle_alpha 90.000000
_cell_angle_beta 158.490454
_cell_angle_gamma 90.000000
_cell_volume 2599.897176
_symmetry_space_group_name_H-M "C 2/M"
_symmetry_group_IT_number 12
_symmetry_cell_setting 'monoclinic'
loop_
_space_group_symop_operation_xyz
x,y,z
-x,y,-z
-x,-y,-z
x,-y,z
1/2+x,1/2+y,z
1/2-x,1/2+y,-z
1/2-x,1/2-y,-z
1/2+x,1/2-y,z
loop_
_atom_site_type_symbol
_atom_site_label
_atom_site_fract_x
_atom_site_fract_y
_atom_site_fract_z
Si Si1 0.673986 0.128356 0.572633
Si Si2 0.073165 0.718044 0.797260
Si Si3 0.323332 0.628218 0.176104
Si Si4 0.405182 0.627047 0.058051
Si Si5 0.934581 0.868262 0.852805
Si Si6 0.145006 0.709577 0.675043
O O1 0.547813 0.139519 0.367672
O O2 0.785813 0.161831 0.666854
O O3 0.673409 0.208604 0.634958
O O4 0.690878 0.000000 0.618390
O O5 0.093133 0.781745 0.755083
O O6 0.051450 0.813501 0.821243
O O7 0.183805 0.635542 0.964384
O O8 0.370575 0.500000 0.231908
O O9 0.334908 0.667008 0.266520
O O10 0.442975 0.500000 0.117202
O O11 0.492624 0.683358 0.114963
O O12 0.253201 0.633724 0.849018
O O13 0.958616 0.000000 0.881480
O O14 0.000000 0.815473 0.000000
O O15 0.000000 0.665197 0.500000
#
# Coordination Sequence:
#
# PCOD8099439 Si02
#       6
#     8   8   8   8   8   8
#     4  11  21  35  55  80 110 137 176 227 263 305
#     4  10  21  36  52  81 106 140 184 209 265 324
#     4  10  21  38  53  72 112 149 173 214 263 319
#     4  10  20  35  56  80 109 140 174 220 264 314
#     4   9  17  32  54  79 105 137 173 215 270 310
#     4  11  21  35  52  83 105 137 184 213 261 322
#
# _framework density 18.462268999999999
#
# number of rings (size 3 to 8) (size 9 to 14) (size 15 to 20)
#    0.000    1.833    3.333    1.500    0.000    2.333 
#    0.000    0.000    0.000    0.000    0.000   11.667 
#    0.000    0.000    0.000    0.000    0.000    0.000 
#
# Total GULP energy -297391.823190 kJ/mol
# GULP energy per Si atom -12391.325966 kJ/mol
# Density = 1.842025 g / cm^3
# Si number density = 18.462269 Si / 1000 Ang^3
#
#
#
# Elastic Constant Matrix: (Units=GPa)
#
#
# Indices 1 2 3 4 5 6 
#
# 1 88.5251 25.0032 35.9327 0.0000 9.7145 0.0000
# 2 25.0032 50.4463 21.5112 0.0000 1.2072 0.0000
# 3 35.9327 21.5112 94.2896 0.0000 11.4774 0.0000
# 4 0.0000 0.0000 0.0000 15.0820 0.0000 0.1876
# 5 9.7145 1.2072 11.4774 0.0000 31.4416 0.0000
# 6 0.0000 0.0000 0.0000 0.1876 0.0000 19.1731
#
#
#
# Elastic Compliance Matrix: (Units=1/GPa)
#
#
# Indices 1 2 3 4 5 6 
#
# 1 0.014818 -0.005558 -0.004027 0.000000 -0.002895 0.000000
# 2 -0.005558 0.024076 -0.003632 0.000000 0.002119 0.000000
# 3 -0.004027 -0.003632 0.013396 0.000000 -0.003506 0.000000
# 4 0.000000 0.000000 0.000000 0.066312 0.000000 -0.000649
# 5 -0.002895 0.002119 -0.003506 0.000000 0.033898 0.000000
# 6 0.000000 0.000000 0.000000 -0.000649 0.000000 0.052163
#
#
# Mechanical properties :
#
#
# Convention : Reuss Voigt Hill
#
# Bulk Modulus (GPa) = 38.67657 44.23947 41.45802
# Shear Modulus (GPa) = 20.85799 23.19359 22.02579
#
# Velocity S-wave (km/s) = 3.36484 3.54823 3.45775
# Velocity P-wave (km/s) = 6.00755 6.38755 6.20046
#
# Compressibility (1/GPa) = 0.02585545
#
# Stress axis : x y z
#
# Youngs Moduli (GPa) = 67.48449 41.53484 74.65122
#
# Poissons Ratio (x) = 0.23086 0.30059
# Poissons Ratio (y) = 0.37509 0.27117
# Poissons Ratio (z) = 0.27173 0.15087
#
# Static dielectric constant tensor:
#      x y z
#    x 3.641110 0.000000 0.092750 
#    y 0.000000 3.007640 0.000000 
#    z 0.092750 0.000000 3.459830 
# 
# 
# High freq. dielectric constant tensor:
#      x y z
#    x 1.721190 0.000000 -0.000280 
#    y 0.000000 1.674470 0.000000 
#    z -0.000280 0.000000 1.723570 
# 
# From -- ./inp_files/153522.got.cif
#   From: 2010.06.25/outbox.cif.g09.slc.cpg/sg12_77_cif.got.tgz:153522.got - 2010.06.28 00:19:55.
