data_PCOD8099596
_publ_section_title
;
Structure prediction by ZEFSAII (Michael W. Deem and Ramdas Pophale) SiO2 
 PCOD8099596
Probable space group: C 2/M
;
_chemical_formula_sum "Si O2"
_cell_formula_units_Z 56
_cell_length_a 11.238139
_cell_length_b 27.390354
_cell_length_c 11.990813
_cell_angle_alpha 90.000000
_cell_angle_beta 129.434657
_cell_angle_gamma 90.000000
_cell_volume 2850.719870
_symmetry_space_group_name_H-M "C 2/M"
_symmetry_group_IT_number 12
_symmetry_cell_setting 'monoclinic'
loop_
_space_group_symop_operation_xyz
x,y,z
-x,y,-z
-x,-y,-z
x,-y,z
1/2+x,1/2+y,z
1/2-x,1/2+y,-z
1/2-x,1/2-y,-z
1/2+x,1/2-y,z
loop_
_atom_site_type_symbol
_atom_site_label
_atom_site_fract_x
_atom_site_fract_y
_atom_site_fract_z
Si Si1 0.194315 0.445172 0.351628
Si Si2 0.871727 0.942536 0.677476
Si Si3 0.467940 0.772084 0.143597
Si Si4 0.671539 0.620107 0.143470
Si Si5 0.212765 0.945163 0.833209
Si Si6 0.411245 0.114810 0.102055
Si Si7 0.722446 0.730031 0.166895
O O1 0.129011 0.500000 0.332904
O O2 0.289757 0.426637 0.514401
O O3 0.305652 0.445105 0.311082
O O4 0.060115 0.407246 0.248009
O O5 0.789868 0.914053 0.728603
O O6 0.050033 0.926235 0.782474
O O7 0.856309 0.000000 0.688148
O O8 0.432486 0.827960 0.092500
O O9 0.652518 0.762240 0.229568
O O10 0.400307 0.759252 0.228675
O O11 0.381755 0.736686 0.005384
O O12 0.774357 0.602135 0.103648
O O13 0.713761 0.674905 0.204237
O O14 0.500000 0.614206 0.000000
O O15 0.248850 0.000000 0.897628
O O16 0.356630 0.910541 0.953937
#
# Coordination Sequence:
#
# PCOD8099596 Si02
#       7
#     8   8   8   8   8   8   8
#     4  10  22  39  54  80 120 154 187 230 286 338
#     4  10  22  38  59  80 110 159 196 223 276 351
#     4   9  18  31  52  82 115 144 184 228 289 345
#     4  11  20  37  56  83 115 143 187 239 285 327
#     4  10  20  35  56  82 114 150 190 237 280 327
#     4  11  22  33  57  91 115 141 187 244 284 331
#     4   9  18  32  51  80 114 147 177 236 286 340
#
# _framework density 19.644161
#
# number of rings (size 3 to 8) (size 9 to 14) (size 15 to 20)
#    0.000    2.000    2.857    1.286    4.000    4.857 
#    0.000    1.429    0.000    0.857    0.000    0.000 
#    0.000    0.000    0.000    0.000    0.000    0.000 
#
# Total GULP energy -346982.830356 kJ/mol
# GULP energy per Si atom -12392.243941 kJ/mol
# Density = 1.959945 g / cm^3
# Si number density = 19.644161 Si / 1000 Ang^3
#
#
#
# Elastic Constant Matrix: (Units=GPa)
#
#
# Indices 1 2 3 4 5 6 
#
# 1 121.6461 33.1754 27.3793 0.0000 -7.7619 0.0000
# 2 33.1754 66.7265 37.8622 0.0000 -2.8003 0.0000
# 3 27.3793 37.8622 71.8360 0.0000 -6.3227 0.0000
# 4 0.0000 0.0000 0.0000 9.5741 0.0000 -3.9584
# 5 -7.7619 -2.8003 -6.3227 0.0000 21.8713 0.0000
# 6 0.0000 0.0000 0.0000 -3.9584 0.0000 33.9075
#
#
#
# Elastic Compliance Matrix: (Units=1/GPa)
#
#
# Indices 1 2 3 4 5 6 
#
# 1 0.009780 -0.003949 -0.001422 0.000000 0.002554 0.000000
# 2 -0.003949 0.022981 -0.010745 0.000000 -0.001565 0.000000
# 3 -0.001422 -0.010745 0.020482 0.000000 0.004041 0.000000
# 4 0.000000 0.000000 0.000000 0.109745 0.000000 0.012812
# 5 0.002554 -0.001565 0.004041 0.000000 0.047596 0.000000
# 6 0.000000 0.000000 0.000000 0.012812 0.000000 0.030988
#
#
# Mechanical properties :
#
#
# Convention : Reuss Voigt Hill
#
# Bulk Modulus (GPa) = 47.59237 50.78250 49.18744
# Shear Modulus (GPa) = 17.80576 23.85671 20.83123
#
# Velocity S-wave (km/s) = 3.01394 3.48867 3.25996
# Velocity P-wave (km/s) = 6.03254 6.49115 6.26604
#
# Compressibility (1/GPa) = 0.02101177
#
# Stress axis : x y z
#
# Youngs Moduli (GPa) = 102.24482 43.51357 48.82441
#
# Poissons Ratio (x) = 0.17183 0.06941
# Poissons Ratio (y) = 0.40375 0.52464
# Poissons Ratio (z) = 0.14535 0.46757
#
# Static dielectric constant tensor:
#      x y z
#    x 4.249940 0.000000 -0.092480 
#    y 0.000000 3.502280 0.000000 
#    z -0.092480 0.000000 3.109380 
# 
# 
# High freq. dielectric constant tensor:
#      x y z
#    x 1.790660 0.000000 -0.007860 
#    y 0.000000 1.762160 0.000000 
#    z -0.007860 0.000000 1.715200 
# 
# From -- ./inp_files/137021.got.cif
#   From: 2010.06.25/outbox.cif.g09.slc.cpg/sg12_69_cif.got.tgz:137021.got - 2010.06.28 00:19:55.
