data_PCOD8099900
_publ_section_title
;
Structure prediction by ZEFSAII (Michael W. Deem and Ramdas Pophale) SiO2 
 PCOD8099900
Probable space group: C 2/M
;
_chemical_formula_sum "Si O2"
_cell_formula_units_Z 64
_cell_length_a 17.172878
_cell_length_b 12.557848
_cell_length_c 20.723202
_cell_angle_alpha 90.000000
_cell_angle_beta 49.464035
_cell_angle_gamma 90.000000
_cell_volume 3396.469378
_symmetry_space_group_name_H-M "C 2/M"
_symmetry_group_IT_number 12
_symmetry_cell_setting 'monoclinic'
loop_
_space_group_symop_operation_xyz
x,y,z
-x,y,-z
-x,-y,-z
x,-y,z
1/2+x,1/2+y,z
1/2-x,1/2+y,-z
1/2-x,1/2-y,-z
1/2+x,1/2-y,z
loop_
_atom_site_type_symbol
_atom_site_label
_atom_site_fract_x
_atom_site_fract_y
_atom_site_fract_z
Si Si1 0.047846 0.122565 0.586925
Si Si2 0.105472 0.621023 0.174614
Si Si3 0.947237 0.873570 0.155616
Si Si4 0.736335 0.378836 0.405757
Si Si5 0.137371 0.732271 0.034362
Si Si6 0.078924 0.767983 0.696973
Si Si7 0.177046 0.121178 0.293773
Si Si8 0.703139 0.727263 0.865398
O O1 0.133795 0.171954 0.493002
O O2 0.074896 0.137511 0.647277
O O3 0.935588 0.172643 0.634556
O O4 0.041208 0.000000 0.572153
O O5 0.076449 0.500000 0.206581
O O6 0.096605 0.635349 0.101099
O O7 0.217541 0.646161 0.143362
O O8 0.025664 0.701064 0.250215
O O9 0.899262 0.821097 0.245676
O O10 0.877673 0.839669 0.132641
O O11 0.064238 0.834979 0.083931
O O12 0.947776 0.000000 0.161718
O O13 0.751909 0.500000 0.421801
O O14 0.831800 0.309037 0.375713
O O15 0.735745 0.374860 0.329156
O O16 0.250000 0.750000 0.000000
O O17 0.142468 0.708780 0.954957
O O18 0.239914 0.185840 0.207525
O O19 0.167795 0.000000 0.273003
#
# Coordination Sequence:
#
# PCOD8099900 Si02
#       8
#     8   8   8   8   8   8   8   8
#     4  10  20  35  57  84 111 146 195 240 287 337
#     4  10  21  37  57  80 113 151 188 228 281 342
#     4  11  23  38  61  86 116 151 188 232 277 332
#     4  10  20  35  57  83 112 150 191 237 289 340
#     4   9  22  38  56  83 112 141 183 226 273 328
#     4  11  20  36  55  84 118 149 186 236 285 338
#     4  10  20  36  58  83 113 148 191 239 284 335
#     4  11  20  39  58  85 114 148 190 233 278 337
#
# _framework density 18.843095999999999
#
# number of rings (size 3 to 8) (size 9 to 14) (size 15 to 20)
#    0.000    1.750    2.500    2.250    0.000    5.000 
#    0.000    0.000    0.000    2.250    0.000    1.750 
#    0.000    0.000    0.000    0.000    0.000    0.000 
#
# Total GULP energy -396648.257317 kJ/mol
# GULP energy per Si atom -12395.258041 kJ/mol
# Density = 1.880021 g / cm^3
# Si number density = 18.843096 Si / 1000 Ang^3
#
#
#
# Elastic Constant Matrix: (Units=GPa)
#
#
# Indices 1 2 3 4 5 6 
#
# 1 77.6608 32.8683 15.5298 0.0000 -6.7925 0.0000
# 2 32.8683 71.0815 34.2523 0.0000 -4.7385 0.0000
# 3 15.5298 34.2523 100.2688 0.0000 -3.7727 0.0000
# 4 0.0000 0.0000 0.0000 25.0447 0.0000 0.6251
# 5 -6.7925 -4.7385 -3.7727 0.0000 35.6571 0.0000
# 6 0.0000 0.0000 0.0000 0.6251 0.0000 26.1753
#
#
#
# Elastic Compliance Matrix: (Units=1/GPa)
#
#
# Indices 1 2 3 4 5 6 
#
# 1 0.016165 -0.007381 0.000097 0.000000 0.002109 0.000000
# 2 -0.007381 0.020306 -0.005768 0.000000 0.000682 0.000000
# 3 0.000097 -0.005768 0.011948 0.000000 0.000516 0.000000
# 4 0.000000 0.000000 0.000000 0.039952 0.000000 -0.000954
# 5 0.002109 0.000682 0.000516 0.000000 0.028592 0.000000
# 6 0.000000 0.000000 0.000000 -0.000954 0.000000 0.038227
#
#
# Mechanical properties :
#
#
# Convention : Reuss Voigt Hill
#
# Bulk Modulus (GPa) = 44.81139 46.03466 45.42303
# Shear Modulus (GPa) = 26.49240 28.46611 27.47926
#
# Velocity S-wave (km/s) = 3.75366 3.89098 3.82294
# Velocity P-wave (km/s) = 6.52837 6.68355 6.60642
#
# Compressibility (1/GPa) = 0.02231575
#
# Stress axis : x y z
#
# Youngs Moduli (GPa) = 61.86019 49.24580 83.69659
#
# Poissons Ratio (x) = 0.36349 -0.00812
# Poissons Ratio (y) = 0.45660 0.48275
# Poissons Ratio (z) = -0.00600 0.28404
#
# Static dielectric constant tensor:
#      x y z
#    x 3.548860 0.000000 -0.051910 
#    y 0.000000 3.217070 0.000000 
#    z -0.051910 0.000000 3.778580 
# 
# 
# High freq. dielectric constant tensor:
#      x y z
#    x 1.736470 0.000000 -0.003630 
#    y 0.000000 1.705450 0.000000 
#    z -0.003630 0.000000 1.748350 
# 
# From -- ./inp_files/276590.got.cif
#   From: 2010.06.25/outbox.cif.g09.slc.cpg/sg12_139_cif.got.tgz:276590.got - 2010.06.28 00:19:55.
