data_PCOD8099661
_publ_section_title
;
Structure prediction by ZEFSAII (Michael W. Deem and Ramdas Pophale) SiO2 
 PCOD8099661
Probable space group: C 2/M
;
_chemical_formula_sum "Si O2"
_cell_formula_units_Z 56
_cell_length_a 29.418337
_cell_length_b 8.722903
_cell_length_c 21.542590
_cell_angle_alpha 90.000000
_cell_angle_beta 149.598383
_cell_angle_gamma 90.000000
_cell_volume 2797.547462
_symmetry_space_group_name_H-M "C 2/M"
_symmetry_group_IT_number 12
_symmetry_cell_setting 'monoclinic'
loop_
_space_group_symop_operation_xyz
x,y,z
-x,y,-z
-x,-y,-z
x,-y,z
1/2+x,1/2+y,z
1/2-x,1/2+y,-z
1/2-x,1/2-y,-z
1/2+x,1/2-y,z
loop_
_atom_site_type_symbol
_atom_site_label
_atom_site_fract_x
_atom_site_fract_y
_atom_site_fract_z
Si Si1 0.918166 0.320453 0.138077
Si Si2 0.458216 0.324915 0.515415
Si Si3 0.228803 0.678557 0.690281
Si Si4 0.892002 0.822606 0.655362
Si Si5 0.783364 0.820208 0.891957
Si Si6 0.219242 0.322309 0.371948
Si Si7 0.866856 0.175571 0.201906
O O1 0.909377 0.500000 0.136807
O O2 0.862074 0.239031 0.126686
O O3 0.021856 0.275663 0.260890
O O4 0.871864 0.268084 0.019506
O O5 0.500000 0.267837 0.500000
O O6 0.423853 0.500000 0.468389
O O7 0.376272 0.216814 0.436610
O O8 0.530739 0.310382 0.655139
O O9 0.241154 0.500000 0.691540
O O10 0.269275 0.727237 0.804043
O O11 0.282877 0.772458 0.702032
O O12 0.855500 0.774463 0.679709
O O13 0.817525 0.787834 0.515578
O O14 0.919275 0.000000 0.688808
O O15 0.695538 0.773458 0.826705
O O16 0.798987 0.000000 0.917500
O O17 0.194531 0.500000 0.349291
O O18 0.833612 0.000000 0.163670
#
# Coordination Sequence:
#
# PCOD8099661 Si02
#       7
#     8   8   8   8   8   8   8
#     4  12  25  40  60  85 115 153 198 244 291 344
#     4  10  20  35  56  83 116 153 191 234 285 342
#     4  11  23  37  58  87 120 156 194 240 292 345
#     4  10  21  40  64  91 121 151 189 238 289 341
#     4  11  24  41  58  81 116 157 200 243 290 343
#     4  10  21  38  64  93 121 153 188 232 289 349
#     4  11  22  38  60  85 116 155 197 242 292 344
#
# _framework density 20.017534999999999
#
# number of rings (size 3 to 8) (size 9 to 14) (size 15 to 20)
#    0.000    1.286    1.429    4.714    0.000    8.286 
#    0.000    0.714    0.000    4.286    0.000    0.000 
#    0.000    0.000    0.000    0.000    0.000    0.000 
#
# Total GULP energy -347409.403578 kJ/mol
# GULP energy per Si atom -12407.478699 kJ/mol
# Density = 1.997197 g / cm^3
# Si number density = 20.017535 Si / 1000 Ang^3
#
#
#
# Elastic Constant Matrix: (Units=GPa)
#
#
# Indices 1 2 3 4 5 6 
#
# 1 101.8250 19.0396 29.8688 0.0000 -19.6449 0.0000
# 2 19.0396 43.8415 34.5727 0.0000 -4.1711 0.0000
# 3 29.8688 34.5727 60.3197 0.0000 -10.1055 0.0000
# 4 0.0000 0.0000 0.0000 30.9779 0.0000 2.5220
# 5 -19.6449 -4.1711 -10.1055 0.0000 25.0713 0.0000
# 6 0.0000 0.0000 0.0000 2.5220 0.0000 36.7800
#
#
#
# Elastic Compliance Matrix: (Units=1/GPa)
#
#
# Indices 1 2 3 4 5 6 
#
# 1 0.012902 -0.001584 -0.004109 0.000000 0.008190 0.000000
# 2 -0.001584 0.042012 -0.023949 0.000000 -0.003905 0.000000
# 3 -0.004109 -0.023949 0.033388 0.000000 0.006253 0.000000
# 4 0.000000 0.000000 0.000000 0.032462 0.000000 -0.002226
# 5 0.008190 -0.003905 0.006253 0.000000 0.048175 0.000000
# 6 0.000000 0.000000 0.000000 -0.002226 0.000000 0.027341
#
#
# Mechanical properties :
#
#
# Convention : Reuss Voigt Hill
#
# Bulk Modulus (GPa) = 34.46222 41.43872 37.95047
# Shear Modulus (GPa) = 18.85106 26.73281 22.79193
#
# Velocity S-wave (km/s) = 3.07209 3.65837 3.37797
# Velocity P-wave (km/s) = 5.46233 6.21217 5.84928
#
# Compressibility (1/GPa) = 0.02901728
#
# Stress axis : x y z
#
# Youngs Moduli (GPa) = 77.50540 23.80277 29.95127
#
# Poissons Ratio (x) = 0.03770 0.12307
# Poissons Ratio (y) = 0.12274 0.71732
# Poissons Ratio (z) = 0.31848 0.57006
#
# Static dielectric constant tensor:
#      x y z
#    x 3.647500 0.000000 -0.151690 
#    y 0.000000 3.663430 0.000000 
#    z -0.151690 0.000000 3.611950 
# 
# 
# High freq. dielectric constant tensor:
#      x y z
#    x 1.783500 0.000000 -0.009080 
#    y 0.000000 1.790300 0.000000 
#    z -0.009080 0.000000 1.775870 
# 
# From -- ./inp_files/329635.got.cif
#   From: 2010.06.25/outbox.cif.g09.slc.cpg/sg12_165_cif.got.tgz:329635.got - 2010.06.28 00:19:55.
