data_PCOD8099502
_publ_section_title
;
Structure prediction by ZEFSAII (Michael W. Deem and Ramdas Pophale) SiO2 
 PCOD8099502
Probable space group: C 2/M
;
_chemical_formula_sum "Si O2"
_cell_formula_units_Z 56
_cell_length_a 18.131899
_cell_length_b 9.063678
_cell_length_c 19.740179
_cell_angle_alpha 90.000000
_cell_angle_beta 63.271165
_cell_angle_gamma 90.000000
_cell_volume 2897.482952
_symmetry_space_group_name_H-M "C 2/M"
_symmetry_group_IT_number 12
_symmetry_cell_setting 'monoclinic'
loop_
_space_group_symop_operation_xyz
x,y,z
-x,y,-z
-x,-y,-z
x,-y,z
1/2+x,1/2+y,z
1/2-x,1/2+y,-z
1/2-x,1/2-y,-z
1/2+x,1/2-y,z
loop_
_atom_site_type_symbol
_atom_site_label
_atom_site_fract_x
_atom_site_fract_y
_atom_site_fract_z
Si Si1 0.279728 0.670132 0.294059
Si Si2 0.965303 0.169707 0.407774
Si Si3 0.939632 0.675034 0.279998
Si Si4 0.588617 0.174798 0.989508
Si Si5 0.601966 0.175287 0.136778
Si Si6 0.735496 0.329506 0.855802
Si Si7 0.129459 0.169674 0.417065
O O1 0.296425 0.500000 0.304189
O O2 0.362810 0.760100 0.271349
O O3 0.250469 0.693489 0.229417
O O4 0.207848 0.727540 0.372629
O O5 0.939078 0.274295 0.357668
O O6 0.899230 0.194867 0.494345
O O7 0.056092 0.214186 0.396278
O O8 0.964267 0.000000 0.384504
O O9 0.934054 0.500000 0.279764
O O10 0.021989 0.735413 0.209328
O O11 0.601715 0.235066 0.060141
O O12 0.595751 0.000000 0.983959
O O13 0.500000 0.228888 0.000000
O O14 0.656250 0.240076 0.911793
O O15 0.683961 0.234999 0.139716
O O16 0.600285 0.000000 0.138632
O O17 0.721654 0.500000 0.879928
O O18 0.154485 0.000000 0.395025
#
# Coordination Sequence:
#
# PCOD8099502 Si02
#       7
#     8   8   8   8   8   8   8
#     4  11  23  37  54  79 112 146 184 233 280 323
#     4   9  19  37  59  84 113 142 179 228 275 323
#     4  11  22  37  58  81 109 147 186 225 276 333
#     4  10  20  35  56  81 110 143 178 218 265 321
#     4   9  19  36  56  79 108 141 180 225 270 322
#     4  10  21  37  56  79 108 141 179 225 274 321
#     4   9  19  37  60  83 110 146 183 222 272 329
#
# _framework density 19.327121000000002
#
# number of rings (size 3 to 8) (size 9 to 14) (size 15 to 20)
#    0.000    2.143    0.000    3.857    0.000    5.429 
#    0.000    4.286    0.000    0.000    0.000    0.000 
#    0.000    0.000    0.000    0.000    0.000    0.000 
#
# Total GULP energy -347315.882646 kJ/mol
# GULP energy per Si atom -12404.138666 kJ/mol
# Density = 1.928313 g / cm^3
# Si number density = 19.327121 Si / 1000 Ang^3
#
#
#
# Elastic Constant Matrix: (Units=GPa)
#
#
# Indices 1 2 3 4 5 6 
#
# 1 118.9338 37.0666 34.9312 0.0000 -16.1712 -0.0001
# 2 37.0666 58.3877 31.0767 0.0000 -5.9189 -0.0002
# 3 34.9312 31.0767 79.8680 0.0000 -12.0556 0.0000
# 4 0.0000 0.0000 0.0000 28.1143 0.0000 -1.9230
# 5 -16.1712 -5.9189 -12.0556 0.0000 37.9809 0.0000
# 6 -0.0001 -0.0002 0.0000 -1.9230 0.0000 8.1266
#
#
#
# Elastic Compliance Matrix: (Units=1/GPa)
#
#
# Indices 1 2 3 4 5 6 
#
# 1 0.011257 -0.005623 -0.002252 0.000000 0.003202 0.000000
# 2 -0.005623 0.024429 -0.007176 0.000000 -0.000865 0.000001
# 3 -0.002252 -0.007176 0.016789 0.000000 0.003252 0.000000
# 4 0.000000 0.000000 0.000000 0.036154 0.000000 0.008555
# 5 0.003202 -0.000865 0.003252 0.000000 0.028590 0.000000
# 6 0.000000 0.000001 0.000000 0.008555 0.000000 0.125077
#
#
# Mechanical properties :
#
#
# Convention : Reuss Voigt Hill
#
# Bulk Modulus (GPa) = 44.70047 51.48203 48.09125
# Shear Modulus (GPa) = 17.86629 25.11870 21.49250
#
# Velocity S-wave (km/s) = 3.04372 3.60899 3.33834
# Velocity P-wave (km/s) = 5.96078 6.63788 6.30842
#
# Compressibility (1/GPa) = 0.02237113
#
# Stress axis : x y z
#
# Youngs Moduli (GPa) = 88.83035 40.93549 59.56328
#
# Poissons Ratio (x) = 0.23019 0.13415
# Poissons Ratio (y) = 0.49952 0.42745
# Poissons Ratio (z) = 0.20007 0.29377
#
# Static dielectric constant tensor:
#      x y z
#    x 3.651740 0.000000 0.035760 
#    y 0.000000 3.322510 0.000000 
#    z 0.035760 0.000000 3.548160 
# 
# 
# High freq. dielectric constant tensor:
#      x y z
#    x 1.763790 0.000000 0.000250 
#    y 0.000000 1.734490 0.000000 
#    z 0.000250 0.000000 1.762580 
# 
# From -- ./inp_files/275330.got.cif
#   From: 2010.06.25/outbox.cif.g09.slc.cpg/sg12_138_cif.got.tgz:275330.got - 2010.06.28 00:19:55.
