data_PCOD8099082
_publ_section_title
;
Structure prediction by ZEFSAII (Michael W. Deem and Ramdas Pophale) SiO2 
 PCOD8099082
Probable space group: C 2/M
;
_chemical_formula_sum "Si O2"
_cell_formula_units_Z 64
_cell_length_a 25.367790
_cell_length_b 9.134472
_cell_length_c 29.185441
_cell_angle_alpha 90.000000
_cell_angle_beta 29.280226
_cell_angle_gamma 90.000000
_cell_volume 3307.604212
_symmetry_space_group_name_H-M "C 2/M"
_symmetry_group_IT_number 12
_symmetry_cell_setting 'monoclinic'
loop_
_space_group_symop_operation_xyz
x,y,z
-x,y,-z
-x,-y,-z
x,-y,z
1/2+x,1/2+y,z
1/2-x,1/2+y,-z
1/2-x,1/2-y,-z
1/2+x,1/2-y,z
loop_
_atom_site_type_symbol
_atom_site_label
_atom_site_fract_x
_atom_site_fract_y
_atom_site_fract_z
Si Si1 0.272616 0.829619 0.935762
Si Si2 0.976841 0.827802 0.787587
Si Si3 0.202879 0.827110 0.282515
Si Si4 0.881321 0.664861 0.569719
Si Si5 0.860949 0.168838 0.411417
Si Si6 0.528697 0.329960 0.579629
Si Si7 0.961521 0.169789 0.902003
Si Si8 0.084155 0.173671 0.896788
O O1 0.378921 0.752654 0.834565
O O2 0.295749 0.000000 0.926257
O O3 0.250000 0.750000 0.000000
O O4 0.164078 0.806309 0.988048
O O5 0.987818 0.765520 0.831336
O O6 0.085332 0.790631 0.677905
O O7 0.950912 0.000000 0.807019
O O8 0.196845 0.756599 0.337820
O O9 0.303248 0.755875 0.179484
O O10 0.095483 0.786807 0.335382
O O11 0.218766 0.000000 0.275248
O O12 0.835366 0.500000 0.599487
O O13 0.887514 0.740541 0.515468
O O14 0.000000 0.663242 0.500000
O O15 0.750000 0.250000 0.500000
O O16 0.943898 0.210776 0.388963
O O17 0.832582 0.000000 0.435558
O O18 0.546144 0.500000 0.555062
O O19 0.036434 0.236401 0.884893
O O20 0.987691 0.000000 0.879365
O O21 0.104302 0.000000 0.880682
O O22 0.000000 0.216136 0.000000
#
# Coordination Sequence:
#
# PCOD8099082 Si02
#       8
#     8   8   8   8   8   8   8   8
#     4   9  16  29  51  77 102 128 165 211 256 306
#     4   9  18  34  54  75 102 136 174 215 261 312
#     4  10  20  35  55  78 106 140 176 217 267 322
#     4   9  17  31  54  82 106 131 172 219 258 306
#     4  10  22  38  54  76 107 142 179 220 267 319
#     4   9  19  36  55  77 109 143 173 213 270 324
#     4   8  16  32  52  74 102 135 168 210 266 313
#     4  10  21  36  52  73 105 142 179 220 264 313
#
# _framework density 19.349353000000001
#
# number of rings (size 3 to 8) (size 9 to 14) (size 15 to 20)
#    0.000    2.750    0.000    1.875    0.000    5.250 
#    0.000    4.375    0.000    0.000    0.000    0.000 
#    0.000    0.000    0.000    0.000    0.000    0.000 
#
# Total GULP energy -396645.612403 kJ/mol
# GULP energy per Si atom -12395.175388 kJ/mol
# Density = 1.930531 g / cm^3
# Si number density = 19.349353 Si / 1000 Ang^3
#
#
#
# Elastic Constant Matrix: (Units=GPa)
#
#
# Indices 1 2 3 4 5 6 
#
# 1 97.9987 34.3839 59.6366 0.0002 3.1463 0.0002
# 2 34.3839 73.0057 57.7263 -0.0004 -0.2126 0.0022
# 3 59.6366 57.7263 146.2799 0.0004 2.0779 0.0005
# 4 0.0002 -0.0004 0.0004 37.3260 0.0000 -3.3841
# 5 3.1463 -0.2126 2.0779 0.0000 25.4702 -0.0006
# 6 0.0002 0.0022 0.0005 -3.3841 -0.0006 19.2766
#
#
#
# Elastic Compliance Matrix: (Units=1/GPa)
#
#
# Indices 1 2 3 4 5 6 
#
# 1 0.014066 -0.003067 -0.004504 0.000000 -0.001396 0.000000
# 2 -0.003067 0.020596 -0.006893 0.000000 0.001113 -0.000002
# 3 -0.004504 -0.006893 0.011399 0.000000 -0.000431 0.000000
# 4 0.000000 0.000000 0.000000 0.027224 0.000000 0.004779
# 5 -0.001396 0.001113 -0.000431 0.000000 0.039478 0.000001
# 6 0.000000 -0.000002 0.000000 0.004779 0.000001 0.052715
#
#
# Mechanical properties :
#
#
# Convention : Reuss Voigt Hill
#
# Bulk Modulus (GPa) = 58.37161 68.97534 63.67348
# Shear Modulus (GPa) = 24.98511 27.45040 26.21775
#
# Velocity S-wave (km/s) = 3.59731 3.77061 3.68498
# Velocity P-wave (km/s) = 6.89108 7.39469 7.14732
#
# Compressibility (1/GPa) = 0.01713162
#
# Stress axis : x y z
#
# Youngs Moduli (GPa) = 71.09153 48.55363 87.72765
#
# Poissons Ratio (x) = 0.14893 0.39516
# Poissons Ratio (y) = 0.21806 0.60471
# Poissons Ratio (z) = 0.32023 0.33468
#
# Static dielectric constant tensor:
#      x y z
#    x 3.836190 -0.000090 0.286110 
#    y -0.000090 3.608490 -0.000150 
#    z 0.286110 -0.000150 4.348220 
# 
# 
# High freq. dielectric constant tensor:
#      x y z
#    x 1.739570 0.000000 -0.002270 
#    y 0.000000 1.738580 0.000000 
#    z -0.002270 0.000000 1.754360 
# 
# From -- ./inp_files/382328.got.cif
#   From: 2010.06.25/outbox.cif.g09.slc.cpg/sg12_192_cif.got.tgz:382328.got - 2010.06.28 00:19:55.
