data_PCOD8099384
_publ_section_title
;
Structure prediction by ZEFSAII (Michael W. Deem and Ramdas Pophale) SiO2 
 PCOD8099384
Probable space group: C 2/M
;
_chemical_formula_sum "Si O2"
_cell_formula_units_Z 36
_cell_length_a 11.661881
_cell_length_b 30.816956
_cell_length_c 4.913814
_cell_angle_alpha 90.000000
_cell_angle_beta 79.533494
_cell_angle_gamma 90.000000
_cell_volume 1736.561454
_symmetry_space_group_name_H-M "C 2/M"
_symmetry_group_IT_number 12
_symmetry_cell_setting 'monoclinic'
loop_
_space_group_symop_operation_xyz
x,y,z
-x,y,-z
-x,-y,-z
x,-y,z
1/2+x,1/2+y,z
1/2-x,1/2+y,-z
1/2-x,1/2-y,-z
1/2+x,1/2-y,z
loop_
_atom_site_type_symbol
_atom_site_label
_atom_site_fract_x
_atom_site_fract_y
_atom_site_fract_z
Si Si1 0.389968 0.328509 0.368085
Si Si2 0.232165 0.914480 0.552672
Si Si3 0.413089 0.500000 0.292656
Si Si4 0.134206 0.616626 0.016451
Si Si5 0.771564 0.200792 0.917683
O O1 0.500000 0.315252 0.500000
O O2 0.372424 0.380044 0.366849
O O3 0.288374 0.304833 0.586904
O O4 0.384563 0.312476 0.056517
O O5 0.283441 0.909861 0.227704
O O6 0.174440 0.959831 0.650792
O O7 0.341139 0.905481 0.704656
O O8 0.500000 0.500000 0.500000
O O9 0.500000 0.500000 0.000000
O O10 0.165745 0.667865 0.033849
O O11 0.000000 0.611506 0.000000
O O12 0.750000 0.250000 0.000000
#
# Coordination Sequence:
#
# PCOD8099384 Si02
#       5
#     8   8   4   8   8
#     4  10  20  35  56  79 111 147 178 229 293 343
#     4  10  22  39  58  87 116 145 194 237 283 355
#     4  12  24  40  65  92 119 150 186 242 304 354
#     4  10  21  39  60  81 117 161 194 235 289 339
#     4  10  21  36  54  83 113 144 195 241 276 337
#
# _framework density 20.730623999999999
#
# number of rings (size 3 to 8) (size 9 to 14) (size 15 to 20)
#    0.000    1.778    0.000    4.000    0.000    5.333 
#    0.000    3.333    0.000    0.000    0.000    0.000 
#    0.000    0.000    0.000    0.000    0.000    0.000 
#
# Total GULP energy -223039.016030 kJ/mol
# GULP energy per Si atom -12391.056446 kJ/mol
# Density = 2.068344 g / cm^3
# Si number density = 20.730624 Si / 1000 Ang^3
#
#
#
# Elastic Constant Matrix: (Units=GPa)
#
#
# Indices 1 2 3 4 5 6 
#
# 1 91.1473 26.0343 -2.1118 0.0000 16.2360 0.0000
# 2 26.0343 151.3612 22.1936 0.0000 -12.4274 0.0000
# 3 -2.1118 22.1936 91.5880 0.0000 14.2965 0.0000
# 4 0.0000 0.0000 0.0000 20.9195 0.0000 1.8666
# 5 16.2360 -12.4274 14.2965 0.0000 30.5426 0.0000
# 6 0.0000 0.0000 0.0000 1.8666 0.0000 14.1154
#
#
#
# Elastic Compliance Matrix: (Units=1/GPa)
#
#
# Indices 1 2 3 4 5 6 
#
# 1 0.013883 -0.003631 0.002786 0.000000 -0.010161 0.000000
# 2 -0.003631 0.008245 -0.003136 0.000000 0.006753 0.000000
# 3 0.002786 -0.003136 0.013132 0.000000 -0.008904 0.000000
# 4 0.000000 0.000000 0.000000 0.048373 0.000000 -0.006397
# 5 -0.010161 0.006753 -0.008904 0.000000 0.045058 0.000000
# 6 0.000000 0.000000 0.000000 -0.006397 0.000000 0.071691
#
#
# Mechanical properties :
#
#
# Convention : Reuss Voigt Hill
#
# Bulk Modulus (GPa) = 36.63032 47.36986 42.00009
# Shear Modulus (GPa) = 22.99447 32.31417 27.65432
#
# Velocity S-wave (km/s) = 3.33408 3.95240 3.65634
# Velocity P-wave (km/s) = 5.70346 6.61275 6.17487
#
# Compressibility (1/GPa) = 0.02729979
#
# Stress axis : x y z
#
# Youngs Moduli (GPa) = 72.03134 121.27941 76.14721
#
# Poissons Ratio (x) = 0.44032 -0.21215
# Poissons Ratio (y) = 0.26152 0.23878
# Poissons Ratio (z) = -0.20068 0.38031
#
# Static dielectric constant tensor:
#      x y z
#    x 3.575030 0.000000 0.219750 
#    y 0.000000 3.635470 0.000000 
#    z 0.219750 0.000000 4.106310 
# 
# 
# High freq. dielectric constant tensor:
#      x y z
#    x 1.801860 0.000000 0.018320 
#    y 0.000000 1.800270 0.000000 
#    z 0.018320 0.000000 1.833960 
# 
# From -- ./inp_files/7399.got.cif
#   From: 2010.06.25/outbox.cif.g09.slc.cpg/sg12_4_cif.got.tgz:7399.got - 2010.06.28 00:19:55.
