data_PCOD8099869
_publ_section_title
;
Structure prediction by ZEFSAII (Michael W. Deem and Ramdas Pophale) SiO2 
 PCOD8099869
Probable space group: C 2/M
;
_chemical_formula_sum "Si O2"
_cell_formula_units_Z 48
_cell_length_a 29.846080
_cell_length_b 8.738468
_cell_length_c 12.176414
_cell_angle_alpha 90.000000
_cell_angle_beta 128.972226
_cell_angle_gamma 90.000000
_cell_volume 2468.965339
_symmetry_space_group_name_H-M "C 2/M"
_symmetry_group_IT_number 12
_symmetry_cell_setting 'monoclinic'
loop_
_space_group_symop_operation_xyz
x,y,z
-x,y,-z
-x,-y,-z
x,-y,z
1/2+x,1/2+y,z
1/2-x,1/2+y,-z
1/2-x,1/2-y,-z
1/2+x,1/2-y,z
loop_
_atom_site_type_symbol
_atom_site_label
_atom_site_fract_x
_atom_site_fract_y
_atom_site_fract_z
Si Si1 0.255970 0.177833 0.335313
Si Si2 0.281723 0.679667 0.151743
Si Si3 0.531371 0.678592 0.159679
Si Si4 0.504154 0.819473 0.342245
Si Si5 0.913729 0.818367 0.359740
Si Si6 0.336041 0.677455 0.626588
O O1 0.249634 0.267674 0.212246
O O2 0.313785 0.226421 0.488556
O O3 0.199962 0.220791 0.320527
O O4 0.259310 0.000000 0.313550
O O5 0.277935 0.500000 0.136301
O O6 0.347788 0.735043 0.255881
O O7 0.250000 0.750000 0.000000
O O8 0.522332 0.500000 0.171334
O O9 0.503075 0.776393 0.213001
O O10 0.598262 0.720441 0.249301
O O11 0.500000 0.727686 0.000000
O O12 0.558643 0.737802 0.483460
O O13 0.445192 0.760448 0.305589
O O14 0.509208 0.000000 0.366329
O O15 0.920663 0.000000 0.361724
O O16 0.327908 0.500000 0.584225
#
# Coordination Sequence:
#
# PCOD8099869 Si02
#       6
#     8   8   8   8   8   8
#     4  10  20  35  57  83 110 142 183 229 274 322
#     4  11  24  39  57  82 113 149 186 226 275 331
#     4  10  21  37  56  78 109 149 187 222 267 329
#     4  11  22  36  58  87 114 141 181 235 285 323
#     4  10  21  39  61  82 108 147 190 226 269 332
#     4   9  19  36  57  81 108 142 185 227 270 324
#
# _framework density 19.441341999999999
#
# number of rings (size 3 to 8) (size 9 to 14) (size 15 to 20)
#    0.000    1.833    0.000    5.000    0.000    9.667 
#    0.000    3.333    0.000    0.000    0.000    0.000 
#    0.000    0.000    0.000    0.000    0.000    0.000 
#
# Total GULP energy -297734.957735 kJ/mol
# GULP energy per Si atom -12405.623239 kJ/mol
# Density = 1.939709 g / cm^3
# Si number density = 19.441342 Si / 1000 Ang^3
#
#
#
# Elastic Constant Matrix: (Units=GPa)
#
#
# Indices 1 2 3 4 5 6 
#
# 1 85.1403 32.3665 56.1155 0.0000 -19.2789 0.0000
# 2 32.3665 62.7099 31.8182 0.0000 -7.3855 0.0000
# 3 56.1155 31.8182 114.1831 0.0000 -22.4199 0.0000
# 4 0.0000 0.0000 0.0000 33.8652 0.0000 -4.8767
# 5 -19.2789 -7.3855 -22.4199 0.0000 25.3639 0.0000
# 6 0.0000 0.0000 0.0000 -4.8767 0.0000 30.9358
#
#
#
# Elastic Compliance Matrix: (Units=1/GPa)
#
#
# Indices 1 2 3 4 5 6 
#
# 1 0.020252 -0.006131 -0.006743 0.000000 0.007648 0.000000
# 2 -0.006131 0.020450 -0.002942 0.000000 -0.001306 0.000000
# 3 -0.006743 -0.002942 0.014178 0.000000 0.006550 0.000000
# 4 0.000000 0.000000 0.000000 0.030215 0.000000 0.004763
# 5 0.007648 -0.001306 0.006550 0.000000 0.050649 0.000000
# 6 0.000000 0.000000 0.000000 0.004763 0.000000 0.033076
#
#
# Mechanical properties :
#
#
# Convention : Reuss Voigt Hill
#
# Bulk Modulus (GPa) = 43.01401 55.84817 49.43109
# Shear Modulus (GPa) = 24.01552 27.48185 25.74868
#
# Velocity S-wave (km/s) = 3.51847 3.76384 3.64322
# Velocity P-wave (km/s) = 6.21926 6.90489 6.57102
#
# Compressibility (1/GPa) = 0.02324824
#
# Stress axis : x y z
#
# Youngs Moduli (GPa) = 49.37823 48.90075 70.53419
#
# Poissons Ratio (x) = 0.29980 0.47559
# Poissons Ratio (y) = 0.30272 0.20751
# Poissons Ratio (z) = 0.33294 0.14386
#
# Static dielectric constant tensor:
#      x y z
#    x 3.602330 0.000000 0.000100 
#    y 0.000000 3.541970 0.000000 
#    z 0.000100 0.000000 3.517470 
# 
# 
# High freq. dielectric constant tensor:
#      x y z
#    x 1.767720 0.000000 -0.005230 
#    y 0.000000 1.760820 0.000000 
#    z -0.005230 0.000000 1.753250 
# 
# From -- ./inp_files/180246.got.cif
#   From: 2010.06.25/outbox.cif.g09.slc.cpg/sg12_91_cif.got.tgz:180246.got - 2010.06.28 00:19:55.
