data_PCOD8099425
_publ_section_title
;
Structure prediction by ZEFSAII (Michael W. Deem and Ramdas Pophale) SiO2 
 PCOD8099425
Probable space group: C 2/M
;
_chemical_formula_sum "Si O2"
_cell_formula_units_Z 64
_cell_length_a 19.664916
_cell_length_b 9.538571
_cell_length_c 23.725479
_cell_angle_alpha 90.000000
_cell_angle_beta 127.206970
_cell_angle_gamma 90.000000
_cell_volume 3544.478839
_symmetry_space_group_name_H-M "C 2/M"
_symmetry_group_IT_number 12
_symmetry_cell_setting 'monoclinic'
loop_
_space_group_symop_operation_xyz
x,y,z
-x,y,-z
-x,-y,-z
x,-y,z
1/2+x,1/2+y,z
1/2-x,1/2+y,-z
1/2-x,1/2-y,-z
1/2+x,1/2-y,z
loop_
_atom_site_type_symbol
_atom_site_label
_atom_site_fract_x
_atom_site_fract_y
_atom_site_fract_z
Si Si1 0.028568 0.165794 0.182038
Si Si2 0.280977 0.334558 0.687881
Si Si3 0.032590 0.336022 0.955868
Si Si4 0.636227 0.166806 0.701549
Si Si5 0.713260 0.835280 0.533105
Si Si6 0.981472 0.335891 0.550838
Si Si7 0.381139 0.341251 0.195811
Si Si8 0.275794 0.844801 0.962780
O O1 0.121951 0.212347 0.251137
O O2 0.011172 0.247033 0.115478
O O3 0.957939 0.208765 0.193237
O O4 0.024438 0.000000 0.167769
O O5 0.272517 0.500000 0.681935
O O6 0.217271 0.279578 0.705107
O O7 0.251621 0.278530 0.611646
O O8 0.013867 0.500000 0.935055
O O9 0.131678 0.299762 0.011559
O O10 0.000000 0.286456 0.000000
O O11 0.549506 0.222396 0.629300
O O12 0.632238 0.236132 0.760110
O O13 0.639542 0.000000 0.711045
O O14 0.750000 0.750000 0.500000
O O15 0.613646 0.801407 0.478633
O O16 0.732482 0.000000 0.535501
O O17 0.998003 0.500000 0.553525
O O18 0.000000 0.264182 0.500000
O O19 0.400008 0.500000 0.225876
O O20 0.290545 0.332865 0.120520
O O21 0.278198 0.000000 0.989059
O O22 0.250000 0.750000 0.000000
#
# Coordination Sequence:
#
# PCOD8099425 Si02
#       8
#     8   8   8   8   8   8   8   8
#     4  10  21  38  56  77 108 144 180 214 260 322
#     4   9  19  36  56  78 107 143 179 219 264 314
#     4  10  22  38  57  81 108 139 176 221 271 314
#     4  10  20  35  57  82 105 137 184 225 260 310
#     4  10  20  35  56  80 108 142 179 220 267 314
#     4   9  16  32  57  79 102 137 182 227 263 303
#     4  10  22  37  54  79 111 143 173 214 270 321
#     4  10  20  37  58  78 104 139 179 220 264 314
#
# _framework density 18.056251
#
# number of rings (size 3 to 8) (size 9 to 14) (size 15 to 20)
#    0.000    2.250    2.500    0.000    3.500    1.250 
#    0.000    1.250    0.000    0.750    0.000    0.000 
#    0.000    0.000    0.000    0.000    0.000    0.000 
#
# Total GULP energy -396676.136205 kJ/mol
# GULP energy per Si atom -12396.129256 kJ/mol
# Density = 1.801515 g / cm^3
# Si number density = 18.056251 Si / 1000 Ang^3
#
#
#
# Elastic Constant Matrix: (Units=GPa)
#
#
# Indices 1 2 3 4 5 6 
#
# 1 145.4450 54.6951 81.3001 0.0000 -10.3574 0.0000
# 2 54.6951 44.1121 41.2246 0.0000 -8.4057 0.0000
# 3 81.3001 41.2246 113.4751 0.0000 2.9621 0.0000
# 4 0.0000 0.0000 0.0000 26.7244 0.0000 -7.1163
# 5 -10.3574 -8.4057 2.9621 0.0000 40.1507 0.0000
# 6 0.0000 0.0000 0.0000 -7.1163 0.0000 23.6219
#
#
#
# Elastic Compliance Matrix: (Units=1/GPa)
#
#
# Indices 1 2 3 4 5 6 
#
# 1 0.015391 -0.012709 -0.006456 0.000000 0.001786 0.000000
# 2 -0.012709 0.047681 -0.008407 0.000000 0.007324 0.000000
# 3 -0.006456 -0.008407 0.016614 0.000000 -0.004651 0.000000
# 4 0.000000 0.000000 0.000000 0.040683 0.000000 0.012256
# 5 0.001786 0.007324 -0.004651 0.000000 0.027243 0.000000
# 6 0.000000 0.000000 0.000000 0.012256 0.000000 0.046026
#
#
# Mechanical properties :
#
#
# Convention : Reuss Voigt Hill
#
# Bulk Modulus (GPa) = 40.75108 73.05243 56.90176
# Shear Modulus (GPa) = 19.45801 26.48689 22.97245
#
# Velocity S-wave (km/s) = 3.28629 3.83418 3.57076
# Velocity P-wave (km/s) = 6.08421 7.75547 6.97011
#
# Compressibility (1/GPa) = 0.02453923
#
# Stress axis : x y z
#
# Youngs Moduli (GPa) = 64.97297 20.97288 60.19021
#
# Poissons Ratio (x) = 0.26655 0.38861
# Poissons Ratio (y) = 0.82577 0.50604
# Poissons Ratio (z) = 0.41949 0.17633
#
# Static dielectric constant tensor:
#      x y z
#    x 3.569430 0.000000 0.303390 
#    y 0.000000 3.078870 0.000000 
#    z 0.303390 0.000000 3.546760 
# 
# 
# High freq. dielectric constant tensor:
#      x y z
#    x 1.715250 0.000000 0.006970 
#    y 0.000000 1.667460 0.000000 
#    z 0.006970 0.000000 1.711330 
# 
# From -- ./inp_files/346105.got.cif
#   From: 2010.06.25/outbox.cif.g09.slc.cpg/sg12_174_cif.got.tgz:346105.got - 2010.06.28 00:19:55.
