data_PCOD8099730
_publ_section_title
;
Structure prediction by ZEFSAII (Michael W. Deem and Ramdas Pophale) SiO2 
 PCOD8099730
Probable space group: C 2/M
;
_chemical_formula_sum "Si O2"
_cell_formula_units_Z 56
_cell_length_a 9.833129
_cell_length_b 21.572235
_cell_length_c 15.268015
_cell_angle_alpha 90.000000
_cell_angle_beta 64.363946
_cell_angle_gamma 90.000000
_cell_volume 2919.875342
_symmetry_space_group_name_H-M "C 2/M"
_symmetry_group_IT_number 12
_symmetry_cell_setting 'monoclinic'
loop_
_space_group_symop_operation_xyz
x,y,z
-x,y,-z
-x,-y,-z
x,-y,z
1/2+x,1/2+y,z
1/2-x,1/2+y,-z
1/2-x,1/2-y,-z
1/2+x,1/2-y,z
loop_
_atom_site_type_symbol
_atom_site_label
_atom_site_fract_x
_atom_site_fract_y
_atom_site_fract_z
Si Si1 0.917009 0.629009 0.169586
Si Si2 0.924605 0.246425 0.928826
Si Si3 0.722275 0.928598 0.096822
Si Si4 0.146540 0.121647 0.111758
Si Si5 0.846595 0.929788 0.241408
Si Si6 0.787617 0.073593 0.631886
Si Si7 0.624450 0.573220 0.579773
O O1 0.802475 0.620868 0.121294
O O2 0.831667 0.617008 0.284797
O O3 0.001573 0.695295 0.142390
O O4 0.045079 0.576753 0.126315
O O5 0.940431 0.187725 0.859352
O O6 0.750000 0.250000 0.000000
O O7 0.000000 0.235144 0.000000
O O8 0.763239 0.898616 0.181092
O O9 0.771482 0.000000 0.078549
O O10 0.818043 0.891410 0.999228
O O11 0.029075 0.071607 0.181442
O O12 0.806447 0.899477 0.348028
O O13 0.790610 0.000000 0.258172
O O14 0.771581 0.089815 0.532689
O O15 0.952874 0.096147 0.615524
O O16 0.759889 0.000000 0.656757
O O17 0.613034 0.500000 0.591267
#
# Coordination Sequence:
#
# PCOD8099730 Si02
#       7
#     8   8   8   8   8   8   8
#     4  12  23  37  56  84 110 147 192 239 285 331
#     4  12  23  41  57  78 109 150 200 237 276 333
#     4  11  23  35  51  83 123 151 178 228 286 339
#     4  12  23  37  58  78 110 152 193 236 272 334
#     4  10  20  35  56  85 116 152 187 219 279 344
#     4   9  17  32  57  89 117 143 183 235 282 333
#     4   8  15  31  57  86 115 147 186 227 273 340
#
# _framework density 19.178901
#
# number of rings (size 3 to 8) (size 9 to 14) (size 15 to 20)
#    0.000    1.429    4.286    3.429    0.000    3.429 
#    0.000    0.714    0.000    4.286    0.000    0.000 
#    0.000    0.000    0.000    0.000    0.000    0.000 
#
# Total GULP energy -346957.048036 kJ/mol
# GULP energy per Si atom -12391.323144 kJ/mol
# Density = 1.913525 g / cm^3
# Si number density = 19.178901 Si / 1000 Ang^3
#
#
#
# Elastic Constant Matrix: (Units=GPa)
#
#
# Indices 1 2 3 4 5 6 
#
# 1 96.2488 28.8048 43.3762 0.0000 18.4069 0.0000
# 2 28.8048 52.4404 36.5756 0.0000 3.8060 0.0000
# 3 43.3762 36.5756 149.5512 0.0000 22.3293 0.0000
# 4 0.0000 0.0000 0.0000 22.6405 0.0000 -4.8449
# 5 18.4069 3.8060 22.3293 0.0000 34.8370 0.0000
# 6 0.0000 0.0000 0.0000 -4.8449 0.0000 27.7797
#
#
#
# Elastic Compliance Matrix: (Units=1/GPa)
#
#
# Indices 1 2 3 4 5 6 
#
# 1 0.014087 -0.006109 -0.001747 0.000000 -0.005656 0.000000
# 2 -0.006109 0.025686 -0.005057 0.000000 0.003663 0.000000
# 3 -0.001747 -0.005057 0.009079 0.000000 -0.004343 0.000000
# 4 0.000000 0.000000 0.000000 0.045881 0.000000 0.008002
# 5 -0.005656 0.003663 -0.004343 0.000000 0.034077 0.000000
# 6 0.000000 0.000000 0.000000 0.008002 0.000000 0.037393
#
#
# Mechanical properties :
#
#
# Convention : Reuss Voigt Hill
#
# Bulk Modulus (GPa) = 43.42993 57.30595 50.36794
# Shear Modulus (GPa) = 25.03700 29.68370 27.36035
#
# Velocity S-wave (km/s) = 3.61701 3.93838 3.78111
# Velocity P-wave (km/s) = 6.33542 7.11517 6.73659
#
# Compressibility (1/GPa) = 0.02302559
#
# Stress axis : x y z
#
# Youngs Moduli (GPa) = 70.98739 38.93178 110.14635
#
# Poissons Ratio (x) = 0.23782 0.19247
# Poissons Ratio (y) = 0.43363 0.55703
# Poissons Ratio (z) = 0.12404 0.19688
#
# Static dielectric constant tensor:
#      x y z
#    x 3.620760 0.000000 0.297180 
#    y 0.000000 3.746090 0.000000 
#    z 0.297180 0.000000 3.829830 
# 
# 
# High freq. dielectric constant tensor:
#      x y z
#    x 1.747730 0.000000 0.013680 
#    y 0.000000 1.709850 0.000000 
#    z 0.013680 0.000000 1.747220 
# 
# From -- ./inp_files/198399.got.cif
#   From: 2010.06.25/outbox.cif.g09.slc.cpg/sg12_100_cif.got.tgz:198399.got - 2010.06.28 00:19:55.
