data_PCOD8099504
_publ_section_title
;
Structure prediction by ZEFSAII (Michael W. Deem and Ramdas Pophale) SiO2 
 PCOD8099504
Probable space group: C 2/M
;
_chemical_formula_sum "Si O2"
_cell_formula_units_Z 64
_cell_length_a 18.862660
_cell_length_b 8.723219
_cell_length_c 24.862497
_cell_angle_alpha 90.000000
_cell_angle_beta 55.453425
_cell_angle_gamma 90.000000
_cell_volume 3369.576553
_symmetry_space_group_name_H-M "C 2/M"
_symmetry_group_IT_number 12
_symmetry_cell_setting 'monoclinic'
loop_
_space_group_symop_operation_xyz
x,y,z
-x,y,-z
-x,-y,-z
x,-y,z
1/2+x,1/2+y,z
1/2-x,1/2+y,-z
1/2-x,1/2-y,-z
1/2+x,1/2-y,z
loop_
_atom_site_type_symbol
_atom_site_label
_atom_site_fract_x
_atom_site_fract_y
_atom_site_fract_z
Si Si1 0.815423 0.319362 0.809327
Si Si2 0.409591 0.823584 0.561839
Si Si3 0.253135 0.677090 0.440587
Si Si4 0.469599 0.318916 0.809782
Si Si5 0.190926 0.822414 0.303007
Si Si6 0.854846 0.678761 0.303874
Si Si7 0.525989 0.317770 0.071974
Si Si8 0.366556 0.682198 0.072957
O O1 0.820140 0.500000 0.814255
O O2 0.895423 0.246624 0.804755
O O3 0.818359 0.279498 0.745592
O O4 0.727604 0.251434 0.873132
O O5 0.500000 0.763965 0.500000
O O6 0.340451 0.801733 0.544731
O O7 0.385846 0.721504 0.623554
O O8 0.415478 0.000000 0.577911
O O9 0.280042 0.500000 0.432317
O O10 0.250000 0.750000 0.500000
O O11 0.324227 0.766711 0.375494
O O12 0.462390 0.500000 0.813184
O O13 0.561246 0.272718 0.747198
O O14 0.459290 0.251373 0.874698
O O15 0.282144 0.783773 0.291083
O O16 0.182985 0.000000 0.291193
O O17 0.876684 0.500000 0.296840
O O18 0.522830 0.500000 0.074874
O O19 0.435133 0.256211 0.087494
O O20 0.603664 0.263291 0.999388
O O21 0.364798 0.500000 0.076367
#
# Coordination Sequence:
#
# PCOD8099504 Si02
#       8
#     8   8   8   8   8   8   8   8
#     4  11  22  35  53  78 110 146 182 221 269 323
#     4   9  19  36  57  80 106 139 178 218 262 314
#     4  10  20  35  56  81 110 143 180 223 270 319
#     4  11  22  35  53  79 110 143 180 224 274 323
#     4  10  21  37  57  80 107 140 180 225 269 317
#     4  10  21  38  58  79 106 141 182 227 274 325
#     4   8  15  30  53  79 105 135 177 225 268 317
#     4   8  15  30  53  79 104 136 179 222 266 319
#
# _framework density 18.993485
#
# number of rings (size 3 to 8) (size 9 to 14) (size 15 to 20)
#    0.000    2.375    0.000    3.375    0.000    4.750 
#    0.000    3.750    0.000    2.250    0.000    8.750 
#    0.000    0.000    0.000    0.000    0.000    0.000 
#
# Total GULP energy -396831.697458 kJ/mol
# GULP energy per Si atom -12400.990546 kJ/mol
# Density = 1.895026 g / cm^3
# Si number density = 18.993485 Si / 1000 Ang^3
#
#
#
# Elastic Constant Matrix: (Units=GPa)
#
#
# Indices 1 2 3 4 5 6 
#
# 1 93.3587 32.0356 78.1824 0.0000 -1.7021 0.0005
# 2 32.0356 51.6131 29.6103 -0.0001 1.9643 0.0010
# 3 78.1824 29.6103 142.2115 0.0000 0.3112 0.0000
# 4 0.0000 -0.0001 0.0000 17.9040 0.0000 0.4928
# 5 -1.7021 1.9643 0.3112 0.0000 38.0381 -0.0001
# 6 0.0005 0.0010 0.0000 0.4928 -0.0001 17.4726
#
#
#
# Elastic Compliance Matrix: (Units=1/GPa)
#
#
# Indices 1 2 3 4 5 6 
#
# 1 0.022349 -0.007811 -0.010663 0.000000 0.001491 0.000000
# 2 -0.007811 0.024779 -0.000862 0.000000 -0.001622 -0.000001
# 3 -0.010663 -0.000862 0.013075 0.000000 -0.000540 0.000000
# 4 0.000000 0.000000 0.000000 0.055897 0.000000 -0.001577
# 5 0.001491 -0.001622 -0.000540 0.000000 0.026444 0.000000
# 6 0.000000 -0.000001 0.000000 -0.001577 0.000000 0.057277
#
#
# Mechanical properties :
#
#
# Convention : Reuss Voigt Hill
#
# Bulk Modulus (GPa) = 46.44528 62.98222 54.71375
# Shear Modulus (GPa) = 20.35257 24.50663 22.42960
#
# Velocity S-wave (km/s) = 3.27701 3.59592 3.44017
# Velocity P-wave (km/s) = 6.23095 7.10442 6.68197
#
# Compressibility (1/GPa) = 0.02153071
#
# Stress axis : x y z
#
# Youngs Moduli (GPa) = 44.74513 40.35671 76.48323
#
# Poissons Ratio (x) = 0.31521 0.81558
# Poissons Ratio (y) = 0.34949 0.06591
# Poissons Ratio (z) = 0.47714 0.03478
#
# Static dielectric constant tensor:
#      x y z
#    x 3.522960 0.000000 -0.035500 
#    y 0.000000 3.295330 0.000000 
#    z -0.035500 0.000000 3.722630 
# 
# 
# High freq. dielectric constant tensor:
#      x y z
#    x 1.735320 0.000000 -0.000410 
#    y 0.000000 1.721290 0.000000 
#    z -0.000410 0.000000 1.753200 
# 
# From -- ./inp_files/345958.got.cif
#   From: 2010.06.25/outbox.cif.g09.slc.cpg/sg12_173_cif.got.tgz:345958.got - 2010.06.28 00:19:55.
