data_PCOD8099256
_publ_section_title
;
Structure prediction by ZEFSAII (Michael W. Deem and Ramdas Pophale) SiO2 
 PCOD8099256
Probable space group: C 2/M
;
_chemical_formula_sum "Si O2"
_cell_formula_units_Z 64
_cell_length_a 28.827314
_cell_length_b 15.041283
_cell_length_c 11.889834
_cell_angle_alpha 90.000000
_cell_angle_beta 38.409709
_cell_angle_gamma 90.000000
_cell_volume 3202.968187
_symmetry_space_group_name_H-M "C 2/M"
_symmetry_group_IT_number 12
_symmetry_cell_setting 'monoclinic'
loop_
_space_group_symop_operation_xyz
x,y,z
-x,y,-z
-x,-y,-z
x,-y,z
1/2+x,1/2+y,z
1/2-x,1/2+y,-z
1/2-x,1/2-y,-z
1/2+x,1/2-y,z
loop_
_atom_site_type_symbol
_atom_site_label
_atom_site_fract_x
_atom_site_fract_y
_atom_site_fract_z
Si Si1 0.877948 0.776455 0.458844
Si Si2 0.654256 0.100988 0.098109
Si Si3 0.731982 0.899027 0.725795
Si Si4 0.583203 0.253667 0.366988
Si Si5 0.007915 0.101790 0.116956
Si Si6 0.808613 0.897939 0.928899
Si Si7 0.791153 0.665085 0.464968
Si Si8 0.830549 0.102256 0.133980
O O1 0.802001 0.833823 0.608669
O O2 0.900019 0.730559 0.534784
O O3 0.864732 0.694887 0.395376
O O4 0.945156 0.839096 0.294100
O O5 0.595409 0.168583 0.263386
O O6 0.624286 0.000000 0.167829
O O7 0.669621 0.124082 0.938037
O O8 0.729520 0.115312 0.023363
O O9 0.691470 0.891991 0.680408
O O10 0.760485 0.000000 0.689850
O O11 0.500000 0.285073 0.500000
O O12 0.632227 0.339317 0.248164
O O13 0.998865 0.000000 0.177009
O O14 0.089047 0.145516 0.989937
O O15 0.000000 0.105281 0.000000
O O16 0.835239 0.000000 0.872549
O O17 0.801203 0.861531 0.070452
O O18 0.750000 0.750000 0.500000
O O19 0.732967 0.613515 0.653283
O O20 0.848959 0.000000 0.089682
#
# Coordination Sequence:
#
# PCOD8099256 Si02
#       8
#     8   8   8   8   8   8   8   8
#     4  11  22  37  55  90 123 155 194 239 296 357
#     4  10  22  41  65  86 111 158 210 255 297 346
#     4  10  20  37  62  87 114 151 197 251 299 348
#     4  12  25  39  60  89 125 165 198 246 303 355
#     4  10  20  35  55  81 120 163 194 228 286 359
#     4  10  21  37  61  90 120 157 198 242 298 359
#     4  10  21  33  55  86 115 147 193 245 293 344
#     4  10  20  35  55  82 117 154 191 237 289 350
#
# _framework density 19.981465
#
# number of rings (size 3 to 8) (size 9 to 14) (size 15 to 20)
#    0.000    1.625    1.250    4.125    3.500    2.000 
#    2.250    0.625    0.000    0.000    0.000    1.750 
#    0.000    0.000    0.000    0.000    0.000    0.000 
#
# Total GULP energy -396686.015299 kJ/mol
# GULP energy per Si atom -12396.437978 kJ/mol
# Density = 1.993599 g / cm^3
# Si number density = 19.981465 Si / 1000 Ang^3
#
#
#
# Elastic Constant Matrix: (Units=GPa)
#
#
# Indices 1 2 3 4 5 6 
#
# 1 116.0678 10.9363 36.4393 0.0000 23.7275 0.0000
# 2 10.9363 41.5023 21.5696 0.0000 1.1089 0.0000
# 3 36.4393 21.5696 73.1298 0.0000 18.0821 0.0000
# 4 0.0000 0.0000 0.0000 37.1337 0.0000 -8.3638
# 5 23.7275 1.1089 18.0821 0.0000 29.1860 0.0000
# 6 0.0000 0.0000 0.0000 -8.3638 0.0000 46.6924
#
#
#
# Elastic Compliance Matrix: (Units=1/GPa)
#
#
# Indices 1 2 3 4 5 6 
#
# 1 0.011244 -0.000883 -0.003649 0.000000 -0.006847 0.000000
# 2 -0.000883 0.029124 -0.009511 0.000000 0.005504 0.000000
# 3 -0.003649 -0.009511 0.020636 0.000000 -0.009457 0.000000
# 4 0.000000 0.000000 0.000000 0.028062 0.000000 0.005027
# 5 -0.006847 0.005504 -0.009457 0.000000 0.045479 0.000000
# 6 0.000000 0.000000 0.000000 0.005027 0.000000 0.022317
#
#
# Mechanical properties :
#
#
# Convention : Reuss Voigt Hill
#
# Bulk Modulus (GPa) = 30.37921 40.95448 35.66685
# Shear Modulus (GPa) = 25.52038 33.38606 29.45322
#
# Velocity S-wave (km/s) = 3.57767 4.09204 3.84347
# Velocity P-wave (km/s) = 5.68358 6.54730 6.13067
#
# Compressibility (1/GPa) = 0.03291724
#
# Stress axis : x y z
#
# Youngs Moduli (GPa) = 88.93415 34.33628 48.45853
#
# Poissons Ratio (x) = 0.03033 0.17684
# Poissons Ratio (y) = 0.07857 0.46088
# Poissons Ratio (z) = 0.32455 0.32656
#
# Static dielectric constant tensor:
#      x y z
#    x 4.485880 0.000000 0.278620 
#    y 0.000000 3.825070 0.000000 
#    z 0.278620 0.000000 3.489650 
# 
# 
# High freq. dielectric constant tensor:
#      x y z
#    x 1.790800 0.000000 0.022300 
#    y 0.000000 1.772400 0.000000 
#    z 0.022300 0.000000 1.766690 
# 
# From -- ./inp_files/183758.got.cif
#   From: 2010.06.25/outbox.cif.g09.slc.cpg/sg12_92_cif.got.tgz:183758.got - 2010.06.28 00:19:55.
