data_PCOD8099636
_publ_section_title
;
Structure prediction by ZEFSAII (Michael W. Deem and Ramdas Pophale) SiO2 
 PCOD8099636
Probable space group: C 2/M
;
_chemical_formula_sum "Si O2"
_cell_formula_units_Z 40
_cell_length_a 18.970171
_cell_length_b 8.433736
_cell_length_c 26.931676
_cell_angle_alpha 90.000000
_cell_angle_beta 151.686954
_cell_angle_gamma 90.000000
_cell_volume 2043.607021
_symmetry_space_group_name_H-M "C 2/M"
_symmetry_group_IT_number 12
_symmetry_cell_setting 'monoclinic'
loop_
_space_group_symop_operation_xyz
x,y,z
-x,y,-z
-x,-y,-z
x,-y,z
1/2+x,1/2+y,z
1/2-x,1/2+y,-z
1/2-x,1/2-y,-z
1/2+x,1/2-y,z
loop_
_atom_site_type_symbol
_atom_site_label
_atom_site_fract_x
_atom_site_fract_y
_atom_site_fract_z
Si Si1 0.591968 0.683817 0.315174
Si Si2 0.549868 0.815061 0.675292
Si Si3 0.825200 0.687819 0.095677
Si Si4 0.908496 0.183834 0.491522
Si Si5 0.661110 0.687008 0.090450
O O1 0.568176 0.500000 0.311791
O O2 0.554636 0.780174 0.342125
O O3 0.488365 0.738483 0.205067
O O4 0.759958 0.713389 0.402776
O O5 0.506376 0.711052 0.601203
O O6 0.720890 0.769138 0.793456
O O7 0.532756 0.000000 0.651894
O O8 0.840503 0.500000 0.104382
O O9 0.721414 0.750921 0.075689
O O10 0.750000 0.750000 0.000000
O O11 0.000000 0.240030 0.500000
O O12 0.865739 0.000000 0.460855
O O13 0.643976 0.500000 0.076443
O O14 0.500000 0.766320 0.000000
#
# Coordination Sequence:
#
# PCOD8099636 Si02
#       5
#     8   8   8   8   8
#     4  11  22  38  60  82 109 148 192 233 277 334
#     4  10  20  36  59  84 112 147 188 231 276 334
#     4  10  20  35  56  83 114 147 185 230 280 331
#     4  11  24  40  57  81 114 146 181 232 289 339
#     4   8  16  32  54  80 108 140 180 224 267 316
#
# _framework density 19.573235
#
# number of rings (size 3 to 8) (size 9 to 14) (size 15 to 20)
#    0.000    2.000    0.000    5.400    0.000    3.200 
#    0.000    2.000    0.000   20.400    0.000    0.000 
#    0.000    0.000    0.000    0.000    0.000    0.000 
#
# Total GULP energy -248031.789502 kJ/mol
# GULP energy per Si atom -12401.589475 kJ/mol
# Density = 1.952869 g / cm^3
# Si number density = 19.573235 Si / 1000 Ang^3
#
#
#
# Elastic Constant Matrix: (Units=GPa)
#
#
# Indices 1 2 3 4 5 6 
#
# 1 83.6239 12.2456 64.1144 -0.0003 3.9595 -0.0001
# 2 12.2456 57.3852 20.0739 0.0003 4.5956 0.0001
# 3 64.1144 20.0739 145.0360 0.0006 0.2105 0.0002
# 4 -0.0003 0.0003 0.0006 34.1070 0.0001 -5.3100
# 5 3.9595 4.5956 0.2105 0.0001 40.3068 0.0000
# 6 -0.0001 0.0001 0.0002 -5.3100 0.0000 21.7081
#
#
#
# Elastic Compliance Matrix: (Units=1/GPa)
#
#
# Indices 1 2 3 4 5 6 
#
# 1 0.018264 -0.000991 -0.007934 0.000000 -0.001640 0.000000
# 2 -0.000991 0.018542 -0.002125 0.000000 -0.002006 0.000000
# 3 -0.007934 -0.002125 0.010695 0.000000 0.000966 0.000000
# 4 0.000000 0.000000 0.000000 0.030480 0.000000 0.007456
# 5 -0.001640 -0.002006 0.000966 0.000000 0.025194 0.000000
# 6 0.000000 0.000000 0.000000 0.007456 0.000000 0.047889
#
#
# Mechanical properties :
#
#
# Convention : Reuss Voigt Hill
#
# Bulk Modulus (GPa) = 39.37002 53.21256 46.29129
# Shear Modulus (GPa) = 27.52807 31.86514 29.69661
#
# Velocity S-wave (km/s) = 3.75429 4.03922 3.89936
# Velocity P-wave (km/s) = 6.24106 6.99994 6.63136
#
# Compressibility (1/GPa) = 0.02540004
#
# Stress axis : x y z
#
# Youngs Moduli (GPa) = 54.75156 53.93279 93.50084
#
# Poissons Ratio (x) = 0.05343 0.74187
# Poissons Ratio (y) = 0.05424 0.19873
# Poissons Ratio (z) = 0.43442 0.11463
#
# Static dielectric constant tensor:
#      x y z
#    x 3.578340 0.000000 0.121710 
#    y 0.000000 3.410990 0.000000 
#    z 0.121710 0.000000 3.808800 
# 
# 
# High freq. dielectric constant tensor:
#      x y z
#    x 1.753190 0.000000 0.002340 
#    y 0.000000 1.756270 0.000000 
#    z 0.002340 0.000000 1.777350 
# 
# From -- ./inp_files/342754.got.cif
#   From: 2010.06.25/outbox.cif.g09.slc.cpg/sg12_172_cif.got.tgz:342754.got - 2010.06.28 00:19:55.
