data_PCOD8099569
_publ_section_title
;
Structure prediction by ZEFSAII (Michael W. Deem and Ramdas Pophale) SiO2 
 PCOD8099569
Probable space group: C 2/M
;
_chemical_formula_sum "Si O2"
_cell_formula_units_Z 64
_cell_length_a 21.066227
_cell_length_b 23.498638
_cell_length_c 7.832642
_cell_angle_alpha 90.000000
_cell_angle_beta 121.919277
_cell_angle_gamma 90.000000
_cell_volume 3291.091454
_symmetry_space_group_name_H-M "C 2/M"
_symmetry_group_IT_number 12
_symmetry_cell_setting 'monoclinic'
loop_
_space_group_symop_operation_xyz
x,y,z
-x,y,-z
-x,-y,-z
x,-y,z
1/2+x,1/2+y,z
1/2-x,1/2+y,-z
1/2-x,1/2-y,-z
1/2+x,1/2-y,z
loop_
_atom_site_type_symbol
_atom_site_label
_atom_site_fract_x
_atom_site_fract_y
_atom_site_fract_z
Si Si1 0.562900 0.838273 0.216886
Si Si2 0.196767 0.735133 0.270314
Si Si3 0.476189 0.271888 0.660071
Si Si4 0.665368 0.323456 0.652795
Si Si5 0.668638 0.935177 0.433627
Si Si6 0.787857 0.935411 0.893174
Si Si7 0.232166 0.936644 0.748859
Si Si8 0.617029 0.670752 0.957889
O O1 0.627240 0.804888 0.209385
O O2 0.521962 0.794621 0.287686
O O3 0.598625 0.892887 0.362799
O O4 0.500000 0.861864 0.000000
O O5 0.250000 0.750000 0.500000
O O6 0.250488 0.700345 0.219833
O O7 0.170327 0.794513 0.157675
O O8 0.500000 0.278539 0.500000
O O9 0.390791 0.294579 0.565034
O O10 0.529729 0.311008 0.858325
O O11 0.667808 0.390952 0.613173
O O12 0.633227 0.309573 0.790453
O O13 0.731077 0.918256 0.661794
O O14 0.698252 0.927583 0.281032
O O15 0.641978 0.000000 0.426326
O O16 0.815791 0.000000 0.907467
O O17 0.746336 0.928389 0.019079
O O18 0.862248 0.895810 0.987208
O O19 0.199074 0.000000 0.672904
#
# Coordination Sequence:
#
# PCOD8099569 Si02
#       8
#     8   8   8   8   8   8   8   8
#     4  12  23  39  56  83 116 150 190 238 292 342
#     4  12  21  33  56  83 107 143 194 235 281 340
#     4  10  22  39  54  80 121 157 183 231 292 345
#     4  10  20  35  56  82 111 149 193 229 282 348
#     4  10  21  39  62  85 113 149 193 242 289 340
#     4   9  19  36  60  88 115 148 194 238 284 339
#     4   9  18  35  58  87 116 144 188 247 286 328
#     4  10  21  36  54  81 117 151 182 234 287 339
#
# _framework density 19.446435999999999
#
# number of rings (size 3 to 8) (size 9 to 14) (size 15 to 20)
#    0.000    1.750    3.750    1.125    0.000    0.250 
#    4.500    0.625    0.000    4.125    0.000    3.500 
#    0.000    0.000    0.000    0.000    0.000    0.000 
#
# Total GULP energy -396564.781646 kJ/mol
# GULP energy per Si atom -12392.649426 kJ/mol
# Density = 1.940217 g / cm^3
# Si number density = 19.446436 Si / 1000 Ang^3
#
#
#
# Elastic Constant Matrix: (Units=GPa)
#
#
# Indices 1 2 3 4 5 6 
#
# 1 50.9292 19.5992 32.3753 0.0000 11.4873 0.0000
# 2 19.5992 104.0537 64.8180 0.0000 8.8657 0.0000
# 3 32.3753 64.8180 108.4561 0.0000 18.8194 0.0000
# 4 0.0000 0.0000 0.0000 33.5681 0.0000 5.3192
# 5 11.4873 8.8657 18.8194 0.0000 24.5452 0.0000
# 6 0.0000 0.0000 0.0000 5.3192 0.0000 31.5649
#
#
#
# Elastic Compliance Matrix: (Units=1/GPa)
#
#
# Indices 1 2 3 4 5 6 
#
# 1 0.025231 -0.000352 -0.006107 0.000000 -0.006999 0.000000
# 2 -0.000352 0.015378 -0.009401 0.000000 0.001818 0.000000
# 3 -0.006107 -0.009401 0.017967 0.000000 -0.007522 0.000000
# 4 0.000000 0.000000 0.000000 0.030608 0.000000 -0.005158
# 5 -0.006999 0.001818 -0.007522 0.000000 0.049127 0.000000
# 6 0.000000 0.000000 0.000000 -0.005158 0.000000 0.032550
#
#
# Mechanical properties :
#
#
# Convention : Reuss Voigt Hill
#
# Bulk Modulus (GPa) = 37.23507 55.22489 46.22998
# Shear Modulus (GPa) = 23.63699 27.71207 25.67453
#
# Velocity S-wave (km/s) = 3.49017 3.77907 3.63749
# Velocity P-wave (km/s) = 5.95238 6.89217 6.43944
#
# Compressibility (1/GPa) = 0.02685640
#
# Stress axis : x y z
#
# Youngs Moduli (GPa) = 39.63323 65.02838 55.65767
#
# Poissons Ratio (x) = 0.02288 0.33991
# Poissons Ratio (y) = 0.01395 0.52323
# Poissons Ratio (z) = 0.24204 0.61133
#
# Static dielectric constant tensor:
#      x y z
#    x 3.827970 0.000000 0.257730 
#    y 0.000000 3.823400 0.000000 
#    z 0.257730 0.000000 3.936460 
# 
# 
# High freq. dielectric constant tensor:
#      x y z
#    x 1.740060 0.000000 -0.009940 
#    y 0.000000 1.764600 0.000000 
#    z -0.009940 0.000000 1.756610 
# 
# From -- ./inp_files/99142.got.cif
#   From: 2010.06.25/outbox.cif.g09.slc.cpg/sg12_50_cif.got.tgz:99142.got - 2010.06.28 00:19:55.
