data_PCOD8099289
_publ_section_title
;
Structure prediction by ZEFSAII (Michael W. Deem and Ramdas Pophale) SiO2 
 PCOD8099289
Probable space group: C 2/M
;
_chemical_formula_sum "Si O2"
_cell_formula_units_Z 64
_cell_length_a 29.958594
_cell_length_b 8.564340
_cell_length_c 26.095798
_cell_angle_alpha 90.000000
_cell_angle_beta 150.359498
_cell_angle_gamma 90.000000
_cell_volume 3311.324339
_symmetry_space_group_name_H-M "C 2/M"
_symmetry_group_IT_number 12
_symmetry_cell_setting 'monoclinic'
loop_
_space_group_symop_operation_xyz
x,y,z
-x,y,-z
-x,-y,-z
x,-y,z
1/2+x,1/2+y,z
1/2-x,1/2+y,-z
1/2-x,1/2-y,-z
1/2+x,1/2-y,z
loop_
_atom_site_type_symbol
_atom_site_label
_atom_site_fract_x
_atom_site_fract_y
_atom_site_fract_z
Si Si1 0.250553 0.814503 0.172489
Si Si2 0.263444 0.186766 0.301064
Si Si3 0.914794 0.684168 0.267202
Si Si4 0.149795 0.184387 0.901147
Si Si5 0.398747 0.316766 0.514827
Si Si6 0.613922 0.679393 0.227412
Si Si7 0.762343 0.680322 0.456946
Si Si8 0.920169 0.813532 0.059966
O O1 0.260286 0.751388 0.239962
O O2 0.332816 0.751990 0.220250
O O3 0.250789 0.000000 0.173586
O O4 0.157348 0.751469 0.055526
O O5 0.351374 0.258377 0.415646
O O6 0.173257 0.250226 0.239991
O O7 0.269756 0.000000 0.311975
O O8 0.908384 0.500000 0.254083
O O9 0.909333 0.760854 0.205879
O O10 0.006138 0.730327 0.386625
O O11 0.100187 0.245662 0.902890
O O12 0.156730 0.000000 0.908388
O O13 0.250000 0.250000 0.000000
O O14 0.415136 0.500000 0.528694
O O15 0.339844 0.275879 0.505683
O O16 0.597573 0.500000 0.198025
O O17 0.667260 0.700384 0.333608
O O18 0.515580 0.758984 0.135734
O O19 0.791856 0.500000 0.488614
O O20 0.750000 0.750000 0.500000
O O21 0.923682 0.000000 0.063401
#
# Coordination Sequence:
#
# PCOD8099289 Si02
#       8
#     8   8   8   8   8   8   8   8
#     4   9  18  33  56  83 112 146 185 231 288 346
#     4   9  18  36  59  83 110 144 186 235 289 344
#     4  11  22  38  57  83 115 148 190 236 288 348
#     4  11  21  35  56  80 115 154 190 231 281 336
#     4  11  23  39  57  80 111 150 192 238 289 340
#     4   8  16  30  51  80 113 142 178 227 276 327
#     4  10  20  35  55  83 115 151 190 234 284 339
#     4   9  17  31  52  83 115 144 180 227 276 334
#
# _framework density 19.327615999999999
#
# number of rings (size 3 to 8) (size 9 to 14) (size 15 to 20)
#    0.000    2.250    1.250    3.000    1.750    1.000 
#    0.000    6.250    0.000    0.750    0.000    3.500 
#    0.000    0.000    0.000    0.000    0.000    0.000 
#
# Total GULP energy -396789.302633 kJ/mol
# GULP energy per Si atom -12399.665707 kJ/mol
# Density = 1.928363 g / cm^3
# Si number density = 19.327616 Si / 1000 Ang^3
#
#
#
# Elastic Constant Matrix: (Units=GPa)
#
#
# Indices 1 2 3 4 5 6 
#
# 1 105.6640 9.4899 75.0041 0.0000 -16.6956 0.0000
# 2 9.4899 33.6755 8.6989 0.0000 -4.9418 0.0000
# 3 75.0041 8.6989 134.2847 0.0000 1.7823 0.0000
# 4 0.0000 0.0000 0.0000 23.5837 0.0000 -3.3512
# 5 -16.6956 -4.9418 1.7823 0.0000 44.0464 0.0000
# 6 0.0000 0.0000 0.0000 -3.3512 0.0000 21.8459
#
#
#
# Elastic Compliance Matrix: (Units=1/GPa)
#
#
# Indices 1 2 3 4 5 6 
#
# 1 0.017714 -0.001415 -0.009895 0.000000 0.006956 0.000000
# 2 -0.001415 0.030853 -0.001248 0.000000 0.002976 0.000000
# 3 -0.009895 -0.001248 0.013113 0.000000 -0.004421 0.000000
# 4 0.000000 0.000000 0.000000 0.043347 0.000000 0.006650
# 5 0.006956 0.002976 -0.004421 0.000000 0.025853 0.000000
# 6 0.000000 0.000000 0.000000 0.006650 0.000000 0.046795
#
#
# Mechanical properties :
#
#
# Convention : Reuss Voigt Hill
#
# Bulk Modulus (GPa) = 27.34874 51.11220 39.23047
# Shear Modulus (GPa) = 23.25828 29.92396 26.59112
#
# Velocity S-wave (km/s) = 3.47273 3.93905 3.71321
# Velocity P-wave (km/s) = 5.50096 6.86955 6.22299
#
# Compressibility (1/GPa) = 0.03656476
#
# Stress axis : x y z
#
# Youngs Moduli (GPa) = 56.45379 32.41183 76.26077
#
# Poissons Ratio (x) = 0.04587 0.75456
# Poissons Ratio (y) = 0.07989 0.09515
# Poissons Ratio (z) = 0.55858 0.04044
#
# Static dielectric constant tensor:
#      x y z
#    x 3.793210 0.000000 0.032780 
#    y 0.000000 3.203530 0.000000 
#    z 0.032780 0.000000 3.635930 
# 
# 
# High freq. dielectric constant tensor:
#      x y z
#    x 1.760570 0.000000 0.001340 
#    y 0.000000 1.718090 0.000000 
#    z 0.001340 0.000000 1.761130 
# 
# From -- ./inp_files/353478.got.cif
#   From: 2010.06.25/outbox.cif.g09.slc.cpg/sg12_177_cif.got.tgz:353478.got - 2010.06.28 00:19:55.
