data_PCOD8099691
_publ_section_title
;
Structure prediction by ZEFSAII (Michael W. Deem and Ramdas Pophale) SiO2 
 PCOD8099691
Probable space group: C 2/M
;
_chemical_formula_sum "Si O2"
_cell_formula_units_Z 56
_cell_length_a 23.549173
_cell_length_b 8.544678
_cell_length_c 14.658904
_cell_angle_alpha 90.000000
_cell_angle_beta 108.686949
_cell_angle_gamma 90.000000
_cell_volume 2794.169421
_symmetry_space_group_name_H-M "C 2/M"
_symmetry_group_IT_number 12
_symmetry_cell_setting 'monoclinic'
loop_
_space_group_symop_operation_xyz
x,y,z
-x,y,-z
-x,-y,-z
x,-y,z
1/2+x,1/2+y,z
1/2-x,1/2+y,-z
1/2-x,1/2-y,-z
1/2+x,1/2-y,z
loop_
_atom_site_type_symbol
_atom_site_label
_atom_site_fract_x
_atom_site_fract_y
_atom_site_fract_z
Si Si1 0.942726 0.818375 0.074372
Si Si2 0.069531 0.316607 0.124310
Si Si3 0.689575 0.817420 0.663777
Si Si4 0.813411 0.317747 0.707593
Si Si5 0.352650 0.319451 0.546166
Si Si6 0.094684 0.318751 0.764302
Si Si7 0.990437 0.818872 0.599043
O O1 0.901677 0.778249 0.140079
O O2 0.011778 0.775781 0.131924
O O3 0.937737 0.000000 0.048098
O O4 0.919235 0.720128 0.976118
O O5 0.057936 0.500000 0.131313
O O6 0.126651 0.259071 0.211227
O O7 0.758195 0.777420 0.722579
O O8 0.669320 0.720639 0.565692
O O9 0.649265 0.763446 0.728414
O O10 0.680748 0.000000 0.639421
O O11 0.802313 0.500000 0.718255
O O12 0.817380 0.283913 0.601734
O O13 0.338263 0.500000 0.557896
O O14 0.422719 0.283861 0.592513
O O15 0.099693 0.500000 0.791501
O O16 0.031791 0.288808 0.682369
O O17 0.000000 0.768434 0.500000
O O18 0.007973 0.000000 0.622482
#
# Coordination Sequence:
#
# PCOD8099691 Si02
#       7
#     8   8   8   8   8   8   8
#     4  11  22  37  63  93 120 151 186 232 288 347
#     4  10  21  40  64  90 119 149 187 238 289 341
#     4  11  24  40  58  81 114 155 198 241 285 338
#     4  11  24  40  60  84 113 151 195 240 287 339
#     4  11  22  37  59  84 116 154 193 239 287 341
#     4  11  23  38  58  85 118 156 194 237 288 344
#     4  10  20  35  56  84 116 150 188 234 286 338
#
# _framework density 20.041733000000001
#
# number of rings (size 3 to 8) (size 9 to 14) (size 15 to 20)
#    0.000    1.286    1.429    5.571    0.000    7.714 
#    0.000    0.714    0.000    0.000    0.000    0.000 
#    0.000    0.000    0.000    0.000    0.000    0.000 
#
# Total GULP energy -347396.896677 kJ/mol
# GULP energy per Si atom -12407.032024 kJ/mol
# Density = 1.999612 g / cm^3
# Si number density = 20.041733 Si / 1000 Ang^3
#
#
#
# Elastic Constant Matrix: (Units=GPa)
#
#
# Indices 1 2 3 4 5 6 
#
# 1 101.1574 24.2487 44.8457 0.0000 -11.3691 0.0000
# 2 24.2487 47.2813 10.8573 0.0000 3.9832 0.0000
# 3 44.8457 10.8573 78.9428 0.0000 -12.5281 0.0000
# 4 0.0000 0.0000 0.0000 27.4927 0.0000 3.3677
# 5 -11.3691 3.9832 -12.5281 0.0000 28.3495 0.0000
# 6 0.0000 0.0000 0.0000 3.3677 0.0000 27.9561
#
#
#
# Elastic Compliance Matrix: (Units=1/GPa)
#
#
# Indices 1 2 3 4 5 6 
#
# 1 0.014950 -0.006376 -0.007014 0.000000 0.003791 0.000000
# 2 -0.006376 0.025164 -0.000867 0.000000 -0.006476 0.000000
# 3 -0.007014 -0.000867 0.017577 0.000000 0.005076 0.000000
# 4 0.000000 0.000000 0.000000 0.036918 0.000000 -0.004447
# 5 0.003791 -0.006476 0.005076 0.000000 0.039948 0.000000
# 6 0.000000 0.000000 0.000000 -0.004447 0.000000 0.036306
#
#
# Mechanical properties :
#
#
# Convention : Reuss Voigt Hill
#
# Bulk Modulus (GPa) = 34.27254 43.03164 38.65209
# Shear Modulus (GPa) = 23.91190 26.58833 25.25011
#
# Velocity S-wave (km/s) = 3.45788 3.64627 3.55332
# Velocity P-wave (km/s) = 5.75155 6.26456 6.01353
#
# Compressibility (1/GPa) = 0.02917788
#
# Stress axis : x y z
#
# Youngs Moduli (GPa) = 66.89178 39.73865 56.89368
#
# Poissons Ratio (x) = 0.25337 0.39905
# Poissons Ratio (y) = 0.42649 0.04931
# Poissons Ratio (z) = 0.46917 0.03444
#
# Static dielectric constant tensor:
#      x y z
#    x 3.800440 0.000000 -0.059260 
#    y 0.000000 3.586690 0.000000 
#    z -0.059260 0.000000 3.605120 
# 
# 
# High freq. dielectric constant tensor:
#      x y z
#    x 1.783810 0.000000 -0.008760 
#    y 0.000000 1.787510 0.000000 
#    z -0.008760 0.000000 1.777730 
# 
# From -- ./inp_files/237809.got.cif
#   From: 2010.06.25/outbox.cif.g09.slc.cpg/sg12_119_cif.got.tgz:237809.got - 2010.06.28 00:19:55.
