data_PCOD8099854
_publ_section_title
;
Structure prediction by ZEFSAII (Michael W. Deem and Ramdas Pophale) SiO2 
 PCOD8099854
Probable space group: C 2/M
;
_chemical_formula_sum "Si O2"
_cell_formula_units_Z 56
_cell_length_a 18.768685
_cell_length_b 9.050277
_cell_length_c 26.109970
_cell_angle_alpha 90.000000
_cell_angle_beta 136.960232
_cell_angle_gamma 90.000000
_cell_volume 3026.972298
_symmetry_space_group_name_H-M "C 2/M"
_symmetry_group_IT_number 12
_symmetry_cell_setting 'monoclinic'
loop_
_space_group_symop_operation_xyz
x,y,z
-x,y,-z
-x,-y,-z
x,-y,z
1/2+x,1/2+y,z
1/2-x,1/2+y,-z
1/2-x,1/2-y,-z
1/2+x,1/2-y,z
loop_
_atom_site_type_symbol
_atom_site_label
_atom_site_fract_x
_atom_site_fract_y
_atom_site_fract_z
Si Si1 0.596433 0.330521 0.412919
Si Si2 0.983893 0.174291 0.154662
Si Si3 0.720795 0.674418 0.299157
Si Si4 0.322003 0.671230 0.153807
Si Si5 0.241365 0.327830 0.414890
Si Si6 0.144278 0.826854 0.715459
Si Si7 0.335377 0.827782 0.010375
O O1 0.613541 0.500000 0.405378
O O2 0.658772 0.293058 0.497334
O O3 0.636773 0.231744 0.387093
O O4 0.476266 0.296374 0.360400
O O5 0.911556 0.235828 0.163114
O O6 0.101438 0.221997 0.227548
O O7 0.971241 0.000000 0.140726
O O8 0.946565 0.251916 0.081692
O O9 0.732932 0.500000 0.309512
O O10 0.762689 0.745849 0.373130
O O11 0.788159 0.733548 0.287994
O O12 0.348737 0.500000 0.173490
O O13 0.329214 0.739084 0.214287
O O14 0.204924 0.696132 0.069336
O O15 0.227422 0.500000 0.396790
O O16 0.171845 0.000000 0.724923
O O17 0.341293 0.000000 0.026713
O O18 0.250000 0.750000 0.000000
#
# Coordination Sequence:
#
# PCOD8099854 Si02
#       7
#     8   8   8   8   8   8   8
#     4   9  19  36  58  82 107 137 172 214 262 310
#     4   9  18  34  54  74  99 134 175 217 263 312
#     4  11  23  37  52  74 107 142 177 219 266 312
#     4   8  15  30  53  76  97 128 169 210 254 306
#     4  10  20  35  57  83 107 134 174 217 259 314
#     4  10  20  36  55  74 103 142 179 212 255 313
#     4   9  16  28  49  78 106 131 167 213 260 310
#
# _framework density 18.500335
#
# number of rings (size 3 to 8) (size 9 to 14) (size 15 to 20)
#    0.000    2.571    0.000    3.000    0.000    5.143 
#    0.000    7.143    0.000    4.286    0.000    0.000 
#    0.000    0.000    0.000    0.000    0.000    0.000 
#
# Total GULP energy -347129.919711 kJ/mol
# GULP energy per Si atom -12397.497133 kJ/mol
# Density = 1.845823 g / cm^3
# Si number density = 18.500335 Si / 1000 Ang^3
#
#
#
# Elastic Constant Matrix: (Units=GPa)
#
#
# Indices 1 2 3 4 5 6 
#
# 1 102.0718 41.3234 66.0380 0.0000 -13.6421 0.0000
# 2 41.3234 66.2437 51.0158 0.0000 -3.5837 0.0000
# 3 66.0380 51.0158 127.4019 0.0000 -9.6650 0.0000
# 4 0.0000 0.0000 0.0000 30.0840 0.0000 0.2255
# 5 -13.6421 -3.5837 -9.6650 0.0000 12.9559 0.0000
# 6 0.0000 0.0000 0.0000 0.2255 0.0000 30.8571
#
#
#
# Elastic Compliance Matrix: (Units=1/GPa)
#
#
# Indices 1 2 3 4 5 6 
#
# 1 0.017612 -0.005799 -0.005853 0.000000 0.012574 0.000000
# 2 -0.005799 0.023739 -0.006853 0.000000 -0.004652 0.000000
# 3 -0.005853 -0.006853 0.013797 0.000000 0.002233 0.000000
# 4 0.000000 0.000000 0.000000 0.033242 0.000000 -0.000243
# 5 0.012574 -0.004652 0.002233 0.000000 0.090805 0.000000
# 6 0.000000 0.000000 0.000000 -0.000243 0.000000 0.032409
#
#
# Mechanical properties :
#
#
# Convention : Reuss Voigt Hill
#
# Bulk Modulus (GPa) = 55.13265 68.05242 61.59254
# Shear Modulus (GPa) = 19.63402 23.93542 21.78472
#
# Velocity S-wave (km/s) = 3.26126 3.60082 3.43524
# Velocity P-wave (km/s) = 6.63677 7.35882 7.00710
#
# Compressibility (1/GPa) = 0.01813807
#
# Stress axis : x y z
#
# Youngs Moduli (GPa) = 56.77929 42.12468 72.48054
#
# Poissons Ratio (x) = 0.24426 0.42425
# Poissons Ratio (y) = 0.32924 0.49672
# Poissons Ratio (z) = 0.33234 0.28868
#
# Static dielectric constant tensor:
#      x y z
#    x 3.153900 0.000000 -0.051080 
#    y 0.000000 3.362730 0.000000 
#    z -0.051080 0.000000 3.866860 
# 
# 
# High freq. dielectric constant tensor:
#      x y z
#    x 1.691010 0.000000 0.000340 
#    y 0.000000 1.707370 0.000000 
#    z 0.000340 0.000000 1.737830 
# 
# From -- ./inp_files/342506.got.cif
#   From: 2010.06.25/outbox.cif.g09.slc.cpg/sg12_172_cif.got.tgz:342506.got - 2010.06.28 00:19:55.
