data_PCOD8099138
_publ_section_title
;
Structure prediction by ZEFSAII (Michael W. Deem and Ramdas Pophale) SiO2 
 PCOD8099138
Probable space group: C 2/M
;
_chemical_formula_sum "Si O2"
_cell_formula_units_Z 56
_cell_length_a 19.528060
_cell_length_b 8.926059
_cell_length_c 30.079223
_cell_angle_alpha 90.000000
_cell_angle_beta 35.979297
_cell_angle_gamma 90.000000
_cell_volume 3080.264995
_symmetry_space_group_name_H-M "C 2/M"
_symmetry_group_IT_number 12
_symmetry_cell_setting 'monoclinic'
loop_
_space_group_symop_operation_xyz
x,y,z
-x,y,-z
-x,-y,-z
x,-y,z
1/2+x,1/2+y,z
1/2-x,1/2+y,-z
1/2-x,1/2-y,-z
1/2+x,1/2-y,z
loop_
_atom_site_type_symbol
_atom_site_label
_atom_site_fract_x
_atom_site_fract_y
_atom_site_fract_z
Si Si1 0.026485 0.325174 0.344036
Si Si2 0.332697 0.326503 0.491671
Si Si3 0.128424 0.830298 0.060926
Si Si4 0.228583 0.677400 0.774997
Si Si5 0.907870 0.823037 0.229660
Si Si6 0.368703 0.169819 0.341065
Si Si7 0.464897 0.672190 0.067008
O O1 0.046767 0.500000 0.341723
O O2 0.147633 0.241202 0.275375
O O3 0.957293 0.257186 0.423223
O O4 0.953383 0.294037 0.337733
O O5 0.349743 0.500000 0.470454
O O6 0.250000 0.250000 0.500000
O O7 0.267552 0.309762 0.573420
O O8 0.033459 0.765850 0.145774
O O9 0.079362 0.812144 0.037079
O O10 0.153775 0.000000 0.060070
O O11 0.250000 0.750000 0.000000
O O12 0.234481 0.500000 0.768470
O O13 0.193261 0.743356 0.745561
O O14 0.137954 0.724625 0.860659
O O15 0.896716 0.783950 0.287057
O O16 0.895469 0.000000 0.228590
O O17 0.389798 0.000000 0.313583
O O18 0.421132 0.500000 0.089174
O O19 0.500000 0.729742 0.000000
#
# Coordination Sequence:
#
# PCOD8099138 Si02
#       7
#     8   8   8   8   8   8   8
#     4  10  20  35  55  79 108 141 178 219 264 314
#     4   9  17  31  51  77 108 139 174 217 264 312
#     4   9  19  34  52  75 101 132 168 208 255 304
#     4  11  22  36  55  78 107 141 177 219 265 314
#     4  10  21  37  55  76 106 141 176 215 262 316
#     4   9  19  34  54  80 107 137 173 215 262 310
#     4   9  19  37  57  76 102 137 175 215 261 311
#
# _framework density 18.180253
#
# number of rings (size 3 to 8) (size 9 to 14) (size 15 to 20)
#    0.000    2.429    0.000    4.286    0.000    7.714 
#    0.000    5.000    0.000    4.286    0.000    0.000 
#    0.000    0.000    0.000    0.000    0.000    0.000 
#
# Total GULP energy -347148.641536 kJ/mol
# GULP energy per Si atom -12398.165769 kJ/mol
# Density = 1.813887 g / cm^3
# Si number density = 18.180253 Si / 1000 Ang^3
#
#
#
# Elastic Constant Matrix: (Units=GPa)
#
#
# Indices 1 2 3 4 5 6 
#
# 1 66.1596 41.3392 57.1938 -0.0017 1.2399 0.0153
# 2 41.3392 110.4216 54.6487 -0.0028 -2.8645 -0.0043
# 3 57.1938 54.6487 106.7120 -0.0009 0.3505 0.0006
# 4 -0.0017 -0.0028 -0.0009 37.8238 -0.0011 -2.1925
# 5 1.2399 -2.8645 0.3505 -0.0011 29.2081 -0.0004
# 6 0.0153 -0.0043 0.0006 -2.1925 -0.0004 31.0400
#
#
#
# Elastic Compliance Matrix: (Units=1/GPa)
#
#
# Indices 1 2 3 4 5 6 
#
# 1 0.029702 -0.004398 -0.013662 0.000000 -0.001528 -0.000015
# 2 -0.004398 0.012829 -0.004218 0.000001 0.001495 0.000004
# 3 -0.013662 -0.004218 0.018853 0.000000 -0.000060 0.000006
# 4 0.000000 0.000001 0.000000 0.026547 0.000001 0.001875
# 5 -0.001528 0.001495 -0.000060 0.000001 0.034449 0.000001
# 6 -0.000015 0.000004 0.000006 0.001875 0.000001 0.032349
#
#
# Mechanical properties :
#
#
# Convention : Reuss Voigt Hill
#
# Bulk Modulus (GPa) = 59.42011 65.51741 62.46876
# Shear Modulus (GPa) = 24.40275 28.28847 26.34561
#
# Velocity S-wave (km/s) = 3.66767 3.94890 3.81088
# Velocity P-wave (km/s) = 7.11973 7.54371 7.33479
#
# Compressibility (1/GPa) = 0.01682932
#
# Stress axis : x y z
#
# Youngs Moduli (GPa) = 33.66747 77.94952 53.04061
#
# Poissons Ratio (x) = 0.34282 0.72464
# Poissons Ratio (y) = 0.14807 0.22370
# Poissons Ratio (z) = 0.45997 0.32876
#
# Static dielectric constant tensor:
#      x y z
#    x 3.156070 -0.000020 0.016430 
#    y -0.000020 3.465770 0.000040 
#    z 0.016430 0.000040 3.667880 
# 
# 
# High freq. dielectric constant tensor:
#      x y z
#    x 1.682430 0.000000 -0.002000 
#    y 0.000000 1.711320 0.000000 
#    z -0.002000 0.000000 1.714440 
# 
# From -- ./inp_files/377675.got.cif
#   From: 2010.06.25/outbox.cif.g09.slc.cpg/sg12_189_cif.got.tgz:377675.got - 2010.06.28 00:19:55.
