data_PCOD8099594
_publ_section_title
;
Structure prediction by ZEFSAII (Michael W. Deem and Ramdas Pophale) SiO2 
 PCOD8099594
Probable space group: C 2/M
;
_chemical_formula_sum "Si O2"
_cell_formula_units_Z 48
_cell_length_a 18.720100
_cell_length_b 8.710081
_cell_length_c 32.012317
_cell_angle_alpha 90.000000
_cell_angle_beta 151.467510
_cell_angle_gamma 90.000000
_cell_volume 2493.237411
_symmetry_space_group_name_H-M "C 2/M"
_symmetry_group_IT_number 12
_symmetry_cell_setting 'monoclinic'
loop_
_space_group_symop_operation_xyz
x,y,z
-x,y,-z
-x,-y,-z
x,-y,z
1/2+x,1/2+y,z
1/2-x,1/2+y,-z
1/2-x,1/2-y,-z
1/2+x,1/2-y,z
loop_
_atom_site_type_symbol
_atom_site_label
_atom_site_fract_x
_atom_site_fract_y
_atom_site_fract_z
Si Si1 0.328812 0.324523 0.579601
Si Si2 0.412603 0.179021 0.913479
Si Si3 0.901118 0.680480 0.234800
Si Si4 0.586977 0.180134 0.919174
Si Si5 0.454198 0.316882 0.769808
Si Si6 0.160509 0.325045 0.576967
O O1 0.372305 0.500000 0.592568
O O2 0.250000 0.250000 0.500000
O O3 0.479522 0.236476 0.669594
O O4 0.206253 0.312637 0.552642
O O5 0.262015 0.276543 0.832201
O O6 0.517085 0.220298 0.927998
O O7 0.370589 0.000000 0.892783
O O8 0.500000 0.228216 0.000000
O O9 0.916092 0.500000 0.237105
O O10 0.925110 0.758574 0.201941
O O11 0.484297 0.254644 0.831078
O O12 0.597215 0.000000 0.916925
O O13 0.750000 0.250000 0.000000
O O14 0.461294 0.500000 0.772584
O O15 0.290491 0.252238 0.672613
O O16 0.142654 0.500000 0.582519
O O17 0.000000 0.240051 0.500000
#
# Coordination Sequence:
#
# PCOD8099594 Si02
#       6
#     8   8   8   8   8   8
#     4  10  20  35  56  82 114 150 188 234 287 338
#     4  10  22  40  60  83 114 150 186 231 288 340
#     4  11  22  37  59  84 112 149 194 239 283 337
#     4  11  23  38  59  86 115 147 186 232 282 340
#     4  10  20  36  58  82 114 152 187 231 285 337
#     4   8  16  32  54  79 106 141 184 226 270 323
#
# _framework density 19.252077
#
# number of rings (size 3 to 8) (size 9 to 14) (size 15 to 20)
#    0.000    2.000    0.000    5.000    0.000    4.333 
#    0.000    1.667    0.000   17.000    0.000    0.000 
#    0.000    0.000    0.000    0.000    0.000    0.000 
#
# Total GULP energy -297633.631408 kJ/mol
# GULP energy per Si atom -12401.401309 kJ/mol
# Density = 1.920826 g / cm^3
# Si number density = 19.252077 Si / 1000 Ang^3
#
#
#
# Elastic Constant Matrix: (Units=GPa)
#
#
# Indices 1 2 3 4 5 6 
#
# 1 109.7494 55.5654 82.6008 -0.0001 -1.1157 0.0000
# 2 55.5654 104.3669 53.4790 -0.0005 -0.4536 0.0005
# 3 82.6008 53.4790 139.2854 -0.0004 -3.9056 0.0000
# 4 -0.0001 -0.0005 -0.0004 33.4579 0.0001 -4.5741
# 5 -1.1157 -0.4536 -3.9056 0.0001 44.3462 -0.0001
# 6 0.0000 0.0005 0.0000 -4.5741 -0.0001 27.7937
#
#
#
# Elastic Compliance Matrix: (Units=1/GPa)
#
#
# Indices 1 2 3 4 5 6 
#
# 1 0.018532 -0.005268 -0.008978 0.000000 -0.000378 0.000000
# 2 -0.005268 0.013429 -0.002037 0.000000 -0.000175 0.000000
# 3 -0.008978 -0.002037 0.013312 0.000000 0.000926 0.000000
# 4 0.000000 0.000000 0.000000 0.030576 0.000000 0.005032
# 5 -0.000378 -0.000175 0.000926 0.000000 0.022620 0.000000
# 6 0.000000 0.000000 0.000000 0.005032 0.000000 0.036807
#
#
# Mechanical properties :
#
#
# Convention : Reuss Voigt Hill
#
# Bulk Modulus (GPa) = 78.69543 81.85467 80.27505
# Shear Modulus (GPa) = 29.05644 31.90334 30.47989
#
# Velocity S-wave (km/s) = 3.88914 4.07521 3.98326
# Velocity P-wave (km/s) = 7.81871 8.04691 7.93363
#
# Compressibility (1/GPa) = 0.01270722
#
# Stress axis : x y z
#
# Youngs Moduli (GPa) = 53.96050 74.46446 75.12008
#
# Poissons Ratio (x) = 0.39225 0.67444
# Poissons Ratio (y) = 0.28424 0.15303
# Poissons Ratio (z) = 0.48447 0.15170
#
# Static dielectric constant tensor:
#      x y z
#    x 3.602670 0.000000 0.027020 
#    y 0.000000 3.465230 0.000000 
#    z 0.027020 0.000000 3.782770 
# 
# 
# High freq. dielectric constant tensor:
#      x y z
#    x 1.748410 0.000000 0.000710 
#    y 0.000000 1.741320 0.000000 
#    z 0.000710 0.000000 1.765090 
# 
# From -- ./inp_files/274072.got.cif
#   From: 2010.06.25/outbox.cif.g09.slc.cpg/sg12_138_cif.got.tgz:274072.got - 2010.06.28 00:19:55.
