data_PCOD8099700
_publ_section_title
;
Structure prediction by ZEFSAII (Michael W. Deem and Ramdas Pophale) SiO2 
 PCOD8099700
Probable space group: C 2/M
;
_chemical_formula_sum "Si O2"
_cell_formula_units_Z 64
_cell_length_a 29.688315
_cell_length_b 9.178082
_cell_length_c 22.124074
_cell_angle_alpha 90.000000
_cell_angle_beta 148.004535
_cell_angle_gamma 90.000000
_cell_volume 3194.164489
_symmetry_space_group_name_H-M "C 2/M"
_symmetry_group_IT_number 12
_symmetry_cell_setting 'monoclinic'
loop_
_space_group_symop_operation_xyz
x,y,z
-x,y,-z
-x,-y,-z
x,-y,z
1/2+x,1/2+y,z
1/2-x,1/2+y,-z
1/2-x,1/2-y,-z
1/2+x,1/2-y,z
loop_
_atom_site_type_symbol
_atom_site_label
_atom_site_fract_x
_atom_site_fract_y
_atom_site_fract_z
Si Si1 0.022389 0.828805 0.644953
Si Si2 0.129262 0.833052 0.993832
Si Si3 0.515561 0.333155 0.261352
Si Si4 0.179533 0.669574 0.776096
Si Si5 0.274792 0.833615 0.690900
Si Si6 0.371290 0.169753 0.418234
Si Si7 0.922545 0.331039 0.950333
Si Si8 0.328875 0.829852 0.619504
O O1 0.989566 0.791431 0.674455
O O2 0.116589 0.765717 0.744549
O O3 0.961157 0.750946 0.526915
O O4 0.023843 0.000000 0.633957
O O5 0.226169 0.778739 0.097147
O O6 0.078902 0.745886 0.987237
O O7 0.131134 0.000000 0.016857
O O8 0.078334 0.810204 0.873586
O O9 0.545332 0.500000 0.286937
O O10 0.582982 0.230598 0.305396
O O11 0.163925 0.500000 0.772602
O O12 0.166095 0.702729 0.690162
O O13 0.193219 0.730108 0.604396
O O14 0.335596 0.802048 0.816254
O O15 0.325711 0.800240 0.687578
O O16 0.241982 0.000000 0.653756
O O17 0.386040 0.000000 0.446469
O O18 0.939190 0.500000 0.981547
O O19 0.000000 0.264699 0.000000
O O20 0.250000 0.750000 0.500000
O O21 0.323399 0.000000 0.598160
#
# Coordination Sequence:
#
# PCOD8099700 Si02
#       8
#     8   8   8   8   8   8   8   8
#     4  11  24  40  60  87 117 154 199 245 298 355
#     4  10  21  40  62  85 118 157 195 243 294 347
#     4  10  23  42  61  85 120 159 201 246 293 349
#     4  10  22  40  61  88 119 151 194 247 300 353
#     4  10  21  36  56  84 119 154 190 237 292 348
#     4  11  22  38  61  89 120 153 195 244 297 356
#     4  10  20  35  56  84 117 152 191 236 287 344
#     4  11  23  39  60  87 120 159 202 245 293 348
#
# _framework density 20.036538
#
# number of rings (size 3 to 8) (size 9 to 14) (size 15 to 20)
#    0.000    1.625    1.250    3.000    0.000   10.250 
#    0.000    0.000    0.000    0.000    0.000    0.000 
#    0.000    0.000    0.000    0.000    0.000    0.000 
#
# Total GULP energy -396976.140601 kJ/mol
# GULP energy per Si atom -12405.504394 kJ/mol
# Density = 1.999093 g / cm^3
# Si number density = 20.036538 Si / 1000 Ang^3
#
#
#
# Elastic Constant Matrix: (Units=GPa)
#
#
# Indices 1 2 3 4 5 6 
#
# 1 78.2985 46.9988 24.9466 0.0000 15.2310 0.0000
# 2 46.9988 84.7157 41.9002 0.0000 8.0598 0.0000
# 3 24.9466 41.9002 98.3882 0.0000 12.3340 0.0000
# 4 0.0000 0.0000 0.0000 31.1334 0.0000 6.5654
# 5 15.2310 8.0598 12.3340 0.0000 37.5037 0.0000
# 6 0.0000 0.0000 0.0000 6.5654 0.0000 36.9988
#
#
#
# Elastic Compliance Matrix: (Units=1/GPa)
#
#
# Indices 1 2 3 4 5 6 
#
# 1 0.020381 -0.010834 0.000200 0.000000 -0.006015 0.000000
# 2 -0.010834 0.020762 -0.006349 0.000000 0.002026 0.000000
# 3 0.000200 -0.006349 0.013200 0.000000 -0.003058 0.000000
# 4 0.000000 0.000000 0.000000 0.033369 0.000000 -0.005921
# 5 -0.006015 0.002026 -0.003058 0.000000 0.029677 0.000000
# 6 0.000000 0.000000 0.000000 -0.005921 0.000000 0.028079
#
#
# Mechanical properties :
#
#
# Convention : Reuss Voigt Hill
#
# Bulk Modulus (GPa) = 49.07237 54.34373 51.70805
# Shear Modulus (GPa) = 26.84930 30.96430 28.90680
#
# Velocity S-wave (km/s) = 3.66460 3.93541 3.80242
# Velocity P-wave (km/s) = 6.51539 6.91601 6.71868
#
# Compressibility (1/GPa) = 0.02037807
#
# Stress axis : x y z
#
# Youngs Moduli (GPa) = 49.06577 48.16520 75.75638
#
# Poissons Ratio (x) = 0.52180 -0.01516
# Poissons Ratio (y) = 0.53156 0.48097
# Poissons Ratio (z) = -0.00982 0.30579
#
# Static dielectric constant tensor:
#      x y z
#    x 3.604400 0.000000 0.011460 
#    y 0.000000 3.624410 0.000000 
#    z 0.011460 0.000000 3.768620 
# 
# 
# High freq. dielectric constant tensor:
#      x y z
#    x 1.782070 0.000000 0.003960 
#    y 0.000000 1.779720 0.000000 
#    z 0.003960 0.000000 1.794160 
# 
# From -- ./inp_files/353491.got.cif
#   From: 2010.06.25/outbox.cif.g09.slc.cpg/sg12_177_cif.got.tgz:353491.got - 2010.06.28 00:19:55.
