data_PCOD8099389
_publ_section_title
;
Structure prediction by ZEFSAII (Michael W. Deem and Ramdas Pophale) SiO2 
 PCOD8099389
Probable space group: C 2/M
;
_chemical_formula_sum "Si O2"
_cell_formula_units_Z 56
_cell_length_a 18.242068
_cell_length_b 9.117315
_cell_length_c 25.970791
_cell_angle_alpha 90.000000
_cell_angle_beta 136.161260
_cell_angle_gamma 90.000000
_cell_volume 2991.769632
_symmetry_space_group_name_H-M "C 2/M"
_symmetry_group_IT_number 12
_symmetry_cell_setting 'monoclinic'
loop_
_space_group_symop_operation_xyz
x,y,z
-x,y,-z
-x,-y,-z
x,-y,z
1/2+x,1/2+y,z
1/2-x,1/2+y,-z
1/2-x,1/2-y,-z
1/2+x,1/2-y,z
loop_
_atom_site_type_symbol
_atom_site_label
_atom_site_fract_x
_atom_site_fract_y
_atom_site_fract_z
Si Si1 0.781683 0.169079 0.439234
Si Si2 0.686226 0.166894 0.848164
Si Si3 0.129502 0.826403 0.719350
Si Si4 0.837671 0.168994 0.011854
Si Si5 0.012894 0.671915 0.846321
Si Si6 0.220315 0.673819 0.296514
Si Si7 0.585313 0.168839 0.414036
O O1 0.763944 0.233010 0.373066
O O2 0.673123 0.188530 0.414910
O O3 0.875448 0.261889 0.512494
O O4 0.817888 0.000000 0.456856
O O5 0.685908 0.276793 0.800298
O O6 0.591499 0.208557 0.839154
O O7 0.669635 0.000000 0.820547
O O8 0.801462 0.183317 0.933894
O O9 0.201450 0.772384 0.708444
O O10 0.016053 0.752617 0.657965
O O11 0.115904 0.000000 0.712502
O O12 0.949404 0.245820 0.082110
O O13 0.842472 0.000000 0.030934
O O14 0.750000 0.250000 0.000000
O O15 0.011108 0.500000 0.857575
O O16 0.897407 0.734479 0.773640
O O17 0.213703 0.500000 0.296208
O O18 0.557372 0.000000 0.409509
#
# Coordination Sequence:
#
# PCOD8099389 Si02
#       7
#     8   8   8   8   8   8   8
#     4   9  18  36  59  77  98 131 170 208 246 296
#     4   9  18  33  53  75 101 133 167 209 259 301
#     4  11  22  34  51  75 103 136 173 208 245 299
#     4   9  17  30  50  77 104 131 167 210 256 302
#     4   9  17  33  56  77 100 132 171 213 254 297
#     4   9  19  35  53  74 101 136 174 208 247 295
#     4  10  20  35  56  80 104 129 162 208 258 300
#
# _framework density 18.718019000000002
#
# number of rings (size 3 to 8) (size 9 to 14) (size 15 to 20)
#    0.000    2.571    0.000    3.000    0.000    6.286 
#    0.000    7.143    0.000    4.286    0.000    0.000 
#    0.000    0.000    0.000    0.000    0.000    0.000 
#
# Total GULP energy -347167.066015 kJ/mol
# GULP energy per Si atom -12398.823786 kJ/mol
# Density = 1.867542 g / cm^3
# Si number density = 18.718019 Si / 1000 Ang^3
#
#
#
# Elastic Constant Matrix: (Units=GPa)
#
#
# Indices 1 2 3 4 5 6 
#
# 1 52.4770 32.0628 36.6865 0.0000 -18.6537 0.0000
# 2 32.0628 81.6699 51.1205 0.0000 -14.6040 0.0000
# 3 36.6865 51.1205 122.7713 0.0000 -29.2418 0.0000
# 4 0.0000 0.0000 0.0000 38.8507 0.0000 -2.6334
# 5 -18.6537 -14.6040 -29.2418 0.0000 15.2072 0.0000
# 6 0.0000 0.0000 0.0000 -2.6334 0.0000 18.1087
#
#
#
# Elastic Compliance Matrix: (Units=1/GPa)
#
#
# Indices 1 2 3 4 5 6 
#
# 1 0.037931 -0.008815 0.002586 0.000000 0.043035 0.000000
# 2 -0.008815 0.018808 -0.006403 0.000000 -0.005064 0.000000
# 3 0.002586 -0.006403 0.017213 0.000000 0.030122 0.000000
# 4 0.000000 0.000000 0.000000 0.025996 0.000000 0.003780
# 5 0.043035 -0.005064 0.030122 0.000000 0.171605 0.000000
# 6 0.000000 0.000000 0.000000 0.003780 0.000000 0.055772
#
#
# Mechanical properties :
#
#
# Convention : Reuss Voigt Hill
#
# Bulk Modulus (GPa) = 20.53893 55.18418 37.86156
# Shear Modulus (GPa) = 13.55679 23.56988 18.56334
#
# Velocity S-wave (km/s) = 2.69414 3.55238 3.15260
# Velocity P-wave (km/s) = 4.54692 6.80968 5.78991
#
# Compressibility (1/GPa) = 0.04868802
#
# Stress axis : x y z
#
# Youngs Moduli (GPa) = 26.36338 53.17004 58.09477
#
# Poissons Ratio (x) = 0.46867 -0.15023
# Poissons Ratio (y) = 0.23238 0.37200
# Poissons Ratio (z) = -0.06817 0.34047
#
# Static dielectric constant tensor:
#      x y z
#    x 3.232660 0.000000 -0.115770 
#    y 0.000000 3.401460 0.000000 
#    z -0.115770 0.000000 4.276060 
# 
# 
# High freq. dielectric constant tensor:
#      x y z
#    x 1.697820 0.000000 -0.004930 
#    y 0.000000 1.716200 0.000000 
#    z -0.004930 0.000000 1.746900 
# 
# From -- ./inp_files/363215.got.cif
#   From: 2010.06.25/outbox.cif.g09.slc.cpg/sg12_182_cif.got.tgz:363215.got - 2010.06.28 00:19:55.
