data_PCOD8099488
_publ_section_title
;
Structure prediction by ZEFSAII (Michael W. Deem and Ramdas Pophale) SiO2 
 PCOD8099488
Probable space group: C 2/M
;
_chemical_formula_sum "Si O2"
_cell_formula_units_Z 56
_cell_length_a 8.751756
_cell_length_b 18.486319
_cell_length_c 20.104541
_cell_angle_alpha 90.000000
_cell_angle_beta 115.805116
_cell_angle_gamma 90.000000
_cell_volume 2928.312106
_symmetry_space_group_name_H-M "C 2/M"
_symmetry_group_IT_number 12
_symmetry_cell_setting 'monoclinic'
loop_
_space_group_symop_operation_xyz
x,y,z
-x,y,-z
-x,-y,-z
x,-y,z
1/2+x,1/2+y,z
1/2-x,1/2+y,-z
1/2-x,1/2-y,-z
1/2+x,1/2-y,z
loop_
_atom_site_type_symbol
_atom_site_label
_atom_site_fract_x
_atom_site_fract_y
_atom_site_fract_z
Si Si1 0.674141 0.414408 0.349671
Si Si2 0.763432 0.081007 0.081837
Si Si3 0.599758 0.918993 0.918163
Si Si4 0.172318 0.085959 0.500000
Si Si5 0.037966 0.671729 0.218413
Si Si6 0.525201 0.914408 0.349671
Si Si7 0.898859 0.171729 0.218412
O O1 0.648251 0.500000 0.343035
O O2 0.689402 0.385763 0.427981
O O3 0.510921 0.378802 0.286156
O O4 0.842188 0.390586 0.342187
O O5 0.585416 0.079688 0.085416
O O6 0.889860 0.136063 0.143032
O O7 0.841569 0.000000 0.098091
O O8 0.735778 0.106088 1.000000
O O9 0.603795 0.863938 0.856967
O O10 0.645388 0.000000 0.901909
O O11 0.333440 0.114237 0.572018
O O12 0.000000 0.116853 0.500000
O O13 0.169908 0.000000 0.499999
O O14 0.061393 0.621198 0.286157
O O15 0.214943 0.678573 0.214943
O O16 0.979194 0.750000 0.229195
O O17 0.537820 0.000000 0.343035
#
# Coordination Sequence:
#
# PCOD8099488 Si02
#       7
#     8   8   8   8   8   8   8
#     4  10  20  35  56  81 109 140 176 220 268 316
#     4   8  15  30  53  79 104 133 174 222 268 315
#     4   8  15  30  53  79 104 133 174 222 268 315
#     4   9  17  31  54  83 110 137 174 217 261 313
#     4  11  22  35  52  76 108 145 183 221 265 317
#     4  10  20  35  56  81 109 140 176 220 268 316
#     4  11  22  35  52  76 108 145 183 221 265 317
#
# _framework density 19.123645
#
# number of rings (size 3 to 8) (size 9 to 14) (size 15 to 20)
#    0.000    2.429    0.000    3.857    0.000    5.143 
#    0.000    0.714    0.000    2.571    0.000   10.000 
#    0.000    0.000    0.000    0.000    0.000    0.000 
#
# Total GULP energy -347178.802666 kJ/mol
# GULP energy per Si atom -12399.242952 kJ/mol
# Density = 1.908012 g / cm^3
# Si number density = 19.123645 Si / 1000 Ang^3
#
#
#
# Elastic Constant Matrix: (Units=GPa)
#
#
# Indices 1 2 3 4 5 6 
#
# 1 65.6366 26.5171 33.8859 0.0000 -0.2855 0.0000
# 2 26.5171 46.7302 41.5147 0.0000 1.2070 0.0000
# 3 33.8859 41.5147 151.9222 0.0000 7.2372 0.0000
# 4 0.0000 0.0000 0.0000 1.6319 0.0000 -1.3411
# 5 -0.2855 1.2070 7.2372 0.0000 14.7052 0.0000
# 6 0.0000 0.0000 0.0000 -1.3411 0.0000 18.2705
#
#
#
# Elastic Compliance Matrix: (Units=1/GPa)
#
#
# Indices 1 2 3 4 5 6 
#
# 1 0.020202 -0.009806 -0.001929 0.000000 0.002146 0.000000
# 2 -0.009806 0.033052 -0.006868 0.000000 0.000477 0.000000
# 3 -0.001929 -0.006868 0.009077 0.000000 -0.003941 0.000000
# 4 0.000000 0.000000 0.000000 0.652124 0.000000 0.047869
# 5 0.002146 0.000477 -0.003941 0.000000 0.069945 0.000000
# 6 0.000000 0.000000 0.000000 0.047869 0.000000 0.058247
#
#
# Mechanical properties :
#
#
# Convention : Reuss Voigt Hill
#
# Bulk Modulus (GPa) = 39.79708 52.01382 45.90545
# Shear Modulus (GPa) = 5.62919 17.74627 11.68773
#
# Velocity S-wave (km/s) = 1.71755 3.04957 2.47486
# Velocity P-wave (km/s) = 4.97884 6.29743 5.67655
#
# Compressibility (1/GPa) = 0.02512747
#
# Stress axis : x y z
#
# Youngs Moduli (GPa) = 49.50031 30.25496 110.16960
#
# Poissons Ratio (x) = 0.29667 0.21249
# Poissons Ratio (y) = 0.48538 0.75660
# Poissons Ratio (z) = 0.09547 0.20778
#
# Static dielectric constant tensor:
#      x y z
#    x 3.341310 0.000000 0.041980 
#    y 0.000000 3.334440 0.000000 
#    z 0.041980 0.000000 3.862410 
# 
# 
# High freq. dielectric constant tensor:
#      x y z
#    x 1.727300 0.000000 0.002900 
#    y 0.000000 1.720910 0.000000 
#    z 0.002900 0.000000 1.763280 
# 
# From -- ./inp_files/257151.got.cif
#   From: 2010.06.25/outbox.cif.g09.slc.cpg/sg12_129_cif.got.tgz:257151.got - 2010.06.28 00:19:55.
