data_PCOD8099049
_publ_section_title
;
Structure prediction by ZEFSAII (Michael W. Deem and Ramdas Pophale) SiO2 
 PCOD8099049
Probable space group: C 2/M
;
_chemical_formula_sum "Si O2"
_cell_formula_units_Z 40
_cell_length_a 14.287509
_cell_length_b 9.191958
_cell_length_c 21.920064
_cell_angle_alpha 90.000000
_cell_angle_beta 48.452029
_cell_angle_gamma 90.000000
_cell_volume 2154.470434
_symmetry_space_group_name_H-M "C 2/M"
_symmetry_group_IT_number 12
_symmetry_cell_setting 'monoclinic'
loop_
_space_group_symop_operation_xyz
x,y,z
-x,y,-z
-x,-y,-z
x,-y,z
1/2+x,1/2+y,z
1/2-x,1/2+y,-z
1/2-x,1/2-y,-z
1/2+x,1/2-y,z
loop_
_atom_site_type_symbol
_atom_site_label
_atom_site_fract_x
_atom_site_fract_y
_atom_site_fract_z
Si Si1 0.566050 0.833184 0.566745
Si Si2 0.133832 0.330070 0.868782
Si Si3 0.651551 0.168811 0.000826
Si Si4 0.753582 0.168982 0.593461
Si Si5 0.277955 0.829281 0.702660
O O1 0.639804 0.802084 0.596964
O O2 0.618792 0.735390 0.489099
O O3 0.424069 0.791073 0.640734
O O4 0.581118 0.000000 0.539425
O O5 0.157242 0.500000 0.845321
O O6 0.219040 0.230954 0.789695
O O7 0.989317 0.289818 0.918951
O O8 0.171916 0.290843 0.921358
O O9 0.674293 0.000000 0.001164
O O10 0.750000 0.250000 0.000000
O O11 0.715522 0.249614 0.672042
O O12 0.775496 0.000000 0.597063
O O13 0.252314 0.000000 0.709016
#
# Coordination Sequence:
#
# PCOD8099049 Si02
#       5
#     8   8   8   8   8
#     4   9  20  37  53  73 105 141 177 218 263 310
#     4   9  20  38  55  77 109 140 172 211 258 314
#     4   9  19  37  60  81 105 138 172 211 260 311
#     4  10  20  35  55  77 103 139 180 219 262 312
#     4  11  22  35  53  78 108 140 174 217 264 307
#
# _framework density 18.566047999999999
#
# number of rings (size 3 to 8) (size 9 to 14) (size 15 to 20)
#    0.000    2.400    0.000    3.000    0.000    8.000 
#    0.000    8.000    0.000    0.000    0.000    0.000 
#    0.000    0.000    0.000    0.000    0.000    0.000 
#
# Total GULP energy -248061.153633 kJ/mol
# GULP energy per Si atom -12403.057682 kJ/mol
# Density = 1.852379 g / cm^3
# Si number density = 18.566048 Si / 1000 Ang^3
#
#
#
# Elastic Constant Matrix: (Units=GPa)
#
#
# Indices 1 2 3 4 5 6 
#
# 1 102.4774 47.1232 43.1321 0.0000 7.6723 0.0000
# 2 47.1232 87.5347 57.7489 0.0000 8.8563 0.0001
# 3 43.1321 57.7489 111.4943 0.0000 11.1866 0.0000
# 4 0.0000 0.0000 0.0000 39.1297 0.0000 1.4885
# 5 7.6723 8.8563 11.1866 0.0000 18.9920 0.0000
# 6 0.0000 0.0001 0.0000 1.4885 0.0000 33.0962
#
#
#
# Elastic Compliance Matrix: (Units=1/GPa)
#
#
# Indices 1 2 3 4 5 6 
#
# 1 0.013351 -0.005661 -0.002079 0.000000 -0.001529 0.000000
# 2 -0.005661 0.019914 -0.007888 0.000000 -0.002353 0.000000
# 3 -0.002079 -0.007888 0.014248 0.000000 -0.003874 0.000000
# 4 0.000000 0.000000 0.000000 0.025600 0.000000 -0.001151
# 5 -0.001529 -0.002353 -0.003874 0.000000 0.056650 0.000000
# 6 0.000000 0.000000 0.000000 -0.001151 0.000000 0.030267
#
#
# Mechanical properties :
#
#
# Convention : Reuss Voigt Hill
#
# Bulk Modulus (GPa) = 61.51800 66.39052 63.95426
# Shear Modulus (GPa) = 25.41872 28.47705 26.94788
#
# Velocity S-wave (km/s) = 3.70414 3.92065 3.81394
# Velocity P-wave (km/s) = 7.17641 7.50547 7.34278
#
# Compressibility (1/GPa) = 0.01625541
#
# Stress axis : x y z
#
# Youngs Moduli (GPa) = 74.90071 50.21675 70.18523
#
# Poissons Ratio (x) = 0.28427 0.14595
# Poissons Ratio (y) = 0.42400 0.55365
# Poissons Ratio (z) = 0.15575 0.39613
#
# Static dielectric constant tensor:
#      x y z
#    x 3.513070 0.000000 0.051510 
#    y 0.000000 3.388260 0.000000 
#    z 0.051510 0.000000 3.361580 
# 
# 
# High freq. dielectric constant tensor:
#      x y z
#    x 1.727620 0.000000 0.005880 
#    y 0.000000 1.722990 0.000000 
#    z 0.005880 0.000000 1.719140 
# 
# From -- ./inp_files/211172.got.cif
#   From: 2010.06.25/outbox.cif.g09.slc.cpg/sg12_106_cif.got.tgz:211172.got - 2010.06.28 00:19:55.
