data_PCOD8099672
_publ_section_title
;
Structure prediction by ZEFSAII (Michael W. Deem and Ramdas Pophale) SiO2 
 PCOD8099672
Probable space group: C 2/M
;
_chemical_formula_sum "Si O2"
_cell_formula_units_Z 64
_cell_length_a 18.842750
_cell_length_b 17.193131
_cell_length_c 21.808274
_cell_angle_alpha 90.000000
_cell_angle_beta 154.522958
_cell_angle_gamma 90.000000
_cell_volume 3039.064222
_symmetry_space_group_name_H-M "C 2/M"
_symmetry_group_IT_number 12
_symmetry_cell_setting 'monoclinic'
loop_
_space_group_symop_operation_xyz
x,y,z
-x,y,-z
-x,-y,-z
x,-y,z
1/2+x,1/2+y,z
1/2-x,1/2+y,-z
1/2-x,1/2-y,-z
1/2+x,1/2-y,z
loop_
_atom_site_type_symbol
_atom_site_label
_atom_site_fract_x
_atom_site_fract_y
_atom_site_fract_z
Si Si1 0.549241 0.410174 0.871976
Si Si2 0.052751 0.414535 0.609281
Si Si3 0.165180 0.910892 0.592991
Si Si4 0.554640 0.849418 0.110389
Si Si5 0.858492 0.325492 0.076937
Si Si6 0.798179 0.319821 0.587119
Si Si7 0.245287 0.088401 0.436956
Si Si8 0.115821 0.825530 0.144873
O O1 0.526846 0.500000 0.872144
O O2 0.437158 0.384225 0.726060
O O3 0.472294 0.357322 0.864067
O O4 0.742635 0.395934 0.010011
O O5 0.094338 0.500000 0.670864
O O6 0.208058 0.359411 0.734094
O O7 0.000000 0.429112 0.500000
O O8 0.899093 0.369962 0.522336
O O9 0.314898 0.908777 0.758662
O O10 0.184923 0.840654 0.558044
O O11 0.000000 0.890985 0.500000
O O12 0.161277 0.000000 0.563353
O O13 0.402914 0.841407 0.040403
O O14 0.640918 0.766264 0.169849
O O15 0.500000 0.879865 0.000000
O O16 0.015526 0.312985 0.243630
O O17 0.750000 0.250000 0.000000
O O18 0.750000 0.250000 0.500000
O O19 0.772009 0.398998 0.529360
O O20 0.263548 0.000000 0.432273
O O21 0.000000 0.850625 0.000000
#
# Coordination Sequence:
#
# PCOD8099672 Si02
#       8
#     8   8   8   8   8   8   8   8
#     4  11  23  40  63  91 130 180 220 264 330 400
#     4  10  20  35  56  83 123 174 219 266 319 389
#     4  10  24  47  71  99 134 172 222 283 334 395
#     4  10  24  43  67  96 128 169 218 274 332 391
#     4  11  23  42  64  90 134 170 215 278 334 399
#     4  11  25  41  68 100 129 171 221 278 342 404
#     4  10  22  39  59  89 130 172 217 265 323 396
#     4  11  23  38  59  93 131 170 219 273 325 391
#
# _framework density 21.059114000000001
#
# number of rings (size 3 to 8) (size 9 to 14) (size 15 to 20)
#    0.000    1.500    2.500    1.500    3.500    7.250 
#    0.000    1.250    0.000    0.000    0.000    0.000 
#    0.000    0.000    0.000    0.000    0.000    0.000 
#
# Total GULP energy -396423.802872 kJ/mol
# GULP energy per Si atom -12388.243840 kJ/mol
# Density = 2.101118 g / cm^3
# Si number density = 21.059114 Si / 1000 Ang^3
#
#
#
# Elastic Constant Matrix: (Units=GPa)
#
#
# Indices 1 2 3 4 5 6 
#
# 1 104.9882 23.9851 67.8507 0.0022 -2.2181 -0.0004
# 2 23.9851 57.8266 35.1364 -0.0194 2.1447 -0.0059
# 3 67.8507 35.1364 126.5696 -0.0274 9.8561 -0.0089
# 4 0.0022 -0.0194 -0.0274 42.8456 -0.0028 -1.1725
# 5 -2.2181 2.1447 9.8561 -0.0028 43.7243 -0.0022
# 6 -0.0004 -0.0059 -0.0089 -1.1725 -0.0022 29.2704
#
#
#
# Elastic Compliance Matrix: (Units=1/GPa)
#
#
# Indices 1 2 3 4 5 6 
#
# 1 0.014976 -0.001572 -0.007794 -0.000006 0.002594 -0.000003
# 2 -0.001572 0.020970 -0.004980 0.000006 0.000014 0.000003
# 3 -0.007794 -0.004980 0.013714 0.000007 -0.003242 0.000003
# 4 -0.000006 0.000006 0.000007 0.023365 -0.000001 0.000936
# 5 0.002594 0.000014 -0.003242 -0.000001 0.023732 0.000001
# 6 -0.000003 0.000003 0.000003 0.000936 0.000001 0.034202
#
#
# Mechanical properties :
#
#
# Convention : Reuss Voigt Hill
#
# Bulk Modulus (GPa) = 47.69040 60.36984 54.03012
# Shear Modulus (GPa) = 30.00490 33.99555 32.00023
#
# Velocity S-wave (km/s) = 3.77874 4.02218 3.90236
# Velocity P-wave (km/s) = 6.46016 7.09223 6.78356
#
# Compressibility (1/GPa) = 0.02096858
#
# Stress axis : x y z
#
# Youngs Moduli (GPa) = 66.77542 47.68610 72.92039
#
# Poissons Ratio (x) = 0.07497 0.56831
# Poissons Ratio (y) = 0.10499 0.36313
# Poissons Ratio (z) = 0.52042 0.23747
#
# Static dielectric constant tensor:
#      x y z
#    x 2.442630 0.000050 -2.916890 
#    y 0.000050 3.876580 0.000060 
#    z -2.916890 0.000060 -1.443100 
# 
# 
# High freq. dielectric constant tensor:
#      x y z
#    x 1.830230 0.000000 0.002380 
#    y 0.000000 1.822380 -0.000010 
#    z 0.002380 -0.000010 1.830250 
# 
# From -- ./inp_files/347929.got.cif
#   From: 2010.06.25/outbox.cif.g09.slc.cpg/sg12_174_cif.got.tgz:347929.got - 2010.06.28 00:19:55.
