data_PCOD8099364
_publ_section_title
;
Structure prediction by ZEFSAII (Michael W. Deem and Ramdas Pophale) SiO2 
 PCOD8099364
Probable space group: C 2/M
;
_chemical_formula_sum "Si O2"
_cell_formula_units_Z 56
_cell_length_a 21.746693
_cell_length_b 9.604833
_cell_length_c 14.762854
_cell_angle_alpha 90.000000
_cell_angle_beta 115.142710
_cell_angle_gamma 90.000000
_cell_volume 2791.406085
_symmetry_space_group_name_H-M "C 2/M"
_symmetry_group_IT_number 12
_symmetry_cell_setting 'monoclinic'
loop_
_space_group_symop_operation_xyz
x,y,z
-x,y,-z
-x,-y,-z
x,-y,z
1/2+x,1/2+y,z
1/2-x,1/2+y,-z
1/2-x,1/2-y,-z
1/2+x,1/2-y,z
loop_
_atom_site_type_symbol
_atom_site_label
_atom_site_fract_x
_atom_site_fract_y
_atom_site_fract_z
Si Si1 0.713187 0.659490 0.053485
Si Si2 0.845241 0.340958 0.484585
Si Si3 0.973950 0.844585 0.583441
Si Si4 0.992190 0.659208 0.242313
Si Si5 0.554048 0.338522 0.953756
Si Si6 0.739175 0.340794 0.267983
Si Si7 0.348106 0.850281 0.682789
O O1 0.721483 0.500000 0.028128
O O2 0.754807 0.689732 0.172462
O O3 0.750000 0.750000 0.000000
O O4 0.633633 0.690108 0.026253
O O5 0.872022 0.500000 0.484863
O O6 0.902380 0.227046 0.526526
O O7 0.799252 0.292426 0.371668
O O8 0.809188 0.335194 0.561219
O O9 0.000000 0.858777 0.500000
O O10 0.024035 0.749546 0.677320
O O11 0.966703 0.000000 0.621967
O O12 0.964552 0.500000 0.233729
O O13 0.959043 0.734395 0.136546
O O14 0.072434 0.660848 0.283829
O O15 0.543676 0.500000 0.919412
O O16 0.500000 0.301722 0.000000
O O17 0.721758 0.500000 0.272620
O O18 0.671251 0.263087 0.255717
O O19 0.329704 0.000000 0.713597
#
# Coordination Sequence:
#
# PCOD8099364 Si02
#       7
#     8   8   8   8   8   8   8
#     4  10  23  41  59  83 115 153 197 242 290 342
#     4   9  19  34  52  79 112 142 177 220 270 335
#     4  10  21  36  54  78 108 142 182 226 275 337
#     4  10  21  36  56  83 113 145 185 235 288 341
#     4  10  21  39  63  89 118 153 196 246 296 347
#     4  10  20  35  56  79 106 145 188 227 273 332
#     4   9  18  32  51  81 115 141 173 222 279 337
#
# _framework density 20.061574
#
# number of rings (size 3 to 8) (size 9 to 14) (size 15 to 20)
#    0.000    2.286    0.000    3.000    0.000    8.286 
#    0.000    2.857    0.000    0.000    0.000    0.000 
#    0.000    0.000    0.000    0.000    0.000    0.000 
#
# Total GULP energy -346896.564158 kJ/mol
# GULP energy per Si atom -12389.163006 kJ/mol
# Density = 2.001591 g / cm^3
# Si number density = 20.061574 Si / 1000 Ang^3
#
#
#
# Elastic Constant Matrix: (Units=GPa)
#
#
# Indices 1 2 3 4 5 6 
#
# 1 63.2897 32.9699 21.9148 0.0000 -10.4459 0.0000
# 2 32.9699 112.7835 54.8840 0.0000 -7.5610 0.0000
# 3 21.9148 54.8840 116.1368 0.0000 -5.0691 0.0000
# 4 0.0000 0.0000 0.0000 36.6646 0.0000 -3.1588
# 5 -10.4459 -7.5610 -5.0691 0.0000 18.1810 0.0000
# 6 0.0000 0.0000 0.0000 -3.1588 0.0000 29.0603
#
#
#
# Elastic Compliance Matrix: (Units=1/GPa)
#
#
# Indices 1 2 3 4 5 6 
#
# 1 0.020198 -0.004705 -0.001181 0.000000 0.009319 0.000000
# 2 -0.004705 0.012811 -0.005114 0.000000 0.001199 0.000000
# 3 -0.001181 -0.005114 0.011265 0.000000 0.000335 0.000000
# 4 0.000000 0.000000 0.000000 0.027532 0.000000 0.002993
# 5 0.009319 0.001199 0.000335 0.000000 0.060949 0.000000
# 6 0.000000 0.000000 0.000000 0.002993 0.000000 0.034737
#
#
# Mechanical properties :
#
#
# Convention : Reuss Voigt Hill
#
# Bulk Modulus (GPa) = 44.89585 56.86082 50.87834
# Shear Modulus (GPa) = 25.39142 28.94393 27.16768
#
# Velocity S-wave (km/s) = 3.56149 3.80248 3.68396
# Velocity P-wave (km/s) = 6.27215 6.90530 6.59633
#
# Compressibility (1/GPa) = 0.02227377
#
# Stress axis : x y z
#
# Youngs Moduli (GPa) = 49.50871 78.05790 88.77160
#
# Poissons Ratio (x) = 0.36727 0.10485
# Poissons Ratio (y) = 0.23294 0.45399
# Poissons Ratio (z) = 0.05848 0.39919
#
# Static dielectric constant tensor:
#      x y z
#    x 2.688570 0.000000 0.662820 
#    y 0.000000 4.088990 0.000000 
#    z 0.662820 0.000000 3.333730 
# 
# 
# High freq. dielectric constant tensor:
#      x y z
#    x 1.753100 0.000000 -0.004850 
#    y 0.000000 1.793070 0.000000 
#    z -0.004850 0.000000 1.794220 
# 
# From -- ./inp_files/239020.got.cif
#   From: 2010.06.25/outbox.cif.g09.slc.cpg/sg12_120_cif.got.tgz:239020.got - 2010.06.28 00:19:55.
