data_PCOD8099656
_publ_section_title
;
Structure prediction by ZEFSAII (Michael W. Deem and Ramdas Pophale) SiO2 
 PCOD8099656
Probable space group: C 2/M
;
_chemical_formula_sum "Si O2"
_cell_formula_units_Z 56
_cell_length_a 21.331931
_cell_length_b 8.573284
_cell_length_c 15.379617
_cell_angle_alpha 90.000000
_cell_angle_beta 87.985569
_cell_angle_gamma 90.000000
_cell_volume 2810.958451
_symmetry_space_group_name_H-M "C 2/M"
_symmetry_group_IT_number 12
_symmetry_cell_setting 'monoclinic'
loop_
_space_group_symop_operation_xyz
x,y,z
-x,y,-z
-x,-y,-z
x,-y,z
1/2+x,1/2+y,z
1/2-x,1/2+y,-z
1/2-x,1/2-y,-z
1/2+x,1/2-y,z
loop_
_atom_site_type_symbol
_atom_site_label
_atom_site_fract_x
_atom_site_fract_y
_atom_site_fract_z
Si Si1 0.817251 0.315544 0.023170
Si Si2 0.532927 0.680366 0.410146
Si Si3 0.340996 0.176714 0.553933
Si Si4 0.642040 0.184473 0.791212
Si Si5 0.943768 0.816088 0.939324
Si Si6 0.282103 0.180355 0.375236
Si Si7 0.503144 0.183739 0.770344
O O1 0.816285 0.500000 0.014116
O O2 0.826919 0.259798 0.121328
O O3 0.750000 0.250000 0.000000
O O4 0.875691 0.253093 0.964839
O O5 0.500000 0.742408 0.500000
O O6 0.517156 0.500000 0.394807
O O7 0.606938 0.702831 0.417176
O O8 0.510616 0.779342 0.329059
O O9 0.330192 0.200529 0.452184
O O10 0.278224 0.212850 0.609631
O O11 0.361963 0.000000 0.573312
O O12 0.683834 0.249787 0.710791
O O13 0.571894 0.250843 0.788849
O O14 0.638709 0.000000 0.783031
O O15 0.956064 0.768578 0.838930
O O16 0.939344 0.000000 0.948124
O O17 0.000000 0.752379 0.000000
O O18 0.261697 0.000000 0.366400
O O19 0.497713 0.000000 0.786009
#
# Coordination Sequence:
#
# PCOD8099656 Si02
#       7
#     8   8   8   8   8   8   8
#     4  11  23  41  63  90 125 163 208 261 321 378
#     4  11  24  40  58  85 123 161 198 248 308 365
#     4  10  20  35  56  83 115 153 199 247 298 359
#     4   9  19  36  60  86 113 150 197 249 304 364
#     4  11  23  41  65  93 127 165 208 259 316 379
#     4   9  18  35  58  82 112 152 197 246 302 361
#     4  11  22  39  65  93 119 157 209 257 308 370
#
# _framework density 19.922029999999999
#
# number of rings (size 3 to 8) (size 9 to 14) (size 15 to 20)
#    0.000    1.714    1.429    3.000    0.000    4.571 
#    0.000    7.143    0.000    0.000    0.000    0.000 
#    0.000    0.000    0.000    0.000    0.000    0.000 
#
# Total GULP energy -347266.264606 kJ/mol
# GULP energy per Si atom -12402.366593 kJ/mol
# Density = 1.987669 g / cm^3
# Si number density = 19.922030 Si / 1000 Ang^3
#
#
#
# Elastic Constant Matrix: (Units=GPa)
#
#
# Indices 1 2 3 4 5 6 
#
# 1 134.4737 32.3489 76.9512 0.0000 2.8611 0.0000
# 2 32.3489 53.8566 31.6514 0.0000 0.2275 0.0000
# 3 76.9512 31.6514 150.0681 0.0000 -16.6976 0.0000
# 4 0.0000 0.0000 0.0000 26.5308 0.0000 -0.8877
# 5 2.8611 0.2275 -16.6976 0.0000 33.1598 0.0000
# 6 0.0000 0.0000 0.0000 -0.8877 0.0000 28.8590
#
#
#
# Elastic Compliance Matrix: (Units=1/GPa)
#
#
# Indices 1 2 3 4 5 6 
#
# 1 0.011602 -0.003662 -0.005599 0.000000 -0.003795 0.000000
# 2 -0.003662 0.022555 -0.003031 0.000000 -0.001365 0.000000
# 3 -0.005599 -0.003031 0.010837 0.000000 0.005961 0.000000
# 4 0.000000 0.000000 0.000000 0.037731 0.000000 0.001161
# 5 -0.003795 -0.001365 0.005961 0.000000 0.033496 0.000000
# 6 0.000000 0.000000 0.000000 0.001161 0.000000 0.034687
#
#
# Mechanical properties :
#
#
# Convention : Reuss Voigt Hill
#
# Bulk Modulus (GPa) = 48.99748 68.92237 58.95992
# Shear Modulus (GPa) = 27.42796 30.87303 29.15049
#
# Velocity S-wave (km/s) = 3.71450 3.94088 3.82937
# Velocity P-wave (km/s) = 6.56085 7.44168 7.01510
#
# Compressibility (1/GPa) = 0.02040921
#
# Stress axis : x y z
#
# Youngs Moduli (GPa) = 86.19036 44.33677 92.27338
#
# Poissons Ratio (x) = 0.16237 0.51666
# Poissons Ratio (y) = 0.31564 0.27969
# Poissons Ratio (z) = 0.48260 0.13439
#
# Static dielectric constant tensor:
#      x y z
#    x 3.684750 0.000000 -0.037490 
#    y 0.000000 3.442920 0.000000 
#    z -0.037490 0.000000 3.779640 
# 
# 
# High freq. dielectric constant tensor:
#      x y z
#    x 1.783310 0.000000 -0.007130 
#    y 0.000000 1.769000 0.000000 
#    z -0.007130 0.000000 1.785050 
# 
# From -- ./inp_files/231044.got.cif
#   From: 2010.06.25/outbox.cif.g09.slc.cpg/sg12_116_cif.got.tgz:231044.got - 2010.06.28 00:19:55.
