data_PCOD8099561
_publ_section_title
;
Structure prediction by ZEFSAII (Michael W. Deem and Ramdas Pophale) SiO2 
 PCOD8099561
Probable space group: C 2/M
;
_chemical_formula_sum "Si O2"
_cell_formula_units_Z 48
_cell_length_a 17.061954
_cell_length_b 20.400073
_cell_length_c 14.595095
_cell_angle_alpha 90.000000
_cell_angle_beta 148.805897
_cell_angle_gamma 90.000000
_cell_volume 2631.152401
_symmetry_space_group_name_H-M "C 2/M"
_symmetry_group_IT_number 12
_symmetry_cell_setting 'monoclinic'
loop_
_space_group_symop_operation_xyz
x,y,z
-x,y,-z
-x,-y,-z
x,-y,z
1/2+x,1/2+y,z
1/2-x,1/2+y,-z
1/2-x,1/2-y,-z
1/2+x,1/2-y,z
loop_
_atom_site_type_symbol
_atom_site_label
_atom_site_fract_x
_atom_site_fract_y
_atom_site_fract_z
Si Si1 0.178931 0.689220 0.375908
Si Si2 0.320383 0.623804 0.820383
Si Si3 0.176666 0.074774 0.982665
Si Si4 0.678931 0.189220 0.981953
Si Si5 0.678784 0.770419 0.178784
Si Si6 0.323334 0.425226 0.629332
O O1 0.250000 0.750000 0.500000
O O2 0.232641 0.691563 0.323587
O O3 0.233269 0.620170 0.469280
O O4 1.000000 0.695067 0.205788
O O5 0.252347 0.697104 0.752347
O O6 0.262948 0.586469 0.672241
O O7 0.500000 0.624441 0.000000
O O8 0.262948 0.586469 0.853656
O O9 1.000000 0.092422 0.799520
O O10 0.208265 0.000000 0.986386
O O11 0.266731 0.120170 0.002741
O O12 0.750000 0.250000 0.000000
O O13 0.732641 0.191563 0.141696
O O14 0.500000 0.763661 0.000000
O O15 0.291735 0.500000 0.569856
#
# Coordination Sequence:
#
# PCOD8099561 Si02
#       6
#     8   8   8   8   8   8
#     4  11  21  36  57  80 108 142 181 223 266 316
#     4   9  15  30  55  81 109 141 177 215 262 324
#     4  10  20  35  56  82 111 144 180 219 267 321
#     4  11  21  36  57  80 108 142 181 223 266 316
#     4   9  18  33  55  79 105 139 182 219 258 321
#     4  10  20  35  56  82 111 144 180 219 267 321
#
# _framework density 18.242958000000002
#
# number of rings (size 3 to 8) (size 9 to 14) (size 15 to 20)
#    0.000    2.000    3.333    1.500    0.000    2.667 
#    0.000    6.667    0.000    7.000    0.000    0.000 
#    0.000    0.000    0.000    0.000    0.000    0.000 
#
# Total GULP energy -297586.096563 kJ/mol
# GULP energy per Si atom -12399.420690 kJ/mol
# Density = 1.820144 g / cm^3
# Si number density = 18.242958 Si / 1000 Ang^3
#
#
#
# Elastic Constant Matrix: (Units=GPa)
#
#
# Indices 1 2 3 4 5 6 
#
# 1 129.4090 65.1260 50.3924 0.0000 -27.0494 0.0000
# 2 65.1260 122.1932 49.4283 0.0000 -15.9004 0.0000
# 3 50.3924 49.4283 79.5866 0.0000 -23.4164 0.0000
# 4 0.0000 0.0000 0.0000 32.4966 0.0000 -1.7275
# 5 -27.0494 -15.9004 -23.4164 0.0000 29.8360 0.0000
# 6 0.0000 0.0000 0.0000 -1.7275 0.0000 34.2021
#
#
#
# Elastic Compliance Matrix: (Units=1/GPa)
#
#
# Indices 1 2 3 4 5 6 
#
# 1 0.012658 -0.004584 -0.003264 0.000000 0.006471 0.000000
# 2 -0.004584 0.012599 -0.005422 0.000000 -0.001697 0.000000
# 3 -0.003264 -0.005422 0.021165 0.000000 0.010763 0.000000
# 4 0.000000 0.000000 0.000000 0.030855 0.000000 0.001558
# 5 0.006471 -0.001697 0.010763 0.000000 0.046927 0.000000
# 6 0.000000 0.000000 0.000000 0.001558 0.000000 0.029317
#
#
# Mechanical properties :
#
#
# Convention : Reuss Voigt Hill
#
# Bulk Modulus (GPa) = 50.29190 73.45356 61.87273
# Shear Modulus (GPa) = 26.78262 30.38972 28.58617
#
# Velocity S-wave (km/s) = 3.83575 4.08589 3.96279
# Velocity P-wave (km/s) = 6.87350 7.91270 7.41133
#
# Compressibility (1/GPa) = 0.01988392
#
# Stress axis : x y z
#
# Youngs Moduli (GPa) = 79.00157 79.36949 47.24695
#
# Poissons Ratio (x) = 0.36384 0.15420
# Poissons Ratio (y) = 0.36215 0.25615
# Poissons Ratio (z) = 0.25784 0.43031
#
# Static dielectric constant tensor:
#      x y z
#    x 3.540080 0.000000 -0.286810 
#    y 0.000000 3.358590 0.000000 
#    z -0.286810 0.000000 3.256930 
# 
# 
# High freq. dielectric constant tensor:
#      x y z
#    x 1.704340 0.000000 -0.017700 
#    y 0.000000 1.706990 0.000000 
#    z -0.017700 0.000000 1.686870 
# 
# From -- ./inp_files/75090.got.cif
#   From: 2010.06.25/outbox.cif.g09.slc.cpg/sg12_38_cif.got.tgz:75090.got - 2010.06.28 00:19:55.
