data_PCOD8099426
_publ_section_title
;
Structure prediction by ZEFSAII (Michael W. Deem and Ramdas Pophale) SiO2 
 PCOD8099426
Probable space group: C 2/M
;
_chemical_formula_sum "Si O2"
_cell_formula_units_Z 48
_cell_length_a 27.329341
_cell_length_b 8.822305
_cell_length_c 15.572306
_cell_angle_alpha 90.000000
_cell_angle_beta 40.725885
_cell_angle_gamma 90.000000
_cell_volume 2449.657112
_symmetry_space_group_name_H-M "C 2/M"
_symmetry_group_IT_number 12
_symmetry_cell_setting 'monoclinic'
loop_
_space_group_symop_operation_xyz
x,y,z
-x,y,-z
-x,-y,-z
x,-y,z
1/2+x,1/2+y,z
1/2-x,1/2+y,-z
1/2-x,1/2-y,-z
1/2+x,1/2-y,z
loop_
_atom_site_type_symbol
_atom_site_label
_atom_site_fract_x
_atom_site_fract_y
_atom_site_fract_z
Si Si1 0.046020 0.176158 0.192807
Si Si2 0.793735 0.321034 0.363070
Si Si3 0.214684 0.180414 0.296306
Si Si4 0.953614 0.824552 0.145355
Si Si5 0.205720 0.678758 0.980883
Si Si6 0.453773 0.679833 0.480748
O O1 0.119585 0.276438 0.099264
O O2 0.004717 0.209489 0.159091
O O3 0.992587 0.230184 0.340904
O O4 0.067765 0.000000 0.173467
O O5 0.785938 0.500000 0.379592
O O6 0.750000 0.250000 0.500000
O O7 0.756605 0.258187 0.325021
O O8 0.880326 0.276929 0.249612
O O9 0.130304 0.246453 0.406083
O O10 0.213130 0.000000 0.299383
O O11 0.258887 0.241319 0.154565
O O12 0.929554 0.000000 0.173366
O O13 0.000000 0.775919 0.000000
O O14 0.213948 0.500000 0.975669
O O15 0.250000 0.750000 0.000000
O O16 0.500000 0.746569 0.500000
O O17 0.450296 0.500000 0.492087
#
# Coordination Sequence:
#
# PCOD8099426 Si02
#       6
#     8   8   8   8   8   8
#     4  10  20  35  56  80 108 142 179 224 277 330
#     4  11  22  37  58  83 114 151 192 238 287 341
#     4   9  19  35  55  80 109 145 188 229 272 329
#     4  10  21  37  57  82 113 148 188 235 285 337
#     4  11  22  37  58  83 112 145 184 229 276 330
#     4   9  16  29  52  77 100 132 177 222 262 313
#
# _framework density 19.594579
#
# number of rings (size 3 to 8) (size 9 to 14) (size 15 to 20)
#    0.000    2.000    0.000    4.000    0.000    6.333 
#    0.000    2.500    0.000    5.500    0.000    0.000 
#    0.000    0.000    0.000    0.000    0.000    0.000 
#
# Total GULP energy -297688.249108 kJ/mol
# GULP energy per Si atom -12403.677046 kJ/mol
# Density = 1.954998 g / cm^3
# Si number density = 19.594579 Si / 1000 Ang^3
#
#
#
# Elastic Constant Matrix: (Units=GPa)
#
#
# Indices 1 2 3 4 5 6 
#
# 1 132.3799 34.9072 54.1448 -0.0017 9.9100 0.0023
# 2 34.9072 45.1816 31.9446 0.0065 0.6627 -0.0042
# 3 54.1448 31.9446 121.6290 -0.0004 4.9598 0.0019
# 4 -0.0017 0.0065 -0.0004 27.5021 -0.0015 -10.8308
# 5 9.9100 0.6627 4.9598 -0.0015 45.4872 0.0010
# 6 0.0023 -0.0042 0.0019 -10.8308 0.0010 17.5304
#
#
#
# Elastic Compliance Matrix: (Units=1/GPa)
#
#
# Indices 1 2 3 4 5 6 
#
# 1 0.010503 -0.005938 -0.003040 0.000001 -0.001870 -0.000002
# 2 -0.005938 0.030544 -0.005437 -0.000005 0.001442 0.000005
# 3 -0.003040 -0.005437 0.011022 0.000001 -0.000460 -0.000002
# 4 0.000001 -0.000005 0.000001 0.048052 0.000001 0.029688
# 5 -0.001870 0.001442 -0.000460 0.000001 0.022421 0.000000
# 6 -0.000002 0.000005 -0.000002 0.029688 0.000000 0.075386
#
#
# Mechanical properties :
#
#
# Convention : Reuss Voigt Hill
#
# Bulk Modulus (GPa) = 43.03240 60.13154 51.58197
# Shear Modulus (GPa) = 21.32151 29.98352 25.65252
#
# Velocity S-wave (km/s) = 3.30227 3.91601 3.62216
# Velocity P-wave (km/s) = 6.04558 7.15551 6.62383
#
# Compressibility (1/GPa) = 0.02323831
#
# Stress axis : x y z
#
# Youngs Moduli (GPa) = 95.20963 32.73970 90.72948
#
# Poissons Ratio (x) = 0.19441 0.27580
# Poissons Ratio (y) = 0.56536 0.49333
# Poissons Ratio (z) = 0.28942 0.17802
#
# Static dielectric constant tensor:
#      x y z
#    x 3.781470 -0.000310 0.124460 
#    y -0.000310 2.952960 -0.000070 
#    z 0.124460 -0.000070 3.748950 
# 
# 
# High freq. dielectric constant tensor:
#      x y z
#    x 1.784200 0.000000 0.003410 
#    y 0.000000 1.726020 0.000000 
#    z 0.003410 0.000000 1.783840 
# 
# From -- ./inp_files/244609.got.cif
#   From: 2010.06.25/outbox.cif.g09.slc.cpg/sg12_123_cif.got.tgz:244609.got - 2010.06.28 00:19:55.
