data_PCOD8099774
_publ_section_title
;
Structure prediction by ZEFSAII (Michael W. Deem and Ramdas Pophale) SiO2 
 PCOD8099774
Probable space group: C 2/M
;
_chemical_formula_sum "Si O2"
_cell_formula_units_Z 64
_cell_length_a 25.726793
_cell_length_b 13.264075
_cell_length_c 8.572083
_cell_angle_alpha 90.000000
_cell_angle_beta 88.225601
_cell_angle_gamma 90.000000
_cell_volume 2923.753081
_symmetry_space_group_name_H-M "C 2/M"
_symmetry_group_IT_number 12
_symmetry_cell_setting 'monoclinic'
loop_
_space_group_symop_operation_xyz
x,y,z
-x,y,-z
-x,-y,-z
x,-y,z
1/2+x,1/2+y,z
1/2-x,1/2+y,-z
1/2-x,1/2-y,-z
1/2+x,1/2-y,z
loop_
_atom_site_type_symbol
_atom_site_label
_atom_site_fract_x
_atom_site_fract_y
_atom_site_fract_z
Si Si1 0.457470 0.707860 0.880726
Si Si2 0.244137 0.383300 0.572726
Si Si3 0.342853 0.884621 0.659579
Si Si4 0.634635 0.615385 0.964995
Si Si5 0.785074 0.780999 0.855815
Si Si6 0.153838 0.118365 0.609312
Si Si7 0.946017 0.115319 0.560803
Si Si8 0.963369 0.614760 0.651172
O O1 0.406030 0.703890 0.990176
O O2 0.445325 0.626391 0.746808
O O3 0.473822 0.814612 0.801242
O O4 0.500000 0.670820 0.000000
O O5 0.252145 0.500000 0.609658
O O6 0.189143 0.363846 0.495193
O O7 0.245321 0.319968 0.729942
O O8 0.291741 0.340205 0.462966
O O9 0.322369 0.810644 0.796513
O O10 0.403254 0.866232 0.611408
O O11 0.333853 0.000000 0.717375
O O12 0.613256 0.500000 0.971302
O O13 0.680413 0.625221 0.087212
O O14 0.653253 0.644978 0.790726
O O15 0.750000 0.750000 0.000000
O O16 0.104468 0.166060 0.518220
O O17 0.152249 0.000000 0.582155
O O18 0.000000 0.168021 0.500000
O O19 0.947038 0.000000 0.509931
O O20 0.973676 0.500000 0.702736
O O21 0.000000 0.641950 0.500000
#
# Coordination Sequence:
#
# PCOD8099774 Si02
#       8
#     8   8   8   8   8   8   8   8
#     4  12  24  40  62  98 132 163 208 266 331 397
#     4  10  21  40  66  97 130 173 221 266 318 387
#     4  10  22  43  68  95 128 170 225 280 325 385
#     4  11  23  40  62  94 136 177 213 263 330 393
#     4  12  24  40  62  99 140 177 215 265 328 391
#     4   9  19  36  60  88 126 176 221 256 303 376
#     4  10  20  35  56  87 127 174 220 258 300 367
#     4  10  23  47  73  95 123 168 223 280 339 397
#
# _framework density 21.889672999999998
#
# number of rings (size 3 to 8) (size 9 to 14) (size 15 to 20)
#    0.000    1.500    1.250    3.750    0.000    5.250 
#    2.250    0.000    0.000    0.000    0.000    0.000 
#    0.000    0.000    0.000    0.000    0.000    0.000 
#
# Total GULP energy -396607.118386 kJ/mol
# GULP energy per Si atom -12393.972450 kJ/mol
# Density = 2.183985 g / cm^3
# Si number density = 21.889673 Si / 1000 Ang^3
#
#
#
# Elastic Constant Matrix: (Units=GPa)
#
#
# Indices 1 2 3 4 5 6 
#
# 1 134.5342 7.6753 59.9276 0.0000 1.1759 0.0000
# 2 7.6753 72.2762 37.2868 0.0000 -6.5231 0.0000
# 3 59.9276 37.2868 144.1231 0.0000 -0.8690 0.0000
# 4 0.0000 0.0000 0.0000 31.7501 0.0000 1.7058
# 5 1.1759 -6.5231 -0.8690 0.0000 46.4580 0.0000
# 6 0.0000 0.0000 0.0000 1.7058 0.0000 18.0644
#
#
#
# Elastic Compliance Matrix: (Units=1/GPa)
#
#
# Indices 1 2 3 4 5 6 
#
# 1 0.009206 0.001136 -0.004123 0.000000 -0.000151 0.000000
# 2 0.001136 0.016328 -0.004683 0.000000 0.002176 0.000000
# 3 -0.004123 -0.004683 0.009862 0.000000 -0.000369 0.000000
# 4 0.000000 0.000000 0.000000 0.031657 0.000000 -0.002989
# 5 -0.000151 0.002176 -0.000369 0.000000 0.021827 0.000000
# 6 0.000000 0.000000 0.000000 -0.002989 0.000000 0.055640
#
#
# Mechanical properties :
#
#
# Convention : Reuss Voigt Hill
#
# Bulk Modulus (GPa) = 49.86236 62.30144 56.08190
# Shear Modulus (GPa) = 30.02189 35.65743 32.83966
#
# Velocity S-wave (km/s) = 3.70741 4.04042 3.87749
# Velocity P-wave (km/s) = 6.41521 7.09154 6.76184
#
# Compressibility (1/GPa) = 0.02005521
#
# Stress axis : x y z
#
# Youngs Moduli (GPa) = 108.62493 61.24561 101.39765
#
# Poissons Ratio (x) = -0.06955 0.41803
# Poissons Ratio (y) = -0.12336 0.47488
# Poissons Ratio (z) = 0.44782 0.28683
#
# Static dielectric constant tensor:
#      x y z
#    x 3.950430 0.000000 -0.213230 
#    y 0.000000 4.010740 0.000000 
#    z -0.213230 0.000000 3.678950 
# 
# 
# High freq. dielectric constant tensor:
#      x y z
#    x 1.870080 0.000000 0.001810 
#    y 0.000000 1.862410 0.000000 
#    z 0.001810 0.000000 1.856780 
# 
# From -- ./inp_files/96897.got.cif
#   From: 2010.06.25/outbox.cif.g09.slc.cpg/sg12_49_cif.got.tgz:96897.got - 2010.06.28 00:19:55.
