data_PCOD8099649
_publ_section_title
;
Structure prediction by ZEFSAII (Michael W. Deem and Ramdas Pophale) SiO2 
 PCOD8099649
Probable space group: C 2/M
;
_chemical_formula_sum "Si O2"
_cell_formula_units_Z 56
_cell_length_a 31.914966
_cell_length_b 8.766636
_cell_length_c 12.613175
_cell_angle_alpha 90.000000
_cell_angle_beta 55.535326
_cell_angle_gamma 90.000000
_cell_volume 2909.573995
_symmetry_space_group_name_H-M "C 2/M"
_symmetry_group_IT_number 12
_symmetry_cell_setting 'monoclinic'
loop_
_space_group_symop_operation_xyz
x,y,z
-x,y,-z
-x,-y,-z
x,-y,z
1/2+x,1/2+y,z
1/2-x,1/2+y,-z
1/2-x,1/2-y,-z
1/2+x,1/2-y,z
loop_
_atom_site_type_symbol
_atom_site_label
_atom_site_fract_x
_atom_site_fract_y
_atom_site_fract_z
Si Si1 0.246016 0.322745 0.318174
Si Si2 0.227066 0.678176 0.929435
Si Si3 0.358645 0.322243 0.218520
Si Si4 0.561308 0.820110 0.501244
Si Si5 0.141328 0.322460 0.565490
Si Si6 0.546132 0.319170 0.305589
Si Si7 0.385844 0.179768 0.967325
O O1 0.242864 0.500000 0.293911
O O2 0.240130 0.231657 0.217527
O O3 0.298824 0.280510 0.299415
O O4 0.199496 0.274283 0.459813
O O5 0.231377 0.500000 0.933589
O O6 0.250000 0.750000 0.000000
O O7 0.168803 0.730198 0.999649
O O8 0.368600 0.500000 0.187289
O O9 0.378893 0.270809 0.304303
O O10 0.389678 0.231365 0.084216
O O11 0.607888 0.780079 0.511273
O O12 0.511966 0.734421 0.615704
O O13 0.574696 0.759108 0.364519
O O14 0.550641 0.000000 0.511267
O O15 0.136971 0.500000 0.599165
O O16 0.548790 0.500000 0.314320
O O17 0.571861 0.267773 0.159814
O O18 0.395080 0.000000 0.946137
#
# Coordination Sequence:
#
# PCOD8099649 Si02
#       7
#     8   8   8   8   8   8   8
#     4   9  19  35  53  78 112 150 188 225 269 322
#     4  10  21  34  51  78 111 146 184 227 272 326
#     4  10  20  35  56  83 115 148 186 232 275 322
#     4  10  21  38  59  84 113 147 187 227 275 337
#     4  10  21  36  57  82 112 149 189 229 271 327
#     4  11  22  38  60  85 113 142 181 234 287 333
#     4  10  21  38  59  79 108 150 188 223 276 338
#
# _framework density 19.246804000000001
#
# number of rings (size 3 to 8) (size 9 to 14) (size 15 to 20)
#    0.000    2.000    0.000    4.286    2.000    4.000 
#    0.000    0.714    0.000    4.286    0.000    0.000 
#    0.000    0.000    0.000    0.000    0.000    0.000 
#
# Total GULP energy -347300.989747 kJ/mol
# GULP energy per Si atom -12403.606777 kJ/mol
# Density = 1.920300 g / cm^3
# Si number density = 19.246804 Si / 1000 Ang^3
#
#
#
# Elastic Constant Matrix: (Units=GPa)
#
#
# Indices 1 2 3 4 5 6 
#
# 1 55.7610 21.5160 29.5979 0.0000 10.4460 0.0000
# 2 21.5160 69.8130 35.4940 0.0000 2.6593 0.0000
# 3 29.5979 35.4940 114.2361 0.0000 3.7724 0.0000
# 4 0.0000 0.0000 0.0000 38.5884 0.0000 5.2324
# 5 10.4460 2.6593 3.7724 0.0000 22.8017 0.0000
# 6 0.0000 0.0000 0.0000 5.2324 0.0000 25.7059
#
#
#
# Elastic Compliance Matrix: (Units=1/GPa)
#
#
# Indices 1 2 3 4 5 6 
#
# 1 0.023920 -0.004768 -0.004396 0.000000 -0.009675 0.000000
# 2 -0.004768 0.017990 -0.004381 0.000000 0.000811 0.000000
# 3 -0.004396 -0.004381 0.011232 0.000000 0.000667 0.000000
# 4 0.000000 0.000000 0.000000 0.026650 0.000000 -0.005425
# 5 -0.009675 0.000811 0.000667 0.000000 0.048084 0.000000
# 6 0.000000 0.000000 0.000000 -0.005425 0.000000 0.040006
#
#
# Mechanical properties :
#
#
# Convention : Reuss Voigt Hill
#
# Bulk Modulus (GPa) = 38.38705 45.89176 42.13940
# Shear Modulus (GPa) = 24.55122 27.63267 26.09195
#
# Velocity S-wave (km/s) = 3.57543 3.79318 3.68591
# Velocity P-wave (km/s) = 6.08546 6.56352 6.32901
#
# Compressibility (1/GPa) = 0.02605045
#
# Stress axis : x y z
#
# Youngs Moduli (GPa) = 41.80677 55.58649 89.03076
#
# Poissons Ratio (x) = 0.26505 0.39142
# Poissons Ratio (y) = 0.19934 0.39004
# Poissons Ratio (z) = 0.18380 0.24352
#
# Static dielectric constant tensor:
#      x y z
#    x 3.466440 0.000000 0.088910 
#    y 0.000000 3.552520 0.000000 
#    z 0.088910 0.000000 3.608450 
# 
# 
# High freq. dielectric constant tensor:
#      x y z
#    x 1.733570 0.000000 0.009450 
#    y 0.000000 1.756860 0.000000 
#    z 0.009450 0.000000 1.755160 
# 
# From -- ./inp_files/187242.got.cif
#   From: 2010.06.25/outbox.cif.g09.slc.cpg/sg12_94_cif.got.tgz:187242.got - 2010.06.28 00:19:55.
