data_PCOD8099929
_publ_section_title
;
Structure prediction by ZEFSAII (Michael W. Deem and Ramdas Pophale) SiO2 
 PCOD8099929
Probable space group: C 2/M
;
_chemical_formula_sum "Si O2"
_cell_formula_units_Z 64
_cell_length_a 18.664241
_cell_length_b 13.657707
_cell_length_c 12.931867
_cell_angle_alpha 90.000000
_cell_angle_beta 90.150501
_cell_angle_gamma 90.000000
_cell_volume 3296.460349
_symmetry_space_group_name_H-M "C 2/M"
_symmetry_group_IT_number 12
_symmetry_cell_setting 'monoclinic'
loop_
_space_group_symop_operation_xyz
x,y,z
-x,y,-z
-x,-y,-z
x,-y,z
1/2+x,1/2+y,z
1/2-x,1/2+y,-z
1/2-x,1/2-y,-z
1/2+x,1/2-y,z
loop_
_atom_site_type_symbol
_atom_site_label
_atom_site_fract_x
_atom_site_fract_y
_atom_site_fract_z
Si Si1 0.187472 0.757145 0.148135
Si Si2 0.099304 0.612041 0.824924
Si Si3 0.428552 0.252871 0.555227
Si Si4 0.022799 0.888267 0.883549
Si Si5 0.153829 0.612156 0.598697
Si Si6 0.686794 0.386804 0.349381
Si Si7 0.834260 0.206605 0.080867
Si Si8 0.457076 0.206705 0.780414
O O1 0.191985 0.837160 0.237767
O O2 0.260041 0.692574 0.143323
O O3 0.120381 0.685008 0.169112
O O4 0.177898 0.814967 0.040139
O O5 0.115960 0.500000 0.853434
O O6 0.128757 0.641894 0.712972
O O7 0.138407 0.680948 0.908160
O O8 0.013817 0.630674 0.827690
O O9 0.500000 0.293282 0.500000
O O10 0.386225 0.177558 0.484109
O O11 0.377159 0.343348 0.581902
O O12 0.452450 0.194057 0.657447
O O13 0.107755 0.868093 0.872045
O O14 0.978794 0.819405 0.805805
O O15 0.006134 0.000000 0.853580
O O16 0.000000 0.863115 0.000000
O O17 0.133334 0.500000 0.576279
O O18 0.238954 0.628908 0.589135
O O19 0.670958 0.500000 0.330234
#
# Coordination Sequence:
#
# PCOD8099929 Si02
#       8
#     8   8   8   8   8   8   8   8
#     4  10  20  35  57  83 118 151 183 238 285 334
#     4  10  20  36  60  84 114 152 192 236 283 342
#     4  11  22  37  59  88 118 153 188 246 298 337
#     4  10  20  37  60  84 114 154 193 232 284 348
#     4  10  20  38  61  87 111 148 201 239 283 347
#     4  10  22  39  61  87 116 153 196 236 285 352
#     4  10  20  36  58  87 116 148 194 236 283 340
#     4  10  21  37  56  85 119 148 192 232 290 343
#
# _framework density 19.414764000000002
#
# number of rings (size 3 to 8) (size 9 to 14) (size 15 to 20)
#    0.000    1.875    3.750    0.375    0.000    3.500 
#    0.000    3.750    0.000    1.500    0.000    0.000 
#    0.000    0.000    0.000    0.000    0.000    0.000 
#
# Total GULP energy -396835.169612 kJ/mol
# GULP energy per Si atom -12401.099050 kJ/mol
# Density = 1.937058 g / cm^3
# Si number density = 19.414764 Si / 1000 Ang^3
#
#
#
# Elastic Constant Matrix: (Units=GPa)
#
#
# Indices 1 2 3 4 5 6 
#
# 1 138.5291 21.5422 40.8928 0.0000 -19.5000 0.0000
# 2 21.5422 64.3776 39.7129 0.0000 0.5756 0.0000
# 3 40.8928 39.7129 88.2283 0.0000 -4.6308 0.0000
# 4 0.0000 0.0000 0.0000 19.3546 0.0000 -1.8377
# 5 -19.5000 0.5756 -4.6308 0.0000 34.5937 0.0000
# 6 0.0000 0.0000 0.0000 -1.8377 0.0000 19.9293
#
#
#
# Elastic Compliance Matrix: (Units=1/GPa)
#
#
# Indices 1 2 3 4 5 6 
#
# 1 0.009060 -0.000877 -0.003561 0.000000 0.004645 0.000000
# 2 -0.000877 0.021685 -0.009466 0.000000 -0.002122 0.000000
# 3 -0.003561 -0.009466 0.017270 0.000000 0.000462 0.000000
# 4 0.000000 0.000000 0.000000 0.052124 0.000000 0.004806
# 5 0.004645 -0.002122 0.000462 0.000000 0.031622 0.000000
# 6 0.000000 0.000000 0.000000 0.004806 0.000000 0.050621
#
#
# Mechanical properties :
#
#
# Convention : Reuss Voigt Hill
#
# Bulk Modulus (GPa) = 49.48534 55.04785 52.26659
# Shear Modulus (GPa) = 23.04961 27.37467 25.21214
#
# Velocity S-wave (km/s) = 3.44935 3.75906 3.60753
# Velocity P-wave (km/s) = 6.43489 6.87429 6.65822
#
# Compressibility (1/GPa) = 0.02020801
#
# Stress axis : x y z
#
# Youngs Moduli (GPa) = 110.37543 46.11515 57.90535
#
# Poissons Ratio (x) = 0.04043 0.20619
# Poissons Ratio (y) = 0.09676 0.54812
# Poissons Ratio (z) = 0.39303 0.43651
#
# Static dielectric constant tensor:
#      x y z
#    x 3.988110 0.000000 -0.077860 
#    y 0.000000 3.221130 0.000000 
#    z -0.077860 0.000000 3.484630 
# 
# 
# High freq. dielectric constant tensor:
#      x y z
#    x 1.783340 0.000000 0.002580 
#    y 0.000000 1.724050 0.000000 
#    z 0.002580 0.000000 1.750390 
# 
# From -- ./inp_files/156659.got.cif
#   From: 2010.06.25/outbox.cif.g09.slc.cpg/sg12_79_cif.got.tgz:156659.got - 2010.06.28 00:19:55.
