data_PCOD8099707
_publ_section_title
;
Structure prediction by ZEFSAII (Michael W. Deem and Ramdas Pophale) SiO2 
 PCOD8099707
Probable space group: C 2/M
;
_chemical_formula_sum "Si O2"
_cell_formula_units_Z 64
_cell_length_a 17.443380
_cell_length_b 15.330277
_cell_length_c 16.814582
_cell_angle_alpha 90.000000
_cell_angle_beta 136.699190
_cell_angle_gamma 90.000000
_cell_volume 3083.772545
_symmetry_space_group_name_H-M "C 2/M"
_symmetry_group_IT_number 12
_symmetry_cell_setting 'monoclinic'
loop_
_space_group_symop_operation_xyz
x,y,z
-x,y,-z
-x,-y,-z
x,-y,z
1/2+x,1/2+y,z
1/2-x,1/2+y,-z
1/2-x,1/2-y,-z
1/2+x,1/2-y,z
loop_
_atom_site_type_symbol
_atom_site_label
_atom_site_fract_x
_atom_site_fract_y
_atom_site_fract_z
Si Si1 0.619294 0.400728 0.961762
Si Si2 0.119304 0.267697 0.066307
Si Si3 0.239854 0.715900 0.687950
Si Si4 0.788050 0.825652 0.472876
Si Si5 0.153517 0.600374 0.960174
Si Si6 0.048547 0.601271 0.298040
Si Si7 0.064264 0.403086 0.629969
Si Si8 0.599598 0.599954 0.299179
O O1 0.600945 0.500000 0.980209
O O2 0.527596 0.380604 0.823405
O O3 0.607316 0.331193 0.023564
O O4 0.743037 0.391265 0.021147
O O5 0.184432 0.272927 0.197812
O O6 0.178564 0.335238 0.051726
O O7 0.000000 0.305572 0.000000
O O8 0.169484 0.783584 0.578643
O O9 0.166741 0.660915 0.694293
O O10 0.314167 0.654280 0.688325
O O11 0.750000 0.750000 0.500000
O O12 0.675530 0.880316 0.369573
O O13 0.883829 0.878743 0.593458
O O14 0.140022 0.500000 0.978751
O O15 0.041614 0.638322 0.833021
O O16 0.028945 0.500000 0.285088
O O17 0.017255 0.636284 0.363145
O O18 0.108096 0.500000 0.687080
O O19 0.000000 0.409550 0.500000
O O20 0.631723 0.500000 0.310093
#
# Coordination Sequence:
#
# PCOD8099707 Si02
#       8
#     8   8   8   8   8   8   8   8
#     4  10  22  40  62  91 122 160 203 244 299 368
#     4  12  23  39  60  89 127 155 196 249 311 358
#     4  11  22  37  53  88 122 153 191 244 298 361
#     4  10  21  36  57  83 119 152 197 238 286 358
#     4  10  23  42  62  86 117 159 211 252 292 353
#     4  10  20  37  61  84 110 151 200 249 293 346
#     4  10  20  35  56  84 118 149 185 240 303 354
#     4  10  20  37  61  85 117 158 198 243 293 358
#
# _framework density 20.753800999999999
#
# number of rings (size 3 to 8) (size 9 to 14) (size 15 to 20)
#    0.000    1.625    1.250    4.125    1.750    3.500 
#    2.250    1.250    0.000    0.000    0.000    2.625 
#    0.000    0.000    0.000    0.000    0.000    0.000 
#
# Total GULP energy -396621.618888 kJ/mol
# GULP energy per Si atom -12394.425590 kJ/mol
# Density = 2.070656 g / cm^3
# Si number density = 20.753801 Si / 1000 Ang^3
#
#
#
# Elastic Constant Matrix: (Units=GPa)
#
#
# Indices 1 2 3 4 5 6 
#
# 1 41.2313 19.7931 -2.5128 0.0000 -10.2661 0.0000
# 2 19.7931 60.6200 18.2285 0.0000 -19.5353 0.0000
# 3 -2.5128 18.2285 97.0936 0.0000 -14.3223 0.0000
# 4 0.0000 0.0000 0.0000 26.1500 0.0000 -7.0680
# 5 -10.2661 -19.5353 -14.3223 0.0000 34.6575 0.0000
# 6 0.0000 0.0000 0.0000 -7.0680 0.0000 61.1106
#
#
#
# Elastic Compliance Matrix: (Units=1/GPa)
#
#
# Indices 1 2 3 4 5 6 
#
# 1 0.030124 -0.009171 0.003253 0.000000 0.005098 0.000000
# 2 -0.009171 0.023420 -0.003288 0.000000 0.009126 0.000000
# 3 0.003253 -0.003288 0.011575 0.000000 0.003894 0.000000
# 4 0.000000 0.000000 0.000000 0.039475 0.000000 0.004566
# 5 0.005098 0.009126 0.003894 0.000000 0.037117 0.000000
# 6 0.000000 0.000000 0.000000 0.004566 0.000000 0.016892
#
#
# Mechanical properties :
#
#
# Convention : Reuss Voigt Hill
#
# Bulk Modulus (GPa) = 21.40985 29.99586 25.70285
# Shear Modulus (GPa) = 25.96273 35.27935 30.62104
#
# Velocity S-wave (km/s) = 3.54077 4.12745 3.84532
# Velocity P-wave (km/s) = 5.20140 6.09910 5.66805
#
# Compressibility (1/GPa) = 0.04670747
#
# Stress axis : x y z
#
# Youngs Moduli (GPa) = 33.19652 42.69805 86.39137
#
# Poissons Ratio (x) = 0.39159 -0.28107
# Poissons Ratio (y) = 0.30445 0.28407
# Poissons Ratio (z) = -0.10800 0.14040
#
# Static dielectric constant tensor:
#      x y z
#    x 5.787730 0.000000 3.525460 
#    y 0.000000 3.974370 0.000000 
#    z 3.525460 0.000000 10.646820 
# 
# 
# High freq. dielectric constant tensor:
#      x y z
#    x 1.788120 0.000000 -0.005390 
#    y 0.000000 1.807790 0.000000 
#    z -0.005390 0.000000 1.826660 
# 
# From -- ./inp_files/278193.got.cif
#   From: 2010.06.25/outbox.cif.g09.slc.cpg/sg12_140_cif.got.tgz:278193.got - 2010.06.28 00:19:55.
