data_PCOD8099003
_publ_section_title
;
Structure prediction by ZEFSAII (Michael W. Deem and Ramdas Pophale) SiO2 
 PCOD8099003
Probable space group: C 2/M
;
_chemical_formula_sum "Si O2"
_cell_formula_units_Z 56
_cell_length_a 18.396375
_cell_length_b 14.473892
_cell_length_c 11.679785
_cell_angle_alpha 90.000000
_cell_angle_beta 120.686663
_cell_angle_gamma 90.000000
_cell_volume 2674.461075
_symmetry_space_group_name_H-M "C 2/M"
_symmetry_group_IT_number 12
_symmetry_cell_setting 'monoclinic'
loop_
_space_group_symop_operation_xyz
x,y,z
-x,y,-z
-x,-y,-z
x,-y,z
1/2+x,1/2+y,z
1/2-x,1/2+y,-z
1/2-x,1/2-y,-z
1/2+x,1/2-y,z
loop_
_atom_site_type_symbol
_atom_site_label
_atom_site_fract_x
_atom_site_fract_y
_atom_site_fract_z
Si Si1 0.031702 0.712878 0.714529
Si Si2 0.860037 0.394137 0.580339
Si Si3 0.885861 0.896671 0.251358
Si Si4 0.224320 0.606489 0.253900
Si Si5 0.334694 0.105113 0.305481
Si Si6 0.832580 0.896427 0.955634
Si Si7 0.085108 0.715198 0.007540
O O1 0.036871 0.823468 0.692505
O O2 0.080519 0.661895 0.651836
O O3 0.936080 0.679063 0.647490
O O4 0.080248 0.688986 0.870613
O O5 0.893887 0.500000 0.620342
O O6 0.793583 0.370361 0.627351
O O7 0.811745 0.382146 0.421013
O O8 0.821916 0.869443 0.303242
O O9 0.923924 0.000000 0.299701
O O10 0.829556 0.894150 0.090671
O O11 0.206655 0.500000 0.212577
O O12 0.163950 0.663548 0.123591
O O13 0.256765 0.139289 0.165808
O O14 0.355978 0.000000 0.292940
O O15 0.903733 0.825879 0.967355
O O16 0.853043 0.000000 0.926716
O O17 0.000000 0.682548 0.000000
#
# Coordination Sequence:
#
# PCOD8099003 Si02
#       7
#     8   8   8   8   8   8   8
#     4  11  20  34  56  82 112 146 179 227 278 330
#     4  10  21  36  56  83 115 148 180 224 279 331
#     4   9  19  36  59  84 109 143 186 231 275 323
#     4  10  20  35  54  81 116 146 180 225 280 332
#     4  10  20  35  57  82 109 143 186 226 269 328
#     4   9  19  36  57  81 107 143 189 230 271 322
#     4  11  21  34  53  81 115 144 180 227 284 333
#
# _framework density 20.938797000000001
#
# number of rings (size 3 to 8) (size 9 to 14) (size 15 to 20)
#    0.000    2.000    1.429    2.571    0.000    6.286 
#    0.000    2.857    0.000    1.714    0.000    0.000 
#    0.000    0.000    0.000    0.000    0.000    0.000 
#
# Total GULP energy -347171.764253 kJ/mol
# GULP energy per Si atom -12398.991580 kJ/mol
# Density = 2.089114 g / cm^3
# Si number density = 20.938797 Si / 1000 Ang^3
#
#
#
# Elastic Constant Matrix: (Units=GPa)
#
#
# Indices 1 2 3 4 5 6 
#
# 1 78.4047 45.1908 19.0403 0.0000 -14.9564 0.0000
# 2 45.1908 84.6649 25.5096 0.0000 -0.7975 0.0000
# 3 19.0403 25.5096 52.5998 0.0000 -11.6896 0.0000
# 4 0.0000 0.0000 0.0000 21.1153 0.0000 2.7415
# 5 -14.9564 -0.7975 -11.6896 0.0000 27.4230 0.0000
# 6 0.0000 0.0000 0.0000 2.7415 0.0000 33.2367
#
#
#
# Elastic Compliance Matrix: (Units=1/GPa)
#
#
# Indices 1 2 3 4 5 6 
#
# 1 0.021472 -0.011456 0.000345 0.000000 0.011525 0.000000
# 2 -0.011456 0.020130 -0.007594 0.000000 -0.008900 0.000000
# 3 0.000345 -0.007594 0.024923 0.000000 0.010591 0.000000
# 4 0.000000 0.000000 0.000000 0.047872 0.000000 -0.003949
# 5 0.011525 -0.008900 0.010591 0.000000 0.047007 0.000000
# 6 0.000000 0.000000 0.000000 -0.003949 0.000000 0.030413
#
#
# Mechanical properties :
#
#
# Convention : Reuss Voigt Hill
#
# Bulk Modulus (GPa) = 34.34632 43.90565 39.12598
# Shear Modulus (GPa) = 20.92637 24.75025 22.83831
#
# Velocity S-wave (km/s) = 3.16477 3.44179 3.30618
# Velocity P-wave (km/s) = 5.45831 6.06702 5.77069
#
# Compressibility (1/GPa) = 0.02911520
#
# Stress axis : x y z
#
# Youngs Moduli (GPa) = 46.57174 49.67627 40.12332
#
# Poissons Ratio (x) = 0.56911 -0.01383
# Poissons Ratio (y) = 0.53354 0.30468
# Poissons Ratio (z) = -0.01605 0.37722
#
# Static dielectric constant tensor:
#      x y z
#    x 3.620290 0.000000 -0.269160 
#    y 0.000000 3.991240 0.000000 
#    z -0.269160 0.000000 3.731550 
# 
# 
# High freq. dielectric constant tensor:
#      x y z
#    x 1.800500 0.000000 -0.020290 
#    y 0.000000 1.829710 0.000000 
#    z -0.020290 0.000000 1.810640 
# 
# From -- ./inp_files/155960.got.cif
#   From: 2010.06.25/outbox.cif.g09.slc.cpg/sg12_78_cif.got.tgz:155960.got - 2010.06.28 00:19:55.
