data_PCOD8099170
_publ_section_title
;
Structure prediction by ZEFSAII (Michael W. Deem and Ramdas Pophale) SiO2 
 PCOD8099170
Probable space group: C 2/M
;
_chemical_formula_sum "Si O2"
_cell_formula_units_Z 56
_cell_length_a 17.783184
_cell_length_b 8.784794
_cell_length_c 28.676418
_cell_angle_alpha 90.000000
_cell_angle_beta 140.801968
_cell_angle_gamma 90.000000
_cell_volume 2831.293743
_symmetry_space_group_name_H-M "C 2/M"
_symmetry_group_IT_number 12
_symmetry_cell_setting 'monoclinic'
loop_
_space_group_symop_operation_xyz
x,y,z
-x,y,-z
-x,-y,-z
x,-y,z
1/2+x,1/2+y,z
1/2-x,1/2+y,-z
1/2-x,1/2-y,-z
1/2+x,1/2-y,z
loop_
_atom_site_type_symbol
_atom_site_label
_atom_site_fract_x
_atom_site_fract_y
_atom_site_fract_z
Si Si1 0.083577 0.180672 0.998997
Si Si2 0.203665 0.821380 0.430422
Si Si3 0.638521 0.324542 0.570816
Si Si4 0.714446 0.676436 0.711487
Si Si5 0.653255 0.180688 0.855452
Si Si6 0.449299 0.179451 0.291454
Si Si7 0.512320 0.821622 0.140709
O O1 0.033326 0.234719 0.926062
O O2 0.085084 0.000000 0.000096
O O3 0.215979 0.246699 0.070557
O O4 0.000000 0.244287 0.000000
O O5 0.250000 0.750000 0.500000
O O6 0.293128 0.782689 0.431936
O O7 0.074324 0.760508 0.356412
O O8 0.196889 0.000000 0.434193
O O9 0.500000 0.288714 0.500000
O O10 0.666397 0.500000 0.572025
O O11 0.682147 0.283481 0.643211
O O12 0.688320 0.500000 0.709940
O O13 0.635130 0.781262 0.706147
O O14 0.850993 0.719043 0.785233
O O15 0.611508 0.240867 0.785094
O O16 0.561735 0.239106 0.850587
O O17 0.656783 0.000000 0.856524
O O18 0.470942 0.000000 0.300042
O O19 0.492538 0.000000 0.123842
#
# Coordination Sequence:
#
# PCOD8099170 Si02
#       7
#     8   8   8   8   8   8   8
#     4  10  20  35  55  80 111 146 188 238 288 340
#     4  12  25  41  62  89 121 154 193 238 284 339
#     4  10  21  39  63  88 117 155 195 237 289 343
#     4  10  21  37  57  84 119 154 191 240 295 348
#     4   9  19  36  57  81 111 149 189 233 290 349
#     4  11  22  39  63  87 115 152 193 236 289 350
#     4  10  20  35  55  79 111 151 192 234 285 345
#
# _framework density 19.778943999999999
#
# number of rings (size 3 to 8) (size 9 to 14) (size 15 to 20)
#    0.000    1.714    0.000    4.714    0.000    6.286 
#    0.000    4.286    0.000    0.000    0.000    0.000 
#    0.000    0.000    0.000    0.000    0.000    0.000 
#
# Total GULP energy -347339.513707 kJ/mol
# GULP energy per Si atom -12404.982632 kJ/mol
# Density = 1.973393 g / cm^3
# Si number density = 19.778944 Si / 1000 Ang^3
#
#
#
# Elastic Constant Matrix: (Units=GPa)
#
#
# Indices 1 2 3 4 5 6 
#
# 1 142.7776 44.6759 71.3181 0.0000 -0.8358 -0.0001
# 2 44.6759 65.5300 43.4469 0.0000 -1.7893 0.0002
# 3 71.3181 43.4469 178.8666 0.0000 -4.2469 0.0000
# 4 0.0000 0.0000 0.0000 31.3715 0.0000 -3.4049
# 5 -0.8358 -1.7893 -4.2469 0.0000 35.0286 0.0000
# 6 -0.0001 0.0002 0.0000 -3.4049 0.0000 83.6554
#
#
#
# Elastic Compliance Matrix: (Units=1/GPa)
#
#
# Indices 1 2 3 4 5 6 
#
# 1 0.009932 -0.004946 -0.002767 0.000000 -0.000351 0.000000
# 2 -0.004946 0.020658 -0.003032 0.000000 0.000570 0.000000
# 3 -0.002767 -0.003032 0.007447 0.000000 0.000682 0.000000
# 4 0.000000 0.000000 0.000000 0.032017 0.000000 0.001303
# 5 -0.000351 0.000570 0.000682 0.000000 0.028651 0.000000
# 6 0.000000 0.000000 0.000000 0.001303 0.000000 0.012007
#
#
# Mechanical properties :
#
#
# Convention : Reuss Voigt Hill
#
# Bulk Modulus (GPa) = 60.43746 78.45069 69.44407
# Shear Modulus (GPa) = 36.30605 45.19333 40.74969
#
# Velocity S-wave (km/s) = 4.28903 4.78527 4.54393
# Velocity P-wave (km/s) = 7.42634 8.38341 7.91935
#
# Compressibility (1/GPa) = 0.01654603
#
# Stress axis : x y z
#
# Youngs Moduli (GPa) = 100.68908 48.40690 134.28770
#
# Poissons Ratio (x) = 0.23943 0.37156
# Poissons Ratio (y) = 0.49802 0.40720
# Poissons Ratio (z) = 0.27859 0.14678
#
# Static dielectric constant tensor:
#      x y z
#    x 3.792260 0.000000 0.004610 
#    y 0.000000 3.388080 0.000000 
#    z 0.004610 0.000000 3.742240 
# 
# 
# High freq. dielectric constant tensor:
#      x y z
#    x 1.789360 0.000000 0.001610 
#    y 0.000000 1.749830 0.000000 
#    z 0.001610 0.000000 1.794220 
# 
# From -- ./inp_files/363213.got.cif
#   From: 2010.06.25/outbox.cif.g09.slc.cpg/sg12_182_cif.got.tgz:363213.got - 2010.06.28 00:19:55.
