data_PCOD8099176
_publ_section_title
;
Structure prediction by ZEFSAII (Michael W. Deem and Ramdas Pophale) SiO2 
 PCOD8099176
Probable space group: C 2/M
;
_chemical_formula_sum "Si O2"
_cell_formula_units_Z 48
_cell_length_a 17.119299
_cell_length_b 13.534811
_cell_length_c 22.522608
_cell_angle_alpha 90.000000
_cell_angle_beta 150.172798
_cell_angle_gamma 90.000000
_cell_volume 2595.674982
_symmetry_space_group_name_H-M "C 2/M"
_symmetry_group_IT_number 12
_symmetry_cell_setting 'monoclinic'
loop_
_space_group_symop_operation_xyz
x,y,z
-x,y,-z
-x,-y,-z
x,-y,z
1/2+x,1/2+y,z
1/2-x,1/2+y,-z
1/2-x,1/2-y,-z
1/2+x,1/2-y,z
loop_
_atom_site_type_symbol
_atom_site_label
_atom_site_fract_x
_atom_site_fract_y
_atom_site_fract_z
Si Si1 0.092015 0.248902 0.473132
Si Si2 0.447282 0.889169 0.903520
Si Si3 0.020694 0.186596 0.821152
Si Si4 0.654794 0.110421 0.930345
Si Si5 0.643971 0.614703 0.399583
Si Si6 0.269764 0.255018 0.312180
O O1 0.189645 0.339094 0.509961
O O2 0.080657 0.160179 0.418948
O O3 0.174838 0.204545 0.586770
O O4 0.918794 0.291223 0.375698
O O5 0.598872 0.885638 0.961405
O O6 0.296905 0.840896 0.773384
O O7 0.392848 0.000000 0.881882
O O8 0.500000 0.836606 0.000000
O O9 0.061273 0.302850 0.833794
O O10 0.987336 0.133505 0.737107
O O11 0.870271 0.177093 0.766278
O O12 0.160175 0.132678 0.948025
O O13 0.623660 0.000000 0.882741
O O14 0.671194 0.500000 0.427461
#
# Coordination Sequence:
#
# PCOD8099176 Si02
#       6
#     8   8   8   8   8   8
#     4   9  20  36  53  78 108 138 176 214 262 316
#     4   9  18  29  46  77 107 135 174 216 264 313
#     4   9  18  32  51  77 107 139 180 216 258 314
#     4   9  17  31  50  74 107 143 178 214 262 314
#     4  10  20  35  55  80 105 135 176 220 264 313
#     4   9  18  35  52  72 109 142 172 216 264 307
#
# _framework density 18.492298999999999
#
# number of rings (size 3 to 8) (size 9 to 14) (size 15 to 20)
#    0.000    2.833    0.000    0.500    2.333    1.333 
#    0.000   17.500    0.000    0.000    0.000    1.167 
#    0.000    0.000    0.000    0.000    0.000    0.000 
#
# Total GULP energy -297420.914801 kJ/mol
# GULP energy per Si atom -12392.538117 kJ/mol
# Density = 1.845021 g / cm^3
# Si number density = 18.492299 Si / 1000 Ang^3
#
#
#
# Elastic Constant Matrix: (Units=GPa)
#
#
# Indices 1 2 3 4 5 6 
#
# 1 91.3411 16.9254 37.8407 0.0004 12.0708 0.0000
# 2 16.9254 85.0667 10.6099 0.0002 -0.4448 0.0001
# 3 37.8407 10.6099 66.3536 0.0008 12.5386 -0.0001
# 4 0.0004 0.0002 0.0008 22.8745 0.0009 -4.3259
# 5 12.0708 -0.4448 12.5386 0.0009 34.7725 -0.0001
# 6 0.0000 0.0001 -0.0001 -4.3259 -0.0001 14.8387
#
#
#
# Elastic Compliance Matrix: (Units=1/GPa)
#
#
# Indices 1 2 3 4 5 6 
#
# 1 0.014816 -0.002003 -0.007676 0.000000 -0.002401 0.000000
# 2 -0.002003 0.012292 -0.001056 0.000000 0.001233 0.000000
# 3 -0.007676 -0.001056 0.020514 0.000000 -0.004746 0.000000
# 4 0.000000 0.000000 0.000000 0.046268 -0.000001 0.013488
# 5 -0.002401 0.001233 -0.004746 -0.000001 0.031319 0.000000
# 6 0.000000 0.000000 0.000000 0.013488 0.000000 0.071323
#
#
# Mechanical properties :
#
#
# Convention : Reuss Voigt Hill
#
# Bulk Modulus (GPa) = 38.23727 41.50149 39.86938
# Shear Modulus (GPa) = 22.05368 26.32284 24.18826
#
# Velocity S-wave (km/s) = 3.45713 3.77695 3.62058
# Velocity P-wave (km/s) = 6.05458 6.44297 6.25179
#
# Compressibility (1/GPa) = 0.02615249
#
# Stress axis : x y z
#
# Youngs Moduli (GPa) = 67.49332 81.35220 48.74773
#
# Poissons Ratio (x) = 0.16296 0.37416
# Poissons Ratio (y) = 0.13520 0.05149
# Poissons Ratio (z) = 0.51805 0.08593
#
# Static dielectric constant tensor:
#      x y z
#    x 3.533910 0.000000 0.099790 
#    y 0.000000 3.230810 0.000000 
#    z 0.099790 0.000000 3.498340 
# 
# 
# High freq. dielectric constant tensor:
#      x y z
#    x 1.717950 0.000000 0.012520 
#    y 0.000000 1.686170 0.000000 
#    z 0.012520 0.000000 1.721630 
# 
# From -- ./inp_files/316337.got.cif
#   From: 2010.06.25/outbox.cif.g09.slc.cpg/sg12_159_cif.got.tgz:316337.got - 2010.06.28 00:19:55.
