data_PCOD8099074
_publ_section_title
;
Structure prediction by ZEFSAII (Michael W. Deem and Ramdas Pophale) SiO2 
 PCOD8099074
Probable space group: C 2/M
;
_chemical_formula_sum "Si O2"
_cell_formula_units_Z 48
_cell_length_a 18.059158
_cell_length_b 14.903004
_cell_length_c 9.636983
_cell_angle_alpha 90.000000
_cell_angle_beta 91.281200
_cell_angle_gamma 90.000000
_cell_volume 2593.007788
_symmetry_space_group_name_H-M "C 2/M"
_symmetry_group_IT_number 12
_symmetry_cell_setting 'monoclinic'
loop_
_space_group_symop_operation_xyz
x,y,z
-x,y,-z
-x,-y,-z
x,-y,z
1/2+x,1/2+y,z
1/2-x,1/2+y,-z
1/2-x,1/2-y,-z
1/2+x,1/2-y,z
loop_
_atom_site_type_symbol
_atom_site_label
_atom_site_fract_x
_atom_site_fract_y
_atom_site_fract_z
Si Si1 0.656914 0.596362 0.888745
Si Si2 0.278377 0.841664 0.067164
Si Si3 0.069764 0.730662 0.909801
Si Si4 0.343486 0.398072 0.427328
Si Si5 0.429734 0.225893 0.410324
Si Si6 0.290934 0.895361 0.372740
O O1 0.615831 0.500000 0.893009
O O2 0.602119 0.670945 0.949363
O O3 0.679939 0.620228 0.732660
O O4 0.733185 0.584216 0.979581
O O5 0.367747 0.845055 0.055412
O O6 0.260463 0.851160 0.229632
O O7 0.250000 0.750000 0.000000
O O8 0.045929 0.729484 0.748890
O O9 0.000000 0.707430 0.000000
O O10 0.373552 0.500000 0.451112
O O11 0.406259 0.324794 0.466153
O O12 0.271401 0.380821 0.515285
O O13 0.500000 0.192401 0.500000
O O14 0.363951 0.154939 0.429817
O O15 0.309405 0.000000 0.349673
#
# Coordination Sequence:
#
# PCOD8099074 Si02
#       6
#     8   8   8   8   8   8
#     4   9  17  31  51  74  99 127 162 205 252 303
#     4   9  18  32  51  74  98 128 167 211 253 298
#     4   9  19  33  47  69 100 131 164 205 253 301
#     4   9  19  35  54  78 106 135 171 216 263 309
#     4  10  21  34  51  74 104 140 174 213 258 307
#     4  10  20  35  55  78 105 136 173 217 260 306
#
# _framework density 18.511320000000001
#
# number of rings (size 3 to 8) (size 9 to 14) (size 15 to 20)
#    0.000    2.667    0.000    2.000    0.000    5.000 
#    0.000    0.000    0.000   12.500    0.000    0.000 
#    0.000    0.000    0.000    0.000    0.000    0.000 
#
# Total GULP energy -297436.063128 kJ/mol
# GULP energy per Si atom -12393.169297 kJ/mol
# Density = 1.846919 g / cm^3
# Si number density = 18.511320 Si / 1000 Ang^3
#
#
#
# Elastic Constant Matrix: (Units=GPa)
#
#
# Indices 1 2 3 4 5 6 
#
# 1 76.3192 6.0374 40.7015 0.0000 2.4262 0.0000
# 2 6.0374 51.1694 5.8190 0.0000 4.4531 0.0000
# 3 40.7015 5.8190 58.1320 0.0000 6.2985 0.0000
# 4 0.0000 0.0000 0.0000 22.4084 0.0000 -4.3559
# 5 2.4262 4.4531 6.2985 0.0000 37.0610 0.0000
# 6 0.0000 0.0000 0.0000 -4.3559 0.0000 19.1393
#
#
#
# Elastic Compliance Matrix: (Units=1/GPa)
#
#
# Indices 1 2 3 4 5 6 
#
# 1 0.021000 -0.000909 -0.014747 0.000000 0.001241 0.000000
# 2 -0.000909 0.019965 -0.001130 0.000000 -0.002148 0.000000
# 3 -0.014747 -0.001130 0.028037 0.000000 -0.003664 0.000000
# 4 0.000000 0.000000 0.000000 0.046692 0.000000 0.010627
# 5 0.001241 -0.002148 -0.003664 0.000000 0.027782 0.000000
# 6 0.000000 0.000000 0.000000 0.010627 0.000000 0.054667
#
#
# Mechanical properties :
#
#
# Convention : Reuss Voigt Hill
#
# Bulk Modulus (GPa) = 28.22258 32.30405 30.26332
# Shear Modulus (GPa) = 20.53186 24.59258 22.56222
#
# Velocity S-wave (km/s) = 3.33401 3.64884 3.49497
# Velocity P-wave (km/s) = 5.48635 5.93640 5.71581
#
# Compressibility (1/GPa) = 0.03543262
#
# Stress axis : x y z
#
# Youngs Moduli (GPa) = 47.61963 50.08641 35.66695
#
# Poissons Ratio (x) = 0.04552 0.52596
# Poissons Ratio (y) = 0.04327 0.04029
# Poissons Ratio (z) = 0.70223 0.05658
#
# Static dielectric constant tensor:
#      x y z
#    x 3.279790 0.000000 0.204070 
#    y 0.000000 3.691160 0.000000 
#    z 0.204070 0.000000 3.516910 
# 
# 
# High freq. dielectric constant tensor:
#      x y z
#    x 1.697440 0.000000 0.005580 
#    y 0.000000 1.722420 0.000000 
#    z 0.005580 0.000000 1.720030 
# 
# From -- ./inp_files/73581.got.cif
#   From: 2010.06.25/outbox.cif.g09.slc.cpg/sg12_37_cif.got.tgz:73581.got - 2010.06.28 00:19:55.
