data_PCOD8099989
_publ_section_title
;
Structure prediction by ZEFSAII (Michael W. Deem and Ramdas Pophale) SiO2 
 PCOD8099989
Probable space group: C 2/M
;
_chemical_formula_sum "Si O2"
_cell_formula_units_Z 48
_cell_length_a 24.165452
_cell_length_b 9.446172
_cell_length_c 18.665068
_cell_angle_alpha 90.000000
_cell_angle_beta 145.120009
_cell_angle_gamma 90.000000
_cell_volume 2436.518032
_symmetry_space_group_name_H-M "C 2/M"
_symmetry_group_IT_number 12
_symmetry_cell_setting 'monoclinic'
loop_
_space_group_symop_operation_xyz
x,y,z
-x,y,-z
-x,-y,-z
x,-y,z
1/2+x,1/2+y,z
1/2-x,1/2+y,-z
1/2-x,1/2-y,-z
1/2+x,1/2-y,z
loop_
_atom_site_type_symbol
_atom_site_label
_atom_site_fract_x
_atom_site_fract_y
_atom_site_fract_z
Si Si1 0.155342 0.661152 0.495353
Si Si2 0.135369 0.834108 0.224093
Si Si3 0.087786 0.162512 0.547791
Si Si4 0.820046 0.336037 0.022217
Si Si5 0.704615 0.836625 0.167693
Si Si6 0.463883 0.837778 0.767375
O O1 0.133847 0.500000 0.493424
O O2 0.267621 0.696824 0.627191
O O3 0.088612 0.757153 0.473925
O O4 0.123729 0.692413 0.380568
O O5 0.139857 0.761494 0.150806
O O6 0.048706 0.763188 0.177136
O O7 0.115114 0.000000 0.192409
O O8 0.184027 0.186556 0.695235
O O9 0.000000 0.226215 0.500000
O O10 0.069359 0.000000 0.509388
O O11 0.792072 0.500000 0.001181
O O12 0.807248 0.286868 0.926486
O O13 0.750000 0.250000 0.000000
O O14 0.932796 0.308008 0.161093
O O15 0.672956 0.000000 0.144395
O O16 0.460782 0.000000 0.791228
#
# Coordination Sequence:
#
# PCOD8099989 Si02
#       6
#     8   8   8   8   8   8
#     4   9  19  34  52  79 112 141 175 219 269 323
#     4  10  20  35  57  85 110 138 180 227 272 317
#     4   9  18  31  51  78 105 139 181 222 266 315
#     4  10  23  40  58  80 108 145 185 223 267 319
#     4   9  19  37  56  76 108 145 179 221 271 322
#     4  10  21  37  56  80 111 147 181 217 270 328
#
# _framework density 19.700244999999999
#
# number of rings (size 3 to 8) (size 9 to 14) (size 15 to 20)
#    0.000    2.500    0.000    1.000    2.333    3.667 
#    0.000    3.333    0.000    0.000    0.000    0.000 
#    0.000    0.000    0.000    0.000    0.000    0.000 
#
# Total GULP energy -297612.504519 kJ/mol
# GULP energy per Si atom -12400.521022 kJ/mol
# Density = 1.965541 g / cm^3
# Si number density = 19.700245 Si / 1000 Ang^3
#
#
#
# Elastic Constant Matrix: (Units=GPa)
#
#
# Indices 1 2 3 4 5 6 
#
# 1 136.8424 76.9572 32.5656 0.0000 0.1025 0.0000
# 2 76.9572 89.1018 26.3269 0.0000 -4.0066 0.0000
# 3 32.5656 26.3269 52.6899 0.0000 -13.5748 0.0000
# 4 0.0000 0.0000 0.0000 21.3339 0.0000 -1.2848
# 5 0.1025 -4.0066 -13.5748 0.0000 25.9948 0.0000
# 6 0.0000 0.0000 0.0000 -1.2848 0.0000 43.6819
#
#
#
# Elastic Compliance Matrix: (Units=1/GPa)
#
#
# Indices 1 2 3 4 5 6 
#
# 1 0.015045 -0.011868 -0.004455 0.000000 -0.004215 0.000000
# 2 -0.011868 0.022588 -0.003515 0.000000 0.001693 0.000000
# 3 -0.004455 -0.003515 0.026984 0.000000 0.013567 0.000000
# 4 0.000000 0.000000 0.000000 0.046957 0.000000 0.001381
# 5 -0.004215 0.001693 0.013567 0.000000 0.045832 0.000000
# 6 0.000000 0.000000 0.000000 0.001381 0.000000 0.022933
#
#
# Mechanical properties :
#
#
# Convention : Reuss Voigt Hill
#
# Bulk Modulus (GPa) = 40.09362 61.14818 50.62090
# Shear Modulus (GPa) = 21.89818 27.72107 24.80962
#
# Velocity S-wave (km/s) = 3.33764 3.75526 3.55259
# Velocity P-wave (km/s) = 5.93710 7.06465 6.52528
#
# Compressibility (1/GPa) = 0.02494163
#
# Stress axis : x y z
#
# Youngs Moduli (GPa) = 66.46641 44.27118 37.05861
#
# Poissons Ratio (x) = 0.52540 0.16509
# Poissons Ratio (y) = 0.78881 0.13027
# Poissons Ratio (z) = 0.29611 0.15562
#
# Static dielectric constant tensor:
#      x y z
#    x 3.527380 0.000000 -0.003530 
#    y 0.000000 3.534300 0.000000 
#    z -0.003530 0.000000 3.606920 
# 
# 
# High freq. dielectric constant tensor:
#      x y z
#    x 1.766020 0.000000 0.000370 
#    y 0.000000 1.761400 0.000000 
#    z 0.000370 0.000000 1.768690 
# 
# From -- ./inp_files/283002.got.cif
#   From: 2010.06.25/outbox.cif.g09.slc.cpg/sg12_142_cif.got.tgz:283002.got - 2010.06.28 00:19:55.
