data_PCOD8099969
_publ_section_title
;
Structure prediction by ZEFSAII (Michael W. Deem and Ramdas Pophale) SiO2 
 PCOD8099969
Probable space group: C 2/M
;
_chemical_formula_sum "Si O2"
_cell_formula_units_Z 64
_cell_length_a 20.230571
_cell_length_b 9.207368
_cell_length_c 22.664056
_cell_angle_alpha 90.000000
_cell_angle_beta 51.688467
_cell_angle_gamma 90.000000
_cell_volume 3312.517195
_symmetry_space_group_name_H-M "C 2/M"
_symmetry_group_IT_number 12
_symmetry_cell_setting 'monoclinic'
loop_
_space_group_symop_operation_xyz
x,y,z
-x,y,-z
-x,-y,-z
x,-y,z
1/2+x,1/2+y,z
1/2-x,1/2+y,-z
1/2-x,1/2-y,-z
1/2+x,1/2-y,z
loop_
_atom_site_type_symbol
_atom_site_label
_atom_site_fract_x
_atom_site_fract_y
_atom_site_fract_z
Si Si1 0.865335 0.668177 0.895231
Si Si2 0.411494 0.665666 0.074555
Si Si3 0.985493 0.832109 0.239203
Si Si4 0.211278 0.667900 0.936097
Si Si5 0.328015 0.329409 0.656396
Si Si6 0.915702 0.663082 0.509200
Si Si7 0.506873 0.669266 0.362752
Si Si8 0.661373 0.336687 0.761641
O O1 0.862326 0.500000 0.880095
O O2 0.800439 0.752221 0.889407
O O3 0.957220 0.731637 0.833490
O O4 0.843241 0.695329 0.975388
O O5 0.397342 0.500000 0.061094
O O6 0.337988 0.767187 0.091412
O O7 0.406834 0.679014 0.147822
O O8 0.500000 0.723464 0.000000
O O9 0.889345 0.805987 0.271035
O O10 0.997631 0.784498 0.300060
O O11 0.011221 0.000000 0.216150
O O12 0.229651 0.500000 0.914383
O O13 0.323955 0.500000 0.647187
O O14 0.345746 0.251372 0.584227
O O15 0.399543 0.291302 0.665388
O O16 0.237962 0.274032 0.729061
O O17 0.882748 0.500000 0.515059
O O18 0.000000 0.659847 0.500000
O O19 0.934734 0.742790 0.437181
O O20 0.488412 0.500000 0.382574
O O21 0.698774 0.500000 0.740448
#
# Coordination Sequence:
#
# PCOD8099969 Si02
#       8
#     8   8   8   8   8   8   8   8
#     4  10  21  36  55  80 109 142 182 232 285 335
#     4  10  21  37  57  80 109 147 191 235 285 338
#     4  10  21  38  58  80 112 151 188 228 281 338
#     4  10  21  36  55  79 107 141 186 234 283 337
#     4  10  20  35  57  84 115 147 183 232 281 332
#     4   9  17  32  56  85 114 145 182 226 276 331
#     4   9  19  35  57  85 113 145 185 227 277 333
#     4  10  22  38  56  81 114 151 189 233 282 337
#
# _framework density 19.320654000000001
#
# number of rings (size 3 to 8) (size 9 to 14) (size 15 to 20)
#    0.000    2.250    0.000    2.250    1.750    6.250 
#    0.000    0.625    0.000    0.000    0.000    0.000 
#    0.000    0.000    0.000    0.000    0.000    0.000 
#
# Total GULP energy -396882.689050 kJ/mol
# GULP energy per Si atom -12402.584033 kJ/mol
# Density = 1.927668 g / cm^3
# Si number density = 19.320654 Si / 1000 Ang^3
#
#
#
# Elastic Constant Matrix: (Units=GPa)
#
#
# Indices 1 2 3 4 5 6 
#
# 1 90.6720 37.8735 31.9804 0.0000 6.3094 0.0001
# 2 37.8735 90.5650 39.8727 -0.0001 1.4856 0.0001
# 3 31.9804 39.8727 83.6820 0.0000 -3.8018 0.0001
# 4 0.0000 -0.0001 0.0000 35.9595 0.0000 -3.8459
# 5 6.3094 1.4856 -3.8018 0.0000 21.9743 0.0000
# 6 0.0001 0.0001 0.0001 -3.8459 0.0000 27.4667
#
#
#
# Elastic Compliance Matrix: (Units=1/GPa)
#
#
# Indices 1 2 3 4 5 6 
#
# 1 0.014450 -0.004364 -0.003647 0.000000 -0.004485 0.000000
# 2 -0.004364 0.015389 -0.005700 0.000000 -0.000774 0.000000
# 3 -0.003647 -0.005700 0.016252 0.000000 0.004244 0.000000
# 4 0.000000 0.000000 0.000000 0.028232 0.000000 0.003953
# 5 -0.004485 -0.000774 0.004244 0.000000 0.047582 0.000000
# 6 0.000000 0.000000 0.000000 0.003953 0.000000 0.036961
#
#
# Mechanical properties :
#
#
# Convention : Reuss Voigt Hill
#
# Bulk Modulus (GPa) = 53.56119 53.81913 53.69016
# Shear Modulus (GPa) = 25.97264 27.42627 26.69945
#
# Velocity S-wave (km/s) = 3.67044 3.77175 3.72144
# Velocity P-wave (km/s) = 6.76352 6.84722 6.80550
#
# Compressibility (1/GPa) = 0.01867023
#
# Stress axis : x y z
#
# Youngs Moduli (GPa) = 69.20535 64.98223 61.52938
#
# Poissons Ratio (x) = 0.28356 0.22438
# Poissons Ratio (y) = 0.30199 0.35072
# Poissons Ratio (z) = 0.25238 0.37040
#
# Static dielectric constant tensor:
#      x y z
#    x 3.373160 0.000000 0.063990 
#    y 0.000000 3.562860 0.000000 
#    z 0.063990 0.000000 3.475340 
# 
# 
# High freq. dielectric constant tensor:
#      x y z
#    x 1.737190 0.000000 0.003560 
#    y 0.000000 1.755310 0.000000 
#    z 0.003560 0.000000 1.748170 
# 
# From -- ./inp_files/346062.got.cif
#   From: 2010.06.25/outbox.cif.g09.slc.cpg/sg12_174_cif.got.tgz:346062.got - 2010.06.28 00:19:55.
