data_PCOD8099229
_publ_section_title
;
Structure prediction by ZEFSAII (Michael W. Deem and Ramdas Pophale) SiO2 
 PCOD8099229
Probable space group: C 2/M
;
_chemical_formula_sum "Si O2"
_cell_formula_units_Z 56
_cell_length_a 14.995291
_cell_length_b 9.051040
_cell_length_c 28.689704
_cell_angle_alpha 90.000000
_cell_angle_beta 130.779178
_cell_angle_gamma 90.000000
_cell_volume 2948.551219
_symmetry_space_group_name_H-M "C 2/M"
_symmetry_group_IT_number 12
_symmetry_cell_setting 'monoclinic'
loop_
_space_group_symop_operation_xyz
x,y,z
-x,y,-z
-x,-y,-z
x,-y,z
1/2+x,1/2+y,z
1/2-x,1/2+y,-z
1/2-x,1/2-y,-z
1/2+x,1/2-y,z
loop_
_atom_site_type_symbol
_atom_site_label
_atom_site_fract_x
_atom_site_fract_y
_atom_site_fract_z
Si Si1 0.211151 0.670963 0.877171
Si Si2 0.609205 0.672918 0.567834
Si Si3 0.497413 0.823836 0.868185
Si Si4 0.069714 0.327246 0.649793
Si Si5 0.195517 0.327726 0.437212
Si Si6 0.241236 0.825059 0.209108
Si Si7 0.642178 0.672839 0.988069
O O1 0.184925 0.500000 0.861257
O O2 0.227466 0.740226 0.831497
O O3 0.332814 0.694538 0.948086
O O4 0.096334 0.734125 0.865184
O O5 0.500000 0.734472 0.500000
O O6 0.592502 0.500000 0.570377
O O7 0.617324 0.749048 0.620232
O O8 0.730471 0.712453 0.583357
O O9 0.372078 0.760337 0.809354
O O10 0.494963 0.000000 0.871132
O O11 0.525334 0.754317 0.929116
O O12 0.073564 0.500000 0.641345
O O13 0.150194 0.283619 0.720855
O O14 0.937698 0.273827 0.616591
O O15 0.201865 0.500000 0.449885
O O16 0.250000 0.250000 0.500000
O O17 0.215541 0.000000 0.199310
O O18 0.636068 0.500000 0.973444
O O19 0.750000 0.750000 0.000000
#
# Coordination Sequence:
#
# PCOD8099229 Si02
#       7
#     8   8   8   8   8   8   8
#     4   8  17  34  56  77 104 143 184 219 267 331
#     4  10  20  35  57  84 111 140 173 214 268 324
#     4  10  20  35  55  81 109 143 184 227 278 329
#     4  10  22  37  55  80 109 141 181 224 268 319
#     4  10  20  35  56  82 109 140 175 216 266 320
#     4  10  21  38  55  75 105 144 186 225 265 322
#     4   9  16  30  53  81 109 142 183 231 278 325
#
# _framework density 18.992377999999999
#
# number of rings (size 3 to 8) (size 9 to 14) (size 15 to 20)
#    0.000    2.429    1.429    1.714    0.000    3.143 
#    0.000   10.000    0.000    0.000    0.000    0.000 
#    0.000    0.000    0.000    0.000    0.000    0.000 
#
# Total GULP energy -347107.220514 kJ/mol
# GULP energy per Si atom -12396.686447 kJ/mol
# Density = 1.894915 g / cm^3
# Si number density = 18.992378 Si / 1000 Ang^3
#
#
#
# Elastic Constant Matrix: (Units=GPa)
#
#
# Indices 1 2 3 4 5 6 
#
# 1 102.8599 31.7589 59.4063 0.0000 2.4899 0.0000
# 2 31.7589 51.2810 44.6194 0.0000 1.5431 0.0000
# 3 59.4063 44.6194 130.7113 0.0000 2.2828 0.0000
# 4 0.0000 0.0000 0.0000 30.1303 0.0000 1.1159
# 5 2.4899 1.5431 2.2828 0.0000 35.7734 0.0000
# 6 0.0000 0.0000 0.0000 1.1159 0.0000 25.6320
#
#
#
# Elastic Compliance Matrix: (Units=1/GPa)
#
#
# Indices 1 2 3 4 5 6 
#
# 1 0.013857 -0.004403 -0.004787 0.000000 -0.000469 0.000000
# 2 -0.004403 0.029151 -0.007942 0.000000 -0.000444 0.000000
# 3 -0.004787 -0.007942 0.012539 0.000000 -0.000124 0.000000
# 4 0.000000 0.000000 0.000000 0.033243 0.000000 -0.001447
# 5 -0.000469 -0.000444 -0.000124 0.000000 0.028013 0.000000
# 6 0.000000 0.000000 0.000000 -0.001447 0.000000 0.039077
#
#
# Mechanical properties :
#
#
# Convention : Reuss Voigt Hill
#
# Bulk Modulus (GPa) = 46.98385 61.82459 54.40422
# Shear Modulus (GPa) = 25.35000 28.24500 26.79750
#
# Velocity S-wave (km/s) = 3.65738 3.86058 3.76035
# Velocity P-wave (km/s) = 6.52895 7.24535 6.89646
#
# Compressibility (1/GPa) = 0.02128391
#
# Stress axis : x y z
#
# Youngs Moduli (GPa) = 72.16397 34.30422 79.74963
#
# Poissons Ratio (x) = 0.15104 0.38174
# Poissons Ratio (y) = 0.31773 0.63338
# Poissons Ratio (z) = 0.34543 0.27245
#
# Static dielectric constant tensor:
#      x y z
#    x 3.452580 0.000000 -0.387140 
#    y 0.000000 3.336760 0.000000 
#    z -0.387140 0.000000 2.273560 
# 
# 
# High freq. dielectric constant tensor:
#      x y z
#    x 1.737980 0.000000 0.004030 
#    y 0.000000 1.720230 0.000000 
#    z 0.004030 0.000000 1.741390 
# 
# From -- ./inp_files/360035.got.cif
#   From: 2010.06.25/outbox.cif.g09.slc.cpg/sg12_181_cif.got.tgz:360035.got - 2010.06.28 00:19:55.
