data_PCOD8099369
_publ_section_title
;
Structure prediction by ZEFSAII (Michael W. Deem and Ramdas Pophale) SiO2 
 PCOD8099369
Probable space group: C 2/M
;
_chemical_formula_sum "Si O2"
_cell_formula_units_Z 40
_cell_length_a 21.069166
_cell_length_b 8.842166
_cell_length_c 31.770259
_cell_angle_alpha 90.000000
_cell_angle_beta 160.524254
_cell_angle_gamma 90.000000
_cell_volume 1973.342716
_symmetry_space_group_name_H-M "C 2/M"
_symmetry_group_IT_number 12
_symmetry_cell_setting 'monoclinic'
loop_
_space_group_symop_operation_xyz
x,y,z
-x,y,-z
-x,-y,-z
x,-y,z
1/2+x,1/2+y,z
1/2-x,1/2+y,-z
1/2-x,1/2-y,-z
1/2+x,1/2-y,z
loop_
_atom_site_type_symbol
_atom_site_label
_atom_site_fract_x
_atom_site_fract_y
_atom_site_fract_z
Si Si1 0.948212 0.321186 0.398885
Si Si2 0.960669 0.821569 0.629110
Si Si3 0.189185 0.320326 0.095581
Si Si4 0.276963 0.322342 0.663715
Si Si5 0.303323 0.678190 0.077178
O O1 0.958025 0.500000 0.394719
O O2 0.769386 0.277236 0.316847
O O3 0.933197 0.226010 0.347150
O O4 0.132349 0.257681 0.538854
O O5 0.750000 0.750000 0.500000
O O6 0.109730 0.765595 0.758334
O O7 0.932203 0.000000 0.613868
O O8 0.184113 0.500000 0.095742
O O9 0.180605 0.269038 0.040998
O O10 0.000000 0.252284 0.000000
O O11 0.251749 0.500000 0.645188
O O12 0.483610 0.266347 0.779917
O O13 0.292862 0.500000 0.064737
O O14 0.250000 0.750000 0.000000
#
# Coordination Sequence:
#
# PCOD8099369 Si02
#       5
#     8   8   8   8   8
#     4   9  17  33  57  81 107 143 185 229 275 332
#     4  11  22  36  58  84 112 147 189 233 284 338
#     4   9  20  38  58  81 113 154 193 228 276 342
#     4   8  16  32  54  79 109 146 184 220 274 340
#     4  10  20  35  56  79 107 145 188 229 273 331
#
# _framework density 20.270174999999998
#
# number of rings (size 3 to 8) (size 9 to 14) (size 15 to 20)
#    0.000    2.600    0.000    3.000    2.800    3.200 
#    0.000    7.000    0.000    3.000    0.000    0.000 
#    0.000    0.000    0.000    0.000    0.000    0.000 
#
# Total GULP energy -247798.669337 kJ/mol
# GULP energy per Si atom -12389.933467 kJ/mol
# Density = 2.022404 g / cm^3
# Si number density = 20.270175 Si / 1000 Ang^3
#
#
#
# Elastic Constant Matrix: (Units=GPa)
#
#
# Indices 1 2 3 4 5 6 
#
# 1 164.4811 24.3687 67.1798 0.0247 -3.9108 0.0044
# 2 24.3687 32.8470 25.8128 -0.0096 -0.3811 0.0221
# 3 67.1798 25.8128 100.5034 -0.0361 0.9115 0.0232
# 4 0.0247 -0.0096 -0.0361 20.4110 0.0351 -4.8246
# 5 -3.9108 -0.3811 0.9115 0.0351 38.6581 -0.0051
# 6 0.0044 0.0221 0.0232 -4.8246 -0.0051 30.4980
#
#
#
# Elastic Compliance Matrix: (Units=1/GPa)
#
#
# Indices 1 2 3 4 5 6 
#
# 1 0.008536 -0.002294 -0.005125 -0.000022 0.000962 0.000001
# 2 -0.002294 0.038773 -0.008428 0.000000 0.000349 -0.000021
# 3 -0.005125 -0.008428 0.015549 0.000031 -0.000968 0.000000
# 4 -0.000022 0.000000 0.000031 0.050897 -0.000048 0.008051
# 5 0.000962 0.000349 -0.000968 -0.000048 0.025991 -0.000003
# 6 0.000001 -0.000021 0.000000 0.008051 -0.000003 0.034063
#
#
# Mechanical properties :
#
#
# Convention : Reuss Voigt Hill
#
# Bulk Modulus (GPa) = 32.08847 59.17268 45.63057
# Shear Modulus (GPa) = 23.15977 29.94475 26.55226
#
# Velocity S-wave (km/s) = 3.38384 3.84771 3.62320
# Velocity P-wave (km/s) = 5.57959 6.99966 6.32958
#
# Compressibility (1/GPa) = 0.03116385
#
# Stress axis : x y z
#
# Youngs Moduli (GPa) = 117.15456 25.79089 64.31181
#
# Poissons Ratio (x) = 0.05916 0.32961
# Poissons Ratio (y) = 0.26872 0.54204
# Poissons Ratio (z) = 0.60044 0.21737
#
# Static dielectric constant tensor:
#      x y z
#    x 3.976240 0.000040 0.068400 
#    y 0.000040 3.184980 -0.000050 
#    z 0.068400 -0.000050 3.644800 
# 
# 
# High freq. dielectric constant tensor:
#      x y z
#    x 1.813740 0.000000 0.001980 
#    y 0.000000 1.737720 -0.000010 
#    z 0.001980 -0.000010 1.793950 
# 
# From -- ./inp_files/229661.got.cif
#   From: 2010.06.25/outbox.cif.g09.slc.cpg/sg12_115_cif.got.tgz:229661.got - 2010.06.28 00:19:55.
