data_PCOD8099523
_publ_section_title
;
Structure prediction by ZEFSAII (Michael W. Deem and Ramdas Pophale) SiO2 
 PCOD8099523
Probable space group: C 2/M
;
_chemical_formula_sum "Si O2"
_cell_formula_units_Z 56
_cell_length_a 18.383157
_cell_length_b 8.764181
_cell_length_c 29.222247
_cell_angle_alpha 90.000000
_cell_angle_beta 142.081316
_cell_angle_gamma 90.000000
_cell_volume 2893.323233
_symmetry_space_group_name_H-M "C 2/M"
_symmetry_group_IT_number 12
_symmetry_cell_setting 'monoclinic'
loop_
_space_group_symop_operation_xyz
x,y,z
-x,y,-z
-x,-y,-z
x,-y,z
1/2+x,1/2+y,z
1/2-x,1/2+y,-z
1/2-x,1/2-y,-z
1/2+x,1/2-y,z
loop_
_atom_site_type_symbol
_atom_site_label
_atom_site_fract_x
_atom_site_fract_y
_atom_site_fract_z
Si Si1 0.624459 0.174947 0.430614
Si Si2 0.918977 0.181391 0.000577
Si Si3 0.759220 0.822376 0.274458
Si Si4 0.652303 0.180689 0.858285
Si Si5 0.929365 0.821279 0.275877
Si Si6 0.450966 0.825307 0.427629
Si Si7 0.006918 0.819993 0.142457
O O1 0.750000 0.250000 0.500000
O O2 0.555677 0.264269 0.356679
O O3 0.556596 0.190598 0.444425
O O4 0.638408 0.000000 0.422428
O O5 0.786059 0.243648 0.928439
O O6 0.920364 0.000000 0.999549
O O7 0.971018 0.239989 0.074425
O O8 0.000000 0.248775 0.000000
O O9 0.826874 0.779670 0.261232
O O10 0.840242 0.778122 0.357884
O O11 0.641326 0.724178 0.218942
O O12 0.727903 0.000000 0.261429
O O13 0.595813 0.236002 0.783377
O O14 0.579104 0.241977 0.864399
O O15 0.649893 0.000000 0.858225
O O16 0.936620 0.000000 0.270335
O O17 0.500000 0.763220 0.500000
O O18 0.407551 0.000000 0.410269
O O19 0.992277 0.000000 0.139445
#
# Coordination Sequence:
#
# PCOD8099523 Si02
#       7
#     8   8   8   8   8   8   8
#     4  10  20  35  56  81 111 147 187 233 283 333
#     4   9  19  36  59  85 111 145 188 230 275 331
#     4  10  21  37  57  82 112 146 187 233 278 330
#     4  11  22  37  58  84 115 147 185 233 281 332
#     4  10  21  38  58  81 111 147 189 234 283 339
#     4   9  19  36  57  80 107 143 186 229 275 329
#     4  11  22  37  58  83 115 151 186 228 279 333
#
# _framework density 19.354906
#
# number of rings (size 3 to 8) (size 9 to 14) (size 15 to 20)
#    0.000    2.000    0.000    3.429    0.000    4.857 
#    0.000    6.429    0.000    5.143    0.000    0.000 
#    0.000    0.000    0.000    0.000    0.000    0.000 
#
# Total GULP energy -347324.205439 kJ/mol
# GULP energy per Si atom -12404.435909 kJ/mol
# Density = 1.931085 g / cm^3
# Si number density = 19.354906 Si / 1000 Ang^3
#
#
#
# Elastic Constant Matrix: (Units=GPa)
#
#
# Indices 1 2 3 4 5 6 
#
# 1 118.6750 43.4685 86.0183 0.0000 -3.0846 0.0000
# 2 43.4685 71.3412 39.5422 0.0000 2.2853 0.0000
# 3 86.0183 39.5422 151.3826 0.0000 -1.6882 0.0000
# 4 0.0000 0.0000 0.0000 25.7364 0.0000 0.6126
# 5 -3.0846 2.2853 -1.6882 0.0000 42.2048 0.0000
# 6 0.0000 0.0000 0.0000 0.6126 0.0000 25.5838
#
#
#
# Elastic Compliance Matrix: (Units=1/GPa)
#
#
# Indices 1 2 3 4 5 6 
#
# 1 0.016039 -0.005573 -0.007645 0.000000 0.001168 0.000000
# 2 -0.005573 0.018374 -0.001649 0.000000 -0.001468 0.000000
# 3 -0.007645 -0.001649 0.011381 0.000000 -0.000014 0.000000
# 4 0.000000 0.000000 0.000000 0.038878 0.000000 -0.000931
# 5 0.001168 -0.001468 -0.000014 0.000000 0.023858 0.000000
# 6 0.000000 0.000000 0.000000 -0.000931 0.000000 0.039110
#
#
# Mechanical properties :
#
#
# Convention : Reuss Voigt Hill
#
# Bulk Modulus (GPa) = 62.26887 75.49520 68.88204
# Shear Modulus (GPa) = 27.36330 30.19631 28.77981
#
# Velocity S-wave (km/s) = 3.76409 3.95414 3.86028
# Velocity P-wave (km/s) = 7.15074 7.74192 7.45220
#
# Compressibility (1/GPa) = 0.01605939
#
# Stress axis : x y z
#
# Youngs Moduli (GPa) = 62.34672 54.42536 87.86949
#
# Poissons Ratio (x) = 0.30330 0.67178
# Poissons Ratio (y) = 0.34745 0.14491
# Poissons Ratio (z) = 0.47665 0.08976
#
# Static dielectric constant tensor:
#      x y z
#    x 3.607910 0.000000 -0.042670 
#    y 0.000000 3.483580 0.000000 
#    z -0.042670 0.000000 3.681870 
# 
# 
# High freq. dielectric constant tensor:
#      x y z
#    x 1.755670 0.000000 -0.000560 
#    y 0.000000 1.749010 0.000000 
#    z -0.000560 0.000000 1.768850 
# 
# From -- ./inp_files/275537.got.cif
#   From: 2010.06.25/outbox.cif.g09.slc.cpg/sg12_138_cif.got.tgz:275537.got - 2010.06.28 00:19:55.
