data_PCOD8099472
_publ_section_title
;
Structure prediction by ZEFSAII (Michael W. Deem and Ramdas Pophale) SiO2 
 PCOD8099472
Probable space group: C 2/M
;
_chemical_formula_sum "Si O2"
_cell_formula_units_Z 64
_cell_length_a 19.845996
_cell_length_b 9.033696
_cell_length_c 18.858790
_cell_angle_alpha 90.000000
_cell_angle_beta 90.250230
_cell_angle_gamma 90.000000
_cell_volume 3381.022445
_symmetry_space_group_name_H-M "C 2/M"
_symmetry_group_IT_number 12
_symmetry_cell_setting 'monoclinic'
loop_
_space_group_symop_operation_xyz
x,y,z
-x,y,-z
-x,-y,-z
x,-y,z
1/2+x,1/2+y,z
1/2-x,1/2+y,-z
1/2-x,1/2-y,-z
1/2+x,1/2-y,z
loop_
_atom_site_type_symbol
_atom_site_label
_atom_site_fract_x
_atom_site_fract_y
_atom_site_fract_z
Si Si1 0.399427 0.674247 0.681754
Si Si2 0.070601 0.174126 0.475054
Si Si3 0.797836 0.825766 0.443945
Si Si4 0.854416 0.325203 0.180466
Si Si5 0.504526 0.175991 0.207143
Si Si6 0.317176 0.825367 0.025374
Si Si7 0.052489 0.325308 0.056345
Si Si8 0.746318 0.173901 0.698000
O O1 0.411705 0.500000 0.686557
O O2 0.406794 0.735313 0.601589
O O3 0.456030 0.753788 0.727698
O O4 0.324652 0.715423 0.709065
O O5 0.125794 0.213760 0.534362
O O6 0.000000 0.246145 0.500000
O O7 0.062099 0.000000 0.467188
O O8 0.750000 0.750000 0.500000
O O9 0.785474 0.763380 0.366428
O O10 0.784323 0.000000 0.445442
O O11 0.858443 0.500000 0.174654
O O12 0.926909 0.268261 0.208665
O O13 0.838986 0.261452 0.102225
O O14 0.794516 0.275755 0.232549
O O15 0.538324 0.236247 0.134772
O O16 0.509424 0.000000 0.213298
O O17 0.306212 0.000000 0.029515
O O18 0.250000 0.750000 0.000000
O O19 0.372798 0.781825 0.967382
O O20 0.041535 0.500000 0.057377
O O21 0.000000 0.255415 0.000000
O O22 0.738171 0.000000 0.682025
#
# Coordination Sequence:
#
# PCOD8099472 Si02
#       8
#     8   8   8   8   8   8   8   8
#     4  10  21  37  55  77 109 146 177 214 269 329
#     4   9  19  36  56  77 105 141 179 215 261 321
#     4  11  21  37  61  84 107 142 183 226 270 320
#     4   9  19  36  57  78 108 147 182 220 273 330
#     4  10  20  35  56  81 107 139 183 229 268 316
#     4  10  20  35  56  81 108 143 183 227 275 324
#     4   9  16  32  57  78 101 139 185 224 263 318
#     4  10  21  38  56  78 110 146 182 219 268 331
#
# _framework density 18.929185
#
# number of rings (size 3 to 8) (size 9 to 14) (size 15 to 20)
#    0.000    2.250    2.500    0.375    3.500    0.500 
#    0.000    1.250    0.000    2.625    0.000    0.000 
#    0.000    0.000    0.000    0.000    0.000    0.000 
#
# Total GULP energy -396781.074818 kJ/mol
# GULP energy per Si atom -12399.408588 kJ/mol
# Density = 1.888610 g / cm^3
# Si number density = 18.929185 Si / 1000 Ang^3
#
#
#
# Elastic Constant Matrix: (Units=GPa)
#
#
# Indices 1 2 3 4 5 6 
#
# 1 164.2820 34.2169 63.2766 0.0000 0.3236 0.0000
# 2 34.2169 30.1928 23.9306 0.0000 3.1400 0.0000
# 3 63.2766 23.9306 105.2353 0.0000 1.9566 0.0000
# 4 0.0000 0.0000 0.0000 22.1177 0.0000 8.8433
# 5 0.3236 3.1400 1.9566 0.0000 42.4021 0.0000
# 6 0.0000 0.0000 0.0000 8.8433 0.0000 24.4103
#
#
#
# Elastic Compliance Matrix: (Units=1/GPa)
#
#
# Indices 1 2 3 4 5 6 
#
# 1 0.009080 -0.007344 -0.003801 0.000000 0.000650 0.000000
# 2 -0.007344 0.046625 -0.006129 0.000000 -0.003114 0.000000
# 3 -0.003801 -0.006129 0.013184 0.000000 -0.000126 0.000000
# 4 0.000000 0.000000 0.000000 0.052871 0.000000 -0.019154
# 5 0.000650 -0.003114 -0.000126 0.000000 0.023815 0.000000
# 6 0.000000 0.000000 0.000000 -0.019154 0.000000 0.047905
#
#
# Mechanical properties :
#
#
# Convention : Reuss Voigt Hill
#
# Bulk Modulus (GPa) = 29.12046 60.28425 44.70236
# Shear Modulus (GPa) = 20.87888 29.67175 25.27532
#
# Velocity S-wave (km/s) = 3.32475 3.96348 3.65808
# Velocity P-wave (km/s) = 5.49144 7.27062 6.44274
#
# Compressibility (1/GPa) = 0.03434011
#
# Stress axis : x y z
#
# Youngs Moduli (GPa) = 110.13522 21.44767 75.84795
#
# Poissons Ratio (x) = 0.15752 0.28833
# Poissons Ratio (y) = 0.80888 0.46484
# Poissons Ratio (z) = 0.41868 0.13144
#
# Static dielectric constant tensor:
#      x y z
#    x 3.798370 0.000000 -0.424810 
#    y 0.000000 3.059420 0.000000 
#    z -0.424810 0.000000 7.101700 
# 
# 
# High freq. dielectric constant tensor:
#      x y z
#    x 1.752860 0.000000 -0.002430 
#    y 0.000000 1.689370 0.000000 
#    z -0.002430 0.000000 1.746950 
# 
# From -- ./inp_files/281261.got.cif
#   From: 2010.06.25/outbox.cif.g09.slc.cpg/sg12_141_cif.got.tgz:281261.got - 2010.06.28 00:19:55.
