data_PCOD8099260
_publ_section_title
;
Structure prediction by ZEFSAII (Michael W. Deem and Ramdas Pophale) SiO2 
 PCOD8099260
Probable space group: C 2/M
;
_chemical_formula_sum "Si O2"
_cell_formula_units_Z 56
_cell_length_a 23.260618
_cell_length_b 9.258957
_cell_length_c 15.121040
_cell_angle_alpha 90.000000
_cell_angle_beta 116.239859
_cell_angle_gamma 90.000000
_cell_volume 2921.014425
_symmetry_space_group_name_H-M "C 2/M"
_symmetry_group_IT_number 12
_symmetry_cell_setting 'monoclinic'
loop_
_space_group_symop_operation_xyz
x,y,z
-x,y,-z
-x,-y,-z
x,-y,z
1/2+x,1/2+y,z
1/2-x,1/2+y,-z
1/2-x,1/2-y,-z
1/2+x,1/2-y,z
loop_
_atom_site_type_symbol
_atom_site_label
_atom_site_fract_x
_atom_site_fract_y
_atom_site_fract_z
Si Si1 0.978459 0.667299 0.581564
Si Si2 0.055567 0.334587 0.804982
Si Si3 0.186099 0.331962 0.980553
Si Si4 0.150223 0.664596 0.149267
Si Si5 0.970669 0.168936 0.885536
Si Si6 0.773480 0.336988 0.634887
Si Si7 0.351201 0.668386 0.547688
O O1 0.958794 0.500000 0.563599
O O2 0.917488 0.755580 0.571675
O O3 0.000000 0.723726 0.500000
O O4 0.036964 0.692189 0.690100
O O5 0.041379 0.500000 0.823146
O O6 0.130944 0.300383 0.870450
O O7 0.014549 0.230637 0.838363
O O8 0.202992 0.500000 0.998185
O O9 0.250000 0.250000 0.000000
O O10 0.162695 0.273721 0.060030
O O11 0.125476 0.500000 0.126251
O O12 0.098388 0.758374 0.166091
O O13 0.214903 0.676117 0.251931
O O14 0.963188 0.000000 0.864676
O O15 0.000000 0.207244 0.000000
O O16 0.788537 0.500000 0.612025
O O17 0.699131 0.300288 0.565880
O O18 0.821127 0.229355 0.617145
O O19 0.364976 0.500000 0.570236
#
# Coordination Sequence:
#
# PCOD8099260 Si02
#       7
#     8   8   8   8   8   8   8
#     4  10  22  39  58  80 109 147 191 232 272 323
#     4  10  21  39  60  81 109 148 188 226 272 331
#     4  10  22  38  56  78 106 142 182 222 267 322
#     4  10  20  36  57  80 108 146 186 220 265 332
#     4  11  22  34  54  86 118 143 176 228 281 324
#     4   9  19  35  56  81 110 144 180 222 274 329
#     4  10  20  35  55  82 113 142 180 228 278 326
#
# _framework density 19.171420999999999
#
# number of rings (size 3 to 8) (size 9 to 14) (size 15 to 20)
#    0.000    2.000    1.429    1.714    0.000    8.286 
#    0.000    0.000    0.000    0.000    0.000    0.000 
#    0.000    0.000    0.000    0.000    0.000    0.000 
#
# Total GULP energy -347233.826617 kJ/mol
# GULP energy per Si atom -12401.208093 kJ/mol
# Density = 1.912779 g / cm^3
# Si number density = 19.171421 Si / 1000 Ang^3
#
#
#
# Elastic Constant Matrix: (Units=GPa)
#
#
# Indices 1 2 3 4 5 6 
#
# 1 95.3891 39.4688 49.1105 0.0000 15.0793 0.0000
# 2 39.4688 63.7816 41.3947 0.0000 5.5081 0.0000
# 3 49.1105 41.3947 139.0417 0.0000 9.1742 0.0000
# 4 0.0000 0.0000 0.0000 22.7566 0.0000 3.6539
# 5 15.0793 5.5081 9.1742 0.0000 26.4111 0.0000
# 6 0.0000 0.0000 0.0000 3.6539 0.0000 29.4392
#
#
#
# Elastic Compliance Matrix: (Units=1/GPa)
#
#
# Indices 1 2 3 4 5 6 
#
# 1 0.016195 -0.007462 -0.003061 0.000000 -0.006627 0.000000
# 2 -0.007462 0.022986 -0.004270 0.000000 0.000950 0.000000
# 3 -0.003061 -0.004270 0.009590 0.000000 -0.000693 0.000000
# 4 0.000000 0.000000 0.000000 0.044837 0.000000 -0.005565
# 5 -0.006627 0.000950 -0.000693 0.000000 0.041689 0.000000
# 6 0.000000 0.000000 0.000000 -0.005565 0.000000 0.034659
#
#
# Mechanical properties :
#
#
# Convention : Reuss Voigt Hill
#
# Bulk Modulus (GPa) = 52.12888 62.01782 57.07335
# Shear Modulus (GPa) = 24.27926 26.93727 25.60826
#
# Velocity S-wave (km/s) = 3.56255 3.75250 3.65876
# Velocity P-wave (km/s) = 6.64623 7.15502 6.90531
#
# Compressibility (1/GPa) = 0.01918323
#
# Stress axis : x y z
#
# Youngs Moduli (GPa) = 61.74872 43.50546 104.27218
#
# Poissons Ratio (x) = 0.32466 0.31919
# Poissons Ratio (y) = 0.46080 0.44525
# Poissons Ratio (z) = 0.18902 0.18577
#
# Static dielectric constant tensor:
#      x y z
#    x 3.275530 0.000000 0.098590 
#    y 0.000000 3.494680 0.000000 
#    z 0.098590 0.000000 3.886800 
# 
# 
# High freq. dielectric constant tensor:
#      x y z
#    x 1.724980 0.000000 0.011470 
#    y 0.000000 1.743860 0.000000 
#    z 0.011470 0.000000 1.764880 
# 
# From -- ./inp_files/238954.got.cif
#   From: 2010.06.25/outbox.cif.g09.slc.cpg/sg12_120_cif.got.tgz:238954.got - 2010.06.28 00:19:55.
