data_PCOD8099214
_publ_section_title
;
Structure prediction by ZEFSAII (Michael W. Deem and Ramdas Pophale) SiO2 
 PCOD8099214
Probable space group: C 2/M
;
_chemical_formula_sum "Si O2"
_cell_formula_units_Z 56
_cell_length_a 30.671587
_cell_length_b 8.870814
_cell_length_c 11.818596
_cell_angle_alpha 90.000000
_cell_angle_beta 116.804049
_cell_angle_gamma 90.000000
_cell_volume 2870.120206
_symmetry_space_group_name_H-M "C 2/M"
_symmetry_group_IT_number 12
_symmetry_cell_setting 'monoclinic'
loop_
_space_group_symop_operation_xyz
x,y,z
-x,y,-z
-x,-y,-z
x,-y,z
1/2+x,1/2+y,z
1/2-x,1/2+y,-z
1/2-x,1/2-y,-z
1/2+x,1/2-y,z
loop_
_atom_site_type_symbol
_atom_site_label
_atom_site_fract_x
_atom_site_fract_y
_atom_site_fract_z
Si Si1 0.022934 0.322648 0.823114
Si Si2 0.365256 0.675691 0.439886
Si Si3 0.814984 0.174551 0.994937
Si Si4 0.706370 0.174655 0.801102
Si Si5 0.597592 0.322213 0.066941
Si Si6 0.410941 0.177989 0.707663
Si Si7 0.546975 0.675261 0.624377
O O1 0.028097 0.500000 0.843119
O O2 0.051089 0.268970 0.744124
O O3 0.966675 0.271266 0.750249
O O4 0.047152 0.245406 0.960473
O O5 0.362404 0.500000 0.465435
O O6 0.313986 0.733446 0.330059
O O7 0.376887 0.765156 0.567084
O O8 0.405851 0.711716 0.393766
O O9 0.819304 0.271004 0.113700
O O10 0.819629 0.000000 0.035375
O O11 0.764055 0.206489 0.872272
O O12 0.858004 0.225057 0.962365
O O13 0.694306 0.000000 0.770256
O O14 0.592400 0.500000 0.071610
O O15 0.608983 0.253013 0.201958
O O16 0.406559 0.000000 0.713111
O O17 0.500000 0.730206 0.500000
O O18 0.542842 0.500000 0.651733
#
# Coordination Sequence:
#
# PCOD8099214 Si02
#       7
#     8   8   8   8   8   8   8
#     4  11  23  37  56  83 115 149 187 233 283 332
#     4  11  22  37  58  84 115 150 190 229 276 335
#     4   9  20  39  60  86 116 146 184 230 278 333
#     4  10  20  36  61  89 117 146 180 227 284 336
#     4  11  23  39  60  82 109 148 193 234 276 329
#     4  11  24  40  56  79 114 151 190 234 279 330
#     4  10  20  35  55  80 112 148 185 226 272 326
#
# _framework density 19.511379000000002
#
# number of rings (size 3 to 8) (size 9 to 14) (size 15 to 20)
#    0.000    1.571    1.429    3.429    0.000   10.000 
#    0.000    0.714    0.000    0.000    0.000    0.000 
#    0.000    0.000    0.000    0.000    0.000    0.000 
#
# Total GULP energy -347399.688313 kJ/mol
# GULP energy per Si atom -12407.131725 kJ/mol
# Density = 1.946697 g / cm^3
# Si number density = 19.511379 Si / 1000 Ang^3
#
#
#
# Elastic Constant Matrix: (Units=GPa)
#
#
# Indices 1 2 3 4 5 6 
#
# 1 54.5921 33.0491 39.3073 0.0000 -3.6072 0.0000
# 2 33.0491 72.6729 43.1421 0.0000 -3.4661 0.0000
# 3 39.3073 43.1421 125.8153 0.0000 2.5610 0.0000
# 4 0.0000 0.0000 0.0000 42.1858 0.0000 -1.9084
# 5 -3.6072 -3.4661 2.5610 0.0000 26.7770 0.0000
# 6 0.0000 0.0000 0.0000 -1.9084 0.0000 20.1189
#
#
#
# Elastic Compliance Matrix: (Units=1/GPa)
#
#
# Indices 1 2 3 4 5 6 
#
# 1 0.028275 -0.009324 -0.005700 0.000000 0.003147 0.000000
# 2 -0.009324 0.020566 -0.004176 0.000000 0.001805 0.000000
# 3 -0.005700 -0.004176 0.011209 0.000000 -0.002380 0.000000
# 4 0.000000 0.000000 0.000000 0.023807 0.000000 0.002258
# 5 0.003147 0.001805 -0.002380 0.000000 0.038231 0.000000
# 6 0.000000 0.000000 0.000000 0.002258 0.000000 0.049919
#
#
# Mechanical properties :
#
#
# Convention : Reuss Voigt Hill
#
# Bulk Modulus (GPa) = 46.19109 53.78637 49.98873
# Shear Modulus (GPa) = 22.97552 26.98846 24.98199
#
# Velocity S-wave (km/s) = 3.43526 3.72320 3.58212
# Velocity P-wave (km/s) = 6.28172 6.79039 6.54100
#
# Compressibility (1/GPa) = 0.02164920
#
# Stress axis : x y z
#
# Youngs Moduli (GPa) = 35.36719 48.62499 89.21117
#
# Poissons Ratio (x) = 0.45339 0.50854
# Poissons Ratio (y) = 0.32977 0.37251
# Poissons Ratio (z) = 0.20161 0.20304
#
# Static dielectric constant tensor:
#      x y z
#    x 3.499070 0.000000 0.074430 
#    y 0.000000 3.538720 0.000000 
#    z 0.074430 0.000000 3.637590 
# 
# 
# High freq. dielectric constant tensor:
#      x y z
#    x 1.748170 0.000000 0.004420 
#    y 0.000000 1.766060 0.000000 
#    z 0.004420 0.000000 1.770780 
# 
# From -- ./inp_files/180618.got.cif
#   From: 2010.06.25/outbox.cif.g09.slc.cpg/sg12_91_cif.got.tgz:180618.got - 2010.06.28 00:19:55.
