data_PCOD8099790
_publ_section_title
;
Structure prediction by ZEFSAII (Michael W. Deem and Ramdas Pophale) SiO2 
 PCOD8099790
Probable space group: C 2/M
;
_chemical_formula_sum "Si O2"
_cell_formula_units_Z 56
_cell_length_a 18.020545
_cell_length_b 9.127595
_cell_length_c 19.787542
_cell_angle_alpha 90.000000
_cell_angle_beta 63.692917
_cell_angle_gamma 90.000000
_cell_volume 2917.650817
_symmetry_space_group_name_H-M "C 2/M"
_symmetry_group_IT_number 12
_symmetry_cell_setting 'monoclinic'
loop_
_space_group_symop_operation_xyz
x,y,z
-x,y,-z
-x,-y,-z
x,-y,z
1/2+x,1/2+y,z
1/2-x,1/2+y,-z
1/2-x,1/2-y,-z
1/2+x,1/2-y,z
loop_
_atom_site_type_symbol
_atom_site_label
_atom_site_fract_x
_atom_site_fract_y
_atom_site_fract_z
Si Si1 0.970984 0.826567 0.408438
Si Si2 0.369228 0.326685 0.575978
Si Si3 0.269987 0.326461 0.291933
Si Si4 0.911894 0.670285 0.008878
Si Si5 0.245285 0.669561 0.839779
Si Si6 0.448595 0.673971 0.267906
Si Si7 0.893521 0.827339 0.877552
O O1 0.898563 0.777976 0.489251
O O2 0.954778 0.758616 0.340985
O O3 0.060573 0.776143 0.399049
O O4 0.971048 0.000000 0.405366
O O5 0.353095 0.500000 0.586764
O O6 0.285794 0.239846 0.625981
O O7 0.261745 0.500000 0.295843
O O8 0.240498 0.265603 0.232122
O O9 0.363728 0.274461 0.267733
O O10 0.916804 0.500000 0.988261
O O11 0.845313 0.700974 0.094035
O O12 0.883972 0.755332 0.954010
O O13 0.000000 0.729109 0.000000
O O14 0.256731 0.500000 0.815280
O O15 0.313742 0.717518 0.866379
O O16 0.453470 0.500000 0.270705
O O17 0.524392 0.733852 0.192496
O O18 0.898708 0.000000 0.885973
#
# Coordination Sequence:
#
# PCOD8099790 Si02
#       7
#     8   8   8   8   8   8   8
#     4   8  15  31  55  77  98 132 176 213 246 296
#     4   9  17  32  56  79  98 130 175 215 251 298
#     4  11  22  33  49  75 106 137 166 207 263 309
#     4  10  21  36  54  79 111 139 163 204 262 311
#     4  10  21  37  56  76 100 135 177 214 249 299
#     4   9  18  32  49  73 104 134 169 212 254 299
#     4  10  20  35  57  79  99 132 177 217 249 292
#
# _framework density 19.193522000000002
#
# number of rings (size 3 to 8) (size 9 to 14) (size 15 to 20)
#    0.000    2.429    0.000    3.429    0.000    4.286 
#    0.000    2.143    0.000    3.429    0.000    0.000 
#    0.000    0.000    0.000    0.000    0.000    0.000 
#
# Total GULP energy -347246.150484 kJ/mol
# GULP energy per Si atom -12401.648232 kJ/mol
# Density = 1.914984 g / cm^3
# Si number density = 19.193522 Si / 1000 Ang^3
#
#
#
# Elastic Constant Matrix: (Units=GPa)
#
#
# Indices 1 2 3 4 5 6 
#
# 1 86.0825 20.8699 14.9571 0.0000 -14.2689 0.0000
# 2 20.8699 34.4619 20.5682 -0.0001 -1.9663 -0.0003
# 3 14.9571 20.5682 72.4851 0.0000 -2.9197 0.0000
# 4 0.0000 -0.0001 0.0000 28.1338 0.0000 -2.9543
# 5 -14.2689 -1.9663 -2.9197 0.0000 38.8488 0.0000
# 6 0.0000 -0.0003 0.0000 -2.9543 0.0000 20.8267
#
#
#
# Elastic Compliance Matrix: (Units=1/GPa)
#
#
# Indices 1 2 3 4 5 6 
#
# 1 0.014500 -0.008228 -0.000461 0.000000 0.004875 0.000000
# 2 -0.008228 0.039643 -0.009621 0.000000 -0.001739 0.000001
# 3 -0.000461 -0.009621 0.016645 0.000000 0.000595 0.000000
# 4 0.000000 0.000000 0.000000 0.036082 0.000000 0.005118
# 5 0.004875 -0.001739 0.000595 0.000000 0.027488 0.000000
# 6 0.000000 0.000001 0.000000 0.005118 0.000000 0.048741
#
#
# Mechanical properties :
#
#
# Convention : Reuss Voigt Hill
#
# Bulk Modulus (GPa) = 29.26701 33.98000 31.62351
# Shear Modulus (GPa) = 21.63484 26.67079 24.15282
#
# Velocity S-wave (km/s) = 3.36101 3.73174 3.55122
# Velocity P-wave (km/s) = 5.50848 6.02579 5.77294
#
# Compressibility (1/GPa) = 0.03416816
#
# Stress axis : x y z
#
# Youngs Moduli (GPa) = 68.96762 25.22489 60.07748
#
# Poissons Ratio (x) = 0.20754 0.02769
# Poissons Ratio (y) = 0.56744 0.57803
# Poissons Ratio (z) = 0.03179 0.24270
#
# Static dielectric constant tensor:
#      x y z
#    x 3.670120 0.000000 -0.031390 
#    y 0.000000 3.096730 0.000000 
#    z -0.031390 0.000000 3.679530 
# 
# 
# High freq. dielectric constant tensor:
#      x y z
#    x 1.755280 0.000000 -0.005130 
#    y 0.000000 1.707160 0.000000 
#    z -0.005130 0.000000 1.761130 
# 
# From -- ./inp_files/275002.got.cif
#   From: 2010.06.25/outbox.cif.g09.slc.cpg/sg12_138_cif.got.tgz:275002.got - 2010.06.28 00:19:55.
