data_PCOD8099306
_publ_section_title
;
Structure prediction by ZEFSAII (Michael W. Deem and Ramdas Pophale) SiO2 
 PCOD8099306
Probable space group: C 2/M
;
_chemical_formula_sum "Si O2"
_cell_formula_units_Z 48
_cell_length_a 20.463122
_cell_length_b 7.786850
_cell_length_c 15.454277
_cell_angle_alpha 90.000000
_cell_angle_beta 95.283888
_cell_angle_gamma 90.000000
_cell_volume 2452.070690
_symmetry_space_group_name_H-M "C 2/M"
_symmetry_group_IT_number 12
_symmetry_cell_setting 'monoclinic'
loop_
_space_group_symop_operation_xyz
x,y,z
-x,y,-z
-x,-y,-z
x,-y,z
1/2+x,1/2+y,z
1/2-x,1/2+y,-z
1/2-x,1/2-y,-z
1/2+x,1/2-y,z
loop_
_atom_site_type_symbol
_atom_site_label
_atom_site_fract_x
_atom_site_fract_y
_atom_site_fract_z
Si Si1 0.795457 0.800024 0.925815
Si Si2 0.215313 0.695451 0.264429
Si Si3 0.943528 0.202692 0.928284
Si Si4 0.025283 0.000000 0.367607
Si Si5 0.434826 0.193990 0.740150
Si Si6 0.702749 0.193770 0.571383
Si Si7 0.394432 0.500000 0.459553
O O1 0.767244 0.714118 0.834970
O O2 0.870904 0.742897 0.953579
O O3 0.792511 0.000000 0.909206
O O4 0.750000 0.750000 0.000000
O O5 0.226133 0.500000 0.294076
O O6 0.140716 0.753437 0.270990
O O7 0.260728 0.809554 0.331633
O O8 0.959775 0.299090 0.841440
O O9 0.946985 0.000000 0.912958
O O10 0.000000 0.265272 0.000000
O O11 0.023954 0.826879 0.311292
O O12 0.089117 0.000000 0.436717
O O13 0.959596 0.000000 0.412884
O O14 0.444217 0.000000 0.705767
O O15 0.750000 0.250000 0.500000
O O16 0.643129 0.325830 0.568415
O O17 0.677034 0.000000 0.550685
#
# Coordination Sequence:
#
# PCOD8099306 Si02
#       7
#     8   8   8   4   8   8   4
#     4  10  20  35  55  84 121 163 201 252 315 365
#     4  10  20  37  62  91 122 156 207 255 303 372
#     4   9  18  36  60  86 114 156 211 255 297 360
#     4  11  24  44  65  84 128 164 201 248 306 370
#     4  10  21  37  64  92 117 162 207 249 301 363
#     4  12  23  40  65  95 125 156 203 256 307 363
#     4  11  26  44  62  94 124 163 199 252 311 361
#
# _framework density 19.575294
#
# number of rings (size 3 to 8) (size 9 to 14) (size 15 to 20)
#    0.000    1.667    2.500    2.000    2.333    3.667 
#    3.000    1.667    0.000    0.000    0.000    0.000 
#    0.000    0.000    0.000    0.000    0.000    0.000 
#
# Total GULP energy -297628.037700 kJ/mol
# GULP energy per Si atom -12401.168238 kJ/mol
# Density = 1.953074 g / cm^3
# Si number density = 19.575294 Si / 1000 Ang^3
#
#
#
# Elastic Constant Matrix: (Units=GPa)
#
#
# Indices 1 2 3 4 5 6 
#
# 1 80.5925 34.4435 58.8219 0.0000 11.2224 0.0000
# 2 34.4435 113.8759 38.3000 0.0000 3.7793 0.0000
# 3 58.8219 38.3000 113.3153 0.0000 5.1137 0.0000
# 4 0.0000 0.0000 0.0000 28.0982 0.0000 0.0613
# 5 11.2224 3.7793 5.1137 0.0000 34.0762 0.0000
# 6 0.0000 0.0000 0.0000 0.0613 0.0000 26.0544
#
#
#
# Elastic Compliance Matrix: (Units=1/GPa)
#
#
# Indices 1 2 3 4 5 6 
#
# 1 0.021771 -0.003033 -0.010036 0.000000 -0.005327 0.000000
# 2 -0.003033 0.010342 -0.001928 0.000000 0.000141 0.000000
# 3 -0.010036 -0.001928 0.014626 0.000000 0.001324 0.000000
# 4 0.000000 0.000000 0.000000 0.035590 0.000000 -0.000084
# 5 -0.005327 0.000141 0.001324 0.000000 0.030886 0.000000
# 6 0.000000 0.000000 0.000000 -0.000084 0.000000 0.038382
#
#
# Mechanical properties :
#
#
# Convention : Reuss Voigt Hill
#
# Bulk Modulus (GPa) = 59.71196 63.43495 61.57345
# Shear Modulus (GPa) = 26.71340 29.39364 28.05352
#
# Velocity S-wave (km/s) = 3.69812 3.87921 3.78975
# Velocity P-wave (km/s) = 6.98604 7.24847 7.11847
#
# Compressibility (1/GPa) = 0.01674706
#
# Stress axis : x y z
#
# Youngs Moduli (GPa) = 45.93291 96.68859 68.36983
#
# Poissons Ratio (x) = 0.29323 0.68614
# Poissons Ratio (y) = 0.13930 0.13180
# Poissons Ratio (z) = 0.46097 0.18639
#
# Static dielectric constant tensor:
#      x y z
#    x 3.252240 0.000000 0.269420 
#    y 0.000000 3.919880 0.000000 
#    z 0.269420 0.000000 3.608090 
# 
# 
# High freq. dielectric constant tensor:
#      x y z
#    x 1.741710 0.000000 0.008100 
#    y 0.000000 1.774770 0.000000 
#    z 0.008100 0.000000 1.769320 
# 
# From -- ./inp_files/221787.got.cif
#   From: 2010.06.25/outbox.cif.g09.slc.cpg/sg12_111_cif.got.tgz:221787.got - 2010.06.28 00:19:55.
