data_PCOD8099655
_publ_section_title
;
Structure prediction by ZEFSAII (Michael W. Deem and Ramdas Pophale) SiO2 
 PCOD8099655
Probable space group: C 2/M
;
_chemical_formula_sum "Si O2"
_cell_formula_units_Z 64
_cell_length_a 32.586252
_cell_length_b 8.798692
_cell_length_c 24.886582
_cell_angle_alpha 90.000000
_cell_angle_beta 26.655168
_cell_angle_gamma 90.000000
_cell_volume 3201.077917
_symmetry_space_group_name_H-M "C 2/M"
_symmetry_group_IT_number 12
_symmetry_cell_setting 'monoclinic'
loop_
_space_group_symop_operation_xyz
x,y,z
-x,y,-z
-x,-y,-z
x,-y,z
1/2+x,1/2+y,z
1/2-x,1/2+y,-z
1/2-x,1/2-y,-z
1/2+x,1/2-y,z
loop_
_atom_site_type_symbol
_atom_site_label
_atom_site_fract_x
_atom_site_fract_y
_atom_site_fract_z
Si Si1 0.270570 0.325624 0.234097
Si Si2 0.565887 0.680585 0.766788
Si Si3 0.708363 0.179760 0.676714
Si Si4 0.467551 0.676440 0.682728
Si Si5 0.884351 0.820487 0.408065
Si Si6 0.439570 0.827393 0.520453
Si Si7 0.858664 0.819611 0.021961
Si Si8 0.724506 0.820728 0.086372
O O1 0.296424 0.500000 0.216588
O O2 0.292644 0.226606 0.260231
O O3 0.165346 0.310658 0.340219
O O4 0.327976 0.260235 0.116579
O O5 0.571165 0.500000 0.765365
O O6 0.617549 0.754774 0.756024
O O7 0.612251 0.739074 0.657080
O O8 0.461197 0.736657 0.890545
O O9 0.797361 0.249387 0.541710
O O10 0.707196 0.000000 0.674061
O O11 0.439943 0.500000 0.715826
O O12 0.519568 0.724201 0.676547
O O13 0.539012 0.709499 0.551756
O O14 0.378576 0.777814 0.777850
O O15 0.874198 0.000000 0.421159
O O16 0.500000 0.778915 0.500000
O O17 0.461926 0.000000 0.476020
O O18 0.792252 0.755430 0.052986
O O19 0.851471 0.000000 0.030178
O O20 0.734310 0.000000 0.070462
O O21 0.750000 0.750000 0.000000
#
# Coordination Sequence:
#
# PCOD8099655 Si02
#       8
#     8   8   8   8   8   8   8   8
#     4  10  20  37  60  84 112 153 199 240 284 349
#     4  10  20  38  62  84 106 147 199 243 289 353
#     4  11  22  38  57  84 119 152 186 241 304 352
#     4  11  21  36  58  86 118 154 193 237 293 352
#     4   9  19  36  58  83 117 152 188 237 299 356
#     4  10  20  35  56  83 115 150 193 242 290 341
#     4   9  20  39  62  84 114 154 199 244 291 344
#     4  11  22  39  61  88 121 159 199 243 293 347
#
# _framework density 19.993265999999998
#
# number of rings (size 3 to 8) (size 9 to 14) (size 15 to 20)
#    0.000    1.875    1.250    3.000    0.000    4.750 
#    0.000   10.000    0.000    0.000    0.000    0.000 
#    0.000    0.000    0.000    0.000    0.000    0.000 
#
# Total GULP energy -396877.093085 kJ/mol
# GULP energy per Si atom -12402.409159 kJ/mol
# Density = 1.994776 g / cm^3
# Si number density = 19.993266 Si / 1000 Ang^3
#
#
#
# Elastic Constant Matrix: (Units=GPa)
#
#
# Indices 1 2 3 4 5 6 
#
# 1 151.1022 30.4575 59.6609 0.0038 -0.9322 -0.0028
# 2 30.4575 42.3155 23.8246 0.0129 -2.8539 -0.0079
# 3 59.6609 23.8246 118.3725 0.0024 5.9925 0.0011
# 4 0.0038 0.0129 0.0024 26.4162 0.0036 2.7782
# 5 -0.9322 -2.8539 5.9925 0.0036 38.8223 0.0006
# 6 -0.0028 -0.0079 0.0011 2.7782 0.0006 28.3384
#
#
#
# Elastic Compliance Matrix: (Units=1/GPa)
#
#
# Indices 1 2 3 4 5 6 
#
# 1 0.008940 -0.004346 -0.003654 0.000001 0.000459 0.000000
# 2 -0.004346 0.029073 -0.003793 -0.000015 0.002618 0.000009
# 3 -0.003654 -0.003793 0.011159 0.000002 -0.002089 -0.000002
# 4 0.000001 -0.000015 0.000002 0.038250 -0.000005 -0.003750
# 5 0.000459 0.002618 -0.002089 -0.000005 0.026284 0.000001
# 6 0.000000 0.000009 -0.000002 -0.003750 0.000001 0.035655
#
#
# Mechanical properties :
#
#
# Convention : Reuss Voigt Hill
#
# Bulk Modulus (GPa) = 39.08747 59.96404 49.52575
# Shear Modulus (GPa) = 27.55175 31.90519 29.72847
#
# Velocity S-wave (km/s) = 3.71624 3.99908 3.86025
# Velocity P-wave (km/s) = 6.16496 7.16803 6.68533
#
# Compressibility (1/GPa) = 0.02558364
#
# Stress axis : x y z
#
# Youngs Moduli (GPa) = 111.85990 34.39656 89.61437
#
# Poissons Ratio (x) = 0.14949 0.32747
# Poissons Ratio (y) = 0.48617 0.33995
# Poissons Ratio (z) = 0.40876 0.13048
#
# Static dielectric constant tensor:
#      x y z
#    x 3.800460 -0.000010 0.010090 
#    y -0.000010 3.314240 0.000090 
#    z 0.010090 0.000090 3.839170 
# 
# 
# High freq. dielectric constant tensor:
#      x y z
#    x 1.794150 0.000000 -0.000670 
#    y 0.000000 1.748710 0.000010 
#    z -0.000670 0.000010 1.788400 
# 
# From -- ./inp_files/353320.got.cif
#   From: 2010.06.25/outbox.cif.g09.slc.cpg/sg12_177_cif.got.tgz:353320.got - 2010.06.28 00:19:55.
