data_PCOD8099290
_publ_section_title
;
Structure prediction by ZEFSAII (Michael W. Deem and Ramdas Pophale) SiO2 
 PCOD8099290
Probable space group: C 2/M
;
_chemical_formula_sum "Si O2"
_cell_formula_units_Z 56
_cell_length_a 25.238933
_cell_length_b 8.857676
_cell_length_c 14.646004
_cell_angle_alpha 90.000000
_cell_angle_beta 120.445245
_cell_angle_gamma 90.000000
_cell_volume 2822.763712
_symmetry_space_group_name_H-M "C 2/M"
_symmetry_group_IT_number 12
_symmetry_cell_setting 'monoclinic'
loop_
_space_group_symop_operation_xyz
x,y,z
-x,y,-z
-x,-y,-z
x,-y,z
1/2+x,1/2+y,z
1/2-x,1/2+y,-z
1/2-x,1/2-y,-z
1/2+x,1/2-y,z
loop_
_atom_site_type_symbol
_atom_site_label
_atom_site_fract_x
_atom_site_fract_y
_atom_site_fract_z
Si Si1 0.406870 0.178012 0.489198
Si Si2 0.508289 0.673913 0.288155
Si Si3 0.236301 0.677794 0.891940
Si Si4 0.179113 0.178152 0.195390
Si Si5 0.887431 0.173869 0.285576
Si Si6 0.728601 0.821777 0.573530
Si Si7 0.955795 0.179882 0.882297
O O1 0.455190 0.226669 0.607434
O O2 0.419789 0.259543 0.404335
O O3 0.340110 0.229581 0.464751
O O4 0.411653 0.000000 0.477405
O O5 0.529390 0.500000 0.316301
O O6 0.435687 0.690256 0.244511
O O7 0.521563 0.734966 0.197567
O O8 0.229228 0.500000 0.896148
O O9 0.295248 0.720843 0.881830
O O10 0.174024 0.736785 0.792259
O O11 0.250000 0.750000 0.000000
O O12 0.226907 0.244576 0.310031
O O13 0.111769 0.247059 0.154988
O O14 0.175408 0.000000 0.203496
O O15 0.870409 0.000000 0.287217
O O16 0.750000 0.750000 0.500000
O O17 0.733501 0.000000 0.570776
O O18 0.955881 0.000000 0.885332
O O19 0.000000 0.244535 0.000000
#
# Coordination Sequence:
#
# PCOD8099290 Si02
#       7
#     8   8   8   8   8   8   8
#     4  11  22  38  59  86 120 159 199 242 300 363
#     4  10  22  38  59  89 120 154 201 250 298 356
#     4  11  23  40  62  89 121 157 199 246 298 357
#     4   9  18  35  57  81 116 150 187 239 293 347
#     4  11  23  39  61  90 122 157 198 246 298 356
#     4  10  20  35  55  83 115 154 196 239 292 351
#     4   9  18  33  58  87 113 148 194 244 296 347
#
# _framework density 19.838714
#
# number of rings (size 3 to 8) (size 9 to 14) (size 15 to 20)
#    0.000    1.857    1.429    2.571    2.000    5.143 
#    0.000    0.000    0.000    1.286    0.000    0.000 
#    0.000    0.000    0.000    0.000    0.000    0.000 
#
# Total GULP energy -347239.976839 kJ/mol
# GULP energy per Si atom -12401.427744 kJ/mol
# Density = 1.979356 g / cm^3
# Si number density = 19.838714 Si / 1000 Ang^3
#
#
#
# Elastic Constant Matrix: (Units=GPa)
#
#
# Indices 1 2 3 4 5 6 
#
# 1 142.5194 39.9539 51.0025 0.0000 -12.2881 0.0000
# 2 39.9539 59.6687 33.0841 0.0000 -6.9313 0.0000
# 3 51.0025 33.0841 120.9893 0.0000 -16.4597 0.0000
# 4 0.0000 0.0000 0.0000 30.4124 0.0000 -1.2825
# 5 -12.2881 -6.9313 -16.4597 0.0000 39.2226 0.0000
# 6 0.0000 0.0000 0.0000 -1.2825 0.0000 23.8336
#
#
#
# Elastic Compliance Matrix: (Units=1/GPa)
#
#
# Indices 1 2 3 4 5 6 
#
# 1 0.009328 -0.004743 -0.002494 0.000000 0.001038 0.000000
# 2 -0.004743 0.022228 -0.003974 0.000000 0.000775 0.000000
# 3 -0.002494 -0.003974 0.010819 0.000000 0.003057 0.000000
# 4 0.000000 0.000000 0.000000 0.032956 0.000000 0.001773
# 5 0.001038 0.000775 0.003057 0.000000 0.027240 0.000000
# 6 0.000000 0.000000 0.000000 0.001773 0.000000 0.042053
#
#
# Mechanical properties :
#
#
# Convention : Reuss Voigt Hill
#
# Bulk Modulus (GPa) = 50.11425 63.47317 56.79371
# Shear Modulus (GPa) = 28.78581 31.96952 30.37767
#
# Velocity S-wave (km/s) = 3.81332 4.01867 3.91734
# Velocity P-wave (km/s) = 6.68612 7.32100 7.01075
#
# Compressibility (1/GPa) = 0.01995440
#
# Stress axis : x y z
#
# Youngs Moduli (GPa) = 107.20183 44.98830 92.42997
#
# Poissons Ratio (x) = 0.21336 0.23054
# Poissons Ratio (y) = 0.50842 0.36727
# Poissons Ratio (z) = 0.26739 0.17876
#
# Static dielectric constant tensor:
#      x y z
#    x 3.885790 0.000000 -0.023990 
#    y 0.000000 3.238970 0.000000 
#    z -0.023990 0.000000 3.710750 
# 
# 
# High freq. dielectric constant tensor:
#      x y z
#    x 1.793380 0.000000 -0.002800 
#    y 0.000000 1.743600 0.000000 
#    z -0.002800 0.000000 1.781500 
# 
# From -- ./inp_files/239033.got.cif
#   From: 2010.06.25/outbox.cif.g09.slc.cpg/sg12_120_cif.got.tgz:239033.got - 2010.06.28 00:19:55.
