data_PCOD8099865
_publ_section_title
;
Structure prediction by ZEFSAII (Michael W. Deem and Ramdas Pophale) SiO2 
 PCOD8099865
Probable space group: C 2/M
;
_chemical_formula_sum "Si O2"
_cell_formula_units_Z 56
_cell_length_a 15.401711
_cell_length_b 9.138397
_cell_length_c 23.151253
_cell_angle_alpha 90.000000
_cell_angle_beta 59.153548
_cell_angle_gamma 90.000000
_cell_volume 2797.539923
_symmetry_space_group_name_H-M "C 2/M"
_symmetry_group_IT_number 12
_symmetry_cell_setting 'monoclinic'
loop_
_space_group_symop_operation_xyz
x,y,z
-x,y,-z
-x,-y,-z
x,-y,z
1/2+x,1/2+y,z
1/2-x,1/2+y,-z
1/2-x,1/2-y,-z
1/2+x,1/2-y,z
loop_
_atom_site_type_symbol
_atom_site_label
_atom_site_fract_x
_atom_site_fract_y
_atom_site_fract_z
Si Si1 0.369409 0.338030 0.709964
Si Si2 0.220497 0.327691 0.159885
Si Si3 0.281743 0.164361 0.432763
Si Si4 0.990137 0.670766 0.827126
Si Si5 0.918752 0.836245 0.570020
Si Si6 0.077806 0.839040 0.697908
Si Si7 0.926415 0.670594 0.077106
O O1 0.320667 0.500000 0.714621
O O2 0.292180 0.234184 0.770476
O O3 0.403539 0.260843 0.637815
O O4 0.463440 0.360413 0.718960
O O5 0.233888 0.500000 0.159617
O O6 0.125661 0.286533 0.150379
O O7 0.323177 0.258245 0.100508
O O8 0.250000 0.250000 0.500000
O O9 0.188839 0.158898 0.421893
O O10 0.370434 0.248577 0.370535
O O11 0.317101 0.000000 0.436880
O O12 0.006093 0.500000 0.810474
O O13 0.074943 0.752395 0.759331
O O14 0.014267 0.715512 0.884632
O O15 0.000000 0.754633 0.500000
O O16 0.961837 0.000000 0.567117
O O17 0.128788 0.000000 0.688213
O O18 0.898552 0.500000 0.087348
O O19 0.000000 0.711732 0.000000
#
# Coordination Sequence:
#
# PCOD8099865 Si02
#       7
#     8   8   8   8   8   8   8
#     4   9  18  35  58  80 105 144 189 231 278 342
#     4  10  21  37  58  87 120 152 189 243 301 346
#     4  11  22  35  53  77 107 144 185 233 287 341
#     4   9  20  39  60  84 119 157 193 236 294 352
#     4   9  18  33  53  75 100 137 185 229 272 328
#     4  10  20  35  57  83 110 141 184 235 285 342
#     4  10  22  40  62  87 117 157 202 241 284 354
#
# _framework density 20.017588
#
# number of rings (size 3 to 8) (size 9 to 14) (size 15 to 20)
#    0.000    2.286    0.000    2.143    2.000    4.857 
#    0.000    0.714    0.000    3.000    0.000    0.000 
#    0.000    0.000    0.000    0.000    0.000    0.000 
#
# Total GULP energy -347071.142743 kJ/mol
# GULP energy per Si atom -12395.397955 kJ/mol
# Density = 1.997203 g / cm^3
# Si number density = 20.017588 Si / 1000 Ang^3
#
#
#
# Elastic Constant Matrix: (Units=GPa)
#
#
# Indices 1 2 3 4 5 6 
#
# 1 59.0497 33.8658 37.7175 0.0000 3.1021 0.0000
# 2 33.8658 104.2361 65.8196 0.0000 -4.3264 0.0000
# 3 37.7175 65.8196 162.8860 0.0000 6.8416 0.0000
# 4 0.0000 0.0000 0.0000 26.2541 0.0000 -11.9008
# 5 3.1021 -4.3264 6.8416 0.0000 35.7497 0.0000
# 6 0.0000 0.0000 0.0000 -11.9008 0.0000 11.1487
#
#
#
# Elastic Compliance Matrix: (Units=1/GPa)
#
#
# Indices 1 2 3 4 5 6 
#
# 1 0.021954 -0.005452 -0.002795 0.000000 -0.002030 0.000000
# 2 -0.005452 0.014473 -0.004717 0.000000 0.003127 0.000000
# 3 -0.002795 -0.004717 0.008777 0.000000 -0.002008 0.000000
# 4 0.000000 0.000000 0.000000 0.073798 0.000000 0.078777
# 5 -0.002030 0.003127 -0.002008 0.000000 0.028911 0.000000
# 6 0.000000 0.000000 0.000000 0.078777 0.000000 0.173788
#
#
# Mechanical properties :
#
#
# Convention : Reuss Voigt Hill
#
# Bulk Modulus (GPa) = 51.88022 66.77528 59.32775
# Shear Modulus (GPa) = 14.12209 27.21510 20.66860
#
# Velocity S-wave (km/s) = 2.65898 3.69122 3.21677
# Velocity P-wave (km/s) = 5.94983 7.18314 6.59538
#
# Compressibility (1/GPa) = 0.01927517
#
# Stress axis : x y z
#
# Youngs Moduli (GPa) = 45.55049 69.09180 113.93253
#
# Poissons Ratio (x) = 0.37668 0.31848
# Poissons Ratio (y) = 0.24833 0.53747
# Poissons Ratio (z) = 0.12733 0.32594
#
# Static dielectric constant tensor:
#      x y z
#    x 3.550730 0.000000 0.042080 
#    y 0.000000 3.836370 0.000000 
#    z 0.042080 0.000000 3.749470 
# 
# 
# High freq. dielectric constant tensor:
#      x y z
#    x 1.774770 0.000000 0.002380 
#    y 0.000000 1.765990 0.000000 
#    z 0.002380 0.000000 1.788200 
# 
# From -- ./inp_files/338506.got.cif
#   From: 2010.06.25/outbox.cif.g09.slc.cpg/sg12_170_cif.got.tgz:338506.got - 2010.06.28 00:19:55.
