data_PCOD8099690
_publ_section_title
;
Structure prediction by ZEFSAII (Michael W. Deem and Ramdas Pophale) SiO2 
 PCOD8099690
Probable space group: C 2/M
;
_chemical_formula_sum "Si O2"
_cell_formula_units_Z 56
_cell_length_a 20.305434
_cell_length_b 8.826092
_cell_length_c 32.317678
_cell_angle_alpha 90.000000
_cell_angle_beta 29.219132
_cell_angle_gamma 90.000000
_cell_volume 2827.321277
_symmetry_space_group_name_H-M "C 2/M"
_symmetry_group_IT_number 12
_symmetry_cell_setting 'monoclinic'
loop_
_space_group_symop_operation_xyz
x,y,z
-x,y,-z
-x,-y,-z
x,-y,z
1/2+x,1/2+y,z
1/2-x,1/2+y,-z
1/2-x,1/2-y,-z
1/2+x,1/2-y,z
loop_
_atom_site_type_symbol
_atom_site_label
_atom_site_fract_x
_atom_site_fract_y
_atom_site_fract_z
Si Si1 0.350633 0.177557 0.068079
Si Si2 0.361028 0.178980 0.968087
Si Si3 0.584333 0.178601 0.493710
Si Si4 0.857859 0.677021 0.319572
Si Si5 0.917130 0.179797 0.657089
Si Si6 0.866338 0.679457 0.220936
Si Si7 0.600016 0.823622 0.247225
O O1 0.247099 0.267621 0.153293
O O2 0.325102 0.000000 0.088754
O O3 0.500000 0.222935 0.000000
O O4 0.330892 0.226943 0.031484
O O5 0.507414 0.242869 0.874407
O O6 0.357682 0.000000 0.964439
O O7 0.250000 0.250000 0.000000
O O8 0.500000 0.234540 0.500000
O O9 0.738966 0.226354 0.404834
O O10 0.529304 0.258389 0.564692
O O11 0.572820 0.000000 0.505576
O O12 0.819418 0.500000 0.342406
O O13 0.879814 0.733899 0.260769
O O14 0.995293 0.712531 0.268208
O O15 0.770972 0.244183 0.723476
O O16 0.950768 0.236985 0.684374
O O17 0.921018 0.000000 0.654044
O O18 0.863924 0.500000 0.220006
O O19 0.606970 0.000000 0.253548
#
# Coordination Sequence:
#
# PCOD8099690 Si02
#       7
#     8   8   8   8   8   8   8
#     4  10  21  39  62  85 116 160 208 247 290 355
#     4  10  20  35  56  84 116 149 191 243 293 345
#     4  11  23  39  61  92 125 151 188 248 303 346
#     4  10  21  39  62  86 117 160 202 241 292 360
#     4  11  22  39  65  88 115 156 200 242 289 357
#     4   9  18  35  60  85 109 148 200 242 281 342
#     4  11  24  40  60  89 124 156 196 251 305 349
#
# _framework density 19.806735
#
# number of rings (size 3 to 8) (size 9 to 14) (size 15 to 20)
#    0.000    1.714    1.429    3.000    0.000    6.571 
#    0.000    3.571    0.000    0.000    0.000    0.000 
#    0.000    0.000    0.000    0.000    0.000    0.000 
#
# Total GULP energy -347346.624650 kJ/mol
# GULP energy per Si atom -12405.236595 kJ/mol
# Density = 1.976165 g / cm^3
# Si number density = 19.806735 Si / 1000 Ang^3
#
#
#
# Elastic Constant Matrix: (Units=GPa)
#
#
# Indices 1 2 3 4 5 6 
#
# 1 88.3458 29.5595 16.7053 -0.0018 9.3353 -0.0055
# 2 29.5595 55.3657 33.3287 0.0007 4.5483 0.0044
# 3 16.7053 33.3287 111.3453 -0.0048 10.0755 0.0022
# 4 -0.0018 0.0007 -0.0048 26.2315 -0.0003 0.8669
# 5 9.3353 4.5483 10.0755 -0.0003 38.3191 0.0024
# 6 -0.0055 0.0044 0.0022 0.8669 0.0024 30.4733
#
#
#
# Elastic Compliance Matrix: (Units=1/GPa)
#
#
# Indices 1 2 3 4 5 6 
#
# 1 0.014037 -0.007506 0.000379 0.000001 -0.002628 0.000004
# 2 -0.007506 0.026076 -0.006725 -0.000002 0.000502 -0.000005
# 3 0.000379 -0.006725 0.011138 0.000002 -0.002223 0.000000
# 4 0.000001 -0.000002 0.000002 0.038158 0.000000 -0.001086
# 5 -0.002628 0.000502 -0.002223 0.000000 0.027262 -0.000003
# 6 0.000004 -0.000005 0.000000 -0.001086 -0.000003 0.032846
#
#
# Mechanical properties :
#
#
# Convention : Reuss Voigt Hill
#
# Bulk Modulus (GPa) = 42.46836 46.02710 44.24773
# Shear Modulus (GPa) = 27.01673 30.70233 28.85953
#
# Velocity S-wave (km/s) = 3.69727 3.94140 3.82128
# Velocity P-wave (km/s) = 6.30193 6.63335 6.46976
#
# Compressibility (1/GPa) = 0.02354694
#
# Stress axis : x y z
#
# Youngs Moduli (GPa) = 71.24141 38.34935 89.78097
#
# Poissons Ratio (x) = 0.28786 -0.03400
# Poissons Ratio (y) = 0.53476 0.60373
# Poissons Ratio (z) = -0.02698 0.25788
#
# Static dielectric constant tensor:
#      x y z
#    x 3.684540 -0.000010 0.008600 
#    y -0.000010 3.400180 0.000010 
#    z 0.008600 0.000010 3.806100 
# 
# 
# High freq. dielectric constant tensor:
#      x y z
#    x 1.782570 0.000000 0.003690 
#    y 0.000000 1.754820 0.000000 
#    z 0.003690 0.000000 1.786960 
# 
# From -- ./inp_files/380656.got.cif
#   From: 2010.06.25/outbox.cif.g09.slc.cpg/sg12_191_cif.got.tgz:380656.got - 2010.06.28 00:19:55.
