data_PCOD8099359
_publ_section_title
;
Structure prediction by ZEFSAII (Michael W. Deem and Ramdas Pophale) SiO2 
 PCOD8099359
Probable space group: C 2/M
;
_chemical_formula_sum "Si O2"
_cell_formula_units_Z 64
_cell_length_a 14.604318
_cell_length_b 9.203682
_cell_length_c 29.504967
_cell_angle_alpha 90.000000
_cell_angle_beta 60.777059
_cell_angle_gamma 90.000000
_cell_volume 3461.116892
_symmetry_space_group_name_H-M "C 2/M"
_symmetry_group_IT_number 12
_symmetry_cell_setting 'monoclinic'
loop_
_space_group_symop_operation_xyz
x,y,z
-x,y,-z
-x,-y,-z
x,-y,z
1/2+x,1/2+y,z
1/2-x,1/2+y,-z
1/2-x,1/2-y,-z
1/2+x,1/2-y,z
loop_
_atom_site_type_symbol
_atom_site_label
_atom_site_fract_x
_atom_site_fract_y
_atom_site_fract_z
Si Si1 0.113991 0.164645 0.265443
Si Si2 0.959633 0.172674 0.814388
Si Si3 0.471882 0.832857 0.366495
Si Si4 0.766674 0.670656 0.365681
Si Si5 0.334901 0.165630 0.249633
Si Si6 0.386883 0.167833 0.007054
Si Si7 0.443037 0.831391 0.558500
Si Si8 0.321166 0.831153 0.921514
O O1 0.239188 0.175999 0.237816
O O2 0.078736 0.226464 0.225593
O O3 0.064621 0.250979 0.318754
O O4 0.075486 0.000000 0.280091
O O5 0.077308 0.230006 0.792350
O O6 0.885666 0.243918 0.869086
O O7 0.955749 0.000000 0.820868
O O8 0.358504 0.779952 0.377443
O O9 0.479082 0.803869 0.418267
O O10 0.487669 0.000000 0.350213
O O11 0.744786 0.500000 0.371501
O O12 0.798612 0.722001 0.307703
O O13 0.664091 0.748455 0.407982
O O14 0.376928 0.000000 0.242925
O O15 0.296567 0.267734 0.050274
O O16 0.364476 0.000000 0.025101
O O17 0.500000 0.215857 0.000000
O O18 0.382674 0.190210 0.953978
O O19 0.500000 0.770243 0.500000
O O20 0.415490 0.000000 0.559370
O O21 0.314243 0.000000 0.910163
#
# Coordination Sequence:
#
# PCOD8099359 Si02
#       8
#     8   8   8   8   8   8   8   8
#     4  10  21  36  55  79 107 143 184 223 270 327
#     4  11  23  37  55  82 116 149 185 228 274 329
#     4  10  20  35  56  79 106 139 177 222 272 325
#     4  10  20  35  57  81 105 138 180 226 272 324
#     4  10  20  36  56  79 108 142 182 227 274 326
#     4   9  19  38  63  86 112 150 193 232 276 327
#     4  10  22  38  55  79 111 143 177 223 277 332
#     4  10  21  37  58  85 117 151 186 232 280 323
#
# _framework density 18.491140000000001
#
# number of rings (size 3 to 8) (size 9 to 14) (size 15 to 20)
#    0.000    2.000    2.500    0.750    0.000    4.500 
#    0.000    5.000    0.000    0.000    0.000    0.000 
#    0.000    0.000    0.000    0.000    0.000    0.000 
#
# Total GULP energy -396883.010033 kJ/mol
# GULP energy per Si atom -12402.594064 kJ/mol
# Density = 1.844905 g / cm^3
# Si number density = 18.491140 Si / 1000 Ang^3
#
#
#
# Elastic Constant Matrix: (Units=GPa)
#
#
# Indices 1 2 3 4 5 6 
#
# 1 91.9455 25.9940 14.0683 0.0000 -10.5156 0.0000
# 2 25.9940 64.5381 39.1382 0.0000 -8.7504 0.0000
# 3 14.0683 39.1382 87.4692 0.0000 -10.9638 0.0000
# 4 0.0000 0.0000 0.0000 33.7062 0.0000 -9.9005
# 5 -10.5156 -8.7504 -10.9638 0.0000 25.2300 0.0000
# 6 0.0000 0.0000 0.0000 -9.9005 0.0000 25.4372
#
#
#
# Elastic Compliance Matrix: (Units=1/GPa)
#
#
# Indices 1 2 3 4 5 6 
#
# 1 0.012616 -0.004972 0.000675 0.000000 0.003827 0.000000
# 2 -0.004972 0.023508 -0.009473 0.000000 0.001964 0.000000
# 3 0.000675 -0.009473 0.016061 0.000000 0.003975 0.000000
# 4 0.000000 0.000000 0.000000 0.033498 0.000000 0.013038
# 5 0.003827 0.001964 0.003975 0.000000 0.043639 0.000000
# 6 0.000000 0.000000 0.000000 0.013038 0.000000 0.044387
#
#
# Mechanical properties :
#
#
# Convention : Reuss Voigt Hill
#
# Bulk Modulus (GPa) = 40.57421 44.70597 42.64009
# Shear Modulus (GPa) = 23.87045 27.85816 25.86431
#
# Velocity S-wave (km/s) = 3.59683 3.88566 3.74403
# Velocity P-wave (km/s) = 6.26416 6.66038 6.46530
#
# Compressibility (1/GPa) = 0.02464620
#
# Stress axis : x y z
#
# Youngs Moduli (GPa) = 79.26426 42.53805 62.26287
#
# Poissons Ratio (x) = 0.21150 -0.04205
# Poissons Ratio (y) = 0.39410 0.58981
# Poissons Ratio (z) = -0.05353 0.40296
#
# Static dielectric constant tensor:
#      x y z
#    x 3.597180 0.000000 0.095670 
#    y 0.000000 3.392900 0.000000 
#    z 0.095670 0.000000 3.337850 
# 
# 
# High freq. dielectric constant tensor:
#      x y z
#    x 1.728720 0.000000 0.001680 
#    y 0.000000 1.715530 0.000000 
#    z 0.001680 0.000000 1.712520 
# 
# From -- ./inp_files/338784.got.cif
#   From: 2010.06.25/outbox.cif.g09.slc.cpg/sg12_170_cif.got.tgz:338784.got - 2010.06.28 00:19:55.
