data_PCOD8099749
_publ_section_title
;
Structure prediction by ZEFSAII (Michael W. Deem and Ramdas Pophale) SiO2 
 PCOD8099749
Probable space group: C 2/M
;
_chemical_formula_sum "Si O2"
_cell_formula_units_Z 56
_cell_length_a 22.178711
_cell_length_b 8.675579
_cell_length_c 14.724227
_cell_angle_alpha 90.000000
_cell_angle_beta 69.234299
_cell_angle_gamma 90.000000
_cell_volume 2649.089164
_symmetry_space_group_name_H-M "C 2/M"
_symmetry_group_IT_number 12
_symmetry_cell_setting 'monoclinic'
loop_
_space_group_symop_operation_xyz
x,y,z
-x,y,-z
-x,-y,-z
x,-y,z
1/2+x,1/2+y,z
1/2-x,1/2+y,-z
1/2-x,1/2-y,-z
1/2+x,1/2-y,z
loop_
_atom_site_type_symbol
_atom_site_label
_atom_site_fract_x
_atom_site_fract_y
_atom_site_fract_z
Si Si1 0.321019 0.179398 0.448723
Si Si2 0.494534 0.322518 0.105324
Si Si3 0.805255 0.675694 0.070454
Si Si4 0.369238 0.825732 0.224143
Si Si5 0.661319 0.679631 0.120987
Si Si6 0.455391 0.177564 0.751900
Si Si7 0.546544 0.318134 0.557821
O O1 0.250000 0.250000 0.500000
O O2 0.334111 0.211221 0.336405
O O3 0.380322 0.248831 0.478603
O O4 0.318126 0.000000 0.474366
O O5 0.516432 0.500000 0.101936
O O6 0.422508 0.303460 0.180239
O O7 0.538379 0.214047 0.144243
O O8 0.500000 0.261123 0.000000
O O9 0.810258 0.500000 0.034362
O O10 0.820339 0.692211 0.167902
O O11 0.732743 0.737842 0.103373
O O12 0.851514 0.774931 0.978704
O O13 0.398776 0.000000 0.211335
O O14 0.650133 0.500000 0.140523
O O15 0.617819 0.764262 0.221968
O O16 0.509219 0.272594 0.669318
O O17 0.464147 0.000000 0.722514
O O18 0.500000 0.257981 0.500000
O O19 0.554516 0.500000 0.546885
#
# Coordination Sequence:
#
# PCOD8099749 Si02
#       7
#     8   8   8   8   8   8   8
#     4  11  24  43  68  98 131 171 219 275 337 401
#     4  11  23  37  58  90 125 162 205 253 307 371
#     4   9  19  36  57  83 120 164 208 255 309 375
#     4  10  21  38  60  87 119 159 204 253 313 377
#     4  10  20  35  56  85 123 166 209 255 307 371
#     4  12  24  39  61  89 123 163 206 257 315 382
#     4  11  25  46  71  97 128 168 216 277 343 404
#
# _framework density 21.139341999999999
#
# number of rings (size 3 to 8) (size 9 to 14) (size 15 to 20)
#    0.000    1.429    1.429    3.857    0.000    7.429 
#    0.000    2.857    0.000    0.000    0.000    0.000 
#    0.000    0.000    0.000    0.000    0.000    0.000 
#
# Total GULP energy -347021.410409 kJ/mol
# GULP energy per Si atom -12393.621800 kJ/mol
# Density = 2.109123 g / cm^3
# Si number density = 21.139342 Si / 1000 Ang^3
#
#
#
# Elastic Constant Matrix: (Units=GPa)
#
#
# Indices 1 2 3 4 5 6 
#
# 1 116.6235 36.2371 45.3572 0.0000 -14.3088 0.0000
# 2 36.2371 78.0495 30.6846 0.0000 -4.7888 0.0000
# 3 45.3572 30.6846 87.8364 0.0000 -11.9953 0.0000
# 4 0.0000 0.0000 0.0000 28.4620 0.0000 -4.5963
# 5 -14.3088 -4.7888 -11.9953 0.0000 39.8486 0.0000
# 6 0.0000 0.0000 0.0000 -4.5963 0.0000 32.0485
#
#
#
# Elastic Compliance Matrix: (Units=1/GPa)
#
#
# Indices 1 2 3 4 5 6 
#
# 1 0.011713 -0.003526 -0.004484 0.000000 0.002432 0.000000
# 2 -0.003526 0.015916 -0.003807 0.000000 -0.000500 0.000000
# 3 -0.004484 -0.003807 0.015380 0.000000 0.002562 0.000000
# 4 0.000000 0.000000 0.000000 0.035968 0.000000 0.005158
# 5 0.002432 -0.000500 0.002562 0.000000 0.026679 0.000000
# 6 0.000000 0.000000 0.000000 0.005158 0.000000 0.031942
#
#
# Mechanical properties :
#
#
# Convention : Reuss Voigt Hill
#
# Bulk Modulus (GPa) = 51.61715 56.34077 53.97896
# Shear Modulus (GPa) = 29.81674 31.42054 30.61864
#
# Velocity S-wave (km/s) = 3.75972 3.85951 3.80994
# Velocity P-wave (km/s) = 6.58163 6.82430 6.70406
#
# Compressibility (1/GPa) = 0.01937341
#
# Stress axis : x y z
#
# Youngs Moduli (GPa) = 85.37831 62.83154 65.01770
#
# Poissons Ratio (x) = 0.22153 0.29156
# Poissons Ratio (y) = 0.30102 0.24755
# Poissons Ratio (z) = 0.38287 0.23923
#
# Static dielectric constant tensor:
#      x y z
#    x 4.457670 0.000000 0.118600 
#    y 0.000000 3.768640 0.000000 
#    z 0.118600 0.000000 3.901460 
# 
# 
# High freq. dielectric constant tensor:
#      x y z
#    x 1.841030 0.000000 -0.008480 
#    y 0.000000 1.825400 0.000000 
#    z -0.008480 0.000000 1.825380 
# 
# From -- ./inp_files/238425.got.cif
#   From: 2010.06.25/outbox.cif.g09.slc.cpg/sg12_120_cif.got.tgz:238425.got - 2010.06.28 00:19:55.
