data_PCOD8099008
_publ_section_title
;
Structure prediction by ZEFSAII (Michael W. Deem and Ramdas Pophale) SiO2 
 PCOD8099008
Probable space group: C 2/M
;
_chemical_formula_sum "Si O2"
_cell_formula_units_Z 64
_cell_length_a 30.226612
_cell_length_b 14.008805
_cell_length_c 11.797482
_cell_angle_alpha 90.000000
_cell_angle_beta 140.873722
_cell_angle_gamma 90.000000
_cell_volume 3152.325371
_symmetry_space_group_name_H-M "C 2/M"
_symmetry_group_IT_number 12
_symmetry_cell_setting 'monoclinic'
loop_
_space_group_symop_operation_xyz
x,y,z
-x,y,-z
-x,-y,-z
x,-y,z
1/2+x,1/2+y,z
1/2-x,1/2+y,-z
1/2-x,1/2-y,-z
1/2+x,1/2-y,z
loop_
_atom_site_type_symbol
_atom_site_label
_atom_site_fract_x
_atom_site_fract_y
_atom_site_fract_z
Si Si1 0.742595 0.395093 0.929770
Si Si2 0.673789 0.281874 0.463118
Si Si3 0.967799 0.609735 0.051594
Si Si4 0.397409 0.604914 0.492063
Si Si5 0.431526 0.230512 0.418558
Si Si6 0.607825 0.110948 0.461076
Si Si7 0.665861 0.236043 0.198159
Si Si8 0.823688 0.221061 0.021249
O O1 0.776273 0.500000 0.007698
O O2 0.668827 0.399738 0.721284
O O3 0.732791 0.352049 0.037413
O O4 0.792974 0.328554 0.956231
O O5 0.626338 0.359928 0.431421
O O6 0.657963 0.174505 0.479550
O O7 0.652668 0.291324 0.289326
O O8 0.755666 0.308041 0.641410
O O9 0.949205 0.500000 0.993402
O O10 0.026087 0.622873 0.264870
O O11 0.894522 0.657567 0.939822
O O12 0.000000 0.653996 0.000000
O O13 0.432569 0.500000 0.572351
O O14 0.450651 0.682140 0.543150
O O15 0.500000 0.183077 0.500000
O O16 0.387256 0.150361 0.399456
O O17 0.391397 0.276776 0.233739
O O18 0.631432 0.000000 0.500784
O O19 0.660364 0.306773 0.077811
#
# Coordination Sequence:
#
# PCOD8099008 Si02
#       8
#     8   8   8   8   8   8   8   8
#     4   9  18  34  55  77 107 143 179 227 280 332
#     4  10  21  36  56  86 118 150 194 244 301 346
#     4  10  20  36  58  86 117 156 199 236 288 357
#     4   9  18  36  58  79 108 146 189 236 285 335
#     4  10  21  36  56  84 115 151 194 237 286 341
#     4  10  21  39  60  86 125 161 193 240 298 358
#     4  11  21  35  56  83 116 150 191 242 291 347
#     4  10  20  35  54  82 111 145 190 228 279 351
#
# _framework density 20.302472999999999
#
# number of rings (size 3 to 8) (size 9 to 14) (size 15 to 20)
#    0.000    2.125    2.500    0.750    1.750    2.000 
#    0.000    2.500    0.000    0.000    0.000   11.375 
#    0.000    0.000    0.000    0.000    0.000    0.000 
#
# Total GULP energy -396580.957514 kJ/mol
# GULP energy per Si atom -12393.154922 kJ/mol
# Density = 2.025626 g / cm^3
# Si number density = 20.302473 Si / 1000 Ang^3
#
#
#
# Elastic Constant Matrix: (Units=GPa)
#
#
# Indices 1 2 3 4 5 6 
#
# 1 116.0275 31.2467 32.6897 0.0000 -23.6083 0.0000
# 2 31.2467 107.3051 5.8437 0.0000 -3.8998 0.0000
# 3 32.6897 5.8437 49.6741 0.0000 -9.6469 0.0000
# 4 0.0000 0.0000 0.0000 22.2044 0.0000 4.1442
# 5 -23.6083 -3.8998 -9.6469 0.0000 46.0737 0.0000
# 6 0.0000 0.0000 0.0000 4.1442 0.0000 18.9687
#
#
#
# Elastic Compliance Matrix: (Units=1/GPa)
#
#
# Indices 1 2 3 4 5 6 
#
# 1 0.012305 -0.003043 -0.006844 0.000000 0.004615 0.000000
# 2 -0.003043 0.010147 0.000701 0.000000 -0.000553 0.000000
# 3 -0.006844 0.000701 0.024895 0.000000 0.001765 0.000000
# 4 0.000000 0.000000 0.000000 0.046951 0.000000 -0.010258
# 5 0.004615 -0.000553 0.001765 0.000000 0.024392 0.000000
# 6 0.000000 0.000000 0.000000 -0.010258 0.000000 0.054960
#
#
# Mechanical properties :
#
#
# Convention : Reuss Voigt Hill
#
# Bulk Modulus (GPa) = 34.51023 45.84076 40.17549
# Shear Modulus (GPa) = 24.79190 30.99778 27.89484
#
# Velocity S-wave (km/s) = 3.49825 3.91167 3.71072
# Velocity P-wave (km/s) = 5.77512 6.55968 6.17986
#
# Compressibility (1/GPa) = 0.02897692
#
# Stress axis : x y z
#
# Youngs Moduli (GPa) = 81.26641 98.55155 40.16830
#
# Poissons Ratio (x) = 0.29987 0.27490
# Poissons Ratio (y) = 0.24728 -0.02817
# Poissons Ratio (z) = 0.55616 -0.06911
#
# Static dielectric constant tensor:
#      x y z
#    x 3.821810 0.000000 -0.207590 
#    y 0.000000 3.739290 0.000000 
#    z -0.207590 0.000000 3.612130 
# 
# 
# High freq. dielectric constant tensor:
#      x y z
#    x 1.797770 0.000000 -0.014230 
#    y 0.000000 1.763270 0.000000 
#    z -0.014230 0.000000 1.784540 
# 
# From -- ./inp_files/189505.got.cif
#   From: 2010.06.25/outbox.cif.g09.slc.cpg/sg12_95_cif.got.tgz:189505.got - 2010.06.28 00:19:55.
