data_PCOD8099097
_publ_section_title
;
Structure prediction by ZEFSAII (Michael W. Deem and Ramdas Pophale) SiO2 
 PCOD8099097
Probable space group: C 2/M
;
_chemical_formula_sum "Si O2"
_cell_formula_units_Z 56
_cell_length_a 17.860880
_cell_length_b 8.936464
_cell_length_c 18.614531
_cell_angle_alpha 90.000000
_cell_angle_beta 75.556053
_cell_angle_gamma 90.000000
_cell_volume 2877.212318
_symmetry_space_group_name_H-M "C 2/M"
_symmetry_group_IT_number 12
_symmetry_cell_setting 'monoclinic'
loop_
_space_group_symop_operation_xyz
x,y,z
-x,y,-z
-x,-y,-z
x,-y,z
1/2+x,1/2+y,z
1/2-x,1/2+y,-z
1/2-x,1/2-y,-z
1/2+x,1/2-y,z
loop_
_atom_site_type_symbol
_atom_site_label
_atom_site_fract_x
_atom_site_fract_y
_atom_site_fract_z
Si Si1 0.540067 0.672493 0.144143
Si Si2 0.764542 0.677856 0.281982
Si Si3 0.405021 0.677028 0.713519
Si Si4 0.614752 0.822795 0.865396
Si Si5 0.328564 0.327179 0.003850
Si Si6 0.806991 0.676974 0.429966
Si Si7 0.980217 0.674020 0.423202
O O1 0.512465 0.500000 0.152388
O O2 0.565787 0.730913 0.216008
O O3 0.471514 0.777191 0.134153
O O4 0.612258 0.693084 0.075042
O O5 0.764530 0.500000 0.281973
O O6 0.680706 0.742073 0.280197
O O7 0.827268 0.736930 0.209935
O O8 0.786768 0.737742 0.355522
O O9 0.402054 0.500000 0.710799
O O10 0.461987 0.734168 0.639389
O O11 0.636598 0.749111 0.934802
O O12 0.619856 0.000000 0.872637
O O13 0.312661 0.500000 0.024255
O O14 0.250000 0.250000 0.000000
O O15 0.797533 0.500000 0.437436
O O16 0.750000 0.750000 0.500000
O O17 0.893602 0.727663 0.427706
O O18 0.990794 0.500000 0.403131
O O19 0.000000 0.711972 0.500000
#
# Coordination Sequence:
#
# PCOD8099097 Si02
#       7
#     8   8   8   8   8   8   8
#     4  10  22  39  57  81 115 150 184 232 290 338
#     4   9  19  36  56  79 109 145 183 227 280 332
#     4  10  20  36  58  80 105 142 187 229 272 330
#     4  11  22  38  61  86 114 150 191 232 278 337
#     4  11  23  40  61  85 117 153 189 233 284 335
#     4  10  20  35  55  78 107 143 182 225 274 329
#     4  10  21  36  53  78 113 146 177 224 285 336
#
# _framework density 19.463284999999999
#
# number of rings (size 3 to 8) (size 9 to 14) (size 15 to 20)
#    0.000    1.857    0.000    3.857    0.000    7.714 
#    0.000    4.286    0.000    0.000    0.000    0.000 
#    0.000    0.000    0.000    0.000    0.000    0.000 
#
# Total GULP energy -347322.495191 kJ/mol
# GULP energy per Si atom -12404.374828 kJ/mol
# Density = 1.941899 g / cm^3
# Si number density = 19.463285 Si / 1000 Ang^3
#
#
#
# Elastic Constant Matrix: (Units=GPa)
#
#
# Indices 1 2 3 4 5 6 
#
# 1 154.3393 40.0672 38.0676 0.0000 14.8440 0.0000
# 2 40.0672 46.9525 21.2964 0.0000 2.6967 0.0000
# 3 38.0676 21.2964 71.5125 0.0000 16.5786 0.0000
# 4 0.0000 0.0000 0.0000 29.0789 0.0000 -7.4881
# 5 14.8440 2.6967 16.5786 0.0000 41.5768 0.0000
# 6 0.0000 0.0000 0.0000 -7.4881 0.0000 20.0372
#
#
#
# Elastic Compliance Matrix: (Units=1/GPa)
#
#
# Indices 1 2 3 4 5 6 
#
# 1 0.008912 -0.006404 -0.002419 0.000000 -0.001802 0.000000
# 2 -0.006404 0.029307 -0.005959 0.000000 0.002762 0.000000
# 3 -0.002419 -0.005959 0.018463 0.000000 -0.006112 0.000000
# 4 0.000000 0.000000 0.000000 0.038051 0.000000 0.014220
# 5 -0.001802 0.002762 -0.006112 0.000000 0.026953 0.000000
# 6 0.000000 0.000000 0.000000 0.014220 0.000000 0.055221
#
#
# Mechanical properties :
#
#
# Convention : Reuss Voigt Hill
#
# Bulk Modulus (GPa) = 36.87645 52.40742 44.64193
# Shear Modulus (GPa) = 23.20073 29.69681 26.44877
#
# Velocity S-wave (km/s) = 3.45632 3.91037 3.69033
# Velocity P-wave (km/s) = 5.90897 6.88278 6.41439
#
# Compressibility (1/GPa) = 0.02711758
#
# Stress axis : x y z
#
# Youngs Moduli (GPa) = 112.21171 34.12117 54.16324
#
# Poissons Ratio (x) = 0.21852 0.13102
# Poissons Ratio (y) = 0.71862 0.32275
# Poissons Ratio (z) = 0.27144 0.20332
#
# Static dielectric constant tensor:
#      x y z
#    x 2.486220 0.000000 -0.369170 
#    y 0.000000 3.403620 0.000000 
#    z -0.369170 0.000000 3.575360 
# 
# 
# High freq. dielectric constant tensor:
#      x y z
#    x 1.778510 0.000000 0.003280 
#    y 0.000000 1.739280 0.000000 
#    z 0.003280 0.000000 1.777410 
# 
# From -- ./inp_files/275202.got.cif
#   From: 2010.06.25/outbox.cif.g09.slc.cpg/sg12_138_cif.got.tgz:275202.got - 2010.06.28 00:19:55.
