data_PCOD8099547
_publ_section_title
;
Structure prediction by ZEFSAII (Michael W. Deem and Ramdas Pophale) SiO2 
 PCOD8099547
Probable space group: C 2/M
;
_chemical_formula_sum "Si O2"
_cell_formula_units_Z 48
_cell_length_a 15.113323
_cell_length_b 9.018205
_cell_length_c 20.575690
_cell_angle_alpha 90.000000
_cell_angle_beta 111.732307
_cell_angle_gamma 90.000000
_cell_volume 2605.041401
_symmetry_space_group_name_H-M "C 2/M"
_symmetry_group_IT_number 12
_symmetry_cell_setting 'monoclinic'
loop_
_space_group_symop_operation_xyz
x,y,z
-x,y,-z
-x,-y,-z
x,-y,z
1/2+x,1/2+y,z
1/2-x,1/2+y,-z
1/2-x,1/2-y,-z
1/2+x,1/2-y,z
loop_
_atom_site_type_symbol
_atom_site_label
_atom_site_fract_x
_atom_site_fract_y
_atom_site_fract_z
Si Si1 0.264181 0.823991 0.573376
Si Si2 0.761336 0.826577 0.071544
Si Si3 0.934736 0.174803 0.425292
Si Si4 0.045772 0.175649 0.330445
Si Si5 0.563901 0.826128 0.077328
Si Si6 0.967310 0.174428 0.170116
O O1 0.250000 0.750000 0.500000
O O2 0.174689 0.779363 0.594278
O O3 0.355442 0.760410 0.634458
O O4 0.272532 0.000000 0.566497
O O5 0.673683 0.784397 0.094355
O O6 0.858337 0.772369 0.131998
O O7 0.762523 0.000000 0.058035
O O8 0.750000 0.750000 0.000000
O O9 0.000000 0.245836 0.500000
O O10 0.972182 0.230632 0.365776
O O11 0.945521 0.000000 0.431507
O O12 0.001149 0.224986 0.250144
O O13 0.064181 0.000000 0.339430
O O14 0.534955 0.747783 0.135574
O O15 0.547980 0.000000 0.082033
O O16 0.500000 0.767275 0.000000
O O17 0.975598 0.000000 0.163655
#
# Coordination Sequence:
#
# PCOD8099547 Si02
#       6
#     8   8   8   8   8   8
#     4  11  21  35  59  87 111 145 188 229 275 327
#     4  10  20  35  56  82 109 144 187 227 274 329
#     4   9  17  33  58  82 106 145 186 218 265 332
#     4  10  21  39  57  79 114 147 184 231 277 329
#     4  10  20  35  57  84 112 144 183 231 279 327
#     4  10  22  37  56  82 112 147 183 229 281 330
#
# _framework density 18.425812000000001
#
# number of rings (size 3 to 8) (size 9 to 14) (size 15 to 20)
#    0.000    2.000    3.333    0.500    0.000    3.000 
#    0.000    5.833    0.000    0.000    0.000    0.000 
#    0.000    0.000    0.000    0.000    0.000    0.000 
#
# Total GULP energy -297627.173024 kJ/mol
# GULP energy per Si atom -12401.132209 kJ/mol
# Density = 1.838387 g / cm^3
# Si number density = 18.425812 Si / 1000 Ang^3
#
#
#
# Elastic Constant Matrix: (Units=GPa)
#
#
# Indices 1 2 3 4 5 6 
#
# 1 186.0298 45.2508 107.1482 0.0000 0.8844 0.0000
# 2 45.2508 36.3580 46.4760 0.0000 2.9880 0.0000
# 3 107.1482 46.4760 178.3156 0.0000 -2.7815 0.0000
# 4 0.0000 0.0000 0.0000 26.4037 0.0000 0.0412
# 5 0.8844 2.9880 -2.7815 0.0000 37.1583 0.0000
# 6 0.0000 0.0000 0.0000 0.0412 0.0000 30.1975
#
#
#
# Elastic Compliance Matrix: (Units=1/GPa)
#
#
# Indices 1 2 3 4 5 6 
#
# 1 0.009152 -0.006543 -0.003794 0.000000 0.000024 0.000000
# 2 -0.006543 0.046566 -0.008271 0.000000 -0.004208 0.000000
# 3 -0.003794 -0.008271 0.010067 0.000000 0.001509 0.000000
# 4 0.000000 0.000000 0.000000 0.037874 0.000000 -0.000052
# 5 0.000024 -0.004208 0.001509 0.000000 0.027363 0.000000
# 6 0.000000 0.000000 0.000000 -0.000052 0.000000 0.033115
#
#
# Mechanical properties :
#
#
# Convention : Reuss Voigt Hill
#
# Bulk Modulus (GPa) = 35.00198 88.71703 61.85950
# Shear Modulus (GPa) = 23.71071 32.20712 27.95892
#
# Velocity S-wave (km/s) = 3.59112 4.18537 3.89958
# Velocity P-wave (km/s) = 6.01932 8.46222 7.34307
#
# Compressibility (1/GPa) = 0.02856981
#
# Stress axis : x y z
#
# Youngs Moduli (GPa) = 109.26654 21.47474 99.33668
#
# Poissons Ratio (x) = 0.14051 0.37684
# Poissons Ratio (y) = 0.71495 0.82160
# Poissons Ratio (z) = 0.41450 0.17762
#
# Static dielectric constant tensor:
#      x y z
#    x 3.897570 0.000000 0.255710 
#    y 0.000000 3.244670 0.000000 
#    z 0.255710 0.000000 3.691950 
# 
# 
# High freq. dielectric constant tensor:
#      x y z
#    x 1.733220 0.000000 0.000780 
#    y 0.000000 1.692860 0.000000 
#    z 0.000780 0.000000 1.715450 
# 
# From -- ./inp_files/308582.got.cif
#   From: 2010.06.25/outbox.cif.g09.slc.cpg/sg12_155_cif.got.tgz:308582.got - 2010.06.28 00:19:55.
