data_PCOD8099143
_publ_section_title
;
Structure prediction by ZEFSAII (Michael W. Deem and Ramdas Pophale) SiO2 
 PCOD8099143
Probable space group: C 2/M
;
_chemical_formula_sum "Si O2"
_cell_formula_units_Z 56
_cell_length_a 15.923533
_cell_length_b 9.025852
_cell_length_c 19.190113
_cell_angle_alpha 90.000000
_cell_angle_beta 89.347698
_cell_angle_gamma 90.000000
_cell_volume 2757.890548
_symmetry_space_group_name_H-M "C 2/M"
_symmetry_group_IT_number 12
_symmetry_cell_setting 'monoclinic'
loop_
_space_group_symop_operation_xyz
x,y,z
-x,y,-z
-x,-y,-z
x,-y,z
1/2+x,1/2+y,z
1/2-x,1/2+y,-z
1/2-x,1/2-y,-z
1/2+x,1/2-y,z
loop_
_atom_site_type_symbol
_atom_site_label
_atom_site_fract_x
_atom_site_fract_y
_atom_site_fract_z
Si Si1 0.000519 0.323976 0.421203
Si Si2 0.080185 0.330697 0.794597
Si Si3 0.086515 0.829155 0.216785
Si Si4 0.159594 0.830856 0.919548
Si Si5 0.334675 0.175783 0.662177
Si Si6 0.166587 0.670186 0.654140
Si Si7 0.829365 0.167500 0.925824
O O1 0.000819 0.500000 0.418581
O O2 0.085762 0.266664 0.383569
O O3 0.000000 0.263831 0.500000
O O4 0.916405 0.266063 0.383581
O O5 0.051143 0.500000 0.802496
O O6 0.106469 0.272440 0.869643
O O7 0.155050 0.315870 0.737904
O O8 0.003414 0.238152 0.764265
O O9 0.156916 0.742861 0.260332
O O10 0.101710 0.807149 0.134278
O O11 0.089033 0.000000 0.238560
O O12 0.256784 0.786741 0.915761
O O13 0.149978 0.000000 0.894575
O O14 0.126713 0.810202 0.999239
O O15 0.247823 0.235837 0.629954
O O16 0.330400 0.000000 0.665889
O O17 0.181727 0.500000 0.632434
O O18 0.791933 0.000000 0.921279
#
# Coordination Sequence:
#
# PCOD8099143 Si02
#       7
#     8   8   8   8   8   8   8
#     4   9  19  39  64  88 121 162 197 234 290 354
#     4  11  22  37  56  81 115 152 194 243 295 351
#     4  11  22  37  58  82 112 152 195 243 296 349
#     4  10  20  35  55  79 108 146 193 243 293 350
#     4  11  22  38  61  92 122 155 199 246 291 346
#     4  10  21  39  61  87 120 160 198 239 294 351
#     4   9  20  37  54  76 109 148 191 241 297 353
#
# _framework density 20.305375000000002
#
# number of rings (size 3 to 8) (size 9 to 14) (size 15 to 20)
#    0.000    1.857    1.429    2.571    0.000    7.429 
#    0.000    2.857    0.000    3.000    0.000    0.000 
#    0.000    0.000    0.000    0.000    0.000    0.000 
#
# Total GULP energy -347236.945728 kJ/mol
# GULP energy per Si atom -12401.319490 kJ/mol
# Density = 2.025916 g / cm^3
# Si number density = 20.305375 Si / 1000 Ang^3
#
#
#
# Elastic Constant Matrix: (Units=GPa)
#
#
# Indices 1 2 3 4 5 6 
#
# 1 132.4528 47.6243 50.2140 0.0000 3.8813 0.0000
# 2 47.6243 81.1463 43.9312 0.0000 -2.3953 0.0000
# 3 50.2140 43.9312 110.1653 0.0000 4.6798 0.0000
# 4 0.0000 0.0000 0.0000 18.4620 0.0000 3.0824
# 5 3.8813 -2.3953 4.6798 0.0000 26.4205 0.0000
# 6 0.0000 0.0000 0.0000 3.0824 0.0000 37.0246
#
#
#
# Elastic Compliance Matrix: (Units=1/GPa)
#
#
# Indices 1 2 3 4 5 6 
#
# 1 0.010299 -0.004563 -0.002814 0.000000 -0.001428 0.000000
# 2 -0.004563 0.017911 -0.005199 0.000000 0.003215 0.000000
# 3 -0.002814 -0.005199 0.012530 0.000000 -0.002277 0.000000
# 4 0.000000 0.000000 0.000000 0.054929 0.000000 -0.004573
# 5 -0.001428 0.003215 -0.002277 0.000000 0.038754 0.000000
# 6 0.000000 0.000000 0.000000 -0.004573 0.000000 0.027390
#
#
# Mechanical properties :
#
#
# Convention : Reuss Voigt Hill
#
# Bulk Modulus (GPa) = 64.15413 67.47817 65.81615
# Shear Modulus (GPa) = 26.01970 28.51441 27.26705
#
# Velocity S-wave (km/s) = 3.58358 3.75144 3.66847
# Velocity P-wave (km/s) = 6.98469 7.21583 7.10120
#
# Compressibility (1/GPa) = 0.01558746
#
# Stress axis : x y z
#
# Youngs Moduli (GPa) = 97.09380 55.83092 79.80848
#
# Poissons Ratio (x) = 0.25477 0.22459
# Poissons Ratio (y) = 0.44307 0.41494
# Poissons Ratio (z) = 0.27323 0.29027
#
# Static dielectric constant tensor:
#      x y z
#    x 3.593340 0.000000 0.037160 
#    y 0.000000 3.553610 0.000000 
#    z 0.037160 0.000000 3.801360 
# 
# 
# High freq. dielectric constant tensor:
#      x y z
#    x 1.787580 0.000000 0.002660 
#    y 0.000000 1.781990 0.000000 
#    z 0.002660 0.000000 1.794700 
# 
# From -- ./inp_files/308976.got.cif
#   From: 2010.06.25/outbox.cif.g09.slc.cpg/sg12_155_cif.got.tgz:308976.got - 2010.06.28 00:19:55.
