data_PCOD8099632
_publ_section_title
;
Structure prediction by ZEFSAII (Michael W. Deem and Ramdas Pophale) SiO2 
 PCOD8099632
Probable space group: C 2/M
;
_chemical_formula_sum "Si O2"
_cell_formula_units_Z 64
_cell_length_a 28.925580
_cell_length_b 9.187335
_cell_length_c 14.222600
_cell_angle_alpha 90.000000
_cell_angle_beta 121.458179
_cell_angle_gamma 90.000000
_cell_volume 3224.114883
_symmetry_space_group_name_H-M "C 2/M"
_symmetry_group_IT_number 12
_symmetry_cell_setting 'monoclinic'
loop_
_space_group_symop_operation_xyz
x,y,z
-x,y,-z
-x,-y,-z
x,-y,z
1/2+x,1/2+y,z
1/2-x,1/2+y,-z
1/2-x,1/2-y,-z
1/2+x,1/2-y,z
loop_
_atom_site_type_symbol
_atom_site_label
_atom_site_fract_x
_atom_site_fract_y
_atom_site_fract_z
Si Si1 0.157847 0.165796 0.128647
Si Si2 0.935309 0.839554 0.527677
Si Si3 0.318394 0.336441 0.497508
Si Si4 0.480290 0.168026 0.736248
Si Si5 0.914671 0.169812 0.123468
Si Si6 0.719249 0.167661 0.713068
Si Si7 0.866351 0.330535 0.711863
Si Si8 0.624865 0.670784 0.714840
O O1 0.221687 0.182726 0.178666
O O2 0.136253 0.272776 0.185531
O O3 0.143534 0.000000 0.142190
O O4 0.128956 0.211151 0.001528
O O5 0.876574 0.841244 0.511629
O O6 0.973795 0.727468 0.622760
O O7 0.926176 0.795141 0.408897
O O8 0.962050 0.000000 0.563384
O O9 0.296099 0.500000 0.490342
O O10 0.278899 0.248804 0.385788
O O11 0.322194 0.253633 0.601141
O O12 0.529673 0.247445 0.840571
O O13 0.426816 0.199614 0.739573
O O14 0.494066 0.000000 0.743454
O O15 0.891222 0.221793 0.198521
O O16 0.927821 0.000000 0.139057
O O17 0.677657 0.239438 0.741403
O O18 0.702666 0.000000 0.678807
O O19 0.851956 0.500000 0.693432
O O20 0.639556 0.500000 0.725054
#
# Coordination Sequence:
#
# PCOD8099632 Si02
#       8
#     8   8   8   8   8   8   8   8
#     4  10  23  40  56  78 108 145 190 231 267 321
#     4   8  15  30  53  80 108 139 174 213 263 325
#     4   9  17  32  56  84 112 143 180 219 266 329
#     4  10  21  36  55  82 112 140 175 223 278 328
#     4  10  22  40  58  77 106 146 191 230 266 319
#     4  10  20  35  56  83 114 144 177 223 277 325
#     4  10  21  37  58  83 112 145 179 224 279 327
#     4   9  19  36  58  83 110 143 183 224 268 324
#
# _framework density 19.85041
#
# number of rings (size 3 to 8) (size 9 to 14) (size 15 to 20)
#    0.000    2.500    0.000    2.250    0.000    8.500 
#    0.000    5.000    0.000    0.000    0.000    0.000 
#    0.000    0.000    0.000    0.000    0.000    0.000 
#
# Total GULP energy -396863.847193 kJ/mol
# GULP energy per Si atom -12401.995225 kJ/mol
# Density = 1.980523 g / cm^3
# Si number density = 19.850410 Si / 1000 Ang^3
#
#
#
# Elastic Constant Matrix: (Units=GPa)
#
#
# Indices 1 2 3 4 5 6 
#
# 1 43.0866 31.1222 20.9605 0.0000 -9.3087 0.0000
# 2 31.1222 92.7511 38.3701 0.0000 0.2754 0.0000
# 3 20.9605 38.3701 110.3700 0.0000 -1.5434 0.0000
# 4 0.0000 0.0000 0.0000 26.9792 0.0000 2.7751
# 5 -9.3087 0.2754 -1.5434 0.0000 31.1566 0.0000
# 6 0.0000 0.0000 0.0000 2.7751 0.0000 28.0433
#
#
#
# Elastic Compliance Matrix: (Units=1/GPa)
#
#
# Indices 1 2 3 4 5 6 
#
# 1 0.034250 -0.010384 -0.002752 0.000000 0.010188 0.000000
# 2 -0.010384 0.015744 -0.003549 0.000000 -0.003417 0.000000
# 3 -0.002752 -0.003549 0.010813 0.000000 -0.000255 0.000000
# 4 0.000000 0.000000 0.000000 0.037447 0.000000 -0.003706
# 5 0.010188 -0.003417 -0.000255 0.000000 0.035157 0.000000
# 6 0.000000 0.000000 0.000000 -0.003706 0.000000 0.036026
#
#
# Mechanical properties :
#
#
# Convention : Reuss Voigt Hill
#
# Bulk Modulus (GPa) = 36.44740 47.45703 41.95221
# Shear Modulus (GPa) = 23.59011 27.61948 25.60479
#
# Velocity S-wave (km/s) = 3.45105 3.73417 3.59540
# Velocity P-wave (km/s) = 5.85496 6.52313 6.19806
#
# Compressibility (1/GPa) = 0.02743680
#
# Stress axis : x y z
#
# Youngs Moduli (GPa) = 29.19749 63.51500 92.47813
#
# Poissons Ratio (x) = 0.65955 0.25449
# Poissons Ratio (y) = 0.30319 0.32823
# Poissons Ratio (z) = 0.08035 0.22543
#
# Static dielectric constant tensor:
#      x y z
#    x 3.407740 0.000000 -0.052140 
#    y 0.000000 3.673770 0.000000 
#    z -0.052140 0.000000 3.717380 
# 
# 
# High freq. dielectric constant tensor:
#      x y z
#    x 1.766310 0.000000 0.000930 
#    y 0.000000 1.774920 0.000000 
#    z 0.000930 0.000000 1.773460 
# 
# From -- ./inp_files/249947.got.cif
#   From: 2010.06.25/outbox.cif.g09.slc.cpg/sg12_125_cif.got.tgz:249947.got - 2010.06.28 00:19:55.
