data_PCOD8099654
_publ_section_title
;
Structure prediction by ZEFSAII (Michael W. Deem and Ramdas Pophale) SiO2 
 PCOD8099654
Probable space group: C 2/M
;
_chemical_formula_sum "Si O2"
_cell_formula_units_Z 56
_cell_length_a 28.854424
_cell_length_b 13.522350
_cell_length_c 7.621452
_cell_angle_alpha 90.000000
_cell_angle_beta 67.548449
_cell_angle_gamma 90.000000
_cell_volume 2748.334434
_symmetry_space_group_name_H-M "C 2/M"
_symmetry_group_IT_number 12
_symmetry_cell_setting 'monoclinic'
loop_
_space_group_symop_operation_xyz
x,y,z
-x,y,-z
-x,-y,-z
x,-y,z
1/2+x,1/2+y,z
1/2-x,1/2+y,-z
1/2-x,1/2-y,-z
1/2+x,1/2-y,z
loop_
_atom_site_type_symbol
_atom_site_label
_atom_site_fract_x
_atom_site_fract_y
_atom_site_fract_z
Si Si1 0.797322 0.181347 0.459480
Si Si2 0.490572 0.390705 0.218217
Si Si3 0.558930 0.888338 0.437835
Si Si4 0.916839 0.759876 0.886034
Si Si5 0.189985 0.815873 0.935371
Si Si6 0.093843 0.256465 0.690621
Si Si7 0.257004 0.110091 0.144689
O O1 0.750000 0.250000 0.500000
O O2 0.806283 0.128619 0.258672
O O3 0.847508 0.241997 0.435675
O O4 0.783236 0.108090 0.637695
O O5 0.489906 0.500000 0.305140
O O6 0.535189 0.325716 0.237004
O O7 0.436892 0.339881 0.330230
O O8 0.500000 0.400112 0.000000
O O9 0.500000 0.879201 0.500000
O O10 0.585851 0.833127 0.238756
O O11 0.574931 0.849154 0.605922
O O12 0.577794 0.000000 0.400747
O O13 0.867284 0.824871 0.919296
O O14 0.917565 0.723114 0.087380
O O15 0.202286 0.697651 0.895278
O O16 0.226952 0.872090 0.009473
O O17 0.281814 0.000000 0.101162
#
# Coordination Sequence:
#
# PCOD8099654 Si02
#       7
#     8   8   8   8   8   8   8
#     4   9  19  37  58  81 111 150 191 238 287 339
#     4   9  18  33  55  82 109 141 182 228 280 340
#     4  11  23  37  56  84 115 150 196 240 281 336
#     4  10  20  38  59  80 114 153 189 235 287 343
#     4   9  20  37  57  81 114 153 191 236 290 341
#     4  10  20  38  60  81 115 154 188 233 293 342
#     4  10  20  35  56  83 115 150 193 239 286 342
#
# _framework density 20.375979000000001
#
# number of rings (size 3 to 8) (size 9 to 14) (size 15 to 20)
#    0.000    2.286    1.429    0.857    0.000    2.857 
#    0.000   11.429    0.000    0.000    0.000    0.000 
#    0.000    0.000    0.000    0.000    0.000    0.000 
#
# Total GULP energy -347052.825114 kJ/mol
# GULP energy per Si atom -12394.743754 kJ/mol
# Density = 2.032960 g / cm^3
# Si number density = 20.375979 Si / 1000 Ang^3
#
#
#
# Elastic Constant Matrix: (Units=GPa)
#
#
# Indices 1 2 3 4 5 6 
#
# 1 97.9758 16.1037 17.9590 0.0000 -11.4959 0.0000
# 2 16.1037 90.6881 23.4442 0.0000 2.2035 0.0000
# 3 17.9590 23.4442 63.6989 0.0000 2.1711 0.0000
# 4 0.0000 0.0000 0.0000 14.2012 0.0000 0.8457
# 5 -11.4959 2.2035 2.1711 0.0000 39.3818 0.0000
# 6 0.0000 0.0000 0.0000 0.8457 0.0000 14.6976
#
#
#
# Elastic Compliance Matrix: (Units=1/GPa)
#
#
# Indices 1 2 3 4 5 6 
#
# 1 0.011366 -0.001376 -0.002819 0.000000 0.003550 0.000000
# 2 -0.001376 0.012360 -0.004132 0.000000 -0.000865 0.000000
# 3 -0.002819 -0.004132 0.018068 0.000000 -0.001588 0.000000
# 4 0.000000 0.000000 0.000000 0.070659 0.000000 -0.004066
# 5 0.003550 -0.000865 -0.001588 0.000000 0.026565 0.000000
# 6 0.000000 0.000000 0.000000 -0.004066 0.000000 0.068272
#
#
# Mechanical properties :
#
#
# Convention : Reuss Voigt Hill
#
# Bulk Modulus (GPa) = 39.77508 40.81965 40.29736
# Shear Modulus (GPa) = 21.52162 26.64649 24.08405
#
# Velocity S-wave (km/s) = 3.25349 3.62019 3.44173
# Velocity P-wave (km/s) = 5.80315 6.12790 5.96773
#
# Compressibility (1/GPa) = 0.02514137
#
# Stress axis : x y z
#
# Youngs Moduli (GPa) = 87.98135 80.90441 55.34496
#
# Poissons Ratio (x) = 0.11131 0.15603
# Poissons Ratio (y) = 0.12104 0.22867
# Poissons Ratio (z) = 0.24803 0.33428
#
# Static dielectric constant tensor:
#      x y z
#    x 3.767270 0.000000 0.053670 
#    y 0.000000 3.662990 0.000000 
#    z 0.053670 0.000000 4.095990 
# 
# 
# High freq. dielectric constant tensor:
#      x y z
#    x 1.805960 0.000000 0.004570 
#    y 0.000000 1.766770 0.000000 
#    z 0.004570 0.000000 1.802680 
# 
# From -- ./inp_files/110362.got.cif
#   From: 2010.06.25/outbox.cif.g09.slc.cpg/sg12_56_cif.got.tgz:110362.got - 2010.06.28 00:19:55.
