data_PCOD8099286
_publ_section_title
;
Structure prediction by ZEFSAII (Michael W. Deem and Ramdas Pophale) SiO2 
 PCOD8099286
Probable space group: C 2/M
;
_chemical_formula_sum "Si O2"
_cell_formula_units_Z 56
_cell_length_a 25.267632
_cell_length_b 8.421086
_cell_length_c 14.173151
_cell_angle_alpha 90.000000
_cell_angle_beta 57.897779
_cell_angle_gamma 90.000000
_cell_volume 2554.667713
_symmetry_space_group_name_H-M "C 2/M"
_symmetry_group_IT_number 12
_symmetry_cell_setting 'monoclinic'
loop_
_space_group_symop_operation_xyz
x,y,z
-x,y,-z
-x,-y,-z
x,-y,z
1/2+x,1/2+y,z
1/2-x,1/2+y,-z
1/2-x,1/2-y,-z
1/2+x,1/2-y,z
loop_
_atom_site_type_symbol
_atom_site_label
_atom_site_fract_x
_atom_site_fract_y
_atom_site_fract_z
Si Si1 0.598944 0.818560 0.491359
Si Si2 0.695433 0.186177 0.248413
Si Si3 0.163457 0.812037 0.887628
Si Si4 0.364396 0.686278 0.874104
Si Si5 0.506413 0.685775 0.718927
Si Si6 0.316811 0.318722 0.438665
Si Si7 0.400591 0.184919 0.220071
O O1 0.638833 0.739992 0.366881
O O2 0.536073 0.729935 0.587572
O O3 0.644340 0.805422 0.536967
O O4 0.580938 0.000000 0.486978
O O5 0.765764 0.244919 0.208726
O O6 0.682415 0.225431 0.152252
O O7 0.693712 0.000000 0.267791
O O8 0.106467 0.726221 0.884413
O O9 0.155897 0.000000 0.885762
O O10 0.153095 0.758367 0.004989
O O11 0.355576 0.500000 0.868447
O O12 0.434918 0.738388 0.782767
O O13 0.515460 0.500000 0.726572
O O14 0.536254 0.769685 0.783536
O O15 0.320226 0.500000 0.471714
O O16 0.250000 0.250000 0.500000
O O17 0.344991 0.300815 0.308224
O O18 0.387953 0.000000 0.247743
#
# Coordination Sequence:
#
# PCOD8099286 Si02
#       7
#     8   8   8   8   8   8   8
#     4  10  20  35  55  83 114 149 190 235 286 345
#     4  10  22  38  60  86 115 149 188 236 293 342
#     4  10  21  40  61  85 116 152 190 237 292 348
#     4  10  23  40  61  84 112 152 198 240 285 341
#     4  10  21  39  59  84 116 154 193 235 286 344
#     4  11  20  32  52  80 114 152 189 234 286 342
#     4  11  22  36  57  86 115 150 191 237 288 344
#
# _framework density 21.920658
#
# number of rings (size 3 to 8) (size 9 to 14) (size 15 to 20)
#    0.000    1.714    0.000    6.429    0.000    5.714 
#    0.000    5.714    0.000    0.000    0.000    0.000 
#    0.000    0.000    0.000    0.000    0.000    0.000 
#
# Total GULP energy -346908.689152 kJ/mol
# GULP energy per Si atom -12389.596041 kJ/mol
# Density = 2.187077 g / cm^3
# Si number density = 21.920658 Si / 1000 Ang^3
#
#
#
# Elastic Constant Matrix: (Units=GPa)
#
#
# Indices 1 2 3 4 5 6 
#
# 1 38.1780 18.6258 3.4067 0.0000 -0.4241 0.0000
# 2 18.6258 54.0585 13.2987 0.0000 4.4961 0.0001
# 3 3.4067 13.2987 89.6393 0.0000 1.4725 0.0000
# 4 0.0000 0.0000 0.0000 29.3551 0.0000 6.1486
# 5 -0.4241 4.4961 1.4725 0.0000 37.9606 0.0000
# 6 0.0000 0.0001 0.0000 6.1486 0.0000 27.8442
#
#
#
# Elastic Compliance Matrix: (Units=1/GPa)
#
#
# Indices 1 2 3 4 5 6 
#
# 1 0.031604 -0.011131 0.000423 0.000000 0.001655 0.000000
# 2 -0.011131 0.023299 -0.002988 0.000000 -0.002768 0.000000
# 3 0.000423 -0.002988 0.011585 0.000000 -0.000091 0.000000
# 4 0.000000 0.000000 0.000000 0.035718 0.000000 -0.007887
# 5 0.001655 -0.002768 -0.000091 0.000000 0.026693 0.000000
# 6 0.000000 0.000000 0.000000 -0.007887 0.000000 0.037656
#
#
# Mechanical properties :
#
#
# Convention : Reuss Voigt Hill
#
# Bulk Modulus (GPa) = 25.57821 28.05979 26.81900
# Shear Modulus (GPa) = 24.15717 28.80160 26.47939
#
# Velocity S-wave (km/s) = 3.32328 3.62871 3.47935
# Velocity P-wave (km/s) = 5.13999 5.51227 5.32938
#
# Compressibility (1/GPa) = 0.03909577
#
# Stress axis : x y z
#
# Youngs Moduli (GPa) = 31.64141 42.92040 86.32196
#
# Poissons Ratio (x) = 0.47774 -0.03652
# Poissons Ratio (y) = 0.35220 0.25794
# Poissons Ratio (z) = -0.01339 0.12825
#
# Static dielectric constant tensor:
#      x y z
#    x 3.835250 0.000000 -0.033870 
#    y 0.000000 3.731800 0.000000 
#    z -0.033870 0.000000 4.255880 
# 
# 
# High freq. dielectric constant tensor:
#      x y z
#    x 1.862300 0.000000 0.000130 
#    y 0.000000 1.847520 0.000000 
#    z 0.000130 0.000000 1.867210 
# 
# From -- ./inp_files/238312.got.cif
#   From: 2010.06.25/outbox.cif.g09.slc.cpg/sg12_120_cif.got.tgz:238312.got - 2010.06.28 00:19:55.
