data_PCOD8099521
_publ_section_title
;
Structure prediction by ZEFSAII (Michael W. Deem and Ramdas Pophale) SiO2 
 PCOD8099521
Probable space group: C 2/M
;
_chemical_formula_sum "Si O2"
_cell_formula_units_Z 64
_cell_length_a 18.664063
_cell_length_b 8.835421
_cell_length_c 30.812903
_cell_angle_alpha 90.000000
_cell_angle_beta 41.022055
_cell_angle_gamma 90.000000
_cell_volume 3335.041253
_symmetry_space_group_name_H-M "C 2/M"
_symmetry_group_IT_number 12
_symmetry_cell_setting 'monoclinic'
loop_
_space_group_symop_operation_xyz
x,y,z
-x,y,-z
-x,-y,-z
x,-y,z
1/2+x,1/2+y,z
1/2-x,1/2+y,-z
1/2-x,1/2-y,-z
1/2+x,1/2-y,z
loop_
_atom_site_type_symbol
_atom_site_label
_atom_site_fract_x
_atom_site_fract_y
_atom_site_fract_z
Si Si1 0.043184 0.675717 0.697373
Si Si2 0.189015 0.176713 0.189843
Si Si3 0.922516 0.676597 0.923992
Si Si4 0.877997 0.325779 0.563378
Si Si5 0.151316 0.821875 0.815207
Si Si6 0.725581 0.675205 0.075108
Si Si7 0.290573 0.825559 0.301304
Si Si8 0.714354 0.675391 0.560627
O O1 0.014848 0.500000 0.703352
O O2 0.113214 0.702573 0.708517
O O3 0.108202 0.736346 0.626012
O O4 0.935649 0.774137 0.751141
O O5 0.257109 0.269290 0.193384
O O6 0.236189 0.214506 0.120732
O O7 0.198353 0.000000 0.196155
O O8 0.945989 0.500000 0.910103
O O9 0.873109 0.729705 0.900617
O O10 0.035305 0.757456 0.883150
O O11 0.839842 0.719065 0.000505
O O12 0.878453 0.500000 0.578144
O O13 0.824163 0.228623 0.626360
O O14 0.813704 0.303599 0.548222
O O15 0.000000 0.265078 0.500000
O O16 0.182165 0.770030 0.753227
O O17 0.144548 0.000000 0.818931
O O18 0.697566 0.500000 0.080132
O O19 0.280273 0.000000 0.292940
O O20 0.684667 0.500000 0.567472
O O21 0.750000 0.750000 0.500000
#
# Coordination Sequence:
#
# PCOD8099521 Si02
#       8
#     8   8   8   8   8   8   8   8
#     4  10  21  38  59  83 111 145 187 232 280 335
#     4  11  23  39  58  82 113 147 186 231 282 335
#     4  10  20  37  61  87 115 147 187 231 275 330
#     4   9  19  36  57  81 110 146 186 228 276 328
#     4  12  25  39  56  81 115 151 188 231 282 335
#     4   9  20  38  61  87 114 148 187 229 278 332
#     4  10  21  38  60  84 111 146 189 234 278 330
#     4  10  20  35  56  81 111 147 186 231 281 331
#
# _framework density 19.190169000000001
#
# number of rings (size 3 to 8) (size 9 to 14) (size 15 to 20)
#    0.000    1.875    0.000    3.750    0.000    7.250 
#    0.000    6.250    0.000    0.000    0.000    0.000 
#    0.000    0.000    0.000    0.000    0.000    0.000 
#
# Total GULP energy -396974.911980 kJ/mol
# GULP energy per Si atom -12405.465999 kJ/mol
# Density = 1.914649 g / cm^3
# Si number density = 19.190169 Si / 1000 Ang^3
#
#
#
# Elastic Constant Matrix: (Units=GPa)
#
#
# Indices 1 2 3 4 5 6 
#
# 1 56.9342 35.6000 46.7180 0.0006 -1.8662 0.0025
# 2 35.6000 84.9876 37.4983 0.0004 0.1050 0.0035
# 3 46.7180 37.4983 111.8768 0.0002 -3.1540 0.0007
# 4 0.0006 0.0004 0.0002 35.2541 -0.0001 -2.7777
# 5 -1.8662 0.1050 -3.1540 -0.0001 36.1705 0.0009
# 6 0.0025 0.0035 0.0007 -2.7777 0.0009 33.2460
#
#
#
# Elastic Compliance Matrix: (Units=1/GPa)
#
#
# Indices 1 2 3 4 5 6 
#
# 1 0.031335 -0.008640 -0.010168 0.000000 0.000755 -0.000001
# 2 -0.008640 0.016198 -0.001840 0.000000 -0.000653 -0.000001
# 3 -0.010168 -0.001840 0.013820 0.000000 0.000686 0.000001
# 4 0.000000 0.000000 0.000000 0.028554 0.000000 0.002386
# 5 0.000755 -0.000653 0.000686 0.000000 0.027748 -0.000001
# 6 -0.000001 -0.000001 0.000001 0.002386 -0.000001 0.030278
#
#
# Mechanical properties :
#
#
# Convention : Reuss Voigt Hill
#
# Bulk Modulus (GPa) = 49.85540 54.82567 52.34053
# Shear Modulus (GPa) = 25.52153 29.86628 27.69390
#
# Velocity S-wave (km/s) = 3.65077 3.94932 3.80298
# Velocity P-wave (km/s) = 6.61868 7.03049 6.82769
#
# Compressibility (1/GPa) = 0.02005801
#
# Stress axis : x y z
#
# Youngs Moduli (GPa) = 31.91357 61.73516 72.35841
#
# Poissons Ratio (x) = 0.53342 0.73570
# Poissons Ratio (y) = 0.27575 0.13311
# Poissons Ratio (z) = 0.32448 0.11356
#
# Static dielectric constant tensor:
#      x y z
#    x 3.437770 -0.000010 -0.018960 
#    y -0.000010 3.666450 0.000000 
#    z -0.018960 0.000000 3.684050 
# 
# 
# High freq. dielectric constant tensor:
#      x y z
#    x 1.740610 0.000000 -0.000500 
#    y 0.000000 1.758040 0.000000 
#    z -0.000500 0.000000 1.760420 
# 
# From -- ./inp_files/378217.got.cif
#   From: 2010.06.25/outbox.cif.g09.slc.cpg/sg12_190_cif.got.tgz:378217.got - 2010.06.28 00:19:55.
