data_PCOD8099030
_publ_section_title
;
Structure prediction by ZEFSAII (Michael W. Deem and Ramdas Pophale) SiO2 
 PCOD8099030
Probable space group: C 2/M
;
_chemical_formula_sum "Si O2"
_cell_formula_units_Z 56
_cell_length_a 24.516689
_cell_length_b 13.975391
_cell_length_c 9.402325
_cell_angle_alpha 90.000000
_cell_angle_beta 67.263161
_cell_angle_gamma 90.000000
_cell_volume 2971.176411
_symmetry_space_group_name_H-M "C 2/M"
_symmetry_group_IT_number 12
_symmetry_cell_setting 'monoclinic'
loop_
_space_group_symop_operation_xyz
x,y,z
-x,y,-z
-x,-y,-z
x,-y,z
1/2+x,1/2+y,z
1/2-x,1/2+y,-z
1/2-x,1/2-y,-z
1/2+x,1/2-y,z
loop_
_atom_site_type_symbol
_atom_site_label
_atom_site_fract_x
_atom_site_fract_y
_atom_site_fract_z
Si Si1 0.657117 0.893303 0.527678
Si Si2 0.166127 0.392812 0.191554
Si Si3 0.106328 0.201065 0.560665
Si Si4 0.728638 0.389686 0.411002
Si Si5 0.501233 0.388590 0.831431
Si Si6 0.101401 0.208883 0.237215
Si Si7 0.222018 0.111318 0.093282
O O1 0.680283 0.893017 0.343544
O O2 0.604289 0.815423 0.597616
O O3 0.712358 0.861016 0.566360
O O4 0.634049 0.000000 0.593232
O O5 0.150817 0.500000 0.151510
O O6 0.110437 0.323710 0.214771
O O7 0.225035 0.350203 0.059067
O O8 0.173358 0.169947 0.524703
O O9 0.089079 0.179803 0.413831
O O10 0.064537 0.141966 0.706843
O O11 0.712580 0.500000 0.449816
O O12 0.740376 0.365399 0.235321
O O13 0.489412 0.500000 0.810074
O O14 0.453024 0.323005 0.803423
O O15 0.500000 0.368329 0.000000
O O16 0.160156 0.159929 0.116599
O O17 0.212946 0.000000 0.074091
#
# Coordination Sequence:
#
# PCOD8099030 Si02
#       7
#     8   8   8   8   8   8   8
#     4   9  18  32  51  78 109 138 171 211 253 298
#     4   9  18  32  51  78 109 138 171 211 253 298
#     4  10  20  35  55  76 102 140 178 210 251 304
#     4   9  17  29  48  76 106 136 172 212 255 304
#     4  11  25  41  56  77 102 128 165 215 264 307
#     4  10  20  35  55  76 102 140 178 210 251 304
#     4   9  17  29  48  76 106 136 172 212 255 304
#
# _framework density 18.847753000000001
#
# number of rings (size 3 to 8) (size 9 to 14) (size 15 to 20)
#    0.000    2.429    0.000    2.143    0.000    4.571 
#    0.000    3.571    0.000    4.286    0.000    0.000 
#    0.000    0.000    0.000    0.000    0.000    0.000 
#
# Total GULP energy -347168.976417 kJ/mol
# GULP energy per Si atom -12398.892015 kJ/mol
# Density = 1.880485 g / cm^3
# Si number density = 18.847753 Si / 1000 Ang^3
#
#
#
# Elastic Constant Matrix: (Units=GPa)
#
#
# Indices 1 2 3 4 5 6 
#
# 1 55.8643 16.6005 12.7529 0.0000 13.9455 0.0000
# 2 16.6005 45.9363 15.9032 0.0000 0.4038 0.0000
# 3 12.7529 15.9032 65.8128 0.0000 -8.2104 0.0000
# 4 0.0000 0.0000 0.0000 24.5888 0.0000 -1.6365
# 5 13.9455 0.4038 -8.2104 0.0000 22.0183 0.0000
# 6 0.0000 0.0000 0.0000 -1.6365 0.0000 26.5888
#
#
#
# Elastic Compliance Matrix: (Units=1/GPa)
#
#
# Indices 1 2 3 4 5 6 
#
# 1 0.025911 -0.007281 -0.005550 0.000000 -0.018347 0.000000
# 2 -0.007281 0.025957 -0.004558 0.000000 0.002436 0.000000
# 3 -0.005550 -0.004558 0.018690 0.000000 0.010568 0.000000
# 4 0.000000 0.000000 0.000000 0.040836 0.000000 0.002513
# 5 -0.018347 0.002436 0.010568 0.000000 0.060933 0.000000
# 6 0.000000 0.000000 0.000000 0.002513 0.000000 0.037765
#
#
# Mechanical properties :
#
#
# Convention : Reuss Voigt Hill
#
# Bulk Modulus (GPa) = 27.94850 28.68073 28.31462
# Shear Modulus (GPa) = 19.47067 22.79630 21.13349
#
# Velocity S-wave (km/s) = 3.21760 3.48156 3.35217
# Velocity P-wave (km/s) = 5.35394 5.60462 5.48071
#
# Compressibility (1/GPa) = 0.03578010
#
# Stress axis : x y z
#
# Youngs Moduli (GPa) = 38.59331 38.52546 53.50489
#
# Poissons Ratio (x) = 0.28050 0.29698
# Poissons Ratio (y) = 0.28100 0.24385
# Poissons Ratio (z) = 0.21421 0.17558
#
# Static dielectric constant tensor:
#      x y z
#    x 3.237380 0.000000 -0.005690 
#    y 0.000000 3.817940 0.000000 
#    z -0.005690 0.000000 3.474590 
# 
# 
# High freq. dielectric constant tensor:
#      x y z
#    x 1.706770 0.000000 0.005670 
#    y 0.000000 1.751540 0.000000 
#    z 0.005670 0.000000 1.723890 
# 
# From -- ./inp_files/96282.got.cif
#   From: 2010.06.25/outbox.cif.g09.slc.cpg/sg12_49_cif.got.tgz:96282.got - 2010.06.28 00:19:55.
