data_PCOD8099815
_publ_section_title
;
Structure prediction by ZEFSAII (Michael W. Deem and Ramdas Pophale) SiO2 
 PCOD8099815
Probable space group: C 2/M
;
_chemical_formula_sum "Si O2"
_cell_formula_units_Z 56
_cell_length_a 9.146195
_cell_length_b 10.557895
_cell_length_c 32.067845
_cell_angle_alpha 90.000000
_cell_angle_beta 113.235170
_cell_angle_gamma 90.000000
_cell_volume 2845.461280
_symmetry_space_group_name_H-M "C 2/M"
_symmetry_group_IT_number 12
_symmetry_cell_setting 'monoclinic'
loop_
_space_group_symop_operation_xyz
x,y,z
-x,y,-z
-x,-y,-z
x,-y,z
1/2+x,1/2+y,z
1/2-x,1/2+y,-z
1/2-x,1/2-y,-z
1/2+x,1/2-y,z
loop_
_atom_site_type_symbol
_atom_site_label
_atom_site_fract_x
_atom_site_fract_y
_atom_site_fract_z
Si Si1 0.263628 0.500000 0.446180
Si Si2 0.411671 0.250297 0.603585
Si Si3 0.010195 0.360418 0.126290
Si Si4 0.355486 0.286675 0.184199
Si Si5 0.620942 0.855567 0.976033
Si Si6 0.254245 0.847913 0.340507
Si Si7 0.700148 0.640275 0.242373
Si Si8 0.115936 0.000000 0.452479
O O1 0.185861 0.626854 0.420046
O O2 0.442219 0.500000 0.451293
O O3 0.255364 0.500000 0.495630
O O4 0.594485 0.212353 0.619257
O O5 0.390894 0.289606 0.649622
O O6 0.357686 0.371819 0.570716
O O7 0.942891 0.500000 0.122048
O O8 0.912319 0.290403 0.150677
O O9 0.968952 0.307813 0.075840
O O10 0.201140 0.365951 0.153532
O O11 0.509103 0.367684 0.214474
O O12 0.299179 0.205547 0.217200
O O13 0.690302 0.000000 0.979100
O O14 0.500000 0.855024 0.000000
O O15 0.750000 0.750000 0.000000
O O16 0.236830 0.796521 0.291276
O O17 0.256702 0.000000 0.342412
O O18 0.768416 0.500000 0.250710
#
# Coordination Sequence:
#
# PCOD8099815 Si02
#       8
#     4   8   8   8   8   8   8   4
#     4  11  24  41  63  91 123 155 193 243 291 339
#     4  12  22  42  62  90 118 158 193 238 289 347
#     4  10  20  35  57  81 112 150 188 241 289 341
#     4  10  20  36  57  82 110 145 193 232 289 344
#     4  10  21  37  56  83 118 154 197 241 290 346
#     4  11  23  38  61  86 120 152 193 237 291 345
#     4  10  21  37  56  83 113 148 183 237 285 345
#     4  11  24  41  63  91 123 153 197 243 287 343
#
# _framework density 19.680465999999999
#
# number of rings (size 3 to 8) (size 9 to 14) (size 15 to 20)
#    0.000    1.429    2.857    3.000    0.000    0.286 
#    0.000    4.286    3.143    0.000    0.000    0.000 
#    0.000    0.000    0.000    0.000    0.000    0.000 
#
# Total GULP energy -346999.625746 kJ/mol
# GULP energy per Si atom -12392.843777 kJ/mol
# Density = 1.963567 g / cm^3
# Si number density = 19.680466 Si / 1000 Ang^3
#
#
#
# Elastic Constant Matrix: (Units=GPa)
#
#
# Indices 1 2 3 4 5 6 
#
# 1 73.4068 28.1057 26.9621 0.0000 -13.4952 0.0000
# 2 28.1057 107.6971 46.9172 0.0000 -5.9150 0.0000
# 3 26.9621 46.9172 128.2284 0.0000 -19.8472 0.0000
# 4 0.0000 0.0000 0.0000 23.0429 0.0000 -4.4093
# 5 -13.4952 -5.9150 -19.8472 0.0000 30.6936 0.0000
# 6 0.0000 0.0000 0.0000 -4.4093 0.0000 12.3181
#
#
#
# Elastic Compliance Matrix: (Units=1/GPa)
#
#
# Indices 1 2 3 4 5 6 
#
# 1 0.016467 -0.003403 -0.001331 0.000000 0.005723 0.000000
# 2 -0.003403 0.011757 -0.003853 0.000000 -0.001722 0.000000
# 3 -0.001331 -0.003853 0.010315 0.000000 0.005342 0.000000
# 4 0.000000 0.000000 0.000000 0.046588 0.000000 0.016677
# 5 0.005723 -0.001722 0.005342 0.000000 0.038219 0.000000
# 6 0.000000 0.000000 0.000000 0.016677 0.000000 0.087151
#
#
# Mechanical properties :
#
#
# Convention : Reuss Voigt Hill
#
# Bulk Modulus (GPa) = 46.80614 57.03360 51.91987
# Shear Modulus (GPa) = 21.29531 27.03406 24.16469
#
# Velocity S-wave (km/s) = 3.29303 3.71030 3.50787
# Velocity P-wave (km/s) = 6.18816 6.88461 6.54565
#
# Compressibility (1/GPa) = 0.02136472
#
# Stress axis : x y z
#
# Youngs Moduli (GPa) = 60.72801 85.05389 96.94529
#
# Poissons Ratio (x) = 0.28944 0.12908
# Poissons Ratio (y) = 0.20666 0.37351
# Poissons Ratio (z) = 0.08086 0.32770
#
# Static dielectric constant tensor:
#      x y z
#    x 3.552160 0.000000 -0.095190 
#    y 0.000000 3.601990 0.000000 
#    z -0.095190 0.000000 3.931370 
# 
# 
# High freq. dielectric constant tensor:
#      x y z
#    x 1.770500 0.000000 -0.010170 
#    y 0.000000 1.767530 0.000000 
#    z -0.010170 0.000000 1.782970 
# 
# From -- ./inp_files/372234.got.cif
#   From: 2010.06.25/outbox.cif.g09.slc.cpg/sg12_187_cif.got.tgz:372234.got - 2010.06.28 00:19:55.
