data_PCOD8099751
_publ_section_title
;
Structure prediction by ZEFSAII (Michael W. Deem and Ramdas Pophale) SiO2 
 PCOD8099751
Probable space group: C 2/M
;
_chemical_formula_sum "Si O2"
_cell_formula_units_Z 56
_cell_length_a 20.179786
_cell_length_b 18.798366
_cell_length_c 17.170160
_cell_angle_alpha 90.000000
_cell_angle_beta 154.916172
_cell_angle_gamma 90.000000
_cell_volume 2761.336240
_symmetry_space_group_name_H-M "C 2/M"
_symmetry_group_IT_number 12
_symmetry_cell_setting 'monoclinic'
loop_
_space_group_symop_operation_xyz
x,y,z
-x,y,-z
-x,-y,-z
x,-y,z
1/2+x,1/2+y,z
1/2-x,1/2+y,-z
1/2-x,1/2-y,-z
1/2+x,1/2-y,z
loop_
_atom_site_type_symbol
_atom_site_label
_atom_site_fract_x
_atom_site_fract_y
_atom_site_fract_z
Si Si1 0.799172 0.153840 0.172963
Si Si2 0.389381 0.582454 0.552262
Si Si3 0.851504 0.689293 0.241047
Si Si4 0.286348 0.191812 0.344286
Si Si5 0.823074 0.345588 0.790369
Si Si6 0.894130 0.418828 0.158203
Si Si7 0.244646 0.919617 0.426168
O O1 0.773378 0.237574 0.128198
O O2 0.787511 0.141194 0.252855
O O3 0.968665 0.129902 0.325702
O O4 0.663561 0.110044 0.986026
O O5 0.427294 0.500000 0.579214
O O6 0.233669 0.602513 0.338611
O O7 0.365273 0.598858 0.617905
O O8 0.780678 0.665633 0.248799
O O9 0.812034 0.626159 0.139476
O O10 0.035641 0.704569 0.441739
O O11 0.189704 0.264248 0.252461
O O12 0.206023 0.132447 0.313363
O O13 0.000000 0.364422 0.000000
O O14 0.840140 0.500000 0.111641
O O15 0.078864 0.410510 0.356800
O O16 0.216632 0.000000 0.367058
#
# Coordination Sequence:
#
# PCOD8099751 Si02
#       7
#     8   8   8   8   8   8   8
#     4  11  21  38  58  82 119 152 189 233 282 335
#     4  11  23  39  59  85 116 152 189 229 282 343
#     4   9  18  35  59  84 114 149 193 237 278 333
#     4   9  18  37  59  84 114 149 191 235 281 335
#     4  11  23  39  59  85 113 148 192 237 283 333
#     4  10  20  35  56  86 117 149 190 235 282 334
#     4   9  20  38  59  85 117 150 188 233 281 336
#
# _framework density 20.280037
#
# number of rings (size 3 to 8) (size 9 to 14) (size 15 to 20)
#    0.000    2.000    1.429    2.143    0.000    3.143 
#    7.714    2.857    0.000    0.429    0.000    0.000 
#    0.000    0.000    0.000    0.000    0.000    0.000 
#
# Total GULP energy -347286.671087 kJ/mol
# GULP energy per Si atom -12403.095396 kJ/mol
# Density = 2.023388 g / cm^3
# Si number density = 20.280037 Si / 1000 Ang^3
#
#
#
# Elastic Constant Matrix: (Units=GPa)
#
#
# Indices 1 2 3 4 5 6 
#
# 1 115.4129 71.4843 24.5245 0.0006 -5.0362 0.0007
# 2 71.4843 125.3375 31.6764 0.0008 -16.5055 0.0008
# 3 24.5245 31.6764 51.4564 0.0020 -4.7960 0.0017
# 4 0.0006 0.0008 0.0020 25.4091 0.0006 -6.9392
# 5 -5.0362 -16.5055 -4.7960 0.0006 26.5326 0.0006
# 6 0.0007 0.0008 0.0017 -6.9392 0.0006 34.9785
#
#
#
# Elastic Compliance Matrix: (Units=1/GPa)
#
#
# Indices 1 2 3 4 5 6 
#
# 1 0.013725 -0.007635 -0.002076 0.000000 -0.002520 0.000000
# 2 -0.007635 0.014369 -0.004586 0.000000 0.006661 0.000000
# 3 -0.002076 -0.004586 0.023337 -0.000002 0.000971 -0.000001
# 4 0.000000 0.000000 -0.000002 0.041610 -0.000001 0.008255
# 5 -0.002520 0.006661 0.000971 -0.000001 0.041530 -0.000001
# 6 0.000000 0.000000 -0.000001 0.008255 -0.000001 0.030227
#
#
# Mechanical properties :
#
#
# Convention : Reuss Voigt Hill
#
# Bulk Modulus (GPa) = 43.78863 60.84192 52.31527
# Shear Modulus (GPa) = 24.87520 28.35216 26.61368
#
# Velocity S-wave (km/s) = 3.50606 3.74308 3.62651
# Velocity P-wave (km/s) = 6.16675 6.98190 6.58695
#
# Compressibility (1/GPa) = 0.02283698
#
# Stress axis : x y z
#
# Youngs Moduli (GPa) = 72.86226 69.59484 42.85027
#
# Poissons Ratio (x) = 0.53133 0.08896
# Poissons Ratio (y) = 0.55628 0.19651
# Poissons Ratio (z) = 0.15128 0.31916
#
# Static dielectric constant tensor:
#      x y z
#    x 3.716550 0.000000 -0.143520 
#    y 0.000000 3.732860 0.000000 
#    z -0.143520 0.000000 3.499810 
# 
# 
# High freq. dielectric constant tensor:
#      x y z
#    x 1.795780 0.000000 -0.007150 
#    y 0.000000 1.794330 0.000000 
#    z -0.007150 0.000000 1.778520 
# 
# From -- ./inp_files/75973.got.cif
#   From: 2010.06.25/outbox.cif.g09.slc.cpg/sg12_38_cif.got.tgz:75973.got - 2010.06.28 00:19:55.
