data_PCOD8099747
_publ_section_title
;
Structure prediction by ZEFSAII (Michael W. Deem and Ramdas Pophale) SiO2 
 PCOD8099747
Probable space group: C 2/M
;
_chemical_formula_sum "Si O2"
_cell_formula_units_Z 56
_cell_length_a 17.169320
_cell_length_b 13.472441
_cell_length_c 12.378964
_cell_angle_alpha 90.000000
_cell_angle_beta 97.240574
_cell_angle_gamma 90.000000
_cell_volume 2840.577272
_symmetry_space_group_name_H-M "C 2/M"
_symmetry_group_IT_number 12
_symmetry_cell_setting 'monoclinic'
loop_
_space_group_symop_operation_xyz
x,y,z
-x,y,-z
-x,-y,-z
x,-y,z
1/2+x,1/2+y,z
1/2-x,1/2+y,-z
1/2-x,1/2-y,-z
1/2+x,1/2-y,z
loop_
_atom_site_type_symbol
_atom_site_label
_atom_site_fract_x
_atom_site_fract_y
_atom_site_fract_z
Si Si1 0.086058 0.116217 0.968564
Si Si2 0.358479 0.729744 0.228283
Si Si3 0.812119 0.798254 0.826345
Si Si4 0.502574 0.790100 0.373832
Si Si5 0.363283 0.112299 0.720591
Si Si6 0.884150 0.115874 0.630169
Si Si7 0.293940 0.386518 0.409724
O O1 0.096151 0.180036 0.862847
O O2 0.096323 0.000000 0.945174
O O3 0.153441 0.150587 0.062074
O O4 0.000000 0.139001 0.000000
O O5 0.282181 0.792012 0.177051
O O6 0.417344 0.801345 0.304192
O O7 0.334200 0.643726 0.305718
O O8 0.849853 0.688130 0.817763
O O9 0.833555 0.867389 0.728710
O O10 0.500000 0.813160 0.500000
O O11 0.554279 0.873135 0.323555
O O12 0.535569 0.679094 0.355393
O O13 0.298574 0.135773 0.616474
O O14 0.355883 0.000000 0.763983
O O15 0.832106 0.162181 0.522929
O O16 0.906608 0.000000 0.624603
O O17 0.311653 0.500000 0.430379
#
# Coordination Sequence:
#
# PCOD8099747 Si02
#       7
#     8   8   8   8   8   8   8
#     4  11  23  41  65  90 119 152 191 243 304 362
#     4  11  22  37  57  86 122 156 195 241 291 347
#     4  10  22  38  62  84 115 154 199 244 291 349
#     4  11  22  34  55  85 122 161 196 237 287 350
#     4   9  20  37  56  78 110 154 204 243 286 339
#     4  10  20  35  56  85 121 153 192 244 297 352
#     4   9  18  33  56  83 110 151 196 242 295 344
#
# _framework density 19.714302
#
# number of rings (size 3 to 8) (size 9 to 14) (size 15 to 20)
#    0.000    1.857    1.429    3.000    2.000    5.143 
#    0.000    1.429    0.000    3.857    0.000    0.000 
#    0.000    0.000    0.000    0.000    0.000    0.000 
#
# Total GULP energy -347152.437853 kJ/mol
# GULP energy per Si atom -12398.301352 kJ/mol
# Density = 1.966943 g / cm^3
# Si number density = 19.714302 Si / 1000 Ang^3
#
#
#
# Elastic Constant Matrix: (Units=GPa)
#
#
# Indices 1 2 3 4 5 6 
#
# 1 117.6214 10.4710 32.7215 0.0000 7.5647 0.0000
# 2 10.4710 37.5535 -0.1601 0.0000 0.0303 0.0000
# 3 32.7215 -0.1601 98.2850 0.0000 8.7610 0.0000
# 4 0.0000 0.0000 0.0000 25.1621 0.0000 1.0153
# 5 7.5647 0.0303 8.7610 0.0000 29.7812 0.0000
# 6 0.0000 0.0000 0.0000 1.0153 0.0000 14.7340
#
#
#
# Elastic Compliance Matrix: (Units=1/GPa)
#
#
# Indices 1 2 3 4 5 6 
#
# 1 0.009705 -0.002718 -0.003097 0.000000 -0.001551 0.000000
# 2 -0.002718 0.027390 0.000914 0.000000 0.000394 0.000000
# 3 -0.003097 0.000914 0.011437 0.000000 -0.002579 0.000000
# 4 0.000000 0.000000 0.000000 0.039853 0.000000 -0.002746
# 5 -0.001551 0.000394 -0.002579 0.000000 0.034731 0.000000
# 6 0.000000 0.000000 0.000000 -0.002746 0.000000 0.068059
#
#
# Mechanical properties :
#
#
# Convention : Reuss Voigt Hill
#
# Bulk Modulus (GPa) = 25.81935 37.72496 31.77216
# Shear Modulus (GPa) = 23.37680 27.96396 25.67038
#
# Velocity S-wave (km/s) = 3.44725 3.77033 3.61240
# Velocity P-wave (km/s) = 5.38237 6.17505 5.79229
#
# Compressibility (1/GPa) = 0.03873064
#
# Stress axis : x y z
#
# Youngs Moduli (GPa) = 103.03718 36.50952 87.43549
#
# Poissons Ratio (x) = 0.09923 0.27081
# Poissons Ratio (y) = 0.28006 -0.07996
# Poissons Ratio (z) = 0.31913 -0.03339
#
# Static dielectric constant tensor:
#      x y z
#    x 3.749290 0.000000 0.088030 
#    y 0.000000 3.440790 0.000000 
#    z 0.088030 0.000000 3.563140 
# 
# 
# High freq. dielectric constant tensor:
#      x y z
#    x 1.776790 0.000000 0.003390 
#    y 0.000000 1.754140 0.000000 
#    z 0.003390 0.000000 1.765080 
# 
# From -- ./inp_files/143702.got.cif
#   From: 2010.06.25/outbox.cif.g09.slc.cpg/sg12_72_cif.got.tgz:143702.got - 2010.06.28 00:19:55.
