data_PCOD8099373
_publ_section_title
;
Structure prediction by ZEFSAII (Michael W. Deem and Ramdas Pophale) SiO2 
 PCOD8099373
Probable space group: C 2/M
;
_chemical_formula_sum "Si O2"
_cell_formula_units_Z 64
_cell_length_a 14.917957
_cell_length_b 9.045935
_cell_length_c 30.892153
_cell_angle_alpha 90.000000
_cell_angle_beta 128.150105
_cell_angle_gamma 90.000000
_cell_volume 3278.323474
_symmetry_space_group_name_H-M "C 2/M"
_symmetry_group_IT_number 12
_symmetry_cell_setting 'monoclinic'
loop_
_space_group_symop_operation_xyz
x,y,z
-x,y,-z
-x,-y,-z
x,-y,z
1/2+x,1/2+y,z
1/2-x,1/2+y,-z
1/2-x,1/2-y,-z
1/2+x,1/2-y,z
loop_
_atom_site_type_symbol
_atom_site_label
_atom_site_fract_x
_atom_site_fract_y
_atom_site_fract_z
Si Si1 0.804329 0.166137 0.952782
Si Si2 0.039425 0.825852 0.634178
Si Si3 0.076950 0.333480 0.941248
Si Si4 0.723017 0.672539 0.760182
Si Si5 0.454359 0.325902 0.831394
Si Si6 0.398150 0.673814 0.441201
Si Si7 0.325480 0.672220 0.156427
Si Si8 0.301921 0.825244 0.557654
O O1 0.693689 0.167303 0.949762
O O2 0.775364 0.243035 0.898630
O O3 0.846065 0.000000 0.956313
O O4 0.905311 0.253951 0.007236
O O5 0.123132 0.782480 0.697835
O O6 0.096149 0.769964 0.606376
O O7 0.923786 0.737513 0.606702
O O8 0.012634 0.000000 0.625490
O O9 0.033739 0.500000 0.936398
O O10 0.981193 0.246461 0.885887
O O11 0.752604 0.500000 0.765803
O O12 0.834337 0.763153 0.779176
O O13 0.680170 0.716620 0.795144
O O14 0.446766 0.500000 0.835483
O O15 0.550333 0.282136 0.824774
O O16 0.500000 0.746338 0.500000
O O17 0.415663 0.500000 0.446733
O O18 0.277302 0.717327 0.425348
O O19 0.304142 0.500000 0.142317
O O20 0.250000 0.750000 0.500000
O O21 0.307284 0.000000 0.551273
#
# Coordination Sequence:
#
# PCOD8099373 Si02
#       8
#     8   8   8   8   8   8   8   8
#     4   9  16  27  48  79 109 140 181 228 277 332
#     4  10  21  39  59  81 111 149 187 227 272 325
#     4   9  16  28  49  77 109 143 180 224 278 338
#     4  10  22  39  58  79 108 146 189 229 273 329
#     4  10  20  35  56  79 108 144 183 230 280 328
#     4   9  17  33  57  82 113 149 179 213 268 328
#     4   9  19  36  55  77 108 147 183 225 283 335
#     4  11  21  35  58  86 115 147 182 221 268 323
#
# _framework density 19.522172999999999
#
# number of rings (size 3 to 8) (size 9 to 14) (size 15 to 20)
#    0.000    2.375    1.250    1.500    0.000    5.500 
#    0.000    2.500    0.000    3.750    0.000    0.000 
#    0.000    0.000    0.000    0.000    0.000    0.000 
#
# Total GULP energy -396855.031196 kJ/mol
# GULP energy per Si atom -12401.719725 kJ/mol
# Density = 1.947774 g / cm^3
# Si number density = 19.522173 Si / 1000 Ang^3
#
#
#
# Elastic Constant Matrix: (Units=GPa)
#
#
# Indices 1 2 3 4 5 6 
#
# 1 89.8023 30.8437 52.6025 0.0000 -7.1511 0.0000
# 2 30.8437 74.5179 42.9944 0.0000 -1.0193 0.0000
# 3 52.6025 42.9944 138.3856 0.0000 -12.4058 0.0000
# 4 0.0000 0.0000 0.0000 30.7438 0.0000 8.0216
# 5 -7.1511 -1.0193 -12.4058 0.0000 32.0242 0.0000
# 6 0.0000 0.0000 0.0000 8.0216 0.0000 24.0606
#
#
#
# Elastic Compliance Matrix: (Units=1/GPa)
#
#
# Indices 1 2 3 4 5 6 
#
# 1 0.015139 -0.003660 -0.004480 0.000000 0.001528 0.000000
# 2 -0.003660 0.017305 -0.004153 0.000000 -0.001876 0.000000
# 3 -0.004480 -0.004153 0.010482 0.000000 0.002928 0.000000
# 4 0.000000 0.000000 0.000000 0.035626 0.000000 -0.011877
# 5 0.001528 -0.001876 0.002928 0.000000 0.032642 0.000000
# 6 0.000000 0.000000 0.000000 -0.011877 0.000000 0.045521
#
#
# Mechanical properties :
#
#
# Convention : Reuss Voigt Hill
#
# Bulk Modulus (GPa) = 54.53014 61.73189 58.13102
# Shear Modulus (GPa) = 26.67857 29.11673 27.89765
#
# Velocity S-wave (km/s) = 3.70074 3.86614 3.78434
# Velocity P-wave (km/s) = 6.80100 7.18467 6.99547
#
# Compressibility (1/GPa) = 0.01833848
#
# Stress axis : x y z
#
# Youngs Moduli (GPa) = 66.05537 57.78585 95.40088
#
# Poissons Ratio (x) = 0.21151 0.42743
# Poissons Ratio (y) = 0.24178 0.39623
# Poissons Ratio (z) = 0.29595 0.24000
#
# Static dielectric constant tensor:
#      x y z
#    x 3.582110 0.000000 -0.044110 
#    y 0.000000 3.488310 0.000000 
#    z -0.044110 0.000000 3.663790 
# 
# 
# High freq. dielectric constant tensor:
#      x y z
#    x 1.758010 0.000000 -0.000570 
#    y 0.000000 1.750110 0.000000 
#    z -0.000570 0.000000 1.759890 
# 
# From -- ./inp_files/375672.got.cif
#   From: 2010.06.25/outbox.cif.g09.slc.cpg/sg12_188_cif.got.tgz:375672.got - 2010.06.28 00:19:55.
