data_PCOD8099823
_publ_section_title
;
Structure prediction by ZEFSAII (Michael W. Deem and Ramdas Pophale) SiO2 
 PCOD8099823
Probable space group: C 2/M
;
_chemical_formula_sum "Si O2"
_cell_formula_units_Z 48
_cell_length_a 24.312297
_cell_length_b 8.861910
_cell_length_c 12.032655
_cell_angle_alpha 90.000000
_cell_angle_beta 78.582753
_cell_angle_gamma 90.000000
_cell_volume 2541.175411
_symmetry_space_group_name_H-M "C 2/M"
_symmetry_group_IT_number 12
_symmetry_cell_setting 'monoclinic'
loop_
_space_group_symop_operation_xyz
x,y,z
-x,y,-z
-x,-y,-z
x,-y,z
1/2+x,1/2+y,z
1/2-x,1/2+y,-z
1/2-x,1/2-y,-z
1/2+x,1/2-y,z
loop_
_atom_site_type_symbol
_atom_site_label
_atom_site_fract_x
_atom_site_fract_y
_atom_site_fract_z
Si Si1 0.581648 0.178705 0.493983
Si Si2 0.511988 0.678013 0.332392
Si Si3 0.546344 0.675569 0.071033
Si Si4 0.834948 0.677502 0.999209
Si Si5 0.242104 0.678333 0.171597
Si Si6 0.209535 0.677393 0.427529
O O1 0.548098 0.253324 0.609293
O O2 0.560625 0.245247 0.385502
O O3 0.646256 0.222606 0.483308
O O4 0.571979 0.000000 0.496821
O O5 0.511822 0.500000 0.354551
O O6 0.522373 0.718859 0.200780
O O7 0.561581 0.500000 0.057437
O O8 0.601485 0.769497 0.022960
O O9 0.500000 0.722144 0.000000
O O10 0.832933 0.500000 0.013778
O O11 0.806065 0.730020 0.895545
O O12 0.801654 0.749428 0.115771
O O13 0.249133 0.500000 0.167785
O O14 0.224339 0.739528 0.299283
O O15 0.217947 0.500000 0.427324
O O16 0.250000 0.750000 0.500000
#
# Coordination Sequence:
#
# PCOD8099823 Si02
#       6
#     8   8   8   8   8   8
#     4  10  20  36  57  80 108 139 174 221 272 312
#     4  10  20  35  57  82 105 137 182 221 258 313
#     4  10  22  38  54  76 110 147 177 212 264 320
#     4  10  20  35  58  84 106 134 178 225 264 310
#     4   9  19  37  57  78 108 142 175 216 268 317
#     4  10  22  37  54  78 109 145 179 215 263 317
#
# _framework density 18.888895000000002
#
# number of rings (size 3 to 8) (size 9 to 14) (size 15 to 20)
#    0.000    2.167    0.000    3.500    0.000    7.000 
#    0.000    5.000    0.000    0.000    0.000    0.000 
#    0.000    0.000    0.000    0.000    0.000    0.000 
#
# Total GULP energy -297681.007997 kJ/mol
# GULP energy per Si atom -12403.375333 kJ/mol
# Density = 1.884590 g / cm^3
# Si number density = 18.888895 Si / 1000 Ang^3
#
#
#
# Elastic Constant Matrix: (Units=GPa)
#
#
# Indices 1 2 3 4 5 6 
#
# 1 143.8579 42.0527 75.3650 0.0000 -8.9580 0.0000
# 2 42.0527 49.6380 26.9133 0.0000 -6.2120 0.0000
# 3 75.3650 26.9133 71.2201 0.0000 -9.8071 0.0000
# 4 0.0000 0.0000 0.0000 25.5795 0.0000 -2.0451
# 5 -8.9580 -6.2120 -9.8071 0.0000 22.9731 0.0000
# 6 0.0000 0.0000 0.0000 -2.0451 0.0000 36.0283
#
#
#
# Elastic Compliance Matrix: (Units=1/GPa)
#
#
# Indices 1 2 3 4 5 6 
#
# 1 0.016893 -0.005924 -0.015885 0.000000 -0.001796 0.000000
# 2 -0.005924 0.027602 -0.003668 0.000000 0.003588 0.000000
# 3 -0.015885 -0.003668 0.033199 0.000000 0.006986 0.000000
# 4 0.000000 0.000000 0.000000 0.039272 0.000000 0.002229
# 5 -0.001796 0.003588 0.006986 0.000000 0.046781 0.000000
# 6 0.000000 0.000000 0.000000 0.002229 0.000000 0.027882
#
#
# Mechanical properties :
#
#
# Convention : Reuss Voigt Hill
#
# Bulk Modulus (GPa) = 37.39676 61.48645 49.44160
# Shear Modulus (GPa) = 19.88101 24.94186 22.41143
#
# Velocity S-wave (km/s) = 3.24778 3.63774 3.44828
# Velocity P-wave (km/s) = 5.82283 7.08989 6.48737
#
# Compressibility (1/GPa) = 0.02674029
#
# Stress axis : x y z
#
# Youngs Moduli (GPa) = 59.19642 36.22917 30.12174
#
# Poissons Ratio (x) = 0.21460 0.47848
# Poissons Ratio (y) = 0.35065 0.11049
# Poissons Ratio (z) = 0.94033 0.13290
#
# Static dielectric constant tensor:
#      x y z
#    x 3.480330 0.000000 -0.198090 
#    y 0.000000 3.432670 0.000000 
#    z -0.198090 0.000000 4.089470 
# 
# 
# High freq. dielectric constant tensor:
#      x y z
#    x 1.737480 0.000000 -0.009800 
#    y 0.000000 1.735660 0.000000 
#    z -0.009800 0.000000 1.739870 
# 
# From -- ./inp_files/172171.got.cif
#   From: 2010.06.25/outbox.cif.g09.slc.cpg/sg12_87_cif.got.tgz:172171.got - 2010.06.28 00:19:55.
