data_PCOD8099079
_publ_section_title
;
Structure prediction by ZEFSAII (Michael W. Deem and Ramdas Pophale) SiO2 
 PCOD8099079
Probable space group: C 2/M
;
_chemical_formula_sum "Si O2"
_cell_formula_units_Z 64
_cell_length_a 28.360694
_cell_length_b 8.966048
_cell_length_c 14.295633
_cell_angle_alpha 90.000000
_cell_angle_beta 106.394504
_cell_angle_gamma 90.000000
_cell_volume 3487.340341
_symmetry_space_group_name_H-M "C 2/M"
_symmetry_group_IT_number 12
_symmetry_cell_setting 'monoclinic'
loop_
_space_group_symop_operation_xyz
x,y,z
-x,y,-z
-x,-y,-z
x,-y,z
1/2+x,1/2+y,z
1/2-x,1/2+y,-z
1/2-x,1/2-y,-z
1/2+x,1/2-y,z
loop_
_atom_site_type_symbol
_atom_site_label
_atom_site_fract_x
_atom_site_fract_y
_atom_site_fract_z
Si Si1 0.496336 0.675408 0.391238
Si Si2 0.694506 0.825932 0.869868
Si Si3 0.401070 0.328445 0.634588
Si Si4 0.599442 0.831327 0.706985
Si Si5 0.796020 0.326503 0.908705
Si Si6 0.750472 0.823441 0.399149
Si Si7 0.665029 0.672871 0.237427
Si Si8 0.845181 0.331108 0.445787
O O1 0.500000 0.737998 0.500000
O O2 0.489839 0.500000 0.391617
O O3 0.543670 0.723990 0.356717
O O4 0.450295 0.738960 0.307400
O O5 0.644907 0.765692 0.792675
O O6 0.741583 0.737193 0.857659
O O7 0.702631 0.000000 0.850918
O O8 0.688163 0.797383 0.976323
O O9 0.394280 0.500000 0.599680
O O10 0.387058 0.308090 0.736652
O O11 0.362877 0.230581 0.554923
O O12 0.610883 0.823190 0.603373
O O13 0.589545 0.000000 0.734153
O O14 0.795607 0.500000 0.882900
O O15 0.836722 0.241515 0.867971
O O16 0.750000 0.750000 0.500000
O O17 0.705781 0.766646 0.313521
O O18 0.800971 0.768298 0.379508
O O19 0.749020 0.000000 0.406049
O O20 0.679958 0.500000 0.241047
O O21 0.826768 0.500000 0.450467
#
# Coordination Sequence:
#
# PCOD8099079 Si02
#       8
#     8   8   8   8   8   8   8   8
#     4  10  20  35  55  78 105 140 183 231 277 324
#     4   9  19  37  58  82 114 145 178 223 276 332
#     4  10  21  36  52  72 103 144 183 220 269 323
#     4  10  21  35  54  80 108 140 177 223 276 328
#     4  10  20  35  58  85 111 143 182 225 273 328
#     4  12  23  34  49  73 106 142 181 219 261 317
#     4  11  22  36  54  75 106 147 184 222 270 326
#     4  11  21  32  50  76 107 142 179 218 263 320
#
# _framework density 18.352094999999998
#
# number of rings (size 3 to 8) (size 9 to 14) (size 15 to 20)
#    0.000    1.625    2.500    3.000    0.000    3.750 
#    0.000    0.000    0.000    0.750    0.000    5.250 
#    0.000    0.000    0.000    0.000    0.000    0.000 
#
# Total GULP energy -396782.249520 kJ/mol
# GULP energy per Si atom -12399.445298 kJ/mol
# Density = 1.831032 g / cm^3
# Si number density = 18.352095 Si / 1000 Ang^3
#
#
#
# Elastic Constant Matrix: (Units=GPa)
#
#
# Indices 1 2 3 4 5 6 
#
# 1 121.7556 45.9504 42.4691 0.0000 -5.8782 0.0000
# 2 45.9504 93.1416 26.8795 0.0000 -6.9782 0.0000
# 3 42.4691 26.8795 67.7870 0.0000 -2.4650 0.0000
# 4 0.0000 0.0000 0.0000 27.6820 0.0000 0.0573
# 5 -5.8782 -6.9782 -2.4650 0.0000 29.0159 0.0000
# 6 0.0000 0.0000 0.0000 0.0573 0.0000 29.4803
#
#
#
# Elastic Compliance Matrix: (Units=1/GPa)
#
#
# Indices 1 2 3 4 5 6 
#
# 1 0.011806 -0.004100 -0.005737 0.000000 0.000918 0.000000
# 2 -0.004100 0.013733 -0.002796 0.000000 0.002235 0.000000
# 3 -0.005737 -0.002796 0.019449 0.000000 -0.000182 0.000000
# 4 0.000000 0.000000 0.000000 0.036125 0.000000 -0.000070
# 5 0.000918 0.002235 -0.000182 0.000000 0.035172 0.000000
# 6 0.000000 0.000000 0.000000 -0.000070 0.000000 0.033921
#
#
# Mechanical properties :
#
#
# Convention : Reuss Voigt Hill
#
# Bulk Modulus (GPa) = 50.70551 57.03134 53.86842
# Shear Modulus (GPa) = 27.46564 28.39464 27.93014
#
# Velocity S-wave (km/s) = 3.87278 3.93773 3.90539
# Velocity P-wave (km/s) = 6.90559 7.19847 7.05355
#
# Compressibility (1/GPa) = 0.01972172
#
# Stress axis : x y z
#
# Youngs Moduli (GPa) = 84.70230 72.81627 51.41748
#
# Poissons Ratio (x) = 0.29853 0.29501
# Poissons Ratio (y) = 0.34726 0.14375
# Poissons Ratio (z) = 0.48598 0.20358
#
# Static dielectric constant tensor:
#      x y z
#    x 3.460480 0.000000 0.020760 
#    y 0.000000 3.500840 0.000000 
#    z 0.020760 0.000000 2.965520 
# 
# 
# High freq. dielectric constant tensor:
#      x y z
#    x 1.708090 0.000000 -0.013740 
#    y 0.000000 1.716020 0.000000 
#    z -0.013740 0.000000 1.690880 
# 
# From -- ./inp_files/244131.got.cif
#   From: 2010.06.25/outbox.cif.g09.slc.cpg/sg12_123_cif.got.tgz:244131.got - 2010.06.28 00:19:55.
