data_PCOD8099905
_publ_section_title
;
Structure prediction by ZEFSAII (Michael W. Deem and Ramdas Pophale) SiO2 
 PCOD8099905
Probable space group: C 2/M
;
_chemical_formula_sum "Si O2"
_cell_formula_units_Z 48
_cell_length_a 12.674032
_cell_length_b 18.326965
_cell_length_c 11.630746
_cell_angle_alpha 90.000000
_cell_angle_beta 72.435834
_cell_angle_gamma 90.000000
_cell_volume 2575.602106
_symmetry_space_group_name_H-M "C 2/M"
_symmetry_group_IT_number 12
_symmetry_cell_setting 'monoclinic'
loop_
_space_group_symop_operation_xyz
x,y,z
-x,y,-z
-x,-y,-z
x,-y,z
1/2+x,1/2+y,z
1/2-x,1/2+y,-z
1/2-x,1/2-y,-z
1/2+x,1/2-y,z
loop_
_atom_site_type_symbol
_atom_site_label
_atom_site_fract_x
_atom_site_fract_y
_atom_site_fract_z
Si Si1 0.245219 0.825504 0.791994
Si Si2 0.144454 0.825922 0.237634
Si Si3 0.901779 0.781191 0.358618
Si Si4 0.121393 0.581584 0.423505
Si Si5 0.238409 0.647321 0.582580
Si Si6 0.619339 0.585512 0.015902
O O1 0.284722 0.745650 0.821301
O O2 0.138971 0.820551 0.744441
O O3 0.342834 0.863480 0.687954
O O4 0.214062 0.875156 0.910509
O O5 0.211846 0.874748 0.309459
O O6 0.121699 0.879303 0.140327
O O7 0.030917 0.796278 0.329582
O O8 0.871807 0.695748 0.360297
O O9 0.838373 0.808394 0.492129
O O10 0.123582 0.500000 0.372806
O O11 0.201756 0.582264 0.509924
O O12 0.000000 0.606083 0.500000
O O13 0.646961 0.500000 0.015139
O O14 0.500000 0.598923 0.000000
#
# Coordination Sequence:
#
# PCOD8099905 Si02
#       6
#     8   8   8   8   8   8
#     4  10  20  36  58  81 108 145 192 235 269 329
#     4  11  20  34  58  83 110 142 189 236 278 325
#     4   9  17  32  52  81 112 138 178 226 281 326
#     4  10  20  35  57  83 113 148 184 224 280 342
#     4   9  19  31  52  82 112 145 174 228 281 327
#     4  11  23  39  56  76 112 154 190 229 281 337
#
# _framework density 18.636417999999999
#
# number of rings (size 3 to 8) (size 9 to 14) (size 15 to 20)
#    0.000    2.000    1.667    3.500    0.000    0.667 
#    0.000    0.000    0.000    3.000    0.000    8.167 
#    0.000    0.000    0.000    0.000    0.000    0.000 
#
# Total GULP energy -297476.154867 kJ/mol
# GULP energy per Si atom -12394.839786 kJ/mol
# Density = 1.859400 g / cm^3
# Si number density = 18.636418 Si / 1000 Ang^3
#
#
#
# Elastic Constant Matrix: (Units=GPa)
#
#
# Indices 1 2 3 4 5 6 
#
# 1 78.6071 15.6995 26.5174 0.0000 2.4777 0.0000
# 2 15.6995 54.4347 28.1393 0.0000 0.4628 0.0000
# 3 26.5174 28.1393 81.7835 0.0000 8.5086 0.0000
# 4 0.0000 0.0000 0.0000 25.8478 0.0000 1.9389
# 5 2.4777 0.4628 8.5086 0.0000 30.8447 0.0000
# 6 0.0000 0.0000 0.0000 1.9389 0.0000 21.7305
#
#
#
# Elastic Compliance Matrix: (Units=1/GPa)
#
#
# Indices 1 2 3 4 5 6 
#
# 1 0.014484 -0.002130 -0.003959 0.000000 -0.000039 0.000000
# 2 -0.002130 0.022760 -0.007333 0.000000 0.001852 0.000000
# 3 -0.003959 -0.007333 0.016462 0.000000 -0.004113 0.000000
# 4 0.000000 0.000000 0.000000 0.038949 0.000000 -0.003475
# 5 -0.000039 0.001852 -0.004113 0.000000 0.033530 0.000000
# 6 0.000000 0.000000 0.000000 -0.003475 0.000000 0.046328
#
#
# Mechanical properties :
#
#
# Convention : Reuss Voigt Hill
#
# Bulk Modulus (GPa) = 37.22881 39.50420 38.36651
# Shear Modulus (GPa) = 24.00245 25.31587 24.65916
#
# Velocity S-wave (km/s) = 3.59267 3.68966 3.64149
# Velocity P-wave (km/s) = 6.10159 6.27653 6.18968
#
# Compressibility (1/GPa) = 0.02686092
#
# Stress axis : x y z
#
# Youngs Moduli (GPa) = 69.04277 43.93666 60.74546
#
# Poissons Ratio (x) = 0.09360 0.24050
# Poissons Ratio (y) = 0.14708 0.44545
# Poissons Ratio (z) = 0.27335 0.32219
#
# Static dielectric constant tensor:
#      x y z
#    x 3.390590 0.000000 0.065220 
#    y 0.000000 3.215440 0.000000 
#    z 0.065220 0.000000 3.313920 
# 
# 
# High freq. dielectric constant tensor:
#      x y z
#    x 1.726020 0.000000 0.003220 
#    y 0.000000 1.707230 0.000000 
#    z 0.003220 0.000000 1.719690 
# 
# From -- ./inp_files/131014.got.cif
#   From: 2010.06.25/outbox.cif.g09.slc.cpg/sg12_66_cif.got.tgz:131014.got - 2010.06.28 00:19:55.
