data_PCOD8099277
_publ_section_title
;
Structure prediction by ZEFSAII (Michael W. Deem and Ramdas Pophale) SiO2 
 PCOD8099277
Probable space group: C 2/M
;
_chemical_formula_sum "Si O2"
_cell_formula_units_Z 56
_cell_length_a 25.107902
_cell_length_b 9.191674
_cell_length_c 17.647806
_cell_angle_alpha 90.000000
_cell_angle_beta 44.623706
_cell_angle_gamma 90.000000
_cell_volume 2860.946173
_symmetry_space_group_name_H-M "C 2/M"
_symmetry_group_IT_number 12
_symmetry_cell_setting 'monoclinic'
loop_
_space_group_symop_operation_xyz
x,y,z
-x,y,-z
-x,-y,-z
x,-y,z
1/2+x,1/2+y,z
1/2-x,1/2+y,-z
1/2-x,1/2-y,-z
1/2+x,1/2-y,z
loop_
_atom_site_type_symbol
_atom_site_label
_atom_site_fract_x
_atom_site_fract_y
_atom_site_fract_z
Si Si1 0.564869 0.659392 0.995173
Si Si2 0.667502 0.169775 0.786642
Si Si3 0.063968 0.157472 0.492752
Si Si4 0.518742 0.162890 0.297921
Si Si5 0.806602 0.329360 0.883613
Si Si6 0.802479 0.328726 0.712384
Si Si7 0.961752 0.661299 0.194176
O O1 0.601514 0.500000 0.975409
O O2 0.527909 0.725568 0.107448
O O3 0.500000 0.639450 0.000000
O O4 0.625646 0.774022 0.904351
O O5 0.745899 0.256250 0.708589
O O6 0.619728 0.208396 0.758824
O O7 0.683748 0.000000 0.777876
O O8 0.116846 0.271397 0.396057
O O9 0.000000 0.116393 0.500000
O O10 0.024749 0.226947 0.605076
O O11 0.102691 0.000000 0.475208
O O12 0.604992 0.214000 0.190959
O O13 0.462042 0.157637 0.283783
O O14 0.524435 0.000000 0.327759
O O15 0.794948 0.500000 0.908763
O O16 0.786512 0.286405 0.816647
O O17 0.750000 0.250000 0.000000
O O18 0.799583 0.500000 0.704568
O O19 0.980089 0.500000 0.142141
#
# Coordination Sequence:
#
# PCOD8099277 Si02
#       7
#     8   8   8   8   8   8   8
#     4   9  17  30  50  77 111 152 195 236 280 336
#     4  10  20  35  55  82 117 154 194 241 288 343
#     4  11  23  40  63  90 115 148 195 244 291 344
#     4  10  21  40  63  87 116 155 196 240 292 346
#     4  10  23  39  58  87 122 155 192 237 292 348
#     4  11  23  40  62  88 117 155 197 240 291 348
#     4   9  19  35  56  83 115 153 196 238 289 345
#
# _framework density 19.573944000000001
#
# number of rings (size 3 to 8) (size 9 to 14) (size 15 to 20)
#    0.000    2.000    1.429    1.714    2.000    5.143 
#    0.000    0.714    0.000    0.000    0.000    0.000 
#    0.000    0.000    0.000    0.000    0.000    0.000 
#
# Total GULP energy -346941.713806 kJ/mol
# GULP energy per Si atom -12390.775493 kJ/mol
# Density = 1.952939 g / cm^3
# Si number density = 19.573944 Si / 1000 Ang^3
#
#
#
# Elastic Constant Matrix: (Units=GPa)
#
#
# Indices 1 2 3 4 5 6 
#
# 1 97.8872 42.1626 33.1244 0.0001 -1.0050 0.0007
# 2 42.1626 114.0566 56.0061 -0.0106 2.9317 0.0011
# 3 33.1244 56.0061 107.2503 0.0043 2.4752 0.0012
# 4 0.0001 -0.0106 0.0043 45.4494 0.0044 0.3414
# 5 -1.0050 2.9317 2.4752 0.0044 23.2224 -0.0002
# 6 0.0007 0.0011 0.0012 0.3414 -0.0002 26.8513
#
#
#
# Elastic Compliance Matrix: (Units=1/GPa)
#
#
# Indices 1 2 3 4 5 6 
#
# 1 0.012477 -0.003681 -0.001959 -0.000001 0.001214 0.000000
# 2 -0.003681 0.012893 -0.005568 0.000004 -0.001194 0.000000
# 3 -0.001959 -0.005568 0.012854 -0.000002 -0.000752 0.000000
# 4 -0.000001 0.000004 -0.000002 0.022005 -0.000004 -0.000280
# 5 0.001214 -0.001194 -0.000752 -0.000004 0.043345 0.000000
# 6 0.000000 0.000000 0.000000 -0.000280 0.000000 0.037246
#
#
# Mechanical properties :
#
#
# Convention : Reuss Voigt Hill
#
# Bulk Modulus (GPa) = 63.26414 64.64224 63.95319
# Shear Modulus (GPa) = 29.67237 31.63135 30.65186
#
# Velocity S-wave (km/s) = 3.89770 4.02430 3.96150
# Velocity P-wave (km/s) = 7.25581 7.39525 7.32586
#
# Compressibility (1/GPa) = 0.01580674
#
# Stress axis : x y z
#
# Youngs Moduli (GPa) = 80.14788 77.55869 77.79558
#
# Poissons Ratio (x) = 0.28553 0.15240
# Poissons Ratio (y) = 0.29506 0.43320
# Poissons Ratio (z) = 0.15701 0.43188
#
# Static dielectric constant tensor:
#      x y z
#    x 3.647890 -0.000020 -0.091900 
#    y -0.000020 3.820130 0.000030 
#    z -0.091900 0.000030 3.384640 
# 
# 
# High freq. dielectric constant tensor:
#      x y z
#    x 1.761490 0.000000 -0.005680 
#    y 0.000000 1.774580 0.000000 
#    z -0.005680 0.000000 1.740260 
# 
# From -- ./inp_files/288447.got.cif
#   From: 2010.06.25/outbox.cif.g09.slc.cpg/sg12_145_cif.got.tgz:288447.got - 2010.06.28 00:19:55.
