data_PCOD8099460
_publ_section_title
;
Structure prediction by ZEFSAII (Michael W. Deem and Ramdas Pophale) SiO2 
 PCOD8099460
Probable space group: C 2/M
;
_chemical_formula_sum "Si O2"
_cell_formula_units_Z 48
_cell_length_a 15.041814
_cell_length_b 9.293764
_cell_length_c 20.200736
_cell_angle_alpha 90.000000
_cell_angle_beta 112.256115
_cell_angle_gamma 90.000000
_cell_volume 2613.578272
_symmetry_space_group_name_H-M "C 2/M"
_symmetry_group_IT_number 12
_symmetry_cell_setting 'monoclinic'
loop_
_space_group_symop_operation_xyz
x,y,z
-x,y,-z
-x,-y,-z
x,-y,z
1/2+x,1/2+y,z
1/2-x,1/2+y,-z
1/2-x,1/2-y,-z
1/2+x,1/2-y,z
loop_
_atom_site_type_symbol
_atom_site_label
_atom_site_fract_x
_atom_site_fract_y
_atom_site_fract_z
Si Si1 0.491985 0.668636 0.674173
Si Si2 0.168038 0.668193 0.672379
Si Si3 0.719009 0.333866 0.426901
Si Si4 0.268365 0.166827 0.814272
Si Si5 0.579181 0.335843 0.837426
Si Si6 0.477587 0.169635 0.920327
O O1 0.509940 0.500000 0.666228
O O2 0.564299 0.757910 0.648476
O O3 0.385068 0.719151 0.626932
O O4 0.511396 0.705217 0.756351
O O5 0.159893 0.500000 0.686714
O O6 0.203643 0.695076 0.608205
O O7 0.244609 0.737901 0.743813
O O8 0.713880 0.500000 0.444401
O O9 0.750000 0.250000 0.500000
O O10 0.189817 0.191969 0.849388
O O11 0.370303 0.217771 0.871045
O O12 0.268612 0.000000 0.792527
O O13 0.562052 0.500000 0.853634
O O14 0.554487 0.236598 0.892221
O O15 0.490044 0.000000 0.920039
O O16 0.500000 0.227091 0.000000
#
# Coordination Sequence:
#
# PCOD8099460 Si02
#       6
#     8   8   8   8   8   8
#     4   9  19  37  57  77 104 138 172 210 260 311
#     4  10  20  35  56  81 104 130 172 221 258 296
#     4  10  22  37  53  76 108 142 173 209 256 308
#     4   9  19  36  55  75 103 138 171 208 259 311
#     4   9  18  34  55  76 100 133 173 213 254 304
#     4  10  21  35  51  75 107 139 171 210 256 305
#
# _framework density 18.365625000000001
#
# number of rings (size 3 to 8) (size 9 to 14) (size 15 to 20)
#    0.000    2.500    0.000    2.500    0.000    8.333 
#    0.000    3.333    0.000    0.000    0.000    0.000 
#    0.000    0.000    0.000    0.000    0.000    0.000 
#
# Total GULP energy -297670.719797 kJ/mol
# GULP energy per Si atom -12402.946658 kJ/mol
# Density = 1.832382 g / cm^3
# Si number density = 18.365625 Si / 1000 Ang^3
#
#
#
# Elastic Constant Matrix: (Units=GPa)
#
#
# Indices 1 2 3 4 5 6 
#
# 1 74.6965 36.5320 34.3367 0.0000 -13.6351 0.0000
# 2 36.5320 57.0741 38.1055 0.0000 -13.2951 0.0000
# 3 34.3367 38.1055 80.2405 0.0000 -18.6346 0.0000
# 4 0.0000 0.0000 0.0000 32.5662 0.0000 -6.6555
# 5 -13.6351 -13.2951 -18.6346 0.0000 23.2323 0.0000
# 6 0.0000 0.0000 0.0000 -6.6555 0.0000 32.0180
#
#
#
# Elastic Compliance Matrix: (Units=1/GPa)
#
#
# Indices 1 2 3 4 5 6 
#
# 1 0.020451 -0.010187 -0.003048 0.000000 0.003729 0.000000
# 2 -0.010187 0.031437 -0.009561 0.000000 0.004342 0.000000
# 3 -0.003048 -0.009561 0.020426 0.000000 0.009123 0.000000
# 4 0.000000 0.000000 0.000000 0.032069 0.000000 0.006666
# 5 0.003729 0.004342 0.009123 0.000000 0.055035 0.000000
# 6 0.000000 0.000000 0.000000 0.006666 0.000000 0.032618
#
#
# Mechanical properties :
#
#
# Convention : Reuss Voigt Hill
#
# Bulk Modulus (GPa) = 37.42291 47.77326 42.59809
# Shear Modulus (GPa) = 20.28101 24.43242 22.35671
#
# Velocity S-wave (km/s) = 3.32669 3.65133 3.49279
# Velocity P-wave (km/s) = 5.93099 6.62156 6.28577
#
# Compressibility (1/GPa) = 0.02672160
#
# Stress axis : x y z
#
# Youngs Moduli (GPa) = 48.89634 31.80992 48.95670
#
# Poissons Ratio (x) = 0.32405 0.14922
# Poissons Ratio (y) = 0.49811 0.46809
# Poissons Ratio (z) = 0.14904 0.30415
#
# Static dielectric constant tensor:
#      x y z
#    x 3.466460 0.000000 0.094220 
#    y 0.000000 3.312770 0.000000 
#    z 0.094220 0.000000 3.319080 
# 
# 
# High freq. dielectric constant tensor:
#      x y z
#    x 1.722890 0.000000 0.001620 
#    y 0.000000 1.708200 0.000000 
#    z 0.001620 0.000000 1.705750 
# 
# From -- ./inp_files/274605.got.cif
#   From: 2010.06.25/outbox.cif.g09.slc.cpg/sg12_138_cif.got.tgz:274605.got - 2010.06.28 00:19:55.
