data_PCOD8099847
_publ_section_title
;
Structure prediction by ZEFSAII (Michael W. Deem and Ramdas Pophale) SiO2 
 PCOD8099847
Probable space group: C 2/M
;
_chemical_formula_sum "Si O2"
_cell_formula_units_Z 40
_cell_length_a 13.697838
_cell_length_b 10.661706
_cell_length_c 16.261255
_cell_angle_alpha 90.000000
_cell_angle_beta 122.309647
_cell_angle_gamma 90.000000
_cell_volume 2007.140678
_symmetry_space_group_name_H-M "C 2/M"
_symmetry_group_IT_number 12
_symmetry_cell_setting 'monoclinic'
loop_
_space_group_symop_operation_xyz
x,y,z
-x,y,-z
-x,-y,-z
x,-y,z
1/2+x,1/2+y,z
1/2-x,1/2+y,-z
1/2-x,1/2-y,-z
1/2+x,1/2-y,z
loop_
_atom_site_type_symbol
_atom_site_label
_atom_site_fract_x
_atom_site_fract_y
_atom_site_fract_z
Si Si1 0.127667 0.708711 0.554064
Si Si2 0.549337 0.354387 0.811837
Si Si3 0.720250 0.358928 0.746175
Si Si4 0.017072 0.643491 0.104090
Si Si5 0.363385 0.364958 0.604346
O O1 0.151752 0.771002 0.652557
O O2 0.232110 0.616231 0.578273
O O3 0.129486 0.808818 0.482240
O O4 0.000000 0.643900 0.500000
O O5 0.529163 0.500000 0.833434
O O6 0.666358 0.347099 0.812476
O O7 0.562226 0.252369 0.890808
O O8 0.443173 0.298879 0.708624
O O9 0.709357 0.500000 0.707691
O O10 0.852715 0.320302 0.813692
O O11 0.986455 0.500000 0.119342
O O12 0.000000 0.652878 0.000000
O O13 0.421256 0.500000 0.620187
#
# Coordination Sequence:
#
# PCOD8099847 Si02
#       5
#     8   8   8   8   8
#     4  11  20  33  54  79 111 148 187 220 270 329
#     4  10  20  37  59  84 113 145 187 233 276 327
#     4  10  20  35  57  82 112 148 185 226 273 331
#     4  10  22  41  61  82 111 146 185 231 284 337
#     4  10  21  34  51  79 113 147 185 229 270 322
#
# _framework density 19.928847999999999
#
# number of rings (size 3 to 8) (size 9 to 14) (size 15 to 20)
#    0.000    1.800    4.000    0.600    0.000    2.400 
#    0.000    2.000    0.000    0.000    0.000    0.000 
#    0.000    0.000    0.000    0.000    0.000    0.000 
#
# Total GULP energy -247777.603085 kJ/mol
# GULP energy per Si atom -12388.880154 kJ/mol
# Density = 1.988349 g / cm^3
# Si number density = 19.928848 Si / 1000 Ang^3
#
#
#
# Elastic Constant Matrix: (Units=GPa)
#
#
# Indices 1 2 3 4 5 6 
#
# 1 70.4764 15.8017 -1.7792 0.0000 -11.1766 0.0000
# 2 15.8017 90.7100 38.4292 0.0000 -18.9972 0.0000
# 3 -1.7792 38.4292 60.0466 0.0000 -16.3082 0.0000
# 4 0.0000 0.0000 0.0000 25.6302 0.0000 -8.2276
# 5 -11.1766 -18.9972 -16.3082 0.0000 24.1974 0.0000
# 6 0.0000 0.0000 0.0000 -8.2276 0.0000 27.5366
#
#
#
# Elastic Compliance Matrix: (Units=1/GPa)
#
#
# Indices 1 2 3 4 5 6 
#
# 1 0.016318 -0.003109 0.004722 0.000000 0.008279 0.000000
# 2 -0.003109 0.016616 -0.009270 0.000000 0.005361 0.000000
# 3 0.004722 -0.009270 0.026124 0.000000 0.012510 0.000000
# 4 0.000000 0.000000 0.000000 0.043156 0.000000 0.012894
# 5 0.008279 0.005361 0.012510 0.000000 0.057791 0.000000
# 6 0.000000 0.000000 0.000000 0.012894 0.000000 0.040168
#
#
# Mechanical properties :
#
#
# Convention : Reuss Voigt Hill
#
# Bulk Modulus (GPa) = 22.86073 36.23738 29.54906
# Shear Modulus (GPa) = 21.73264 26.72491 24.22877
#
# Velocity S-wave (km/s) = 3.30587 3.66596 3.49056
# Velocity P-wave (km/s) = 5.10566 6.01181 5.57717
#
# Compressibility (1/GPa) = 0.04374313
#
# Stress axis : x y z
#
# Youngs Moduli (GPa) = 61.28055 60.18365 38.27911
#
# Poissons Ratio (x) = 0.18713 -0.18075
# Poissons Ratio (y) = 0.19054 0.35485
# Poissons Ratio (z) = -0.28936 0.55791
#
# Static dielectric constant tensor:
#      x y z
#    x 3.801440 0.000000 0.177700 
#    y 0.000000 3.467680 0.000000 
#    z 0.177700 0.000000 3.558720 
# 
# 
# High freq. dielectric constant tensor:
#      x y z
#    x 1.783520 0.000000 0.005430 
#    y 0.000000 1.759240 0.000000 
#    z 0.005430 0.000000 1.772740 
# 
# From -- ./inp_files/140784.got.cif
#   From: 2010.06.25/outbox.cif.g09.slc.cpg/sg12_71_cif.got.tgz:140784.got - 2010.06.28 00:19:55.
