data_PCOD8099061
_publ_section_title
;
Structure prediction by ZEFSAII (Michael W. Deem and Ramdas Pophale) SiO2 
 PCOD8099061
Probable space group: C 2/M
;
_chemical_formula_sum "Si O2"
_cell_formula_units_Z 56
_cell_length_a 19.656504
_cell_length_b 26.760857
_cell_length_c 9.821424
_cell_angle_alpha 90.000000
_cell_angle_beta 146.683757
_cell_angle_gamma 90.000000
_cell_volume 2837.648024
_symmetry_space_group_name_H-M "C 2/M"
_symmetry_group_IT_number 12
_symmetry_cell_setting 'monoclinic'
loop_
_space_group_symop_operation_xyz
x,y,z
-x,y,-z
-x,-y,-z
x,-y,z
1/2+x,1/2+y,z
1/2-x,1/2+y,-z
1/2-x,1/2-y,-z
1/2+x,1/2-y,z
loop_
_atom_site_type_symbol
_atom_site_label
_atom_site_fract_x
_atom_site_fract_y
_atom_site_fract_z
Si Si1 0.507680 0.642334 0.157867
Si Si2 0.805112 0.055684 0.793360
Si Si3 0.283045 0.882462 0.583762
Si Si4 0.638768 0.902205 0.723971
Si Si5 0.580794 0.290003 0.503101
Si Si6 0.405438 0.181343 0.565448
Si Si7 0.825622 0.644480 0.942066
O O1 0.644693 0.622610 0.406581
O O2 0.484589 0.680624 0.242406
O O3 0.500000 0.671170 0.000000
O O4 0.414707 0.595454 0.997231
O O5 0.716712 0.069200 0.515215
O O6 0.721681 0.056105 0.789172
O O7 0.859404 0.000000 0.864485
O O8 0.334493 0.835365 0.584162
O O9 0.354663 0.885606 0.848527
O O10 0.500000 0.923195 0.500000
O O11 0.643733 0.850944 0.644440
O O12 0.693054 0.894427 0.966001
O O13 0.500000 0.278599 0.500000
O O14 0.627258 0.238827 0.513572
O O15 0.705548 0.320580 0.739185
O O16 0.553213 0.177228 0.825085
#
# Coordination Sequence:
#
# PCOD8099061 Si02
#       7
#     8   8   8   8   8   8   8
#     4   9  20  35  53  79 110 143 181 229 278 331
#     4  10  20  37  61  84 110 146 186 231 284 339
#     4   9  20  36  54  78 108 142 183 229 278 327
#     4   9  19  36  56  80 113 149 186 226 276 334
#     4  11  22  34  54  83 114 150 192 230 274 330
#     4  10  21  35  54  81 111 151 191 226 275 333
#     4  10  20  35  55  77 112 150 181 233 284 322
#
# _framework density 19.734653000000002
#
# number of rings (size 3 to 8) (size 9 to 14) (size 15 to 20)
#    0.000    2.286    0.000    2.571    0.000   12.000 
#    0.000    0.714    0.000   19.286    0.000    0.000 
#    0.000    0.000    0.000    0.000    0.000    0.000 
#
# Total GULP energy -346962.773721 kJ/mol
# GULP energy per Si atom -12391.527633 kJ/mol
# Density = 1.968974 g / cm^3
# Si number density = 19.734653 Si / 1000 Ang^3
#
#
#
# Elastic Constant Matrix: (Units=GPa)
#
#
# Indices 1 2 3 4 5 6 
#
# 1 118.6961 33.6113 37.3899 0.0000 -20.7841 0.0000
# 2 33.6113 86.7074 31.8777 0.0000 -10.5662 0.0000
# 3 37.3899 31.8777 81.2636 0.0000 -20.8517 0.0000
# 4 0.0000 0.0000 0.0000 17.4928 0.0000 4.8801
# 5 -20.7841 -10.5662 -20.8517 0.0000 42.9636 0.0000
# 6 0.0000 0.0000 0.0000 4.8801 0.0000 15.3045
#
#
#
# Elastic Compliance Matrix: (Units=1/GPa)
#
#
# Indices 1 2 3 4 5 6 
#
# 1 0.010675 -0.002629 -0.003109 0.000000 0.003009 0.000000
# 2 -0.002629 0.014151 -0.004312 0.000000 0.000116 0.000000
# 3 -0.003109 -0.004312 0.016870 0.000000 0.005624 0.000000
# 4 0.000000 0.000000 0.000000 0.062748 0.000000 -0.020008
# 5 0.003009 0.000116 0.005624 0.000000 0.027489 0.000000
# 6 0.000000 0.000000 0.000000 -0.020008 0.000000 0.071720
#
#
# Mechanical properties :
#
#
# Convention : Reuss Voigt Hill
#
# Bulk Modulus (GPa) = 46.29912 54.71387 50.50649
# Shear Modulus (GPa) = 21.64947 27.40472 24.52709
#
# Velocity S-wave (km/s) = 3.31573 3.73052 3.52922
# Velocity P-wave (km/s) = 6.17823 6.80739 6.50043
#
# Compressibility (1/GPa) = 0.02159868
#
# Stress axis : x y z
#
# Youngs Moduli (GPa) = 93.67371 70.66412 59.27555
#
# Poissons Ratio (x) = 0.18575 0.18426
# Poissons Ratio (y) = 0.24624 0.25560
# Poissons Ratio (z) = 0.29119 0.30471
#
# Static dielectric constant tensor:
#      x y z
#    x 3.938630 0.000000 -0.246580 
#    y 0.000000 3.191810 0.000000 
#    z -0.246580 0.000000 3.916900 
# 
# 
# High freq. dielectric constant tensor:
#      x y z
#    x 1.791750 0.000000 -0.004750 
#    y 0.000000 1.726590 0.000000 
#    z -0.004750 0.000000 1.773610 
# 
# From -- ./inp_files/80124.got.cif
#   From: 2010.06.25/outbox.cif.g09.slc.cpg/sg12_41_cif.got.tgz:80124.got - 2010.06.28 00:19:55.
