data_PCOD8099575
_publ_section_title
;
Structure prediction by ZEFSAII (Michael W. Deem and Ramdas Pophale) SiO2 
 PCOD8099575
Probable space group: C 2/M
;
_chemical_formula_sum "Si O2"
_cell_formula_units_Z 48
_cell_length_a 12.786498
_cell_length_b 12.696160
_cell_length_c 19.452563
_cell_angle_alpha 90.000000
_cell_angle_beta 125.039888
_cell_angle_gamma 90.000000
_cell_volume 2585.553271
_symmetry_space_group_name_H-M "C 2/M"
_symmetry_group_IT_number 12
_symmetry_cell_setting 'monoclinic'
loop_
_space_group_symop_operation_xyz
x,y,z
-x,y,-z
-x,-y,-z
x,-y,z
1/2+x,1/2+y,z
1/2-x,1/2+y,-z
1/2-x,1/2-y,-z
1/2+x,1/2-y,z
loop_
_atom_site_type_symbol
_atom_site_label
_atom_site_fract_x
_atom_site_fract_y
_atom_site_fract_z
Si Si1 0.436681 0.177479 0.548531
Si Si2 0.861795 0.619456 0.266278
Si Si3 0.349093 0.618820 0.576588
Si Si4 0.125729 0.747256 0.866527
Si Si5 0.384935 0.375874 0.747050
Si Si6 0.371564 0.124025 0.993520
O O1 0.500000 0.153456 0.500000
O O2 0.517139 0.122351 0.638239
O O3 0.428642 0.303465 0.557471
O O4 0.299124 0.123551 0.498507
O O5 0.836477 0.500000 0.233635
O O6 0.888750 0.687341 0.209919
O O7 0.739194 0.666201 0.259679
O O8 0.399612 0.500000 0.584583
O O9 0.371258 0.657831 0.662721
O O10 0.256324 0.813228 0.914541
O O11 0.008334 0.826974 0.829770
O O12 0.116991 0.662461 0.923991
O O13 0.396275 0.500000 0.757715
O O14 0.341816 0.000000 0.981603
O O15 0.500000 0.149886 0.000000
#
# Coordination Sequence:
#
# PCOD8099575 Si02
#       6
#     8   8   8   8   8   8
#     4  11  21  36  57  79 112 154 190 229 274 320
#     4  11  22  35  55  85 114 145 189 232 272 322
#     4  10  21  36  54  79 111 148 190 232 274 321
#     4  11  21  38  60  84 113 145 181 227 280 327
#     4  10  20  35  56  82 112 144 185 231 275 325
#     4  10  22  40  61  84 112 145 181 222 276 342
#
# _framework density 18.564691
#
# number of rings (size 3 to 8) (size 9 to 14) (size 15 to 20)
#    0.000    1.500    3.333    2.500    0.000    1.000 
#    0.000    0.000    0.000    9.000    0.000    0.000 
#    0.000    0.000    0.000    0.000    0.000    0.000 
#
# Total GULP energy -297685.311645 kJ/mol
# GULP energy per Si atom -12403.554652 kJ/mol
# Density = 1.852244 g / cm^3
# Si number density = 18.564691 Si / 1000 Ang^3
#
#
#
# Elastic Constant Matrix: (Units=GPa)
#
#
# Indices 1 2 3 4 5 6 
#
# 1 65.4505 28.9992 33.2052 0.0000 7.4283 0.0000
# 2 28.9992 64.9066 20.8661 0.0000 -4.4852 0.0000
# 3 33.2052 20.8661 97.4863 0.0000 -1.7074 0.0000
# 4 0.0000 0.0000 0.0000 19.0543 0.0000 -4.5806
# 5 7.4283 -4.4852 -1.7074 0.0000 31.5126 0.0000
# 6 0.0000 0.0000 0.0000 -4.5806 0.0000 -22.1930
#
#
#
# Elastic Compliance Matrix: (Units=1/GPa)
#
#
# Indices 1 2 3 4 5 6 
#
# 1 0.023085 -0.008841 -0.006094 0.000000 -0.007030 0.000000
# 2 -0.008841 0.020080 -0.001201 0.000000 0.004877 0.000000
# 3 -0.006094 -0.001201 0.012625 0.000000 0.001950 0.000000
# 4 0.000000 0.000000 0.000000 0.050001 0.000000 -0.010320
# 5 -0.007030 0.004877 0.001950 0.000000 0.034190 0.000000
# 6 0.000000 0.000000 0.000000 -0.010320 0.000000 -0.042929
#
#
# Mechanical properties :
#
#
# Convention : Reuss Voigt Hill
#
# Bulk Modulus (GPa) = 42.52077 43.77605 43.14841
# Shear Modulus (GPa) = 36.45286 15.32631 25.88959
#
# Velocity S-wave (km/s) = 4.43601 2.87638 3.73843
# Velocity P-wave (km/s) = 7.01366 5.88752 6.47512
#
# Compressibility (1/GPa) = 0.02351792
#
# Stress axis : x y z
#
# Youngs Moduli (GPa) = 43.31729 49.80109 79.20900
#
# Poissons Ratio (x) = 0.44029 0.48270
# Poissons Ratio (y) = 0.38296 0.09514
# Poissons Ratio (z) = 0.26398 0.05982
#
# Static dielectric constant tensor:
#      x y z
#    x 3.421590 0.000000 0.051290 
#    y 0.000000 3.387910 0.000000 
#    z 0.051290 0.000000 3.463490 
# 
# 
# High freq. dielectric constant tensor:
#      x y z
#    x 1.719800 0.000000 0.004130 
#    y 0.000000 1.724770 0.000000 
#    z 0.004130 0.000000 1.730220 
# 
# From -- ./inp_files/204463.got.cif
#   From: 2010.06.25/outbox.cif.g09.slc.cpg/sg12_103_cif.got.tgz:204463.got - 2010.06.28 00:19:55.
