data_PCOD8099948
_publ_section_title
;
Structure prediction by ZEFSAII (Michael W. Deem and Ramdas Pophale) SiO2 
 PCOD8099948
Probable space group: C 2/M
;
_chemical_formula_sum "Si O2"
_cell_formula_units_Z 64
_cell_length_a 18.748741
_cell_length_b 9.123903
_cell_length_c 20.460399
_cell_angle_alpha 90.000000
_cell_angle_beta 100.449411
_cell_angle_gamma 90.000000
_cell_volume 3441.944674
_symmetry_space_group_name_H-M "C 2/M"
_symmetry_group_IT_number 12
_symmetry_cell_setting 'monoclinic'
loop_
_space_group_symop_operation_xyz
x,y,z
-x,y,-z
-x,-y,-z
x,-y,z
1/2+x,1/2+y,z
1/2-x,1/2+y,-z
1/2-x,1/2-y,-z
1/2+x,1/2-y,z
loop_
_atom_site_type_symbol
_atom_site_label
_atom_site_fract_x
_atom_site_fract_y
_atom_site_fract_z
Si Si1 0.019532 0.170839 0.077149
Si Si2 0.081475 0.827662 0.514938
Si Si3 0.354002 0.835690 0.843410
Si Si4 0.159432 0.827011 0.398190
Si Si5 0.436538 0.829049 0.175534
Si Si6 0.926834 0.665136 0.719525
Si Si7 0.700900 0.672443 0.635246
Si Si8 0.305777 0.330354 0.216533
O O1 0.101765 0.223095 0.104366
O O2 0.962766 0.253639 0.113554
O O3 0.014176 0.000000 0.091458
O O4 0.000000 0.208490 0.000000
O O5 0.131651 0.770573 0.463957
O O6 0.123565 0.787875 0.589000
O O7 0.000000 0.757348 0.500000
O O8 0.072710 0.000000 0.505287
O O9 0.372254 0.817213 0.770530
O O10 0.268866 0.806302 0.834846
O O11 0.374534 0.000000 0.869620
O O12 0.095612 0.782921 0.337897
O O13 0.234804 0.750119 0.393371
O O14 0.171516 0.000000 0.397810
O O15 0.492140 0.798108 0.243735
O O16 0.360346 0.765437 0.183987
O O17 0.429754 0.000000 0.159549
O O18 0.921695 0.500000 0.690329
O O19 0.716978 0.500000 0.634631
O O20 0.698353 0.727387 0.709574
O O21 0.329494 0.500000 0.220517
#
# Coordination Sequence:
#
# PCOD8099948 Si02
#       8
#     8   8   8   8   8   8   8   8
#     4  10  21  38  61  88 116 148 187 225 265 321
#     4   9  20  36  53  76 105 140 186 233 279 334
#     4   9  18  35  57  83 113 146 186 225 269 327
#     4  11  21  32  54  82 105 136 186 236 274 330
#     4  10  22  37  56  83 116 149 184 227 275 326
#     4   9  18  35  54  76 108 145 181 221 276 332
#     4  10  20  37  58  75 106 150 182 225 284 336
#     4  10  20  35  57  84 112 146 186 229 282 333
#
# _framework density 18.594138999999998
#
# number of rings (size 3 to 8) (size 9 to 14) (size 15 to 20)
#    0.000    2.250    1.250    2.250    1.750    4.500 
#    0.000    1.250    0.000    1.875    0.000    0.000 
#    0.000    0.000    0.000    0.000    0.000    0.000 
#
# Total GULP energy -396805.818243 kJ/mol
# GULP energy per Si atom -12400.181820 kJ/mol
# Density = 1.855182 g / cm^3
# Si number density = 18.594139 Si / 1000 Ang^3
#
#
#
# Elastic Constant Matrix: (Units=GPa)
#
#
# Indices 1 2 3 4 5 6 
#
# 1 113.3130 50.3274 57.0310 0.0000 -7.1681 0.0000
# 2 50.3274 69.3956 50.1795 0.0000 -2.2487 0.0000
# 3 57.0310 50.1795 99.6367 0.0000 6.0086 0.0000
# 4 0.0000 0.0000 0.0000 25.0015 0.0000 0.0678
# 5 -7.1681 -2.2487 6.0086 0.0000 18.3555 0.0000
# 6 0.0000 0.0000 0.0000 0.0678 0.0000 32.9137
#
#
#
# Elastic Compliance Matrix: (Units=1/GPa)
#
#
# Indices 1 2 3 4 5 6 
#
# 1 0.015064 -0.006544 -0.005747 0.000000 0.006962 0.000000
# 2 -0.006544 0.026329 -0.009747 0.000000 0.003861 0.000000
# 3 -0.005747 -0.009747 0.018814 0.000000 -0.009597 0.000000
# 4 0.000000 0.000000 0.000000 0.039998 0.000000 -0.000082
# 5 0.006962 0.003861 -0.009597 0.000000 0.060813 0.000000
# 6 0.000000 0.000000 0.000000 -0.000082 0.000000 0.030383
#
#
# Mechanical properties :
#
#
# Convention : Reuss Voigt Hill
#
# Bulk Modulus (GPa) = 61.99175 66.38014 64.18594
# Shear Modulus (GPa) = 20.75948 23.57462 22.16705
#
# Velocity S-wave (km/s) = 3.34496 3.56455 3.45650
# Velocity P-wave (km/s) = 6.95199 7.26074 7.10804
#
# Compressibility (1/GPa) = 0.01613118
#
# Stress axis : x y z
#
# Youngs Moduli (GPa) = 66.38138 37.98060 53.15307
#
# Poissons Ratio (x) = 0.24854 0.30547
# Poissons Ratio (y) = 0.43440 0.51809
# Poissons Ratio (z) = 0.38149 0.37020
#
# Static dielectric constant tensor:
#      x y z
#    x 3.558640 0.000000 0.068180 
#    y 0.000000 3.284050 0.000000 
#    z 0.068180 0.000000 3.336350 
# 
# 
# High freq. dielectric constant tensor:
#      x y z
#    x 1.729710 0.000000 0.007010 
#    y 0.000000 1.709710 0.000000 
#    z 0.007010 0.000000 1.711860 
# 
# From -- ./inp_files/314122.got.cif
#   From: 2010.06.25/outbox.cif.g09.slc.cpg/sg12_158_cif.got.tgz:314122.got - 2010.06.28 00:19:55.
