data_PCOD8099660
_publ_section_title
;
Structure prediction by ZEFSAII (Michael W. Deem and Ramdas Pophale) SiO2 
 PCOD8099660
Probable space group: C 2/M
;
_chemical_formula_sum "Si O2"
_cell_formula_units_Z 56
_cell_length_a 28.338615
_cell_length_b 8.606469
_cell_length_c 15.071500
_cell_angle_alpha 90.000000
_cell_angle_beta 44.033751
_cell_angle_gamma 90.000000
_cell_volume 2555.030817
_symmetry_space_group_name_H-M "C 2/M"
_symmetry_group_IT_number 12
_symmetry_cell_setting 'monoclinic'
loop_
_space_group_symop_operation_xyz
x,y,z
-x,y,-z
-x,-y,-z
x,-y,z
1/2+x,1/2+y,z
1/2-x,1/2+y,-z
1/2-x,1/2-y,-z
1/2+x,1/2-y,z
loop_
_atom_site_type_symbol
_atom_site_label
_atom_site_fract_x
_atom_site_fract_y
_atom_site_fract_z
Si Si1 0.749906 0.826284 0.729064
Si Si2 0.784561 0.819950 0.868867
Si Si3 0.927369 0.676392 0.671397
Si Si4 0.507873 0.322373 0.713138
Si Si5 0.808154 0.820548 0.357446
Si Si6 0.110127 0.323714 0.462825
Si Si7 0.038884 0.818998 0.862065
O O1 0.731086 0.806374 0.858641
O O2 0.711933 0.704248 0.718122
O O3 0.830689 0.801720 0.617499
O O4 0.733552 0.000000 0.717165
O O5 0.847657 0.707857 0.763695
O O6 0.806177 0.000000 0.853303
O O7 0.750000 0.750000 0.000000
O O8 0.941469 0.500000 0.682844
O O9 0.948020 0.790178 0.723578
O O10 0.948021 0.701800 0.537787
O O11 0.530625 0.500000 0.670646
O O12 0.569960 0.207927 0.607428
O O13 0.491022 0.290835 0.839849
O O14 0.750000 0.750000 0.500000
O O15 0.885079 0.750650 0.261059
O O16 0.809336 0.000000 0.379819
O O17 0.138110 0.500000 0.422877
O O18 0.048954 0.000000 0.869220
O O19 0.000000 0.742670 0.000000
#
# Coordination Sequence:
#
# PCOD8099660 Si02
#       7
#     8   8   8   8   8   8   8
#     4  10  21  37  57  84 117 149 188 242 297 350
#     4  10  21  37  57  81 112 149 188 234 287 348
#     4  10  21  36  54  80 114 149 187 230 281 347
#     4  11  21  34  57  84 111 148 190 237 292 346
#     4  11  22  38  64  92 119 155 200 252 305 360
#     4  10  20  35  56  83 116 152 188 230 285 351
#     4   9  21  41  60  82 114 153 199 246 292 348
#
# _framework density 21.917543999999999
#
# number of rings (size 3 to 8) (size 9 to 14) (size 15 to 20)
#    0.000    1.857    0.000    3.857    0.000    7.429 
#    0.000    3.571    0.000    6.000    0.000    0.000 
#    0.000    0.000    0.000    0.000    0.000    0.000 
#
# Total GULP energy -346872.704646 kJ/mol
# GULP energy per Si atom -12388.310880 kJ/mol
# Density = 2.186766 g / cm^3
# Si number density = 21.917544 Si / 1000 Ang^3
#
#
#
# Elastic Constant Matrix: (Units=GPa)
#
#
# Indices 1 2 3 4 5 6 
#
# 1 106.4816 21.0425 37.5950 0.0002 24.6173 0.0002
# 2 21.0425 65.3115 31.1264 0.0006 15.5549 0.0019
# 3 37.5950 31.1264 107.6108 0.0006 29.4550 -0.0002
# 4 0.0002 0.0006 0.0006 28.8271 0.0001 2.1196
# 5 24.6173 15.5549 29.4550 0.0001 31.7407 -0.0002
# 6 0.0002 0.0019 -0.0002 2.1196 -0.0002 32.9365
#
#
#
# Elastic Compliance Matrix: (Units=1/GPa)
#
#
# Indices 1 2 3 4 5 6 
#
# 1 0.011900 -0.001297 -0.001917 0.000000 -0.006815 0.000000
# 2 -0.001297 0.018586 -0.003626 0.000000 -0.004737 -0.000001
# 3 -0.001917 -0.003626 0.013563 0.000000 -0.009323 0.000000
# 4 0.000000 0.000000 0.000000 0.034855 0.000000 -0.002243
# 5 -0.006815 -0.004737 -0.009323 0.000000 0.047763 0.000001
# 6 0.000000 -0.000001 0.000000 -0.002243 0.000001 0.030506
#
#
# Mechanical properties :
#
#
# Convention : Reuss Voigt Hill
#
# Bulk Modulus (GPa) = 32.92942 50.99242 41.96092
# Shear Modulus (GPa) = 27.62807 31.34352 29.48579
#
# Velocity S-wave (km/s) = 3.55427 3.78572 3.67182
# Velocity P-wave (km/s) = 5.64806 6.51345 6.09613
#
# Compressibility (1/GPa) = 0.03036798
#
# Stress axis : x y z
#
# Youngs Moduli (GPa) = 84.03415 53.80530 73.72987
#
# Poissons Ratio (x) = 0.06981 0.14132
# Poissons Ratio (y) = 0.10903 0.26735
# Poissons Ratio (z) = 0.16107 0.19510
#
# Static dielectric constant tensor:
#      x y z
#    x 4.218100 0.000000 0.419670 
#    y 0.000000 3.751320 0.000000 
#    z 0.419670 0.000000 5.087770 
# 
# 
# High freq. dielectric constant tensor:
#      x y z
#    x 1.868590 0.000000 0.019980 
#    y 0.000000 1.844600 0.000000 
#    z 0.019980 0.000000 1.857350 
# 
# From -- ./inp_files/248876.got.cif
#   From: 2010.06.25/outbox.cif.g09.slc.cpg/sg12_125_cif.got.tgz:248876.got - 2010.06.28 00:19:55.
