data_PCOD8099128
_publ_section_title
;
Structure prediction by ZEFSAII (Michael W. Deem and Ramdas Pophale) SiO2 
 PCOD8099128
Probable space group: C 2/M
;
_chemical_formula_sum "Si O2"
_cell_formula_units_Z 56
_cell_length_a 31.301141
_cell_length_b 8.504408
_cell_length_c 18.066217
_cell_angle_alpha 90.000000
_cell_angle_beta 142.110122
_cell_angle_gamma 90.000000
_cell_volume 2953.540681
_symmetry_space_group_name_H-M "C 2/M"
_symmetry_group_IT_number 12
_symmetry_cell_setting 'monoclinic'
loop_
_space_group_symop_operation_xyz
x,y,z
-x,y,-z
-x,-y,-z
x,-y,z
1/2+x,1/2+y,z
1/2-x,1/2+y,-z
1/2-x,1/2-y,-z
1/2+x,1/2-y,z
loop_
_atom_site_type_symbol
_atom_site_label
_atom_site_fract_x
_atom_site_fract_y
_atom_site_fract_z
Si Si1 0.285268 0.320233 0.848781
Si Si2 0.207926 0.820075 0.873735
Si Si3 0.824231 0.184884 0.399146
Si Si4 0.915455 0.315238 0.963442
Si Si5 0.317950 0.187380 0.552235
Si Si6 0.079357 0.186179 0.604381
Si Si7 0.929292 0.316129 0.818490
O O1 0.273403 0.500000 0.856955
O O2 0.258451 0.200805 0.873780
O O3 0.244768 0.280042 0.717984
O O4 0.366212 0.287097 0.948213
O O5 0.131310 0.750919 0.742267
O O6 0.196610 0.000000 0.877704
O O7 0.250000 0.750000 0.000000
O O8 0.837364 0.234961 0.500852
O O9 0.887950 0.232017 0.431110
O O10 0.809535 0.000000 0.374432
O O11 0.897190 0.500000 0.943490
O O12 0.909531 0.247546 0.871851
O O13 0.992283 0.278583 0.098150
O O14 0.250000 0.250000 0.500000
O O15 0.380009 0.250907 0.688179
O O16 0.314718 0.000000 0.539800
O O17 0.000000 0.255815 0.500000
O O18 0.075806 0.000000 0.607276
O O19 0.919222 0.500000 0.813746
#
# Coordination Sequence:
#
# PCOD8099128 Si02
#       7
#     8   8   8   8   8   8   8
#     4  11  21  34  54  80 107 138 179 223 268 320
#     4  10  20  36  58  83 113 144 180 226 277 334
#     4  10  20  35  55  79 107 143 184 224 272 329
#     4   9  16  33  56  75  99 138 181 218 267 322
#     4  11  21  34  52  78 111 144 182 225 271 321
#     4   8  16  34  59  82 106 142 185 228 278 329
#     4   8  17  32  52  74 102 140 178 218 265 322
#
# _framework density 18.960293
#
# number of rings (size 3 to 8) (size 9 to 14) (size 15 to 20)
#    0.000    2.429    0.000    5.143    0.000    1.143 
#    2.571    3.571    0.000   14.571    0.000    0.000 
#    0.000    0.000    0.000    0.000    0.000    0.000 
#
# Total GULP energy -346927.772787 kJ/mol
# GULP energy per Si atom -12390.277600 kJ/mol
# Density = 1.891714 g / cm^3
# Si number density = 18.960293 Si / 1000 Ang^3
#
#
#
# Elastic Constant Matrix: (Units=GPa)
#
#
# Indices 1 2 3 4 5 6 
#
# 1 93.1302 16.5549 71.2786 0.0000 12.0190 0.0000
# 2 16.5549 48.4793 21.3950 0.0000 3.6598 0.0000
# 3 71.2786 21.3950 163.1493 0.0000 0.8294 0.0000
# 4 0.0000 0.0000 0.0000 25.1254 0.0000 -4.3762
# 5 12.0190 3.6598 0.8294 0.0000 32.9263 0.0000
# 6 0.0000 0.0000 0.0000 -4.3762 0.0000 24.9607
#
#
#
# Elastic Compliance Matrix: (Units=1/GPa)
#
#
# Indices 1 2 3 4 5 6 
#
# 1 0.017519 -0.002302 -0.007322 0.000000 -0.005955 0.000000
# 2 -0.002302 0.022382 -0.001921 0.000000 -0.001599 0.000000
# 3 -0.007322 -0.001921 0.009567 0.000000 0.002645 0.000000
# 4 0.000000 0.000000 0.000000 0.041054 0.000000 0.007198
# 5 -0.005955 -0.001599 0.002645 0.000000 0.032656 0.000000
# 6 0.000000 0.000000 0.000000 0.007198 0.000000 0.041325
#
#
# Mechanical properties :
#
#
# Convention : Reuss Voigt Hill
#
# Bulk Modulus (GPa) = 37.91034 58.13509 48.02271
# Shear Modulus (GPa) = 25.46018 29.63784 27.54901
#
# Velocity S-wave (km/s) = 3.66842 3.95796 3.81594
# Velocity P-wave (km/s) = 6.16288 7.18438 6.69315
#
# Compressibility (1/GPa) = 0.02637803
#
# Stress axis : x y z
#
# Youngs Moduli (GPa) = 57.08020 44.67870 104.52872
#
# Poissons Ratio (x) = 0.10284 0.76535
# Poissons Ratio (y) = 0.13138 0.20084
# Poissons Ratio (z) = 0.41793 0.08585
#
# Static dielectric constant tensor:
#      x y z
#    x 3.780020 0.000000 -0.651960 
#    y 0.000000 3.229380 0.000000 
#    z -0.651960 0.000000 5.643070 
# 
# 
# High freq. dielectric constant tensor:
#      x y z
#    x 1.732210 0.000000 0.004220 
#    y 0.000000 1.713100 0.000000 
#    z 0.004220 0.000000 1.744520 
# 
# From -- ./inp_files/280984.got.cif
#   From: 2010.06.25/outbox.cif.g09.slc.cpg/sg12_141_cif.got.tgz:280984.got - 2010.06.28 00:19:55.
