data_PCOD8099843
_publ_section_title
;
Structure prediction by ZEFSAII (Michael W. Deem and Ramdas Pophale) SiO2 
 PCOD8099843
Probable space group: C 2/M
;
_chemical_formula_sum "Si O2"
_cell_formula_units_Z 64
_cell_length_a 14.924767
_cell_length_b 9.049144
_cell_length_c 30.475009
_cell_angle_alpha 90.000000
_cell_angle_beta 127.206258
_cell_angle_gamma 90.000000
_cell_volume 3278.121040
_symmetry_space_group_name_H-M "C 2/M"
_symmetry_group_IT_number 12
_symmetry_cell_setting 'monoclinic'
loop_
_space_group_symop_operation_xyz
x,y,z
-x,y,-z
-x,-y,-z
x,-y,z
1/2+x,1/2+y,z
1/2-x,1/2+y,-z
1/2-x,1/2-y,-z
1/2+x,1/2-y,z
loop_
_atom_site_type_symbol
_atom_site_label
_atom_site_fract_x
_atom_site_fract_y
_atom_site_fract_z
Si Si1 0.774921 0.166467 0.941097
Si Si2 0.032883 0.673567 0.633867
Si Si3 0.076977 0.333882 0.952881
Si Si4 0.673730 0.827935 0.760546
Si Si5 0.431487 0.327636 0.843524
Si Si6 0.400624 0.826130 0.441115
Si Si7 0.379254 0.674038 0.168783
Si Si8 0.299189 0.674722 0.557661
O O1 0.679825 0.167238 0.949743
O O2 0.731021 0.253113 0.885559
O O3 0.806111 0.000000 0.936376
O O4 0.886691 0.246421 0.992498
O O5 0.004497 0.500000 0.623820
O O6 0.117475 0.712948 0.697862
O O7 0.091312 0.730203 0.606408
O O8 0.919199 0.763465 0.606861
O O9 0.044001 0.500000 0.956302
O O10 0.969803 0.256478 0.898842
O O11 0.609295 0.735788 0.778762
O O12 0.804154 0.782130 0.795250
O O13 0.660986 0.000000 0.768047
O O14 0.445105 0.500000 0.857269
O O15 0.508211 0.282155 0.824595
O O16 0.500000 0.754003 0.500000
O O17 0.280583 0.782203 0.425276
O O18 0.417172 0.000000 0.446464
O O19 0.361356 0.500000 0.164475
O O20 0.304293 0.500000 0.551185
O O21 0.250000 0.750000 0.500000
#
# Coordination Sequence:
#
# PCOD8099843 Si02
#       8
#     8   8   8   8   8   8   8   8
#     4   9  16  28  49  77 110 146 183 224 278 344
#     4  10  21  39  59  81 112 149 189 230 273 325
#     4   9  16  27  48  79 110 141 180 230 286 335
#     4  10  22  39  58  79 108 147 189 231 276 331
#     4   9  19  36  56  78 106 146 190 229 277 337
#     4   9  17  33  58  84 112 149 185 216 263 329
#     4  10  20  35  57  82 110 143 185 237 283 329
#     4  11  21  35  59  88 117 148 183 223 270 324
#
# _framework density 19.52338
#
# number of rings (size 3 to 8) (size 9 to 14) (size 15 to 20)
#    0.000    2.375    1.250    1.500    0.000    5.500 
#    0.000    5.000    0.000    3.750    0.000    0.000 
#    0.000    0.000    0.000    0.000    0.000    0.000 
#
# Total GULP energy -396852.569918 kJ/mol
# GULP energy per Si atom -12401.642810 kJ/mol
# Density = 1.947894 g / cm^3
# Si number density = 19.523380 Si / 1000 Ang^3
#
#
#
# Elastic Constant Matrix: (Units=GPa)
#
#
# Indices 1 2 3 4 5 6 
#
# 1 92.3001 33.8371 52.1940 0.0000 6.6935 0.0000
# 2 33.8371 77.9225 45.3552 0.0000 7.5661 0.0000
# 3 52.1940 45.3552 132.6536 0.0000 9.6436 0.0000
# 4 0.0000 0.0000 0.0000 31.4972 0.0000 0.2377
# 5 6.6935 7.5661 9.6436 0.0000 32.9322 0.0000
# 6 0.0000 0.0000 0.0000 0.2377 0.0000 25.5318
#
#
#
# Elastic Compliance Matrix: (Units=1/GPa)
#
#
# Indices 1 2 3 4 5 6 
#
# 1 0.014801 -0.003735 -0.004486 0.000000 -0.000837 0.000000
# 2 -0.003735 0.017111 -0.004240 0.000000 -0.001930 0.000000
# 3 -0.004486 -0.004240 0.010847 0.000000 -0.001290 0.000000
# 4 0.000000 0.000000 0.000000 0.031751 0.000000 -0.000296
# 5 -0.000837 -0.001930 -0.001290 0.000000 0.031357 0.000000
# 6 0.000000 0.000000 0.000000 -0.000296 0.000000 0.039170
#
#
# Mechanical properties :
#
#
# Convention : Reuss Voigt Hill
#
# Bulk Modulus (GPa) = 56.06514 62.84989 59.45752
# Shear Modulus (GPa) = 28.42472 29.42491 28.92482
#
# Velocity S-wave (km/s) = 3.81981 3.88643 3.85326
# Velocity P-wave (km/s) = 6.94506 7.23886 7.09348
#
# Compressibility (1/GPa) = 0.01783640
#
# Stress axis : x y z
#
# Youngs Moduli (GPa) = 67.56451 58.44303 92.19132
#
# Poissons Ratio (x) = 0.21828 0.41354
# Poissons Ratio (y) = 0.25235 0.39093
# Poissons Ratio (z) = 0.30307 0.24782
#
# Static dielectric constant tensor:
#      x y z
#    x 3.648350 0.000000 -0.005690 
#    y 0.000000 3.504630 0.000000 
#    z -0.005690 0.000000 3.647600 
# 
# 
# High freq. dielectric constant tensor:
#      x y z
#    x 1.758030 0.000000 -0.002140 
#    y 0.000000 1.749930 0.000000 
#    z -0.002140 0.000000 1.759770 
# 
# From -- ./inp_files/375670.got.cif
#   From: 2010.06.25/outbox.cif.g09.slc.cpg/sg12_188_cif.got.tgz:375670.got - 2010.06.28 00:19:55.
