data_PCOD8099558
_publ_section_title
;
Structure prediction by ZEFSAII (Michael W. Deem and Ramdas Pophale) SiO2 
 PCOD8099558
Probable space group: C 2/M
;
_chemical_formula_sum "Si O2"
_cell_formula_units_Z 64
_cell_length_a 19.821254
_cell_length_b 9.186704
_cell_length_c 18.952676
_cell_angle_alpha 90.000000
_cell_angle_beta 89.204226
_cell_angle_gamma 90.000000
_cell_volume 3450.797696
_symmetry_space_group_name_H-M "C 2/M"
_symmetry_group_IT_number 12
_symmetry_cell_setting 'monoclinic'
loop_
_space_group_symop_operation_xyz
x,y,z
-x,y,-z
-x,-y,-z
x,-y,z
1/2+x,1/2+y,z
1/2-x,1/2+y,-z
1/2-x,1/2-y,-z
1/2+x,1/2-y,z
loop_
_atom_site_type_symbol
_atom_site_label
_atom_site_fract_x
_atom_site_fract_y
_atom_site_fract_z
Si Si1 0.703615 0.671811 0.057108
Si Si2 0.547412 0.834998 0.199547
Si Si3 0.017159 0.329367 0.354226
Si Si4 0.106519 0.165606 0.582627
Si Si5 0.296299 0.833545 0.803293
Si Si6 0.640731 0.329907 0.422347
Si Si7 0.451729 0.328946 0.938938
Si Si8 0.755821 0.832814 0.346290
O O1 0.714479 0.500000 0.052435
O O2 0.726456 0.727621 0.133515
O O3 0.625610 0.715870 0.044106
O O4 0.750000 0.750000 0.000000
O O5 0.506424 0.795875 0.271180
O O6 0.625659 0.809458 0.216238
O O7 0.522684 0.735595 0.135547
O O8 0.534100 0.000000 0.176405
O O9 0.026855 0.500000 0.367197
O O10 0.083463 0.249221 0.379166
O O11 0.953428 0.274288 0.398576
O O12 0.133096 0.203417 0.504844
O O13 0.165956 0.190114 0.637577
O O14 0.079350 0.000000 0.586174
O O15 0.253780 0.789211 0.735156
O O16 0.282021 0.000000 0.826210
O O17 0.637108 0.500000 0.405811
O O18 0.713028 0.269739 0.397990
O O19 0.459170 0.500000 0.932079
O O20 0.500000 0.267937 0.000000
O O21 0.733371 0.000000 0.359041
#
# Coordination Sequence:
#
# PCOD8099558 Si02
#       8
#     8   8   8   8   8   8   8   8
#     4  10  20  35  56  82 111 142 179 220 265 319
#     4   9  18  34  56  81 107 139 182 225 267 319
#     4  11  22  38  58  81 111 148 190 231 277 333
#     4  10  23  39  54  81 116 148 182 231 286 332
#     4   9  17  34  58  80 106 141 182 225 266 320
#     4  11  22  36  58  84 111 143 188 235 277 332
#     4   9  19  36  57  82 109 139 179 220 262 319
#     4  10  20  38  60  81 111 148 187 227 280 337
#
# _framework density 18.546437000000001
#
# number of rings (size 3 to 8) (size 9 to 14) (size 15 to 20)
#    0.000    2.125    1.250    1.875    0.000    5.250 
#    2.250    0.000    0.000    0.000    0.000    0.000 
#    0.000    0.000    0.000    0.000    0.000    0.000 
#
# Total GULP energy -396898.420019 kJ/mol
# GULP energy per Si atom -12403.075626 kJ/mol
# Density = 1.850422 g / cm^3
# Si number density = 18.546437 Si / 1000 Ang^3
#
#
#
# Elastic Constant Matrix: (Units=GPa)
#
#
# Indices 1 2 3 4 5 6 
#
# 1 37.9665 23.1630 18.7935 0.0000 -2.6462 0.0000
# 2 23.1630 70.8673 41.5276 0.0000 -8.0869 0.0000
# 3 18.7935 41.5276 94.9919 0.0000 2.7636 0.0000
# 4 0.0000 0.0000 0.0000 36.0497 0.0000 -3.7267
# 5 -2.6462 -8.0869 2.7636 0.0000 31.7932 0.0000
# 6 0.0000 0.0000 0.0000 -3.7267 0.0000 25.4099
#
#
#
# Elastic Compliance Matrix: (Units=1/GPa)
#
#
# Indices 1 2 3 4 5 6 
#
# 1 0.033334 -0.009343 -0.002528 0.000000 0.000618 0.000000
# 2 -0.009343 0.022623 -0.008207 0.000000 0.005690 0.000000
# 3 -0.002528 -0.008207 0.014720 0.000000 -0.003578 0.000000
# 4 0.000000 0.000000 0.000000 0.028167 0.000000 0.004131
# 5 0.000618 0.005690 -0.003578 0.000000 0.033263 0.000000
# 6 0.000000 0.000000 0.000000 0.004131 0.000000 0.039961
#
#
# Mechanical properties :
#
#
# Convention : Reuss Voigt Hill
#
# Bulk Modulus (GPa) = 32.76630 41.19931 36.98281
# Shear Modulus (GPa) = 22.48230 26.67334 24.57782
#
# Velocity S-wave (km/s) = 3.48547 3.79646 3.64428
# Velocity P-wave (km/s) = 5.82267 6.44049 6.13936
#
# Compressibility (1/GPa) = 0.03051916
#
# Stress axis : x y z
#
# Youngs Moduli (GPa) = 29.99969 44.20196 67.93707
#
# Poissons Ratio (x) = 0.41298 0.17176
# Poissons Ratio (y) = 0.28029 0.55758
# Poissons Ratio (z) = 0.07585 0.36278
#
# Static dielectric constant tensor:
#      x y z
#    x 3.322860 0.000000 0.097230 
#    y 0.000000 3.457280 0.000000 
#    z 0.097230 0.000000 3.575430 
# 
# 
# High freq. dielectric constant tensor:
#      x y z
#    x 1.705460 0.000000 0.003030 
#    y 0.000000 1.721710 0.000000 
#    z 0.003030 0.000000 1.730190 
# 
# From -- ./inp_files/281251.got.cif
#   From: 2010.06.25/outbox.cif.g09.slc.cpg/sg12_141_cif.got.tgz:281251.got - 2010.06.28 00:19:55.
