data_PCOD8099588
_publ_section_title
;
Structure prediction by ZEFSAII (Michael W. Deem and Ramdas Pophale) SiO2 
 PCOD8099588
Probable space group: C 2/M
;
_chemical_formula_sum "Si O2"
_cell_formula_units_Z 48
_cell_length_a 30.818869
_cell_length_b 8.350148
_cell_length_c 17.826512
_cell_angle_alpha 90.000000
_cell_angle_beta 149.885436
_cell_angle_gamma 90.000000
_cell_volume 2301.695474
_symmetry_space_group_name_H-M "C 2/M"
_symmetry_group_IT_number 12
_symmetry_cell_setting 'monoclinic'
loop_
_space_group_symop_operation_xyz
x,y,z
-x,y,-z
-x,-y,-z
x,-y,z
1/2+x,1/2+y,z
1/2-x,1/2+y,-z
1/2-x,1/2-y,-z
1/2+x,1/2-y,z
loop_
_atom_site_type_symbol
_atom_site_label
_atom_site_fract_x
_atom_site_fract_y
_atom_site_fract_z
Si Si1 0.416114 0.184645 0.329010
Si Si2 0.093401 0.814352 0.847236
Si Si3 0.755516 0.311340 0.672924
Si Si4 0.244144 0.815171 0.827557
Si Si5 0.919226 0.809710 0.664908
Si Si6 0.419849 0.688056 0.833796
O O1 0.500000 0.241559 0.500000
O O2 0.408452 0.294563 0.244618
O O3 0.332497 0.206749 0.255532
O O4 0.423803 0.000000 0.316261
O O5 0.004221 0.748608 0.748859
O O6 0.108502 0.000000 0.889650
O O7 0.170210 0.709921 0.995975
O O8 0.765827 0.500000 0.676648
O O9 0.762178 0.261982 0.769519
O O10 0.664875 0.246516 0.504798
O O11 0.830716 0.223067 0.741272
O O12 0.215835 0.000000 0.789194
O O13 0.919107 0.738168 0.748932
O O14 0.917681 0.000000 0.663491
O O15 0.433453 0.500000 0.847511
O O16 0.500000 0.764072 0.000000
#
# Coordination Sequence:
#
# PCOD8099588 Si02
#       6
#     8   8   8   8   8   8
#     4  11  24  41  61  87 118 150 189 236 284 339
#     4  11  22  39  63  86 114 152 192 235 286 342
#     4  10  21  37  57  82 112 147 189 235 282 335
#     4  11  23  39  59  84 116 152 193 239 287 341
#     4   9  19  36  57  82 112 148 189 232 282 342
#     4  10  20  35  56  82 113 148 187 231 281 339
#
# _framework density 20.854192000000001
#
# number of rings (size 3 to 8) (size 9 to 14) (size 15 to 20)
#    0.000    1.667    0.000    4.500    0.000    5.667 
#    0.000    3.333    0.000    0.000    0.000    0.000 
#    0.000    0.000    0.000    0.000    0.000    0.000 
#
# Total GULP energy -297744.586840 kJ/mol
# GULP energy per Si atom -12406.024452 kJ/mol
# Density = 2.080673 g / cm^3
# Si number density = 20.854192 Si / 1000 Ang^3
#
#
#
# Elastic Constant Matrix: (Units=GPa)
#
#
# Indices 1 2 3 4 5 6 
#
# 1 105.6844 11.9224 28.9245 0.0000 -3.4325 0.0000
# 2 11.9224 24.6054 11.9834 0.0000 -3.9565 0.0000
# 3 28.9245 11.9834 139.1653 0.0000 -0.6418 0.0000
# 4 0.0000 0.0000 0.0000 3.0893 0.0000 1.4306
# 5 -3.4325 -3.9565 -0.6418 0.0000 47.0458 0.0000
# 6 0.0000 0.0000 0.0000 1.4306 0.0000 27.0710
#
#
#
# Elastic Compliance Matrix: (Units=1/GPa)
#
#
# Indices 1 2 3 4 5 6 
#
# 1 0.010435 -0.004110 -0.001813 0.000000 0.000391 0.000000
# 2 -0.004110 0.044630 -0.002973 0.000000 0.003413 0.000000
# 3 -0.001813 -0.002973 0.007817 0.000000 -0.000276 0.000000
# 4 0.000000 0.000000 0.000000 0.331819 0.000000 -0.017535
# 5 0.000391 0.003413 -0.000276 0.000000 0.021568 0.000000
# 6 0.000000 0.000000 0.000000 -0.017535 0.000000 0.037867
#
#
# Mechanical properties :
#
#
# Convention : Reuss Voigt Hill
#
# Bulk Modulus (GPa) = 22.17829 41.67953 31.92891
# Shear Modulus (GPa) = 10.26785 29.88287 20.07536
#
# Velocity S-wave (km/s) = 2.22133 3.78953 3.10603
# Velocity P-wave (km/s) = 4.15176 6.25915 5.31103
#
# Compressibility (1/GPa) = 0.04508913
#
# Stress axis : x y z
#
# Youngs Moduli (GPa) = 95.83392 22.40660 127.92207
#
# Poissons Ratio (x) = 0.09210 0.23193
# Poissons Ratio (y) = 0.39390 0.38031
# Poissons Ratio (z) = 0.17375 0.06662
#
# Static dielectric constant tensor:
#      x y z
#    x 3.869410 0.000000 -0.097610 
#    y 0.000000 3.398300 0.000000 
#    z -0.097610 0.000000 4.035600 
# 
# 
# High freq. dielectric constant tensor:
#      x y z
#    x 1.831400 0.000000 -0.001750 
#    y 0.000000 1.792070 0.000000 
#    z -0.001750 0.000000 1.834630 
# 
# From -- ./inp_files/295341.got.cif
#   From: 2010.06.25/outbox.cif.g09.slc.cpg/sg12_148_cif.got.tgz:295341.got - 2010.06.28 00:19:55.
