data_PCOD8099524
_publ_section_title
;
Structure prediction by ZEFSAII (Michael W. Deem and Ramdas Pophale) SiO2 
 PCOD8099524
Probable space group: C 2/M
;
_chemical_formula_sum "Si O2"
_cell_formula_units_Z 64
_cell_length_a 20.584385
_cell_length_b 8.947707
_cell_length_c 18.184128
_cell_angle_alpha 90.000000
_cell_angle_beta 107.845235
_cell_angle_gamma 90.000000
_cell_volume 3188.070142
_symmetry_space_group_name_H-M "C 2/M"
_symmetry_group_IT_number 12
_symmetry_cell_setting 'monoclinic'
loop_
_space_group_symop_operation_xyz
x,y,z
-x,y,-z
-x,-y,-z
x,-y,z
1/2+x,1/2+y,z
1/2-x,1/2+y,-z
1/2-x,1/2-y,-z
1/2+x,1/2-y,z
loop_
_atom_site_type_symbol
_atom_site_label
_atom_site_fract_x
_atom_site_fract_y
_atom_site_fract_z
Si Si1 0.577613 0.333910 0.005868
Si Si2 0.312877 0.833177 0.364854
Si Si3 0.676505 0.173979 0.144698
Si Si4 0.189434 0.666842 0.809637
Si Si5 0.065990 0.176041 0.836712
Si Si6 0.028541 0.324044 0.304530
Si Si7 0.677518 0.826825 0.314723
Si Si8 0.452459 0.671861 0.413564
O O1 0.610910 0.500000 0.022825
O O2 0.582410 0.270184 0.924859
O O3 0.500000 0.345915 0.000000
O O4 0.612216 0.219556 0.073683
O O5 0.306843 0.838346 0.275972
O O6 0.242323 0.761606 0.370762
O O7 0.379097 0.738615 0.410547
O O8 0.320084 0.000000 0.400285
O O9 0.740636 0.265422 0.134839
O O10 0.662722 0.215175 0.224758
O O11 0.691546 0.000000 0.140190
O O12 0.177842 0.500000 0.837800
O O13 0.129113 0.778354 0.808278
O O14 0.998838 0.256667 0.781648
O O15 0.053288 0.000000 0.829335
O O16 0.015153 0.500000 0.298963
O O17 0.109381 0.287230 0.337633
O O18 0.987526 0.256846 0.358435
O O19 0.695810 0.000000 0.327882
O O20 0.500000 0.690380 0.500000
O O21 0.442889 0.500000 0.387195
#
# Coordination Sequence:
#
# PCOD8099524 Si02
#       8
#     8   8   8   8   8   8   8   8
#     4  10  22  38  53  74 108 149 192 239 292 346
#     4  10  20  36  61  90 118 153 195 238 286 344
#     4  10  20  35  56  81 111 149 192 239 292 344
#     4  10  20  35  56  82 111 146 188 238 289 342
#     4  11  22  35  56  82 111 150 192 240 293 344
#     4  11  22  38  61  90 120 152 194 242 291 345
#     4   9  20  37  59  87 120 156 195 242 291 344
#     4  11  24  41  63  90 121 156 191 234 288 345
#
# _framework density 20.074839999999998
#
# number of rings (size 3 to 8) (size 9 to 14) (size 15 to 20)
#    0.000    1.750    1.250    3.000    0.000    5.250 
#    0.000    0.625    0.000    0.000    0.000    0.000 
#    0.000    0.000    0.000    0.000    0.000    0.000 
#
# Total GULP energy -396838.719899 kJ/mol
# GULP energy per Si atom -12401.209997 kJ/mol
# Density = 2.002915 g / cm^3
# Si number density = 20.074840 Si / 1000 Ang^3
#
#
#
# Elastic Constant Matrix: (Units=GPa)
#
#
# Indices 1 2 3 4 5 6 
#
# 1 98.7143 42.4084 22.8176 0.0000 26.0663 0.0000
# 2 42.4084 105.3450 40.4576 0.0000 17.5431 0.0000
# 3 22.8176 40.4576 57.2705 0.0000 19.2716 0.0000
# 4 0.0000 0.0000 0.0000 34.3674 0.0000 10.5651
# 5 26.0663 17.5431 19.2716 0.0000 27.3332 0.0000
# 6 0.0000 0.0000 0.0000 10.5651 0.0000 29.4279
#
#
#
# Elastic Compliance Matrix: (Units=1/GPa)
#
#
# Indices 1 2 3 4 5 6 
#
# 1 0.015026 -0.004511 0.001374 0.000000 -0.012402 0.000000
# 2 -0.004511 0.014508 -0.008870 0.000000 0.001244 0.000000
# 3 0.001374 -0.008870 0.028456 0.000000 -0.015680 0.000000
# 4 0.000000 0.000000 0.000000 0.032707 0.000000 -0.011742
# 5 -0.012402 0.001244 -0.015680 0.000000 0.058670 0.000000
# 6 0.000000 0.000000 0.000000 -0.011742 0.000000 0.038197
#
#
# Mechanical properties :
#
#
# Convention : Reuss Voigt Hill
#
# Bulk Modulus (GPa) = 29.43374 52.52190 40.97782
# Shear Modulus (GPa) = 22.43112 28.60211 25.51662
#
# Velocity S-wave (km/s) = 3.34634 3.77871 3.56908
# Velocity P-wave (km/s) = 5.44284 6.72741 6.11893
#
# Compressibility (1/GPa) = 0.03397461
#
# Stress axis : x y z
#
# Youngs Moduli (GPa) = 66.55288 68.92747 35.14142
#
# Poissons Ratio (x) = 0.31093 -0.04827
# Poissons Ratio (y) = 0.30022 0.31172
# Poissons Ratio (z) = -0.09142 0.61141
#
# Static dielectric constant tensor:
#      x y z
#    x 3.860560 0.000000 -0.090100 
#    y 0.000000 3.849900 0.000000 
#    z -0.090100 0.000000 3.940130 
# 
# 
# High freq. dielectric constant tensor:
#      x y z
#    x 1.788500 0.000000 0.014710 
#    y 0.000000 1.792690 0.000000 
#    z 0.014710 0.000000 1.766620 
# 
# From -- ./inp_files/320140.got.cif
#   From: 2010.06.25/outbox.cif.g09.slc.cpg/sg12_161_cif.got.tgz:320140.got - 2010.06.28 00:19:55.
