data_PCOD8099081
_publ_section_title
;
Structure prediction by ZEFSAII (Michael W. Deem and Ramdas Pophale) SiO2 
 PCOD8099081
Probable space group: C 2/M
;
_chemical_formula_sum "Si O2"
_cell_formula_units_Z 64
_cell_length_a 20.300449
_cell_length_b 8.944410
_cell_length_c 22.600135
_cell_angle_alpha 90.000000
_cell_angle_beta 122.927690
_cell_angle_gamma 90.000000
_cell_volume 3444.413057
_symmetry_space_group_name_H-M "C 2/M"
_symmetry_group_IT_number 12
_symmetry_cell_setting 'monoclinic'
loop_
_space_group_symop_operation_xyz
x,y,z
-x,y,-z
-x,-y,-z
x,-y,z
1/2+x,1/2+y,z
1/2-x,1/2+y,-z
1/2-x,1/2-y,-z
1/2+x,1/2-y,z
loop_
_atom_site_type_symbol
_atom_site_label
_atom_site_fract_x
_atom_site_fract_y
_atom_site_fract_z
Si Si1 0.438053 0.829834 0.595102
Si Si2 0.053859 0.322884 0.939128
Si Si3 0.718987 0.677458 0.814358
Si Si4 0.681746 0.677445 0.928105
Si Si5 0.594781 0.323569 0.658867
Si Si6 0.608425 0.823071 0.094104
Si Si7 0.151458 0.325697 0.570048
Si Si8 0.718772 0.172829 0.426600
O O1 0.509570 0.718728 0.642762
O O2 0.397413 0.790494 0.512868
O O3 0.375830 0.809155 0.618775
O O4 0.468915 0.000000 0.608406
O O5 0.063467 0.500000 0.933983
O O6 0.096569 0.234733 0.907428
O O7 0.961788 0.273919 0.895954
O O8 0.092729 0.269238 0.019588
O O9 0.718725 0.500000 0.812400
O O10 0.691389 0.731575 0.865339
O O11 0.660271 0.739836 0.735926
O O12 0.806996 0.739097 0.843499
O O13 0.687628 0.500000 0.936810
O O14 0.750000 0.750000 0.000000
O O15 0.601227 0.500000 0.654200
O O16 0.604091 0.245069 0.600581
O O17 0.609344 0.000000 0.092505
O O18 0.162472 0.500000 0.586163
O O19 0.238642 0.251528 0.608365
O O20 0.750000 0.250000 0.500000
O O21 0.742805 0.000000 0.439145
#
# Coordination Sequence:
#
# PCOD8099081 Si02
#       8
#     8   8   8   8   8   8   8   8
#     4   9  19  35  54  77 107 139 171 216 268 308
#     4   9  16  29  54  81  99 126 169 209 249 300
#     4   9  19  35  52  72 103 140 173 211 261 311
#     4  11  20  33  54  77 104 134 166 210 257 306
#     4  11  22  34  52  76 103 142 183 216 260 317
#     4   8  14  29  53  75  99 132 167 203 247 307
#     4  10  20  35  55  78 106 139 175 221 271 313
#     4   9  17  31  53  80 107 135 170 215 265 313
#
# _framework density 18.580815000000001
#
# number of rings (size 3 to 8) (size 9 to 14) (size 15 to 20)
#    0.000    2.500    1.250    3.375    0.000    4.500 
#    0.000    5.000    0.000    4.500    0.000    0.000 
#    0.000    0.000    0.000    0.000    0.000    0.000 
#
# Total GULP energy -396656.968685 kJ/mol
# GULP energy per Si atom -12395.530271 kJ/mol
# Density = 1.853852 g / cm^3
# Si number density = 18.580815 Si / 1000 Ang^3
#
#
#
# Elastic Constant Matrix: (Units=GPa)
#
#
# Indices 1 2 3 4 5 6 
#
# 1 141.2219 39.1974 36.9087 0.0000 20.2120 0.0000
# 2 39.1974 67.6871 22.8936 0.0000 8.3190 0.0000
# 3 36.9087 22.8936 58.9394 0.0000 18.7671 0.0000
# 4 0.0000 0.0000 0.0000 16.4286 0.0000 -0.5005
# 5 20.2120 8.3190 18.7671 0.0000 20.7000 0.0000
# 6 0.0000 0.0000 0.0000 -0.5005 0.0000 37.2274
#
#
#
# Elastic Compliance Matrix: (Units=1/GPa)
#
#
# Indices 1 2 3 4 5 6 
#
# 1 0.009688 -0.004004 -0.002828 0.000000 -0.005286 0.000000
# 2 -0.004004 0.018684 -0.005067 0.000000 0.000994 0.000000
# 3 -0.002828 -0.005067 0.026961 0.000000 -0.019646 0.000000
# 4 0.000000 0.000000 0.000000 0.060894 0.000000 0.000819
# 5 -0.005286 0.000994 -0.019646 0.000000 0.070883 0.000000
# 6 0.000000 0.000000 0.000000 0.000819 0.000000 0.026873
#
#
# Mechanical properties :
#
#
# Convention : Reuss Voigt Hill
#
# Bulk Modulus (GPa) = 31.71034 51.76089 41.73562
# Shear Modulus (GPa) = 20.13746 26.12777 23.13261
#
# Velocity S-wave (km/s) = 3.29565 3.75396 3.53225
# Velocity P-wave (km/s) = 5.62005 6.83427 6.25669
#
# Compressibility (1/GPa) = 0.03153546
#
# Stress axis : x y z
#
# Youngs Moduli (GPa) = 103.21816 53.52159 37.09036
#
# Poissons Ratio (x) = 0.21430 0.10490
# Poissons Ratio (y) = 0.41329 0.18792
# Poissons Ratio (z) = 0.29194 0.27117
#
# Static dielectric constant tensor:
#      x y z
#    x 3.995190 0.000000 0.126860 
#    y 0.000000 3.285450 0.000000 
#    z 0.126860 0.000000 3.262500 
# 
# 
# High freq. dielectric constant tensor:
#      x y z
#    x 1.745320 0.000000 0.004700 
#    y 0.000000 1.702040 0.000000 
#    z 0.004700 0.000000 1.681910 
# 
# From -- ./inp_files/320115.got.cif
#   From: 2010.06.25/outbox.cif.g09.slc.cpg/sg12_161_cif.got.tgz:320115.got - 2010.06.28 00:19:55.
