data_PCOD8099500
_publ_section_title
;
Structure prediction by ZEFSAII (Michael W. Deem and Ramdas Pophale) SiO2 
 PCOD8099500
Probable space group: C 2/M
;
_chemical_formula_sum "Si O2"
_cell_formula_units_Z 56
_cell_length_a 18.153148
_cell_length_b 8.918112
_cell_length_c 28.873694
_cell_angle_alpha 90.000000
_cell_angle_beta 141.203902
_cell_angle_gamma 90.000000
_cell_volume 2928.757838
_symmetry_space_group_name_H-M "C 2/M"
_symmetry_group_IT_number 12
_symmetry_cell_setting 'monoclinic'
loop_
_space_group_symop_operation_xyz
x,y,z
-x,y,-z
-x,-y,-z
x,-y,z
1/2+x,1/2+y,z
1/2-x,1/2+y,-z
1/2-x,1/2-y,-z
1/2+x,1/2-y,z
loop_
_atom_site_type_symbol
_atom_site_label
_atom_site_fract_x
_atom_site_fract_y
_atom_site_fract_z
Si Si1 0.421995 0.164944 0.507273
Si Si2 0.374873 0.324752 0.066808
Si Si3 0.811610 0.322626 0.215580
Si Si4 0.546767 0.678381 0.071717
Si Si5 0.039393 0.174647 0.789166
Si Si6 0.112722 0.176576 0.653607
Si Si7 0.769931 0.823863 0.653717
O O1 0.500000 0.153495 0.500000
O O2 0.481214 0.279713 0.572085
O O3 0.293806 0.219580 0.426273
O O4 0.413392 0.000000 0.526418
O O5 0.357598 0.500000 0.051068
O O6 0.463049 0.259460 0.071264
O O7 0.430208 0.286978 0.143289
O O8 0.250000 0.250000 0.000000
O O9 0.816556 0.500000 0.225045
O O10 0.678322 0.263838 0.145397
O O11 0.879736 0.278000 0.202703
O O12 0.872256 0.243198 0.288367
O O13 0.545859 0.500000 0.070488
O O14 0.500000 0.742875 0.000000
O O15 0.904906 0.221150 0.714582
O O16 0.060641 0.000000 0.788121
O O17 0.213695 0.237674 0.669394
O O18 0.122069 0.000000 0.660436
O O19 0.754387 0.000000 0.656643
#
# Coordination Sequence:
#
# PCOD8099500 Si02
#       7
#     8   8   8   8   8   8   8
#     4   8  15  30  53  79 105 137 179 222 266 320
#     4  10  20  35  56  81 110 142 176 218 267 318
#     4  11  22  37  57  78 105 143 185 225 269 324
#     4   9  18  34  57  82 106 137 178 219 261 315
#     4  10  21  37  55  78 110 144 180 226 276 318
#     4  11  21  33  53  81 112 142 177 223 271 321
#     4   9  18  35  58  80 106 142 181 222 270 323
#
# _framework density 19.120733999999999
#
# number of rings (size 3 to 8) (size 9 to 14) (size 15 to 20)
#    0.000    2.286    0.000    4.286    0.000    7.143 
#    0.000    3.571    0.000    3.857    0.000    0.000 
#    0.000    0.000    0.000    0.000    0.000    0.000 
#
# Total GULP energy -347204.174553 kJ/mol
# GULP energy per Si atom -12400.149091 kJ/mol
# Density = 1.907721 g / cm^3
# Si number density = 19.120734 Si / 1000 Ang^3
#
#
#
# Elastic Constant Matrix: (Units=GPa)
#
#
# Indices 1 2 3 4 5 6 
#
# 1 127.0709 43.1731 77.4033 0.0000 4.3469 0.0000
# 2 43.1731 71.3621 46.8145 0.0001 -2.7109 -0.0001
# 3 77.4033 46.8145 165.8642 0.0000 11.0710 0.0000
# 4 0.0000 0.0001 0.0000 22.0635 0.0000 -3.0197
# 5 4.3469 -2.7109 11.0710 0.0000 34.7740 0.0000
# 6 0.0000 -0.0001 0.0000 -3.0197 0.0000 28.7611
#
#
#
# Elastic Compliance Matrix: (Units=1/GPa)
#
#
# Indices 1 2 3 4 5 6 
#
# 1 0.012037 -0.004462 -0.004326 0.000000 -0.000475 0.000000
# 2 -0.004462 0.019153 -0.003535 0.000000 0.003176 0.000000
# 3 -0.004326 -0.003535 0.009224 0.000000 -0.002671 0.000000
# 4 0.000000 0.000000 0.000000 0.045985 0.000000 0.004828
# 5 -0.000475 0.003176 -0.002671 0.000000 0.029915 0.000000
# 6 0.000000 0.000000 0.000000 0.004828 0.000000 0.035276
#
#
# Mechanical properties :
#
#
# Convention : Reuss Voigt Hill
#
# Bulk Modulus (GPa) = 63.42703 77.67543 70.55123
# Shear Modulus (GPa) = 27.54938 30.24681 28.89809
#
# Velocity S-wave (km/s) = 3.79992 3.98161 3.89182
# Velocity P-wave (km/s) = 7.24544 7.86444 7.56128
#
# Compressibility (1/GPa) = 0.01576615
#
# Stress axis : x y z
#
# Youngs Moduli (GPa) = 83.07573 52.21218 108.41237
#
# Poissons Ratio (x) = 0.23299 0.46901
# Poissons Ratio (y) = 0.37072 0.38327
# Poissons Ratio (z) = 0.35940 0.18459
#
# Static dielectric constant tensor:
#      x y z
#    x 3.425270 0.000000 0.161050 
#    y 0.000000 3.283760 0.000000 
#    z 0.161050 0.000000 4.396660 
# 
# 
# High freq. dielectric constant tensor:
#      x y z
#    x 1.730520 0.000000 0.002920 
#    y 0.000000 1.721580 0.000000 
#    z 0.002920 0.000000 1.766270 
# 
# From -- ./inp_files/363118.got.cif
#   From: 2010.06.25/outbox.cif.g09.slc.cpg/sg12_182_cif.got.tgz:363118.got - 2010.06.28 00:19:55.
