data_PCOD8099824
_publ_section_title
;
Structure prediction by ZEFSAII (Michael W. Deem and Ramdas Pophale) SiO2 
 PCOD8099824
Probable space group: C 2/M
;
_chemical_formula_sum "Si O2"
_cell_formula_units_Z 48
_cell_length_a 23.439094
_cell_length_b 14.231906
_cell_length_c 12.137866
_cell_angle_alpha 90.000000
_cell_angle_beta 42.696915
_cell_angle_gamma 90.000000
_cell_volume 2745.698475
_symmetry_space_group_name_H-M "C 2/M"
_symmetry_group_IT_number 12
_symmetry_cell_setting 'monoclinic'
loop_
_space_group_symop_operation_xyz
x,y,z
-x,y,-z
-x,-y,-z
x,-y,z
1/2+x,1/2+y,z
1/2-x,1/2+y,-z
1/2-x,1/2-y,-z
1/2+x,1/2-y,z
loop_
_atom_site_type_symbol
_atom_site_label
_atom_site_fract_x
_atom_site_fract_y
_atom_site_fract_z
Si Si1 0.845286 0.253626 0.325421
Si Si2 0.909735 0.892712 0.394583
Si Si3 0.139241 0.272309 0.954813
Si Si4 0.601987 0.606951 0.162411
Si Si5 0.482612 0.895212 0.153180
Si Si6 0.801273 0.109753 0.754854
O O1 0.750000 0.250000 0.500000
O O2 0.896339 0.165948 0.302502
O O3 0.852137 0.247431 0.185099
O O4 0.890724 0.349048 0.303490
O O5 0.845819 0.857383 0.579179
O O6 0.002424 0.879481 0.310992
O O7 0.891856 0.000000 0.388436
O O8 0.215215 0.334884 0.890812
O O9 0.141709 0.173693 0.014142
O O10 0.054414 0.329669 0.104585
O O11 0.625635 0.500000 0.097119
O O12 0.637981 0.634092 0.230319
O O13 0.483076 0.000000 0.205217
O O14 0.500000 0.903267 0.000000
O O15 0.779900 0.000000 0.780247
#
# Coordination Sequence:
#
# PCOD8099824 Si02
#       6
#     8   8   8   8   8   8
#     4  11  21  35  53  80 110 140 178 218 268 326
#     4  10  20  36  56  79 108 142 180 224 267 315
#     4  11  20  34  57  79 112 140 174 221 273 321
#     4  10  21  36  55  80 110 143 180 221 268 318
#     4   9  19  34  53  77 104 137 175 218 264 312
#     4  10  20  35  57  82 105 140 187 226 260 309
#
# _framework density 17.481891000000001
#
# number of rings (size 3 to 8) (size 9 to 14) (size 15 to 20)
#    0.000    1.833    3.333    1.500    0.000    4.000 
#    0.000    1.667    0.000    0.000    0.000    1.167 
#    0.000    0.000    0.000    0.000    0.000    0.000 
#
# Total GULP energy -297626.920398 kJ/mol
# GULP energy per Si atom -12401.121683 kJ/mol
# Density = 1.744210 g / cm^3
# Si number density = 17.481891 Si / 1000 Ang^3
#
#
#
# Elastic Constant Matrix: (Units=GPa)
#
#
# Indices 1 2 3 4 5 6 
#
# 1 90.4679 54.2517 25.6801 0.0000 -12.4325 0.0000
# 2 54.2517 104.7152 48.1261 0.0000 0.0463 0.0000
# 3 25.6801 48.1261 79.6013 0.0000 -16.3322 0.0000
# 4 0.0000 0.0000 0.0000 26.7306 0.0000 -3.6171
# 5 -12.4325 0.0463 -16.3322 0.0000 27.6949 0.0000
# 6 0.0000 0.0000 0.0000 -3.6171 0.0000 33.1643
#
#
#
# Elastic Compliance Matrix: (Units=1/GPa)
#
#
# Indices 1 2 3 4 5 6 
#
# 1 0.017907 -0.010419 0.002474 0.000000 0.009515 0.000000
# 2 -0.010419 0.020033 -0.011055 0.000000 -0.011230 0.000000
# 3 0.002474 -0.011055 0.021251 0.000000 0.013661 0.000000
# 4 0.000000 0.000000 0.000000 0.037971 0.000000 0.004141
# 5 0.009515 -0.011230 0.013661 0.000000 0.048454 0.000000
# 6 0.000000 0.000000 0.000000 0.004141 0.000000 0.030605
#
#
# Mechanical properties :
#
#
# Convention : Reuss Voigt Hill
#
# Bulk Modulus (GPa) = 47.18596 58.98891 53.08744
# Shear Modulus (GPa) = 22.59561 27.29976 24.94769
#
# Velocity S-wave (km/s) = 3.59906 3.95600 3.78174
# Velocity P-wave (km/s) = 6.65739 7.39477 7.03575
#
# Compressibility (1/GPa) = 0.02119274
#
# Stress axis : x y z
#
# Youngs Moduli (GPa) = 55.84502 49.91750 47.05704
#
# Poissons Ratio (x) = 0.52007 -0.11644
# Poissons Ratio (y) = 0.58183 0.52020
# Poissons Ratio (z) = -0.13818 0.55182
#
# Static dielectric constant tensor:
#      x y z
#    x 3.338270 0.000000 -0.141240 
#    y 0.000000 3.435960 0.000000 
#    z -0.141240 0.000000 3.181100 
# 
# 
# High freq. dielectric constant tensor:
#      x y z
#    x 1.681570 0.000000 -0.017920 
#    y 0.000000 1.678960 0.000000 
#    z -0.017920 0.000000 1.663560 
# 
# From -- ./inp_files/142721.got.cif
#   From: 2010.06.25/outbox.cif.g09.slc.cpg/sg12_72_cif.got.tgz:142721.got - 2010.06.28 00:19:55.
