data_PCOD8099722
_publ_section_title
;
Structure prediction by ZEFSAII (Michael W. Deem and Ramdas Pophale) SiO2 
 PCOD8099722
Probable space group: C 2/M
;
_chemical_formula_sum "Si O2"
_cell_formula_units_Z 48
_cell_length_a 20.502199
_cell_length_b 18.459228
_cell_length_c 9.281842
_cell_angle_alpha 90.000000
_cell_angle_beta 38.534772
_cell_angle_gamma 90.000000
_cell_volume 2188.410854
_symmetry_space_group_name_H-M "C 2/M"
_symmetry_group_IT_number 12
_symmetry_cell_setting 'monoclinic'
loop_
_space_group_symop_operation_xyz
x,y,z
-x,y,-z
-x,-y,-z
x,-y,z
1/2+x,1/2+y,z
1/2-x,1/2+y,-z
1/2-x,1/2-y,-z
1/2+x,1/2-y,z
loop_
_atom_site_type_symbol
_atom_site_label
_atom_site_fract_x
_atom_site_fract_y
_atom_site_fract_z
Si Si1 0.107164 0.242090 0.875417
Si Si2 0.328890 0.081543 0.559461
Si Si3 0.200482 0.813193 0.987841
Si Si4 0.453533 0.083220 0.726170
Si Si5 0.720627 0.640447 0.486312
Si Si6 0.721301 0.416100 0.185414
O O1 0.202639 0.296291 0.695727
O O2 0.123542 0.173085 0.742196
O O3 0.108174 0.216846 0.042396
O O4 0.000000 0.277262 0.000000
O O5 0.453747 0.094732 0.318033
O O6 0.279623 0.083709 0.486617
O O7 0.310964 0.000000 0.655016
O O8 0.284890 0.143786 0.741787
O O9 0.154826 0.872015 0.180442
O O10 0.250000 0.750000 0.000000
O O11 0.500000 0.119311 0.500000
O O12 0.428955 0.000000 0.737604
O O13 0.342147 0.115243 0.970021
O O14 0.677438 0.599151 0.420684
O O15 0.710439 0.500000 0.168663
#
# Coordination Sequence:
#
# PCOD8099722 Si02
#       6
#     8   8   8   8   8   8
#     4  10  23  43  62  85 125 166 202 250 304 367
#     4  10  20  35  56  84 126 166 198 242 305 374
#     4  11  21  37  60  86 119 160 206 244 295 362
#     4   9  17  30  51  87 124 156 191 230 301 386
#     4  10  22  38  61  90 122 156 208 248 304 367
#     4  11  21  36  61  91 126 156 196 260 312 359
#
# _framework density 21.933723000000001
#
# number of rings (size 3 to 8) (size 9 to 14) (size 15 to 20)
#    0.000    1.833    3.333    1.000    2.333    0.000 
#    0.000    3.333    0.000   19.000    0.000    0.000 
#    0.000    0.000    0.000    0.000    0.000    0.000 
#
# Total GULP energy -297330.014919 kJ/mol
# GULP energy per Si atom -12388.750622 kJ/mol
# Density = 2.188380 g / cm^3
# Si number density = 21.933723 Si / 1000 Ang^3
#
#
#
# Elastic Constant Matrix: (Units=GPa)
#
#
# Indices 1 2 3 4 5 6 
#
# 1 114.5522 33.5394 23.5833 0.0000 32.9816 0.0000
# 2 33.5394 88.0198 9.0404 0.0000 19.3013 0.0000
# 3 23.5833 9.0404 39.4963 0.0000 27.5256 0.0000
# 4 0.0000 0.0000 0.0000 14.7599 0.0000 15.7687
# 5 32.9816 19.3013 27.5256 0.0000 36.7884 0.0000
# 6 0.0000 0.0000 0.0000 15.7687 0.0000 30.7560
#
#
#
# Elastic Compliance Matrix: (Units=1/GPa)
#
#
# Indices 1 2 3 4 5 6 
#
# 1 0.012255 -0.002556 -0.000021 0.000000 -0.009630 0.000000
# 2 -0.002556 0.013631 0.003747 0.000000 -0.007664 0.000000
# 3 -0.000021 0.003747 0.053976 0.000000 -0.042333 0.000000
# 4 0.000000 0.000000 0.000000 0.149807 0.000000 -0.076807
# 5 -0.009630 -0.007664 -0.042333 0.000000 0.071511 0.000000
# 6 0.000000 0.000000 0.000000 -0.076807 0.000000 0.071893
#
#
# Mechanical properties :
#
#
# Convention : Reuss Voigt Hill
#
# Bulk Modulus (GPa) = 12.16514 41.59939 26.88227
# Shear Modulus (GPa) = 12.55861 28.18789 20.37325
#
# Velocity S-wave (km/s) = 2.39544 3.58877 3.05102
# Velocity P-wave (km/s) = 3.63445 6.01494 4.96934
#
# Compressibility (1/GPa) = 0.08220210
#
# Stress axis : x y z
#
# Youngs Moduli (GPa) = 81.59946 73.36435 18.52673
#
# Poissons Ratio (x) = 0.18750 0.00039
# Poissons Ratio (y) = 0.20855 -0.06942
# Poissons Ratio (z) = 0.00171 -0.27490
#
# Static dielectric constant tensor:
#      x y z
#    x 4.110040 0.000000 0.300770 
#    y 0.000000 4.010710 0.000000 
#    z 0.300770 0.000000 3.873670 
# 
# 
# High freq. dielectric constant tensor:
#      x y z
#    x 1.861710 0.000000 0.032000 
#    y 0.000000 1.861030 0.000000 
#    z 0.032000 0.000000 1.826670 
# 
# From -- ./inp_files/89447.got.cif
#   From: 2010.06.25/outbox.cif.g09.slc.cpg/sg12_45_cif.got.tgz:89447.got - 2010.06.28 00:19:55.
