data_PCOD8099937
_publ_section_title
;
Structure prediction by ZEFSAII (Michael W. Deem and Ramdas Pophale) SiO2 
 PCOD8099937
Probable space group: C 2/M
;
_chemical_formula_sum "Si O2"
_cell_formula_units_Z 40
_cell_length_a 25.422239
_cell_length_b 13.444736
_cell_length_c 20.074662
_cell_angle_alpha 90.000000
_cell_angle_beta 17.522517
_cell_angle_gamma 90.000000
_cell_volume 2065.841827
_symmetry_space_group_name_H-M "C 2/M"
_symmetry_group_IT_number 12
_symmetry_cell_setting 'monoclinic'
loop_
_space_group_symop_operation_xyz
x,y,z
-x,y,-z
-x,-y,-z
x,-y,z
1/2+x,1/2+y,z
1/2-x,1/2+y,-z
1/2-x,1/2-y,-z
1/2+x,1/2-y,z
loop_
_atom_site_type_symbol
_atom_site_label
_atom_site_fract_x
_atom_site_fract_y
_atom_site_fract_z
Si Si1 0.143740 0.783215 0.064358
Si Si2 0.298035 0.891749 0.756220
Si Si3 0.963566 0.387759 0.903150
Si Si4 0.327241 0.695151 0.663299
Si Si5 0.661521 0.383434 0.493619
O O1 0.083110 0.682932 0.101454
O O2 0.974449 0.847366 0.287117
O O3 0.250000 0.750000 0.000000
O O4 0.263579 0.852099 0.872647
O O5 0.500000 0.908896 0.500000
O O6 0.236729 0.805254 0.778928
O O7 0.204646 0.000000 0.857896
O O8 0.975910 0.500000 0.860701
O O9 0.145796 0.354482 0.715273
O O10 0.814615 0.384388 0.140024
O O11 0.500000 0.690706 0.500000
O O12 0.381225 0.673682 0.523005
O O13 0.640040 0.500000 0.507297
#
# Coordination Sequence:
#
# PCOD8099937 Si02
#       5
#     8   8   8   8   8
#     4  11  22  36  57  84 112 143 186 235 281 330
#     4   9  18  34  54  77 108 142 177 221 274 329
#     4  10  22  38  56  80 112 150 186 225 280 341
#     4  10  20  35  57  84 110 142 188 235 277 328
#     4  11  22  37  57  81 112 148 184 229 286 337
#
# _framework density 19.362566999999999
#
# number of rings (size 3 to 8) (size 9 to 14) (size 15 to 20)
#    0.000    1.800    0.000    6.000    0.000    6.400 
#    0.000    1.000    0.000   10.800    0.000    0.000 
#    0.000    0.000    0.000    0.000    0.000    0.000 
#
# Total GULP energy -247948.973879 kJ/mol
# GULP energy per Si atom -12397.448694 kJ/mol
# Density = 1.931850 g / cm^3
# Si number density = 19.362567 Si / 1000 Ang^3
#
#
#
# Elastic Constant Matrix: (Units=GPa)
#
#
# Indices 1 2 3 4 5 6 
#
# 1 89.8466 55.0769 43.2445 0.0075 7.7063 -0.0050
# 2 55.0769 122.5092 41.4544 0.0122 4.9664 -0.0062
# 3 43.2445 41.4544 121.6895 0.0215 10.0841 -0.0147
# 4 0.0075 0.0122 0.0215 26.0971 -0.0109 0.4287
# 5 7.7063 4.9664 10.0841 -0.0109 35.2911 0.0073
# 6 -0.0050 -0.0062 -0.0147 0.4287 0.0073 22.9334
#
#
#
# Elastic Compliance Matrix: (Units=1/GPa)
#
#
# Indices 1 2 3 4 5 6 
#
# 1 0.016922 -0.006274 -0.003731 0.000000 -0.001746 0.000000
# 2 -0.006274 0.011558 -0.001727 -0.000002 0.000237 0.000001
# 3 -0.003731 -0.001727 0.010288 -0.000007 -0.001882 0.000006
# 4 0.000000 -0.000002 -0.000007 0.038330 0.000014 -0.000717
# 5 -0.001746 0.000237 -0.001882 0.000014 0.029221 -0.000011
# 6 0.000000 0.000001 0.000006 -0.000717 -0.000011 0.043618
#
#
# Mechanical properties :
#
#
# Convention : Reuss Voigt Hill
#
# Bulk Modulus (GPa) = 65.35042 68.17744 66.76393
# Shear Modulus (GPa) = 28.01043 29.81563 28.91303
#
# Velocity S-wave (km/s) = 3.80758 3.92836 3.86844
# Velocity P-wave (km/s) = 7.29071 7.47418 7.38302
#
# Compressibility (1/GPa) = 0.01530212
#
# Stress axis : x y z
#
# Youngs Moduli (GPa) = 59.09446 86.51786 97.19991
#
# Poissons Ratio (x) = 0.54284 0.36270
# Poissons Ratio (y) = 0.37078 0.16790
# Poissons Ratio (z) = 0.22051 0.14945
#
# Static dielectric constant tensor:
#      x y z
#    x 3.362100 0.000010 0.110370 
#    y 0.000010 4.023780 0.000010 
#    z 0.110370 0.000010 3.735030 
# 
# 
# High freq. dielectric constant tensor:
#      x y z
#    x 1.729380 0.000000 0.012110 
#    y 0.000000 1.769680 0.000000 
#    z 0.012110 0.000000 1.768830 
# 
# From -- ./inp_files/71412.got.cif
#   From: 2010.06.25/outbox.cif.g09.slc.cpg/sg12_36_cif.got.tgz:71412.got - 2010.06.28 00:19:55.
