data_PCOD8099871
_publ_section_title
;
Structure prediction by ZEFSAII (Michael W. Deem and Ramdas Pophale) SiO2 
 PCOD8099871
Probable space group: C 2/M
;
_chemical_formula_sum "Si O2"
_cell_formula_units_Z 56
_cell_length_a 18.375305
_cell_length_b 8.835483
_cell_length_c 18.403712
_cell_angle_alpha 90.000000
_cell_angle_beta 103.974283
_cell_angle_gamma 90.000000
_cell_volume 2899.498940
_symmetry_space_group_name_H-M "C 2/M"
_symmetry_group_IT_number 12
_symmetry_cell_setting 'monoclinic'
loop_
_space_group_symop_operation_xyz
x,y,z
-x,y,-z
-x,-y,-z
x,-y,z
1/2+x,1/2+y,z
1/2-x,1/2+y,-z
1/2-x,1/2-y,-z
1/2+x,1/2-y,z
loop_
_atom_site_type_symbol
_atom_site_label
_atom_site_fract_x
_atom_site_fract_y
_atom_site_fract_z
Si Si1 0.383624 0.824804 0.368713
Si Si2 0.274622 0.822424 0.931316
Si Si3 0.052811 0.675243 0.365516
Si Si4 0.059932 0.323827 0.075954
Si Si5 0.329121 0.678184 0.501589
Si Si6 0.011792 0.175336 0.211319
Si Si7 0.845008 0.823876 0.214352
O O1 0.471671 0.794909 0.380448
O O2 0.356176 0.727768 0.429254
O O3 0.339005 0.771650 0.286665
O O4 0.366282 0.000000 0.378995
O O5 0.359166 0.774734 0.933988
O O6 0.220984 0.764980 0.853689
O O7 0.266056 0.000000 0.938406
O O8 0.250000 0.750000 0.000000
O O9 0.075287 0.500000 0.375094
O O10 0.111903 0.772502 0.423778
O O11 0.054605 0.727842 0.282572
O O12 0.057368 0.500000 0.097019
O O13 0.042367 0.223432 0.141122
O O14 0.000000 0.284822 0.000000
O O15 0.320828 0.500000 0.501202
O O16 0.250000 0.750000 0.500000
O O17 0.923173 0.208325 0.192550
O O18 0.029129 0.000000 0.229348
O O19 0.836146 0.000000 0.231945
#
# Coordination Sequence:
#
# PCOD8099871 Si02
#       7
#     8   8   8   8   8   8   8
#     4  10  21  38  61  87 114 148 190 233 281 340
#     4  10  21  36  55  79 108 143 183 228 277 331
#     4  10  21  39  62  86 115 150 188 232 282 339
#     4  10  21  36  54  78 110 147 185 229 285 343
#     4  12  25  40  59  84 117 153 190 235 284 334
#     4  10  20  35  57  83 110 143 185 231 278 332
#     4   9  19  36  56  80 110 144 184 230 279 331
#
# _framework density 19.313682
#
# number of rings (size 3 to 8) (size 9 to 14) (size 15 to 20)
#    0.000    1.857    0.000    3.857    0.000    6.571 
#    0.000    4.286    0.000    0.000    0.000    0.000 
#    0.000    0.000    0.000    0.000    0.000    0.000 
#
# Total GULP energy -347355.024390 kJ/mol
# GULP energy per Si atom -12405.536585 kJ/mol
# Density = 1.926972 g / cm^3
# Si number density = 19.313682 Si / 1000 Ang^3
#
#
#
# Elastic Constant Matrix: (Units=GPa)
#
#
# Indices 1 2 3 4 5 6 
#
# 1 104.1832 52.4371 79.3801 0.0000 6.7065 0.0000
# 2 52.4371 102.6115 60.4125 0.0000 0.3937 0.0000
# 3 79.3801 60.4125 142.5882 0.0000 9.3347 0.0000
# 4 0.0000 0.0000 0.0000 40.8139 0.0000 -5.7305
# 5 6.7065 0.3937 9.3347 0.0000 35.6694 0.0000
# 6 0.0000 0.0000 0.0000 -5.7305 0.0000 26.2099
#
#
#
# Elastic Compliance Matrix: (Units=1/GPa)
#
#
# Indices 1 2 3 4 5 6 
#
# 1 0.018104 -0.004477 -0.008101 0.000000 -0.001234 0.000000
# 2 -0.004477 0.014153 -0.003611 0.000000 0.001630 0.000000
# 3 -0.008101 -0.003611 0.013176 0.000000 -0.001885 0.000000
# 4 0.000000 0.000000 0.000000 0.025277 0.000000 0.005527
# 5 -0.001234 0.001630 -0.001885 0.000000 0.028743 0.000000
# 6 0.000000 0.000000 0.000000 0.005527 0.000000 0.039362
#
#
# Mechanical properties :
#
#
# Convention : Reuss Voigt Hill
#
# Bulk Modulus (GPa) = 76.59605 81.53803 79.06704
# Shear Modulus (GPa) = 28.48296 31.01552 29.74924
#
# Velocity S-wave (km/s) = 3.84442 4.01169 3.92895
# Velocity P-wave (km/s) = 7.71046 7.98547 7.84917
#
# Compressibility (1/GPa) = 0.01305550
#
# Stress axis : x y z
#
# Youngs Moduli (GPa) = 55.23778 70.65623 75.89551
#
# Poissons Ratio (x) = 0.31636 0.61480
# Poissons Ratio (y) = 0.24732 0.27402
# Poissons Ratio (z) = 0.44746 0.25511
#
# Static dielectric constant tensor:
#      x y z
#    x 3.769340 0.000000 0.163510 
#    y 0.000000 3.575840 0.000000 
#    z 0.163510 0.000000 3.615220 
# 
# 
# High freq. dielectric constant tensor:
#      x y z
#    x 1.752810 0.000000 0.001780 
#    y 0.000000 1.756090 0.000000 
#    z 0.001780 0.000000 1.766160 
# 
# From -- ./inp_files/275602.got.cif
#   From: 2010.06.25/outbox.cif.g09.slc.cpg/sg12_138_cif.got.tgz:275602.got - 2010.06.28 00:19:55.
