data_PCOD8099420
_publ_section_title
;
Structure prediction by ZEFSAII (Michael W. Deem and Ramdas Pophale) SiO2 
 PCOD8099420
Probable space group: C 2/M
;
_chemical_formula_sum "Si O2"
_cell_formula_units_Z 40
_cell_length_a 30.431367
_cell_length_b 8.737280
_cell_length_c 21.979536
_cell_angle_alpha 90.000000
_cell_angle_beta 20.324115
_cell_angle_gamma 90.000000
_cell_volume 2029.826828
_symmetry_space_group_name_H-M "C 2/M"
_symmetry_group_IT_number 12
_symmetry_cell_setting 'monoclinic'
loop_
_space_group_symop_operation_xyz
x,y,z
-x,y,-z
-x,-y,-z
x,-y,z
1/2+x,1/2+y,z
1/2-x,1/2+y,-z
1/2-x,1/2-y,-z
1/2+x,1/2-y,z
loop_
_atom_site_type_symbol
_atom_site_label
_atom_site_fract_x
_atom_site_fract_y
_atom_site_fract_z
Si Si1 0.227961 0.821883 0.124495
Si Si2 0.704211 0.321371 0.402543
Si Si3 0.201758 0.819696 0.843063
Si Si4 0.061844 0.831454 0.853897
Si Si5 0.442179 0.821425 0.751214
O O1 0.229266 0.727092 0.184879
O O2 0.104880 0.770446 0.246881
O O3 0.217713 0.000000 0.153229
O O4 0.353737 0.782493 0.923277
O O5 0.677537 0.500000 0.438508
O O6 0.732888 0.269223 0.296928
O O7 0.819984 0.284070 0.298336
O O8 0.582208 0.233122 0.586221
O O9 0.216851 0.000000 0.811262
O O10 0.051904 0.775297 0.042690
O O11 0.110828 0.000000 0.770768
O O12 0.000000 0.841810 0.000000
O O13 0.439234 0.000000 0.739513
#
# Coordination Sequence:
#
# PCOD8099420 Si02
#       5
#     8   8   8   8   8
#     4  10  21  37  57  80 105 135 175 220 263 311
#     4  11  21  33  54  82 109 137 176 221 259 304
#     4  10  20  35  56  80 108 141 175 213 261 315
#     4   8  16  32  52  75 105 140 174 210 259 314
#     4  10  21  38  57  76 105 142 175 212 264 319
#
# _framework density 19.706113999999999
#
# number of rings (size 3 to 8) (size 9 to 14) (size 15 to 20)
#    0.000    2.200    0.000    4.800    0.000    7.600 
#    0.000    5.000    0.000    0.000    0.000    0.000 
#    0.000    0.000    0.000    0.000    0.000    0.000 
#
# Total GULP energy -248009.036605 kJ/mol
# GULP energy per Si atom -12400.451830 kJ/mol
# Density = 1.966126 g / cm^3
# Si number density = 19.706114 Si / 1000 Ang^3
#
#
#
# Elastic Constant Matrix: (Units=GPa)
#
#
# Indices 1 2 3 4 5 6 
#
# 1 18.9994 7.4621 -11.4604 0.0009 -1.9873 -0.0008
# 2 7.4621 56.5289 19.0481 -0.0039 0.3320 0.0000
# 3 -11.4604 19.0481 66.0304 -0.0015 -16.5214 -0.0005
# 4 0.0009 -0.0039 -0.0015 30.8326 0.0005 -4.4308
# 5 -1.9873 0.3320 -16.5214 0.0005 19.9188 0.0004
# 6 -0.0008 0.0000 -0.0005 -4.4308 0.0004 29.2928
#
#
#
# Elastic Compliance Matrix: (Units=1/GPa)
#
#
# Indices 1 2 3 4 5 6 
#
# 1 0.080413 -0.020086 0.027562 -0.000004 0.031219 0.000002
# 2 -0.020086 0.025265 -0.014362 0.000003 -0.014337 0.000000
# 3 0.027562 -0.014362 0.031319 -0.000001 0.028967 0.000001
# 4 -0.000004 0.000003 -0.000001 0.033154 -0.000002 0.005015
# 5 0.031219 -0.014337 0.028967 -0.000002 0.077584 0.000000
# 6 0.000002 0.000000 0.000001 0.005015 0.000000 0.034897
#
#
# Mechanical properties :
#
#
# Convention : Reuss Voigt Hill
#
# Bulk Modulus (GPa) = 8.11514 19.07314 13.59414
# Shear Modulus (GPa) = 14.81583 24.44278 19.62931
#
# Velocity S-wave (km/s) = 2.74494 3.52570 3.15953
# Velocity P-wave (km/s) = 3.76475 5.12581 4.49707
#
# Compressibility (1/GPa) = 0.12322646
#
# Stress axis : x y z
#
# Youngs Moduli (GPa) = 12.43581 39.58041 31.92948
#
# Poissons Ratio (x) = 0.79500 -0.88005
# Poissons Ratio (y) = 0.24978 0.45856
# Poissons Ratio (z) = -0.34276 0.56844
#
# Static dielectric constant tensor:
#      x y z
#    x 3.600450 0.000000 -0.341520 
#    y 0.000000 3.567420 0.000000 
#    z -0.341520 0.000000 3.549420 
# 
# 
# High freq. dielectric constant tensor:
#      x y z
#    x 1.755910 0.000000 -0.023340 
#    y 0.000000 1.774730 0.000000 
#    z -0.023340 0.000000 1.757340 
# 
# From -- ./inp_files/151706.got.cif
#   From: 2010.06.25/outbox.cif.g09.slc.cpg/sg12_76_cif.got.tgz:151706.got - 2010.06.28 00:19:55.
