data_PCOD8099378
_publ_section_title
;
Structure prediction by ZEFSAII (Michael W. Deem and Ramdas Pophale) SiO2 
 PCOD8099378
Probable space group: C 2/M
;
_chemical_formula_sum "Si O2"
_cell_formula_units_Z 56
_cell_length_a 14.942956
_cell_length_b 9.023635
_cell_length_c 24.516951
_cell_angle_alpha 90.000000
_cell_angle_beta 117.655237
_cell_angle_gamma 90.000000
_cell_volume 2928.187309
_symmetry_space_group_name_H-M "C 2/M"
_symmetry_group_IT_number 12
_symmetry_cell_setting 'monoclinic'
loop_
_space_group_symop_operation_xyz
x,y,z
-x,y,-z
-x,-y,-z
x,-y,z
1/2+x,1/2+y,z
1/2-x,1/2+y,-z
1/2-x,1/2-y,-z
1/2+x,1/2-y,z
loop_
_atom_site_type_symbol
_atom_site_label
_atom_site_fract_x
_atom_site_fract_y
_atom_site_fract_z
Si Si1 0.688492 0.174519 0.127897
Si Si2 0.890160 0.672977 0.208817
Si Si3 0.889814 0.166539 0.994500
Si Si4 0.222902 0.824774 0.435429
Si Si5 0.923159 0.674357 0.434201
Si Si6 0.025179 0.327302 0.883887
Si Si7 0.982384 0.325276 0.650145
O O1 0.786401 0.237425 0.186000
O O2 0.590084 0.219856 0.135454
O O3 0.697593 0.000000 0.124169
O O4 0.684959 0.244506 0.066372
O O5 0.863360 0.500000 0.202568
O O6 0.950525 0.716353 0.171191
O O7 0.960991 0.719318 0.278753
O O8 0.894692 0.242707 0.055029
O O9 0.848321 0.000000 0.989179
O O10 0.000000 0.169070 0.000000
O O11 0.250000 0.750000 0.500000
O O12 0.309318 0.781438 0.416539
O O13 0.121867 0.762089 0.380674
O O14 0.215144 0.000000 0.442408
O O15 0.937721 0.500000 0.440207
O O16 0.000000 0.746684 0.500000
O O17 0.949402 0.730783 0.381110
O O18 0.039901 0.500000 0.899542
O O19 0.960001 0.500000 0.640866
#
# Coordination Sequence:
#
# PCOD8099378 Si02
#       7
#     8   8   8   8   8   8   8
#     4  10  20  35  56  79 109 145 181 226 278 326
#     4  10  22  38  56  78 108 147 187 224 267 326
#     4   9  17  31  54  83 109 138 182 232 274 321
#     4  11  21  35  58  85 111 141 177 220 269 321
#     4   9  17  33  57  81 109 143 174 211 267 326
#     4   9  19  36  55  78 110 146 181 224 280 329
#     4  10  21  39  58  79 110 147 184 223 269 323
#
# _framework density 19.124459999999999
#
# number of rings (size 3 to 8) (size 9 to 14) (size 15 to 20)
#    0.000    2.286    1.429    1.286    0.000    5.143 
#    0.000    2.143    0.000    0.000    0.000    0.000 
#    0.000    0.000    0.000    0.000    0.000    0.000 
#
# Total GULP energy -347246.484875 kJ/mol
# GULP energy per Si atom -12401.660174 kJ/mol
# Density = 1.908093 g / cm^3
# Si number density = 19.124460 Si / 1000 Ang^3
#
#
#
# Elastic Constant Matrix: (Units=GPa)
#
#
# Indices 1 2 3 4 5 6 
#
# 1 111.0014 36.9769 63.5342 0.0000 0.4470 0.0000
# 2 36.9769 64.2353 43.3638 0.0000 6.5463 0.0000
# 3 63.5342 43.3638 142.8669 0.0000 -2.2996 0.0000
# 4 0.0000 0.0000 0.0000 28.8393 0.0000 8.9180
# 5 0.4470 6.5463 -2.2996 0.0000 35.5122 0.0000
# 6 0.0000 0.0000 0.0000 8.9180 0.0000 26.6679
#
#
#
# Elastic Compliance Matrix: (Units=1/GPa)
#
#
# Indices 1 2 3 4 5 6 
#
# 1 0.013057 -0.004579 -0.004410 0.000000 0.000394 0.000000
# 2 -0.004579 0.021770 -0.004640 0.000000 -0.004256 0.000000
# 3 -0.004410 -0.004640 0.010395 0.000000 0.001584 0.000000
# 4 0.000000 0.000000 0.000000 0.038674 0.000000 -0.012933
# 5 0.000394 -0.004256 0.001584 0.000000 0.029041 0.000000
# 6 0.000000 0.000000 0.000000 -0.012933 0.000000 0.041823
#
#
# Mechanical properties :
#
#
# Convention : Reuss Voigt Hill
#
# Bulk Modulus (GPa) = 55.67047 67.31705 61.49376
# Shear Modulus (GPa) = 26.59484 29.81912 28.20698
#
# Velocity S-wave (km/s) = 3.73315 3.95297 3.84463
# Velocity P-wave (km/s) = 6.91047 7.49070 7.20642
#
# Compressibility (1/GPa) = 0.01796284
#
# Stress axis : x y z
#
# Youngs Moduli (GPa) = 76.58681 45.93553 96.20332
#
# Poissons Ratio (x) = 0.21034 0.42429
# Poissons Ratio (y) = 0.35070 0.44636
# Poissons Ratio (z) = 0.33778 0.21313
#
# Static dielectric constant tensor:
#      x y z
#    x 3.641630 0.000000 -0.040900 
#    y 0.000000 3.389910 0.000000 
#    z -0.040900 0.000000 3.610280 
# 
# 
# High freq. dielectric constant tensor:
#      x y z
#    x 1.748990 0.000000 -0.000090 
#    y 0.000000 1.730070 0.000000 
#    z -0.000090 0.000000 1.743110 
# 
# From -- ./inp_files/308926.got.cif
#   From: 2010.06.25/outbox.cif.g09.slc.cpg/sg12_155_cif.got.tgz:308926.got - 2010.06.28 00:19:55.
