data_PCOD8099526
_publ_section_title
;
Structure prediction by ZEFSAII (Michael W. Deem and Ramdas Pophale) SiO2 
 PCOD8099526
Probable space group: C 2/M
;
_chemical_formula_sum "Si O2"
_cell_formula_units_Z 56
_cell_length_a 16.822062
_cell_length_b 24.605777
_cell_length_c 8.243134
_cell_angle_alpha 90.000000
_cell_angle_beta 52.811671
_cell_angle_gamma 90.000000
_cell_volume 2718.178041
_symmetry_space_group_name_H-M "C 2/M"
_symmetry_group_IT_number 12
_symmetry_cell_setting 'monoclinic'
loop_
_space_group_symop_operation_xyz
x,y,z
-x,y,-z
-x,-y,-z
x,-y,z
1/2+x,1/2+y,z
1/2-x,1/2+y,-z
1/2-x,1/2-y,-z
1/2+x,1/2-y,z
loop_
_atom_site_type_symbol
_atom_site_label
_atom_site_fract_x
_atom_site_fract_y
_atom_site_fract_z
Si Si1 0.343206 0.561091 0.403564
Si Si2 0.897106 0.246550 0.559353
Si Si3 0.047935 0.061612 0.280390
Si Si4 0.558395 0.178181 0.765459
Si Si5 0.375729 0.147767 0.802971
Si Si6 0.255338 0.149685 0.277808
Si Si7 0.734274 0.564686 0.849436
O O1 0.305982 0.500000 0.484088
O O2 0.463510 0.563641 0.244713
O O3 0.308570 0.596437 0.601618
O O4 0.301473 0.582161 0.284767
O O5 0.917677 0.265410 0.350983
O O6 0.862739 0.297352 0.714208
O O7 0.811277 0.203096 0.645952
O O8 0.000000 0.220495 0.500000
O O9 0.000000 0.090751 0.500000
O O10 0.074505 0.000000 0.296491
O O11 0.150209 0.086965 0.081302
O O12 0.490580 0.141835 0.723933
O O13 0.661435 0.149131 0.682732
O O14 0.500000 0.193295 0.000000
O O15 0.340122 0.094987 0.745946
O O16 0.304265 0.148055 0.043934
O O17 0.749084 0.500000 0.845477
#
# Coordination Sequence:
#
# PCOD8099526 Si02
#       7
#     8   8   8   8   8   8   8
#     4  10  21  36  54  81 116 149 185 231 279 329
#     4  10  21  38  59  83 112 143 182 230 281 335
#     4   9  17  31  51  76 109 147 184 226 276 324
#     4   9  20  38  58  81 111 148 184 229 283 330
#     4  10  21  37  58  83 114 146 184 233 280 324
#     4  11  21  36  59  84 111 147 190 227 275 338
#     4  10  20  35  56  81 111 151 192 228 275 334
#
# _framework density 20.602035999999998
#
# number of rings (size 3 to 8) (size 9 to 14) (size 15 to 20)
#    0.000    2.143    0.000    3.000    0.000    5.143 
#    0.000    2.143    0.000    8.143    0.000    0.000 
#    0.000    0.000    0.000    0.000    0.000    0.000 
#
# Total GULP energy -346962.648498 kJ/mol
# GULP energy per Si atom -12391.523161 kJ/mol
# Density = 2.055515 g / cm^3
# Si number density = 20.602036 Si / 1000 Ang^3
#
#
#
# Elastic Constant Matrix: (Units=GPa)
#
#
# Indices 1 2 3 4 5 6 
#
# 1 121.6759 44.3613 26.3975 0.0000 -3.7469 0.0000
# 2 44.3613 72.2498 28.4458 0.0000 -6.2672 0.0000
# 3 26.3975 28.4458 53.7815 0.0000 -0.0798 0.0000
# 4 0.0000 0.0000 0.0000 20.3868 0.0000 -6.0155
# 5 -3.7469 -6.2672 -0.0798 0.0000 31.9899 0.0000
# 6 0.0000 0.0000 0.0000 -6.0155 0.0000 25.7559
#
#
#
# Elastic Compliance Matrix: (Units=1/GPa)
#
#
# Indices 1 2 3 4 5 6 
#
# 1 0.010804 -0.005726 -0.002274 0.000000 0.000138 0.000000
# 2 -0.005726 0.020894 -0.008236 0.000000 0.003402 0.000000
# 3 -0.002274 -0.008236 0.024063 0.000000 -0.001820 0.000000
# 4 0.000000 0.000000 0.000000 0.052682 0.000000 0.012304
# 5 0.000138 0.003402 -0.001820 0.000000 0.031938 0.000000
# 6 0.000000 0.000000 0.000000 0.012304 0.000000 0.041700
#
#
# Mechanical properties :
#
#
# Convention : Reuss Voigt Hill
#
# Bulk Modulus (GPa) = 42.93759 49.56847 46.25303
# Shear Modulus (GPa) = 22.49049 25.52669 24.00859
#
# Velocity S-wave (km/s) = 3.30762 3.52381 3.41743
# Velocity P-wave (km/s) = 5.95599 6.37719 6.17019
#
# Compressibility (1/GPa) = 0.02328962
#
# Stress axis : x y z
#
# Youngs Moduli (GPa) = 92.55956 47.85959 41.55738
#
# Poissons Ratio (x) = 0.27406 0.09450
# Poissons Ratio (y) = 0.53003 0.34225
# Poissons Ratio (z) = 0.21047 0.39416
#
# Static dielectric constant tensor:
#      x y z
#    x 4.174640 0.000000 -0.020200 
#    y 0.000000 3.358370 0.000000 
#    z -0.020200 0.000000 3.987350 
# 
# 
# High freq. dielectric constant tensor:
#      x y z
#    x 1.827980 0.000000 0.007270 
#    y 0.000000 1.769610 0.000000 
#    z 0.007270 0.000000 1.814490 
# 
# From -- ./inp_files/79073.got.cif
#   From: 2010.06.25/outbox.cif.g09.slc.cpg/sg12_40_cif.got.tgz:79073.got - 2010.06.28 00:19:55.
