data_PCOD8099339
_publ_section_title
;
Structure prediction by ZEFSAII (Michael W. Deem and Ramdas Pophale) SiO2 
 PCOD8099339
Probable space group: C 2/M
;
_chemical_formula_sum "Si O2"
_cell_formula_units_Z 64
_cell_length_a 20.392325
_cell_length_b 9.164834
_cell_length_c 24.292285
_cell_angle_alpha 90.000000
_cell_angle_beta 52.727535
_cell_angle_gamma 90.000000
_cell_volume 3612.803468
_symmetry_space_group_name_H-M "C 2/M"
_symmetry_group_IT_number 12
_symmetry_cell_setting 'monoclinic'
loop_
_space_group_symop_operation_xyz
x,y,z
-x,y,-z
-x,-y,-z
x,-y,z
1/2+x,1/2+y,z
1/2-x,1/2+y,-z
1/2-x,1/2-y,-z
1/2+x,1/2-y,z
loop_
_atom_site_type_symbol
_atom_site_label
_atom_site_fract_x
_atom_site_fract_y
_atom_site_fract_z
Si Si1 0.574317 0.659498 0.504451
Si Si2 0.399350 0.168962 0.784699
Si Si3 0.574879 0.829816 0.999646
Si Si4 0.311817 0.325844 0.645085
Si Si5 0.838490 0.172518 0.228655
Si Si6 0.287146 0.671807 0.132722
Si Si7 0.543739 0.673625 0.347008
Si Si8 0.506265 0.167947 0.152591
O O1 0.500000 0.640006 0.500000
O O2 0.605725 0.500000 0.506496
O O3 0.649685 0.735010 0.432693
O O4 0.536389 0.737086 0.578372
O O5 0.305958 0.226529 0.828703
O O6 0.456680 0.255816 0.712863
O O7 0.431862 0.198659 0.829112
O O8 0.403590 0.000000 0.766303
O O9 0.555552 0.792408 0.072452
O O10 0.589579 0.000000 0.982043
O O11 0.500000 0.772356 0.000000
O O12 0.657894 0.746772 0.941726
O O13 0.300178 0.500000 0.648732
O O14 0.225312 0.246565 0.697074
O O15 0.372227 0.281941 0.664441
O O16 0.818090 0.221650 0.176954
O O17 0.928392 0.227865 0.199045
O O18 0.833513 0.000000 0.238335
O O19 0.294451 0.500000 0.121112
O O20 0.536883 0.500000 0.345945
O O21 0.476313 0.000000 0.166421
#
# Coordination Sequence:
#
# PCOD8099339 Si02
#       8
#     8   8   8   8   8   8   8   8
#     4   7  12  24  43  72 105 134 167 209 254 296
#     4  10  21  37  53  74 108 142 170 206 259 316
#     4  10  20  35  56  79 100 128 173 220 253 295
#     4   9  16  28  50  77 105 137 173 211 253 303
#     4  11  21  33  52  78 107 135 170 215 257 302
#     4  10  21  35  53  77 105 137 166 203 261 314
#     4   9  16  28  50  77 105 137 173 212 251 298
#     4  10  22  39  56  74 101 138 175 212 258 310
#
# _framework density 17.714774999999999
#
# number of rings (size 3 to 8) (size 9 to 14) (size 15 to 20)
#    0.000    2.500    2.500    1.875    0.000    2.750 
#    0.000    0.625    0.000    3.000    0.000    0.000 
#    0.000    0.000    0.000    0.000    0.000    0.000 
#
# Total GULP energy -396672.489182 kJ/mol
# GULP energy per Si atom -12396.015287 kJ/mol
# Density = 1.767445 g / cm^3
# Si number density = 17.714775 Si / 1000 Ang^3
#
#
#
# Elastic Constant Matrix: (Units=GPa)
#
#
# Indices 1 2 3 4 5 6 
#
# 1 69.7170 23.7972 47.5748 0.0000 0.0199 -0.0002
# 2 23.7972 38.4036 44.9760 0.0001 -4.2451 -0.0005
# 3 47.5748 44.9760 161.7421 0.0000 -4.1989 -0.0001
# 4 0.0000 0.0001 0.0000 10.3468 0.0001 4.1639
# 5 0.0199 -4.2451 -4.1989 0.0001 24.7225 0.0000
# 6 -0.0002 -0.0005 -0.0001 4.1639 0.0000 19.9205
#
#
#
# Elastic Compliance Matrix: (Units=1/GPa)
#
#
# Indices 1 2 3 4 5 6 
#
# 1 0.019550 -0.008218 -0.003518 0.000000 -0.002024 0.000000
# 2 -0.008218 0.042652 -0.009294 -0.000001 0.005752 0.000001
# 3 -0.003518 -0.009294 0.009804 0.000000 0.000072 0.000000
# 4 0.000000 -0.000001 0.000000 0.105525 0.000000 -0.022058
# 5 -0.002024 0.005752 0.000072 0.000000 0.041450 0.000000
# 6 0.000000 0.000001 0.000000 -0.022058 0.000000 0.054810
#
#
# Mechanical properties :
#
#
# Convention : Reuss Voigt Hill
#
# Bulk Modulus (GPa) = 33.39356 55.83986 44.61671
# Shear Modulus (GPa) = 15.34530 21.23228 18.28879
#
# Velocity S-wave (km/s) = 2.94639 3.46578 3.21659
# Velocity P-wave (km/s) = 5.51966 6.89968 6.24789
#
# Compressibility (1/GPa) = 0.02994589
#
# Stress axis : x y z
#
# Youngs Moduli (GPa) = 51.15082 23.44570 102.00416
#
# Poissons Ratio (x) = 0.19269 0.35882
# Poissons Ratio (y) = 0.42038 0.94798
# Poissons Ratio (z) = 0.17993 0.21789
#
# Static dielectric constant tensor:
#      x y z
#    x 3.023780 0.000000 -0.022190 
#    y 0.000000 3.031160 0.000000 
#    z -0.022190 0.000000 3.564400 
# 
# 
# High freq. dielectric constant tensor:
#      x y z
#    x 1.653820 0.000000 -0.004730 
#    y 0.000000 1.663650 0.000000 
#    z -0.004730 0.000000 1.705150 
# 
# From -- ./inp_files/345921.got.cif
#   From: 2010.06.25/outbox.cif.g09.slc.cpg/sg12_173_cif.got.tgz:345921.got - 2010.06.28 00:19:55.
