data_PCOD8099171
_publ_section_title
;
Structure prediction by ZEFSAII (Michael W. Deem and Ramdas Pophale) SiO2 
 PCOD8099171
Probable space group: C 2/M
;
_chemical_formula_sum "Si O2"
_cell_formula_units_Z 48
_cell_length_a 31.883899
_cell_length_b 8.922903
_cell_length_c 16.218254
_cell_angle_alpha 90.000000
_cell_angle_beta 32.732118
_cell_angle_gamma 90.000000
_cell_volume 2494.868546
_symmetry_space_group_name_H-M "C 2/M"
_symmetry_group_IT_number 12
_symmetry_cell_setting 'monoclinic'
loop_
_space_group_symop_operation_xyz
x,y,z
-x,y,-z
-x,-y,-z
x,-y,z
1/2+x,1/2+y,z
1/2-x,1/2+y,-z
1/2-x,1/2-y,-z
1/2+x,1/2-y,z
loop_
_atom_site_type_symbol
_atom_site_label
_atom_site_fract_x
_atom_site_fract_y
_atom_site_fract_z
Si Si1 0.483874 0.328444 0.619899
Si Si2 0.233712 0.321468 0.798990
Si Si3 0.109995 0.676400 0.516010
Si Si4 0.178654 0.334656 0.717468
Si Si5 0.690514 0.673275 0.037172
Si Si6 0.357319 0.665780 0.375382
O O1 0.500000 0.279341 0.500000
O O2 0.510006 0.500000 0.592041
O O3 0.530462 0.218968 0.602888
O O4 0.393611 0.306647 0.785326
O O5 0.241243 0.500000 0.793011
O O6 0.320005 0.256706 0.647526
O O7 0.180508 0.274411 0.808447
O O8 0.191887 0.254763 0.947259
O O9 0.123682 0.500000 0.491103
O O10 0.102874 0.728463 0.622678
O O11 0.141432 0.500000 0.775883
O O12 0.266355 0.342651 0.541341
O O13 0.128042 0.229206 0.741172
O O14 0.713024 0.500000 0.988780
O O15 0.750000 0.750000 0.000000
O O16 0.394243 0.500000 0.319733
#
# Coordination Sequence:
#
# PCOD8099171 Si02
#       6
#     8   8   8   8   8   8
#     4  10  22  40  59  79 107 142 177 218 271 324
#     4  10  20  35  55  79 112 148 181 223 272 320
#     4  11  21  33  54  82 111 143 183 227 267 317
#     4   8  15  27  45  72 104 140 180 220 263 312
#     4  11  23  38  59  84 110 141 178 221 268 324
#     4   9  16  27  46  73 107 143 177 219 269 317
#
# _framework density 19.23949
#
# number of rings (size 3 to 8) (size 9 to 14) (size 15 to 20)
#    0.000    2.167    0.000    5.000    0.000    7.667 
#    0.000    0.000    0.000    1.000    0.000    7.000 
#    0.000    0.000    0.000    0.000    0.000    0.000 
#
# Total GULP energy -297609.988617 kJ/mol
# GULP energy per Si atom -12400.416192 kJ/mol
# Density = 1.919570 g / cm^3
# Si number density = 19.239490 Si / 1000 Ang^3
#
#
#
# Elastic Constant Matrix: (Units=GPa)
#
#
# Indices 1 2 3 4 5 6 
#
# 1 136.1486 67.8869 54.2824 0.0001 27.3910 0.0000
# 2 67.8869 130.9460 41.8862 0.0001 10.9142 0.0000
# 3 54.2824 41.8862 65.2562 0.0001 17.6884 0.0000
# 4 0.0001 0.0001 0.0001 23.9920 0.0000 2.8948
# 5 27.3910 10.9142 17.6884 0.0000 30.6194 0.0000
# 6 0.0000 0.0000 0.0000 2.8948 0.0000 37.7376
#
#
#
# Elastic Compliance Matrix: (Units=1/GPa)
#
#
# Indices 1 2 3 4 5 6 
#
# 1 0.013488 -0.004311 -0.006638 0.000000 -0.006695 0.000000
# 2 -0.004311 0.010989 -0.004091 0.000000 0.002303 0.000000
# 3 -0.006638 -0.004091 0.025453 0.000000 -0.007307 0.000000
# 4 0.000000 0.000000 0.000000 0.042070 0.000000 -0.003227
# 5 -0.006695 0.002303 -0.007307 0.000000 0.042048 0.000000
# 6 0.000000 0.000000 0.000000 -0.003227 0.000000 0.026746
#
#
# Mechanical properties :
#
#
# Convention : Reuss Voigt Hill
#
# Bulk Modulus (GPa) = 50.38232 73.38462 61.88347
# Shear Modulus (GPa) = 25.31767 29.68950 27.50358
#
# Velocity S-wave (km/s) = 3.63150 3.93256 3.78503
# Velocity P-wave (km/s) = 6.62023 7.67109 7.16495
#
# Compressibility (1/GPa) = 0.01984823
#
# Stress axis : x y z
#
# Youngs Moduli (GPa) = 74.13990 91.00315 39.28873
#
# Poissons Ratio (x) = 0.39235 0.26079
# Poissons Ratio (y) = 0.31965 0.16074
# Poissons Ratio (z) = 0.49213 0.37232
#
# Static dielectric constant tensor:
#      x y z
#    x 3.799390 0.000000 0.253200 
#    y 0.000000 3.708890 0.000000 
#    z 0.253200 0.000000 3.262910 
# 
# 
# High freq. dielectric constant tensor:
#      x y z
#    x 1.760550 0.000000 0.021290 
#    y 0.000000 1.757430 0.000000 
#    z 0.021290 0.000000 1.710030 
# 
# From -- ./inp_files/244746.got.cif
#   From: 2010.06.25/outbox.cif.g09.slc.cpg/sg12_123_cif.got.tgz:244746.got - 2010.06.28 00:19:55.
