data_PCOD8099172
_publ_section_title
;
Structure prediction by ZEFSAII (Michael W. Deem and Ramdas Pophale) SiO2 
 PCOD8099172
Probable space group: C 2/M
;
_chemical_formula_sum "Si O2"
_cell_formula_units_Z 64
_cell_length_a 29.637189
_cell_length_b 9.039968
_cell_length_c 18.348643
_cell_angle_alpha 90.000000
_cell_angle_beta 139.744805
_cell_angle_gamma 90.000000
_cell_volume 3176.656261
_symmetry_space_group_name_H-M "C 2/M"
_symmetry_group_IT_number 12
_symmetry_cell_setting 'monoclinic'
loop_
_space_group_symop_operation_xyz
x,y,z
-x,y,-z
-x,-y,-z
x,-y,z
1/2+x,1/2+y,z
1/2-x,1/2+y,-z
1/2-x,1/2-y,-z
1/2+x,1/2-y,z
loop_
_atom_site_type_symbol
_atom_site_label
_atom_site_fract_x
_atom_site_fract_y
_atom_site_fract_z
Si Si1 0.079648 0.169017 0.577559
Si Si2 0.344922 0.831370 0.206297
Si Si3 0.707062 0.825209 0.248262
Si Si4 0.200631 0.833492 0.091911
Si Si5 0.916532 0.828090 0.164024
Si Si6 0.560877 0.823938 0.128173
Si Si7 0.552756 0.175205 0.283811
Si Si8 0.852800 0.827968 0.490966
O O1 0.126378 0.283102 0.679841
O O2 0.093625 0.200472 0.509672
O O3 0.000000 0.199444 0.500000
O O4 0.100852 0.000000 0.622375
O O5 0.261261 0.816297 0.106357
O O6 0.373631 0.722045 0.181116
O O7 0.367332 0.000000 0.217147
O O8 0.712264 0.779912 0.170972
O O9 0.635995 0.760468 0.195507
O O10 0.775280 0.768528 0.375591
O O11 0.706128 0.000000 0.248997
O O12 0.200476 0.000000 0.123268
O O13 0.127823 0.796904 0.963139
O O14 0.987055 0.735963 0.246949
O O15 0.934972 0.000000 0.196045
O O16 0.548207 0.768796 0.194820
O O17 0.561075 0.000000 0.124794
O O18 0.500000 0.761178 0.000000
O O19 0.622357 0.237277 0.407812
O O20 0.554081 0.000000 0.289398
O O21 0.850850 0.000000 0.509259
#
# Coordination Sequence:
#
# PCOD8099172 Si02
#       8
#     8   8   8   8   8   8   8   8
#     4  10  20  35  55  79 112 157 200 239 288 346
#     4  11  22  36  56  85 117 150 195 244 294 348
#     4  10  20  37  63  88 115 157 202 240 288 354
#     4  10  22  38  57  86 121 154 192 245 299 346
#     4  11  23  39  58  82 118 159 197 241 296 355
#     4   9  19  37  61  90 120 150 191 243 295 349
#     4  11  23  39  61  88 117 152 196 245 296 345
#     4  10  21  37  57  85 119 157 198 240 290 352
#
# _framework density 20.146972000000002
#
# number of rings (size 3 to 8) (size 9 to 14) (size 15 to 20)
#    0.000    1.750    1.250    3.000    0.000    5.250 
#    0.000    1.250    0.000    3.375    0.000    0.000 
#    0.000    0.000    0.000    0.000    0.000    0.000 
#
# Total GULP energy -396902.635266 kJ/mol
# GULP energy per Si atom -12403.207352 kJ/mol
# Density = 2.010112 g / cm^3
# Si number density = 20.146972 Si / 1000 Ang^3
#
#
#
# Elastic Constant Matrix: (Units=GPa)
#
#
# Indices 1 2 3 4 5 6 
#
# 1 99.7167 25.7347 51.2170 0.0000 5.5555 0.0000
# 2 25.7347 49.9848 40.8037 0.0000 -2.6746 0.0000
# 3 51.2170 40.8037 130.5412 0.0000 2.3316 0.0000
# 4 0.0000 0.0000 0.0000 29.5891 0.0000 -5.7392
# 5 5.5555 -2.6746 2.3316 0.0000 35.5867 0.0000
# 6 0.0000 0.0000 0.0000 -5.7392 0.0000 17.7009
#
#
#
# Elastic Compliance Matrix: (Units=1/GPa)
#
#
# Indices 1 2 3 4 5 6 
#
# 1 0.013121 -0.003616 -0.003981 0.000000 -0.002059 0.000000
# 2 -0.003616 0.028093 -0.007419 0.000000 0.003162 0.000000
# 3 -0.003981 -0.007419 0.011554 0.000000 -0.000693 0.000000
# 4 0.000000 0.000000 0.000000 0.036064 0.000000 0.011693
# 5 -0.002059 0.003162 -0.000693 0.000000 0.028705 0.000000
# 6 0.000000 0.000000 0.000000 0.011693 0.000000 0.060286
#
#
# Mechanical properties :
#
#
# Convention : Reuss Voigt Hill
#
# Bulk Modulus (GPa) = 43.98249 57.30596 50.64422
# Shear Modulus (GPa) = 23.20906 27.40782 25.30844
#
# Velocity S-wave (km/s) = 3.39778 3.69235 3.54812
# Velocity P-wave (km/s) = 6.10503 6.83255 6.47901
#
# Compressibility (1/GPa) = 0.02273632
#
# Stress axis : x y z
#
# Youngs Moduli (GPa) = 76.21361 35.59583 86.55236
#
# Poissons Ratio (x) = 0.12871 0.34456
# Poissons Ratio (y) = 0.27557 0.64214
# Poissons Ratio (z) = 0.30340 0.26409
#
# Static dielectric constant tensor:
#      x y z
#    x 3.719260 0.000000 0.173470 
#    y 0.000000 3.440570 0.000000 
#    z 0.173470 0.000000 3.858610 
# 
# 
# High freq. dielectric constant tensor:
#      x y z
#    x 1.787410 0.000000 0.006920 
#    y 0.000000 1.769100 0.000000 
#    z 0.006920 0.000000 1.797930 
# 
# From -- ./inp_files/295799.got.cif
#   From: 2010.06.25/outbox.cif.g09.slc.cpg/sg12_148_cif.got.tgz:295799.got - 2010.06.28 00:19:55.
