data_PCOD8099830
_publ_section_title
;
Structure prediction by ZEFSAII (Michael W. Deem and Ramdas Pophale) SiO2 
 PCOD8099830
Probable space group: C 2/M
;
_chemical_formula_sum "Si O2"
_cell_formula_units_Z 64
_cell_length_a 14.801148
_cell_length_b 9.019034
_cell_length_c 23.531925
_cell_angle_alpha 90.000000
_cell_angle_beta 87.533672
_cell_angle_gamma 90.000000
_cell_volume 3138.415214
_symmetry_space_group_name_H-M "C 2/M"
_symmetry_group_IT_number 12
_symmetry_cell_setting 'monoclinic'
loop_
_space_group_symop_operation_xyz
x,y,z
-x,y,-z
-x,-y,-z
x,-y,z
1/2+x,1/2+y,z
1/2-x,1/2+y,-z
1/2-x,1/2-y,-z
1/2+x,1/2-y,z
loop_
_atom_site_type_symbol
_atom_site_label
_atom_site_fract_x
_atom_site_fract_y
_atom_site_fract_z
Si Si1 0.634681 0.673207 0.338129
Si Si2 0.982492 0.827806 0.122643
Si Si3 0.137446 0.333178 0.451069
Si Si4 0.679170 0.828634 0.924591
Si Si5 0.641405 0.171513 0.056408
Si Si6 0.647282 0.332936 0.560948
Si Si7 0.015123 0.829442 0.747059
Si Si8 0.659082 0.174334 0.674043
O O1 0.630717 0.500000 0.351470
O O2 0.599356 0.755219 0.395580
O O3 0.571588 0.719767 0.287371
O O4 0.736711 0.721351 0.319517
O O5 0.046432 0.731010 0.080968
O O6 0.881383 0.767434 0.116463
O O7 0.010676 0.803135 0.186976
O O8 0.987876 0.000000 0.105117
O O9 0.100389 0.500000 0.454256
O O10 0.245303 0.329750 0.447303
O O11 0.102296 0.247691 0.507964
O O12 0.780470 0.767498 0.916263
O O13 0.678642 0.000000 0.906081
O O14 0.642010 0.806895 0.988977
O O15 0.653745 0.000000 0.072551
O O16 0.610170 0.500000 0.564804
O O17 0.617391 0.248848 0.618775
O O18 0.102199 0.731174 0.729283
O O19 0.040338 0.000000 0.734902
O O20 0.648925 0.000000 0.667933
#
# Coordination Sequence:
#
# PCOD8099830 Si02
#       8
#     8   8   8   8   8   8   8   8
#     4   9  19  37  57  76 105 144 181 221 276 335
#     4  11  23  38  58  85 118 156 196 239 285 335
#     4   9  16  27  48  79 108 134 173 223 272 327
#     4  10  21  38  61  89 121 155 191 234 285 340
#     4  10  21  38  61  90 121 153 191 235 285 341
#     4   9  16  28  49  76 107 142 175 214 273 339
#     4  10  23  41  57  78 110 148 190 231 273 328
#     4  10  20  35  57  82 107 140 183 232 281 328
#
# _framework density 20.392457
#
# number of rings (size 3 to 8) (size 9 to 14) (size 15 to 20)
#    0.000    2.250    0.000    2.625    0.000    9.000 
#    0.000    1.875    0.000    3.750    0.000    0.000 
#    0.000    0.000    0.000    0.000    0.000    0.000 
#
# Total GULP energy -396948.143020 kJ/mol
# GULP energy per Si atom -12404.629469 kJ/mol
# Density = 2.034604 g / cm^3
# Si number density = 20.392457 Si / 1000 Ang^3
#
#
#
# Elastic Constant Matrix: (Units=GPa)
#
#
# Indices 1 2 3 4 5 6 
#
# 1 59.5991 24.3738 25.2636 0.0000 12.8751 0.0000
# 2 24.3738 99.4115 41.8364 0.0000 7.7822 0.0000
# 3 25.2636 41.8364 59.5706 0.0000 18.8182 0.0000
# 4 0.0000 0.0000 0.0000 33.6182 0.0000 -2.0856
# 5 12.8751 7.7822 18.8182 0.0000 31.1902 0.0000
# 6 0.0000 0.0000 0.0000 -2.0856 0.0000 31.5914
#
#
#
# Elastic Compliance Matrix: (Units=1/GPa)
#
#
# Indices 1 2 3 4 5 6 
#
# 1 0.021241 -0.002370 -0.005881 0.000000 -0.004628 0.000000
# 2 -0.002370 0.014787 -0.010530 0.000000 0.003642 0.000000
# 3 -0.005881 -0.010530 0.030985 0.000000 -0.013639 0.000000
# 4 0.000000 0.000000 0.000000 0.029868 0.000000 0.001972
# 5 -0.004628 0.003642 -0.013639 0.000000 0.041292 0.000000
# 6 0.000000 0.000000 0.000000 0.001972 0.000000 0.031784
#
#
# Mechanical properties :
#
#
# Convention : Reuss Voigt Hill
#
# Bulk Modulus (GPa) = 33.95698 44.61432 39.28565
# Shear Modulus (GPa) = 23.00570 27.75380 25.37975
#
# Velocity S-wave (km/s) = 3.36243 3.69315 3.53167
# Velocity P-wave (km/s) = 5.63582 6.33334 5.99473
#
# Compressibility (1/GPa) = 0.02944903
#
# Stress axis : x y z
#
# Youngs Moduli (GPa) = 47.07845 67.62825 32.27379
#
# Poissons Ratio (x) = 0.16031 0.18981
# Poissons Ratio (y) = 0.11160 0.33984
# Poissons Ratio (z) = 0.27689 0.71213
#
# Static dielectric constant tensor:
#      x y z
#    x 3.526320 0.000000 0.077880 
#    y 0.000000 3.760810 0.000000 
#    z 0.077880 0.000000 3.618070 
# 
# 
# High freq. dielectric constant tensor:
#      x y z
#    x 1.790670 0.000000 0.004290 
#    y 0.000000 1.804590 0.000000 
#    z 0.004290 0.000000 1.789230 
# 
# From -- ./inp_files/338848.got.cif
#   From: 2010.06.25/outbox.cif.g09.slc.cpg/sg12_170_cif.got.tgz:338848.got - 2010.06.28 00:19:55.
