data_PCOD8099945
_publ_section_title
;
Structure prediction by ZEFSAII (Michael W. Deem and Ramdas Pophale) SiO2 
 PCOD8099945
Probable space group: C 2/M
;
_chemical_formula_sum "Si O2"
_cell_formula_units_Z 36
_cell_length_a 12.438574
_cell_length_b 17.993019
_cell_length_c 11.016891
_cell_angle_alpha 90.000000
_cell_angle_beta 131.139354
_cell_angle_gamma 90.000000
_cell_volume 1856.919493
_symmetry_space_group_name_H-M "C 2/M"
_symmetry_group_IT_number 12
_symmetry_cell_setting 'monoclinic'
loop_
_space_group_symop_operation_xyz
x,y,z
-x,y,-z
-x,-y,-z
x,-y,z
1/2+x,1/2+y,z
1/2-x,1/2+y,-z
1/2-x,1/2-y,-z
1/2+x,1/2-y,z
loop_
_atom_site_type_symbol
_atom_site_label
_atom_site_fract_x
_atom_site_fract_y
_atom_site_fract_z
Si Si1 0.902889 0.297470 0.220342
Si Si2 0.500000 0.693530 0.500000
Si Si3 0.593054 0.584876 0.371850
Si Si4 0.407827 0.333714 0.050145
Si Si5 0.909867 0.582607 0.554505
O O1 0.924978 0.248595 0.117092
O O2 0.903448 0.245996 0.342007
O O3 0.032833 0.355784 0.310166
O O4 0.757599 0.345324 0.106556
O O5 0.599639 0.639889 0.492469
O O6 0.573842 0.500000 0.401700
O O7 0.460647 0.605046 0.186233
O O8 0.741197 0.595239 0.408005
O O9 0.500000 0.342317 0.000000
O O10 0.936023 0.500000 0.626540
O O11 0.000000 0.594663 0.500000
#
# Coordination Sequence:
#
# PCOD8099945 Si02
#       5
#     8   4   8   8   8
#     4  10  21  36  55  86 110 148 188 227 284 327
#     4  10  21  36  63  84 112 146 190 236 275 334
#     4  10  22  38  59  85 113 150 187 231 282 331
#     4  10  22  35  54  82 115 149 184 230 277 333
#     4  10  20  35  57  84 112 143 185 232 279 331
#
# _framework density 19.386948
#
# number of rings (size 3 to 8) (size 9 to 14) (size 15 to 20)
#    0.000    2.000    1.111    1.667    3.111    3.111 
#    0.000    0.000    0.000    0.667    0.000    0.000 
#    0.000    0.000    0.000    0.000    0.000    0.000 
#
# Total GULP energy -223156.598190 kJ/mol
# GULP energy per Si atom -12397.588788 kJ/mol
# Density = 1.934282 g / cm^3
# Si number density = 19.386948 Si / 1000 Ang^3
#
#
#
# Elastic Constant Matrix: (Units=GPa)
#
#
# Indices 1 2 3 4 5 6 
#
# 1 64.5832 26.6155 20.8059 0.0000 5.0345 0.0000
# 2 26.6155 106.2981 44.8189 0.0000 14.8377 0.0000
# 3 20.8059 44.8189 93.9651 0.0000 14.3510 0.0000
# 4 0.0000 0.0000 0.0000 25.5516 0.0000 6.3425
# 5 5.0345 14.8377 14.3510 0.0000 32.7026 0.0000
# 6 0.0000 0.0000 0.0000 6.3425 0.0000 14.4779
#
#
#
# Elastic Compliance Matrix: (Units=1/GPa)
#
#
# Indices 1 2 3 4 5 6 
#
# 1 0.017639 -0.003451 -0.002234 0.000000 -0.000169 0.000000
# 2 -0.003451 0.012749 -0.004839 0.000000 -0.003130 0.000000
# 3 -0.002234 -0.004839 0.013995 0.000000 -0.003602 0.000000
# 4 0.000000 0.000000 0.000000 0.043912 0.000000 -0.019237
# 5 -0.000169 -0.003130 -0.003602 0.000000 0.033605 0.000000
# 6 0.000000 0.000000 0.000000 -0.019237 0.000000 0.077498
#
#
# Mechanical properties :
#
#
# Convention : Reuss Voigt Hill
#
# Bulk Modulus (GPa) = 42.85291 49.92521 46.38906
# Shear Modulus (GPa) = 21.90841 26.05351 23.98096
#
# Velocity S-wave (km/s) = 3.36528 3.66986 3.52087
# Velocity P-wave (km/s) = 6.10345 6.61551 6.36464
#
# Compressibility (1/GPa) = 0.02333564
#
# Stress axis : x y z
#
# Youngs Moduli (GPa) = 56.69276 78.44011 71.45474
#
# Poissons Ratio (x) = 0.27070 0.15961
# Poissons Ratio (y) = 0.19565 0.34574
# Poissons Ratio (z) = 0.12663 0.37954
#
# Static dielectric constant tensor:
#      x y z
#    x 3.436590 0.000000 0.108530 
#    y 0.000000 3.725480 0.000000 
#    z 0.108530 0.000000 3.675100 
# 
# 
# High freq. dielectric constant tensor:
#      x y z
#    x 1.743470 0.000000 0.006430 
#    y 0.000000 1.763750 0.000000 
#    z 0.006430 0.000000 1.749250 
# 
# From -- ./inp_files/46806.got.cif
#   From: 2010.06.25/outbox.cif.g09.slc.cpg/sg12_24_cif.got.tgz:46806.got - 2010.06.28 00:19:55.
