data_PCOD8099985
_publ_section_title
;
Structure prediction by ZEFSAII (Michael W. Deem and Ramdas Pophale) SiO2 
 PCOD8099985
Probable space group: C 2/M
;
_chemical_formula_sum "Si O2"
_cell_formula_units_Z 56
_cell_length_a 28.437378
_cell_length_b 20.403110
_cell_length_c 9.171511
_cell_angle_alpha 90.000000
_cell_angle_beta 31.508382
_cell_angle_gamma 90.000000
_cell_volume 2781.093415
_symmetry_space_group_name_H-M "C 2/M"
_symmetry_group_IT_number 12
_symmetry_cell_setting 'monoclinic'
loop_
_space_group_symop_operation_xyz
x,y,z
-x,y,-z
-x,-y,-z
x,-y,z
1/2+x,1/2+y,z
1/2-x,1/2+y,-z
1/2-x,1/2-y,-z
1/2+x,1/2-y,z
loop_
_atom_site_type_symbol
_atom_site_label
_atom_site_fract_x
_atom_site_fract_y
_atom_site_fract_z
Si Si1 0.176594 0.575972 0.849722
Si Si2 0.588760 0.259872 0.694143
Si Si3 0.932492 0.239834 0.561177
Si Si4 0.515849 0.889779 0.617357
Si Si5 0.202057 0.820299 0.624225
Si Si6 0.203394 0.573101 0.116139
Si Si7 0.230756 0.184381 0.863384
O O1 0.198423 0.500000 0.765364
O O2 0.238772 0.619817 0.585487
O O3 0.076272 0.593360 0.055602
O O4 0.193361 0.595745 0.974207
O O5 0.563865 0.295886 0.606581
O O6 0.618041 0.314178 0.735813
O O7 0.668885 0.208883 0.442518
O O8 0.500000 0.224668 0.000000
O O9 0.000000 0.206441 0.500000
O O10 0.965856 0.312699 0.439196
O O11 0.830264 0.239705 0.894785
O O12 0.500000 0.920496 0.500000
O O13 0.603527 0.924904 0.453442
O O14 0.250000 0.750000 0.500000
O O15 0.177069 0.835899 0.857925
O O16 0.243392 0.500000 0.022864
O O17 0.267925 0.622034 0.032962
#
# Coordination Sequence:
#
# PCOD8099985 Si02
#       7
#     8   8   8   8   8   8   8
#     4  10  21  39  60  88 126 169 206 254 311 375
#     4  11  23  37  57  86 124 157 202 257 317 363
#     4  11  22  35  61  88 121 159 203 260 313 364
#     4   9  19  30  57  85 123 155 205 241 303 363
#     4  10  24  36  59  84 124 160 213 252 309 359
#     4  10  20  35  57  84 118 161 209 251 300 368
#     4  11  23  37  57  87 121 163 208 256 311 363
#
# _framework density 20.135964000000001
#
# number of rings (size 3 to 8) (size 9 to 14) (size 15 to 20)
#    0.000    1.714    1.429    2.571   16.000    2.286 
#    0.000    0.000    0.000    3.000    0.000    0.000 
#    0.000    0.000    0.000    0.000    0.000    0.000 
#
# Total GULP energy -346879.162392 kJ/mol
# GULP energy per Si atom -12388.541514 kJ/mol
# Density = 2.009013 g / cm^3
# Si number density = 20.135964 Si / 1000 Ang^3
#
#
#
# Elastic Constant Matrix: (Units=GPa)
#
#
# Indices 1 2 3 4 5 6 
#
# 1 127.0503 27.9174 30.1409 0.0000 16.5003 0.0000
# 2 27.9174 88.6782 32.5952 0.0000 2.6301 0.0000
# 3 30.1409 32.5952 110.8131 0.0000 6.2830 0.0000
# 4 0.0000 0.0000 0.0000 24.1872 0.0000 1.1056
# 5 16.5003 2.6301 6.2830 0.0000 26.1259 0.0000
# 6 0.0000 0.0000 0.0000 1.1056 0.0000 27.8263
#
#
#
# Elastic Compliance Matrix: (Units=1/GPa)
#
#
# Indices 1 2 3 4 5 6 
#
# 1 0.009435 -0.002220 -0.001610 0.000000 -0.005348 0.000000
# 2 -0.002220 0.013170 -0.003320 0.000000 0.000875 0.000000
# 3 -0.001610 -0.003320 0.010505 0.000000 -0.001175 0.000000
# 4 0.000000 0.000000 0.000000 0.041419 0.000000 -0.001646
# 5 -0.005348 0.000875 -0.001175 0.000000 0.041849 0.000000
# 6 0.000000 0.000000 0.000000 -0.001646 0.000000 0.036003
#
#
# Mechanical properties :
#
#
# Convention : Reuss Voigt Hill
#
# Bulk Modulus (GPa) = 53.16043 56.42762 54.79403
# Shear Modulus (GPa) = 28.90997 31.35376 30.13186
#
# Velocity S-wave (km/s) = 3.79322 3.95029 3.87256
# Velocity P-wave (km/s) = 6.75594 6.99218 6.87508
#
# Compressibility (1/GPa) = 0.01881098
#
# Stress axis : x y z
#
# Youngs Moduli (GPa) = 105.98529 75.93109 95.19043
#
# Poissons Ratio (x) = 0.16856 0.15327
# Poissons Ratio (y) = 0.23528 0.31600
# Poissons Ratio (z) = 0.17065 0.25206
#
# Static dielectric constant tensor:
#      x y z
#    x 4.664500 0.000000 0.047980 
#    y 0.000000 3.267850 0.000000 
#    z 0.047980 0.000000 3.660150 
# 
# 
# High freq. dielectric constant tensor:
#      x y z
#    x 1.800140 0.000000 0.004530 
#    y 0.000000 1.740960 0.000000 
#    z 0.004530 0.000000 1.772270 
# 
# From -- ./inp_files/113342.got.cif
#   From: 2010.06.25/outbox.cif.g09.slc.cpg/sg12_57_cif.got.tgz:113342.got - 2010.06.28 00:19:55.
