data_PCOD8099354
_publ_section_title
;
Structure prediction by ZEFSAII (Michael W. Deem and Ramdas Pophale) SiO2 
 PCOD8099354
Probable space group: C 2/M
;
_chemical_formula_sum "Si O2"
_cell_formula_units_Z 64
_cell_length_a 24.220216
_cell_length_b 9.256936
_cell_length_c 19.089431
_cell_angle_alpha 90.000000
_cell_angle_beta 50.102942
_cell_angle_gamma 90.000000
_cell_volume 3283.566138
_symmetry_space_group_name_H-M "C 2/M"
_symmetry_group_IT_number 12
_symmetry_cell_setting 'monoclinic'
loop_
_space_group_symop_operation_xyz
x,y,z
-x,y,-z
-x,-y,-z
x,-y,z
1/2+x,1/2+y,z
1/2-x,1/2+y,-z
1/2-x,1/2-y,-z
1/2+x,1/2-y,z
loop_
_atom_site_type_symbol
_atom_site_label
_atom_site_fract_x
_atom_site_fract_y
_atom_site_fract_z
Si Si1 0.713102 0.668689 0.847595
Si Si2 0.812940 0.836705 0.862489
Si Si3 0.073200 0.667526 0.978461
Si Si4 0.084015 0.333052 0.130812
Si Si5 0.670206 0.832423 0.364612
Si Si6 0.810218 0.332472 0.493146
Si Si7 0.971167 0.332964 0.338908
Si Si8 0.569124 0.337476 0.354052
O O1 0.707526 0.500000 0.869322
O O2 0.743639 0.749624 0.891579
O O3 0.635255 0.734602 0.894083
O O4 0.761758 0.698424 0.740240
O O5 0.845957 0.759193 0.903949
O O6 0.872140 0.834287 0.754341
O O7 0.789677 0.000000 0.900402
O O8 0.092267 0.500000 0.950277
O O9 0.063909 0.702792 0.067835
O O10 0.000000 0.711522 0.000000
O O11 0.103986 0.500000 0.125871
O O12 0.014250 0.290244 0.233612
O O13 0.690407 0.780404 0.425834
O O14 0.600536 0.743462 0.396212
O O15 0.648355 0.000000 0.381324
O O16 0.791319 0.500000 0.504255
O O17 0.750000 0.250000 0.500000
O O18 0.887341 0.298700 0.395109
O O19 0.982979 0.500000 0.348427
O O20 0.998244 0.242683 0.383772
O O21 0.548635 0.500000 0.392196
#
# Coordination Sequence:
#
# PCOD8099354 Si02
#       8
#     8   8   8   8   8   8   8   8
#     4  10  20  35  56  79 105 139 175 212 257 310
#     4   9  17  31  53  81 109 135 168 211 260 313
#     4  10  22  38  54  75 104 137 176 221 263 305
#     4   9  18  34  55  78 105 137 172 211 259 314
#     4   9  19  36  55  77 108 142 172 208 259 313
#     4  10  22  38  55  77 105 139 180 220 257 303
#     4   9  18  34  55  77 104 139 173 208 258 317
#     4   9  17  30  52  82 109 134 169 213 259 308
#
# _framework density 19.491004
#
# number of rings (size 3 to 8) (size 9 to 14) (size 15 to 20)
#    0.000    2.625    0.000    1.125    0.000    7.250 
#    0.000    3.750    0.000    0.000    0.000    0.000 
#    0.000    0.000    0.000    0.000    0.000    0.000 
#
# Total GULP energy -396875.162801 kJ/mol
# GULP energy per Si atom -12402.348838 kJ/mol
# Density = 1.944664 g / cm^3
# Si number density = 19.491004 Si / 1000 Ang^3
#
#
#
# Elastic Constant Matrix: (Units=GPa)
#
#
# Indices 1 2 3 4 5 6 
#
# 1 119.7440 45.8305 16.0266 -0.0027 4.0454 0.0055
# 2 45.8305 81.3329 15.5941 -0.0019 -0.5263 0.0017
# 3 16.0266 15.5941 41.4991 -0.0031 4.0415 0.0048
# 4 -0.0027 -0.0019 -0.0031 20.6084 -0.0002 -4.1990
# 5 4.0454 -0.5263 4.0415 -0.0002 29.7201 0.0007
# 6 0.0055 0.0017 0.0048 -4.1990 0.0007 39.9567
#
#
#
# Elastic Compliance Matrix: (Units=1/GPa)
#
#
# Indices 1 2 3 4 5 6 
#
# 1 0.010855 -0.005761 -0.001898 0.000000 -0.001321 -0.000001
# 2 -0.005761 0.016333 -0.004071 0.000000 0.001627 0.000001
# 3 -0.001898 -0.004071 0.026695 0.000003 -0.003444 -0.000002
# 4 0.000000 0.000000 0.000003 0.049586 0.000000 0.005211
# 5 -0.001321 0.001627 -0.003444 0.000000 0.034324 0.000000
# 6 -0.000001 0.000001 -0.000002 0.005211 0.000000 0.025575
#
#
# Mechanical properties :
#
#
# Convention : Reuss Voigt Hill
#
# Bulk Modulus (GPa) = 32.87139 44.16429 38.51784
# Shear Modulus (GPa) = 25.38470 29.06533 27.22501
#
# Velocity S-wave (km/s) = 3.61277 3.86582 3.74143
# Velocity P-wave (km/s) = 5.85699 6.52948 6.20235
#
# Compressibility (1/GPa) = 0.03042159
#
# Stress axis : x y z
#
# Youngs Moduli (GPa) = 92.12406 61.22723 37.45999
#
# Poissons Ratio (x) = 0.35274 0.07112
# Poissons Ratio (y) = 0.53075 0.15249
# Poissons Ratio (z) = 0.17490 0.24925
#
# Static dielectric constant tensor:
#      x y z
#    x 3.494010 -0.000010 -0.005730 
#    y -0.000010 3.601220 0.000010 
#    z -0.005730 0.000010 3.546090 
# 
# 
# High freq. dielectric constant tensor:
#      x y z
#    x 1.752640 0.000000 -0.001430 
#    y 0.000000 1.756470 0.000000 
#    z -0.001430 0.000000 1.759280 
# 
# From -- ./inp_files/324116.got.cif
#   From: 2010.06.25/outbox.cif.g09.slc.cpg/sg12_163_cif.got.tgz:324116.got - 2010.06.28 00:19:55.
