data_PCOD8099652
_publ_section_title
;
Structure prediction by ZEFSAII (Michael W. Deem and Ramdas Pophale) SiO2 
 PCOD8099652
Probable space group: C 2/M
;
_chemical_formula_sum "Si O2"
_cell_formula_units_Z 56
_cell_length_a 17.892770
_cell_length_b 8.780720
_cell_length_c 25.175756
_cell_angle_alpha 90.000000
_cell_angle_beta 134.521100
_cell_angle_gamma 90.000000
_cell_volume 2820.168496
_symmetry_space_group_name_H-M "C 2/M"
_symmetry_group_IT_number 12
_symmetry_cell_setting 'monoclinic'
loop_
_space_group_symop_operation_xyz
x,y,z
-x,y,-z
-x,-y,-z
x,-y,z
1/2+x,1/2+y,z
1/2-x,1/2+y,-z
1/2-x,1/2-y,-z
1/2+x,1/2-y,z
loop_
_atom_site_type_symbol
_atom_site_label
_atom_site_fract_x
_atom_site_fract_y
_atom_site_fract_z
Si Si1 0.392173 0.823301 0.714139
Si Si2 0.833857 0.323145 0.003069
Si Si3 0.066344 0.820161 0.732057
Si Si4 0.429363 0.173037 0.853978
Si Si5 0.509058 0.680972 0.588039
Si Si6 0.788473 0.178409 0.869092
Si Si7 0.335906 0.680820 0.423939
O O1 0.486060 0.723942 0.738019
O O2 0.384937 0.798529 0.773343
O O3 0.283446 0.760012 0.634968
O O4 0.412023 0.000000 0.710191
O O5 0.807660 0.500000 0.983711
O O6 0.832044 0.246948 0.944940
O O7 0.750000 0.250000 0.000000
O O8 0.947093 0.294965 0.085130
O O9 0.177537 0.748161 0.799159
O O10 0.023210 0.754845 0.654426
O O11 0.080222 0.000000 0.737166
O O12 0.372013 0.287656 0.864860
O O13 0.406282 0.000000 0.860990
O O14 0.512533 0.500000 0.590558
O O15 0.397035 0.734759 0.507693
O O16 0.602571 0.743637 0.597203
O O17 0.775103 0.000000 0.869686
O O18 0.334338 0.500000 0.419274
#
# Coordination Sequence:
#
# PCOD8099652 Si02
#       7
#     8   8   8   8   8   8   8
#     4  10  20  35  56  83 115 149 186 230 282 338
#     4  11  23  40  63  90 122 155 188 228 275 329
#     4  11  22  36  55  80 113 150 190 236 285 337
#     4  10  22  40  61  85 113 147 187 230 278 334
#     4   8  15  29  51  79 107 142 188 232 278 335
#     4  12  25  40  60  85 113 147 191 238 284 336
#     4   8  14  28  52  79 108 143 185 231 278 334
#
# _framework density 19.856968999999999
#
# number of rings (size 3 to 8) (size 9 to 14) (size 15 to 20)
#    0.000    2.000    0.000    5.143    0.000    7.429 
#    0.000    0.000    0.000    0.857    0.000    6.000 
#    0.000    0.000    0.000    0.000    0.000    0.000 
#
# Total GULP energy -347235.237548 kJ/mol
# GULP energy per Si atom -12401.258484 kJ/mol
# Density = 1.981177 g / cm^3
# Si number density = 19.856969 Si / 1000 Ang^3
#
#
#
# Elastic Constant Matrix: (Units=GPa)
#
#
# Indices 1 2 3 4 5 6 
#
# 1 81.6844 28.2161 13.9047 0.0000 16.5693 0.0000
# 2 28.2161 74.5698 26.8698 0.0000 8.6404 0.0000
# 3 13.9047 26.8698 92.4900 0.0000 14.9554 0.0000
# 4 0.0000 0.0000 0.0000 -15.2319 0.0000 -19.7053
# 5 16.5693 8.6404 14.9554 0.0000 27.1794 0.0000
# 6 0.0000 0.0000 0.0000 -19.7053 0.0000 20.2242
#
#
#
# Elastic Compliance Matrix: (Units=1/GPa)
#
#
# Indices 1 2 3 4 5 6 
#
# 1 0.015580 -0.005119 0.000458 0.000000 -0.008123 0.000000
# 2 -0.005119 0.016829 -0.004126 0.000000 0.000041 0.000000
# 3 0.000458 -0.004126 0.012925 0.000000 -0.006080 0.000000
# 4 0.000000 0.000000 0.000000 -0.029043 0.000000 -0.028298
# 5 -0.008123 0.000041 -0.006080 0.000000 0.045077 0.000000
# 6 0.000000 0.000000 0.000000 -0.028298 0.000000 0.021874
#
#
# Mechanical properties :
#
#
# Convention : Reuss Voigt Hill
#
# Bulk Modulus (GPa) = 36.02278 42.96948 39.49613
# Shear Modulus (GPa) = 45.42581 18.41792 31.92187
#
# Velocity S-wave (km/s) = 4.78813 3.04884 4.01383
# Velocity P-wave (km/s) = 6.98203 5.83784 6.43541
#
# Compressibility (1/GPa) = 0.02776021
#
# Stress axis : x y z
#
# Youngs Moduli (GPa) = 64.18379 59.42004 77.37029
#
# Poissons Ratio (x) = 0.30419 -0.03547
# Poissons Ratio (y) = 0.32858 0.31925
# Poissons Ratio (z) = -0.02942 0.24518
#
# Static dielectric constant tensor:
#      x y z
#    x 3.630890 0.000000 0.031140 
#    y 0.000000 3.377520 0.000000 
#    z 0.031140 0.000000 4.032600 
# 
# 
# High freq. dielectric constant tensor:
#      x y z
#    x 1.778310 0.000000 0.004170 
#    y 0.000000 1.743780 0.000000 
#    z 0.004170 0.000000 1.796080 
# 
# From -- ./inp_files/342560.got.cif
#   From: 2010.06.25/outbox.cif.g09.slc.cpg/sg12_172_cif.got.tgz:342560.got - 2010.06.28 00:19:55.
