data_PCOD8099999
_publ_section_title
;
Structure prediction by ZEFSAII (Michael W. Deem and Ramdas Pophale) SiO2 
 PCOD8099999
Probable space group: C 2/M
;
_chemical_formula_sum "Si O2"
_cell_formula_units_Z 56
_cell_length_a 19.852779
_cell_length_b 32.794848
_cell_length_c 8.769160
_cell_angle_alpha 90.000000
_cell_angle_beta 29.433771
_cell_angle_gamma 90.000000
_cell_volume 2805.661389
_symmetry_space_group_name_H-M "C 2/M"
_symmetry_group_IT_number 12
_symmetry_cell_setting 'monoclinic'
loop_
_space_group_symop_operation_xyz
x,y,z
-x,y,-z
-x,-y,-z
x,-y,z
1/2+x,1/2+y,z
1/2-x,1/2+y,-z
1/2-x,1/2-y,-z
1/2+x,1/2-y,z
loop_
_atom_site_type_symbol
_atom_site_label
_atom_site_fract_x
_atom_site_fract_y
_atom_site_fract_z
Si Si1 0.456893 0.087255 0.910348
Si Si2 0.779038 0.230936 0.779002
Si Si3 0.962742 0.500000 0.903168
Si Si4 0.763482 0.136505 0.810437
Si Si5 0.349298 0.000000 0.716037
Si Si6 0.728560 0.086844 0.180754
Si Si7 0.038966 0.872737 0.094766
Si Si8 0.948440 0.778398 0.933804
O O1 0.584054 0.093559 0.547541
O O2 0.387035 0.042496 0.010600
O O3 0.500000 0.090991 0.000000
O O4 0.344945 0.120971 0.099245
O O5 0.737893 0.184169 0.868498
O O6 0.937811 0.233979 0.416289
O O7 0.750000 0.250000 0.000000
O O8 0.688291 0.253203 0.830361
O O9 0.115657 0.500000 0.531443
O O10 0.000000 0.500000 0.000000
O O11 0.912147 0.123687 0.459201
O O12 0.739687 0.119274 0.024624
O O13 0.500000 0.000000 0.500000
O O14 0.261975 0.041454 0.915257
O O15 0.847214 0.095586 0.069842
O O16 0.091710 0.826133 0.993526
O O17 0.000000 0.885835 0.000000
O O18 0.000000 0.766699 0.000000
#
# Coordination Sequence:
#
# PCOD8099999 Si02
#       8
#     8   8   4   8   4   8   8   8
#     4  10  20  35  57  85 113 146 188 232 278 332
#     4  11  23  38  58  83 113 147 188 234 283 337
#     4   8  16  32  53  77 108 142 176 218 270 320
#     4  11  23  37  56  85 115 147 186 235 285 332
#     4  10  20  36  57  85 117 148 186 234 283 330
#     4  11  21  37  60  84 113 152 191 231 281 340
#     4  10  22  41  60  81 114 152 188 233 288 341
#     4  10  22  40  61  83 112 150 189 234 287 339
#
# _framework density 19.959643
#
# number of rings (size 3 to 8) (size 9 to 14) (size 15 to 20)
#    0.000    1.714    0.000    5.143    0.000    6.286 
#    0.000    2.500    0.000    0.000    0.000    0.000 
#    0.000    0.000    0.000    0.000    0.000    0.000 
#
# Total GULP energy -347073.577113 kJ/mol
# GULP energy per Si atom -12395.484897 kJ/mol
# Density = 1.991421 g / cm^3
# Si number density = 19.959643 Si / 1000 Ang^3
#
#
#
# Elastic Constant Matrix: (Units=GPa)
#
#
# Indices 1 2 3 4 5 6 
#
# 1 109.9162 52.5035 18.7163 0.0000 -2.5129 0.0000
# 2 52.5035 121.0632 39.5850 0.0000 -17.9561 0.0000
# 3 18.7163 39.5850 49.7183 0.0000 8.0148 0.0000
# 4 0.0000 0.0000 0.0000 26.8437 0.0000 -5.1576
# 5 -2.5129 -17.9561 8.0148 0.0000 38.8999 0.0000
# 6 0.0000 0.0000 0.0000 -5.1576 0.0000 29.7396
#
#
#
# Elastic Compliance Matrix: (Units=1/GPa)
#
#
# Indices 1 2 3 4 5 6 
#
# 1 0.011578 -0.005338 0.000174 0.000000 -0.001752 0.000000
# 2 -0.005338 0.016012 -0.012283 0.000000 0.009577 0.000000
# 3 0.000174 -0.012283 0.031795 0.000000 -0.012209 0.000000
# 4 0.000000 0.000000 0.000000 0.038537 0.000000 0.006683
# 5 -0.001752 0.009577 -0.012209 0.000000 0.032530 0.000000
# 6 0.000000 0.000000 0.000000 0.006683 0.000000 0.034784
#
#
# Mechanical properties :
#
#
# Convention : Reuss Voigt Hill
#
# Bulk Modulus (GPa) = 40.83031 55.81192 48.32112
# Shear Modulus (GPa) = 24.00464 30.42285 27.21374
#
# Velocity S-wave (km/s) = 3.47170 3.90836 3.69648
# Velocity P-wave (km/s) = 6.04740 6.95630 6.51771
#
# Compressibility (1/GPa) = 0.02449161
#
# Stress axis : x y z
#
# Youngs Moduli (GPa) = 86.37135 62.45433 31.45118
#
# Poissons Ratio (x) = 0.33337 -0.00547
# Poissons Ratio (y) = 0.46104 0.38630
# Poissons Ratio (z) = -0.01502 0.76711
#
# Static dielectric constant tensor:
#      x y z
#    x 3.693800 0.000000 0.221180 
#    y 0.000000 3.362650 0.000000 
#    z 0.221180 0.000000 3.318720 
# 
# 
# High freq. dielectric constant tensor:
#      x y z
#    x 1.787990 0.000000 0.020900 
#    y 0.000000 1.787020 0.000000 
#    z 0.020900 0.000000 1.773170 
# 
# From -- ./inp_files/91578.got.cif
#   From: 2010.06.25/outbox.cif.g09.slc.cpg/sg12_46_cif.got.tgz:91578.got - 2010.06.28 00:19:55.
