data_PCOD8099529
_publ_section_title
;
Structure prediction by ZEFSAII (Michael W. Deem and Ramdas Pophale) SiO2 
 PCOD8099529
Probable space group: C 2/M
;
_chemical_formula_sum "Si O2"
_cell_formula_units_Z 64
_cell_length_a 18.654706
_cell_length_b 8.566470
_cell_length_c 30.878194
_cell_angle_alpha 90.000000
_cell_angle_beta 41.100720
_cell_angle_gamma 90.000000
_cell_volume 3243.857747
_symmetry_space_group_name_H-M "C 2/M"
_symmetry_group_IT_number 12
_symmetry_cell_setting 'monoclinic'
loop_
_space_group_symop_operation_xyz
x,y,z
-x,y,-z
-x,-y,-z
x,-y,z
1/2+x,1/2+y,z
1/2-x,1/2+y,-z
1/2-x,1/2-y,-z
1/2+x,1/2-y,z
loop_
_atom_site_type_symbol
_atom_site_label
_atom_site_fract_x
_atom_site_fract_y
_atom_site_fract_z
Si Si1 0.132817 0.820084 0.061413
Si Si2 0.293019 0.819609 0.200398
Si Si3 0.662788 0.182655 0.432781
Si Si4 0.035742 0.179681 0.937034
Si Si5 0.587548 0.681614 0.687293
Si Si6 0.539665 0.181169 0.800245
Si Si7 0.016807 0.181326 0.428121
Si Si8 0.561062 0.819964 0.317367
O O1 0.066795 0.798501 0.047368
O O2 0.075824 0.724760 0.125961
O O3 0.140798 0.000000 0.071598
O O4 0.250000 0.750000 0.000000
O O5 0.361934 0.779926 0.126151
O O6 0.363258 0.778326 0.210818
O O7 0.185833 0.715409 0.249513
O O8 0.259277 0.000000 0.214847
O O9 0.788107 0.233381 0.377183
O O10 0.600934 0.273696 0.499136
O O11 0.612605 0.225426 0.408919
O O12 0.647852 0.000000 0.447393
O O13 0.072971 0.000000 0.922833
O O14 0.000000 0.244202 0.000000
O O15 0.570299 0.500000 0.685047
O O16 0.555931 0.713516 0.750986
O O17 0.511835 0.783070 0.690920
O O18 0.539784 0.000000 0.787376
O O19 0.018846 0.217888 0.376590
O O20 0.038301 0.000000 0.425882
O O21 0.548957 0.000000 0.335161
#
# Coordination Sequence:
#
# PCOD8099529 Si02
#       8
#     8   8   8   8   8   8   8   8
#     4  10  20  35  56  81 112 148 188 236 286 337
#     4  10  21  38  60  85 114 148 191 238 282 336
#     4  10  21  39  63  89 117 151 192 234 281 338
#     4   9  19  36  57  81 110 147 190 233 280 334
#     4  11  24  40  59  85 116 149 188 236 287 338
#     4  10  21  38  60  84 112 149 191 234 284 341
#     4  11  22  38  62  89 118 151 191 236 280 333
#     4  12  25  40  59  83 116 154 191 234 286 341
#
# _framework density 19.729593999999999
#
# number of rings (size 3 to 8) (size 9 to 14) (size 15 to 20)
#    0.000    1.625    0.000    5.625    0.000    7.750 
#    0.000    3.750    0.000    0.000    0.000    0.000 
#    0.000    0.000    0.000    0.000    0.000    0.000 
#
# Total GULP energy -397004.132313 kJ/mol
# GULP energy per Si atom -12406.379135 kJ/mol
# Density = 1.968469 g / cm^3
# Si number density = 19.729594 Si / 1000 Ang^3
#
#
#
# Elastic Constant Matrix: (Units=GPa)
#
#
# Indices 1 2 3 4 5 6 
#
# 1 77.8535 24.6471 60.9588 0.0007 -3.6426 -0.0030
# 2 24.6471 63.1732 29.8111 -0.0018 -7.0540 0.0004
# 3 60.9588 29.8111 122.4502 0.0016 -3.5787 0.0018
# 4 0.0007 -0.0018 0.0016 31.7886 0.0000 6.2167
# 5 -3.6426 -7.0540 -3.5787 0.0000 38.8862 -0.0020
# 6 -0.0030 0.0004 0.0018 6.2167 -0.0020 24.9049
#
#
#
# Elastic Compliance Matrix: (Units=1/GPa)
#
#
# Indices 1 2 3 4 5 6 
#
# 1 0.021848 -0.003782 -0.009943 -0.000001 0.000445 0.000004
# 2 -0.003782 0.018860 -0.002626 0.000001 0.002825 -0.000001
# 3 -0.009943 -0.002626 0.013751 0.000000 -0.000142 -0.000002
# 4 -0.000001 0.000001 0.000000 0.033072 0.000000 -0.008255
# 5 0.000445 0.002825 -0.000142 0.000000 0.026257 0.000002
# 6 0.000004 -0.000001 -0.000002 -0.008255 0.000002 0.042213
#
#
# Mechanical properties :
#
#
# Convention : Reuss Voigt Hill
#
# Bulk Modulus (GPa) = 45.96169 54.92343 50.44256
# Shear Modulus (GPa) = 25.51588 28.98660 27.25124
#
# Velocity S-wave (km/s) = 3.60012 3.83716 3.72053
# Velocity P-wave (km/s) = 6.37397 6.89422 6.63920
#
# Compressibility (1/GPa) = 0.02175725
#
# Stress axis : x y z
#
# Youngs Moduli (GPa) = 45.77104 53.02261 72.71988
#
# Poissons Ratio (x) = 0.20055 0.72302
# Poissons Ratio (y) = 0.17312 0.19096
# Poissons Ratio (z) = 0.45508 0.13924
#
# Static dielectric constant tensor:
#      x y z
#    x 3.501630 0.000000 0.008180 
#    y 0.000000 3.644250 -0.000010 
#    z 0.008180 -0.000010 3.677420 
# 
# 
# High freq. dielectric constant tensor:
#      x y z
#    x 1.761880 0.000000 -0.000060 
#    y 0.000000 1.779540 0.000000 
#    z -0.000060 0.000000 1.781660 
# 
# From -- ./inp_files/378241.got.cif
#   From: 2010.06.25/outbox.cif.g09.slc.cpg/sg12_190_cif.got.tgz:378241.got - 2010.06.28 00:19:55.
