data_PCOD8099067
_publ_section_title
;
Structure prediction by ZEFSAII (Michael W. Deem and Ramdas Pophale) SiO2 
 PCOD8099067
Probable space group: C 2/M
;
_chemical_formula_sum "Si O2"
_cell_formula_units_Z 56
_cell_length_a 17.771869
_cell_length_b 8.903754
_cell_length_c 20.265813
_cell_angle_alpha 90.000000
_cell_angle_beta 116.006467
_cell_angle_gamma 90.000000
_cell_volume 2882.083520
_symmetry_space_group_name_H-M "C 2/M"
_symmetry_group_IT_number 12
_symmetry_cell_setting 'monoclinic'
loop_
_space_group_symop_operation_xyz
x,y,z
-x,y,-z
-x,-y,-z
x,-y,z
1/2+x,1/2+y,z
1/2-x,1/2+y,-z
1/2-x,1/2-y,-z
1/2+x,1/2-y,z
loop_
_atom_site_type_symbol
_atom_site_label
_atom_site_fract_x
_atom_site_fract_y
_atom_site_fract_z
Si Si1 0.656557 0.171588 0.134651
Si Si2 0.521905 0.828412 0.865350
Si Si3 0.696704 0.330510 0.572931
Si Si4 0.769572 0.830838 0.718285
Si Si5 0.668831 0.322514 0.000000
Si Si6 0.376227 0.830510 0.572932
Si Si7 0.948713 0.169162 0.718286
O O1 0.564302 0.183071 0.128603
O O2 0.724441 0.234481 0.212542
O O3 0.659744 0.272421 0.071525
O O4 0.679601 0.000000 0.126418
O O5 0.511899 0.765518 0.787460
O O6 0.553182 0.000000 0.873583
O O7 0.588218 0.727579 0.928476
O O8 0.666912 0.500000 0.574436
O O9 0.700628 0.244044 0.644121
O O10 0.629103 0.250000 0.499999
O O11 0.786598 0.328734 0.573196
O O12 0.858096 0.831773 0.716192
O O13 0.741279 0.000000 0.724385
O O14 0.676626 0.500000 0.000000
O O15 0.750000 0.250000 0.000000
O O16 0.443493 0.744044 0.644123
O O17 0.407525 0.000000 0.574438
O O18 0.983106 0.000000 0.724386
#
# Coordination Sequence:
#
# PCOD8099067 Si02
#       7
#     8   8   8   8   8   8   8
#     4  10  20  35  55  78 104 134 169 209 253 302
#     4  10  20  35  55  78 104 134 169 209 253 302
#     4   9  15  22  33  52  82 121 161 200 244 293
#     4   9  16  26  41  63  91 124 163 204 245 292
#     4  12  25  40  57  77 103 133 167 208 255 306
#     4   9  15  22  33  52  82 121 161 200 244 293
#     4   9  16  26  41  63  91 124 163 204 245 292
#
# _framework density 19.430387
#
# number of rings (size 3 to 8) (size 9 to 14) (size 15 to 20)
#    0.000    2.286    0.000    4.286    0.000   10.286 
#    0.000    0.000    0.000    0.000    0.000    0.000 
#    0.000    1.143    0.000   11.429    0.000   17.714 
#
# Total GULP energy -347229.339253 kJ/mol
# GULP energy per Si atom -12401.047830 kJ/mol
# Density = 1.938616 g / cm^3
# Si number density = 19.430387 Si / 1000 Ang^3
#
#
#
# Elastic Constant Matrix: (Units=GPa)
#
#
# Indices 1 2 3 4 5 6 
#
# 1 13.7279 24.9730 24.3106 0.0000 -0.0128 0.0000
# 2 24.9730 195.9553 89.7791 0.0000 -2.6589 0.0000
# 3 24.3106 89.7791 189.6387 0.0000 -7.2040 0.0000
# 4 0.0000 0.0000 0.0000 45.8160 0.0000 -1.1974
# 5 -0.0128 -2.6589 -7.2040 0.0000 -4.8452 0.0000
# 6 0.0000 0.0000 0.0000 -1.1974 0.0000 16.6250
#
#
#
# Elastic Compliance Matrix: (Units=1/GPa)
#
#
# Indices 1 2 3 4 5 6 
#
# 1 0.104500 -0.009253 -0.008361 0.000000 0.017233 0.000000
# 2 -0.009253 0.007331 -0.002306 0.000000 -0.000570 0.000000
# 3 -0.008361 -0.002306 0.007086 0.000000 -0.009247 0.000000
# 4 0.000000 0.000000 0.000000 0.021868 0.000000 0.001575
# 5 0.017233 -0.000570 -0.009247 0.000000 -0.192374 0.000000
# 6 0.000000 0.000000 0.000000 0.001575 0.000000 0.060264
#
#
# Mechanical properties :
#
#
# Convention : Reuss Voigt Hill
#
# Bulk Modulus (GPa) = 12.64606 75.27193 43.95900
# Shear Modulus (GPa) = 66.77864 28.86976 47.82420
#
# Velocity S-wave (km/s) = 5.86880 3.85880 4.96654
# Velocity P-wave (km/s) = 7.24197 7.66010 7.45397
#
# Compressibility (1/GPa) = 0.07907601
#
# Stress axis : x y z
#
# Youngs Moduli (GPa) = 9.56938 136.40013 141.13225
#
# Poissons Ratio (x) = 1.26214 1.18000
# Poissons Ratio (y) = 0.08855 0.32549
# Poissons Ratio (z) = 0.08001 0.31457
#
# Static dielectric constant tensor:
#      x y z
#    x 2.936630 0.000000 -0.036450 
#    y 0.000000 3.822190 0.000000 
#    z -0.036450 0.000000 3.825190 
# 
# 
# High freq. dielectric constant tensor:
#      x y z
#    x 1.680200 0.000000 -0.004050 
#    y 0.000000 1.778350 0.000000 
#    z -0.004050 0.000000 1.778970 
# 
# From -- ./inp_files/314431.got.cif
#   From: 2010.06.25/outbox.cif.g09.slc.cpg/sg12_158_cif.got.tgz:314431.got - 2010.06.28 00:19:55.
