data_PCOD8099904
_publ_section_title
;
Structure prediction by ZEFSAII (Michael W. Deem and Ramdas Pophale) SiO2 
 PCOD8099904
Probable space group: C 2/M
;
_chemical_formula_sum "Si O2"
_cell_formula_units_Z 48
_cell_length_a 13.590794
_cell_length_b 13.892974
_cell_length_c 23.003904
_cell_angle_alpha 90.000000
_cell_angle_beta 143.242863
_cell_angle_gamma 90.000000
_cell_volume 2599.267010
_symmetry_space_group_name_H-M "C 2/M"
_symmetry_group_IT_number 12
_symmetry_cell_setting 'monoclinic'
loop_
_space_group_symop_operation_xyz
x,y,z
-x,y,-z
-x,-y,-z
x,-y,z
1/2+x,1/2+y,z
1/2-x,1/2+y,-z
1/2-x,1/2-y,-z
1/2+x,1/2-y,z
loop_
_atom_site_type_symbol
_atom_site_label
_atom_site_fract_x
_atom_site_fract_y
_atom_site_fract_z
Si Si1 0.404516 0.110661 0.719659
Si Si2 0.780139 0.764910 0.278304
Si Si3 0.026748 0.733181 0.947498
Si Si4 0.212015 0.610756 0.944325
Si Si5 0.318127 0.888028 0.391106
Si Si6 0.624981 0.265186 0.388882
O O1 0.269969 0.152097 0.700334
O O2 0.586254 0.124822 0.831645
O O3 0.394843 0.164087 0.653688
O O4 0.362071 0.000000 0.688447
O O5 0.647867 0.751415 0.165232
O O6 0.797340 0.663213 0.319287
O O7 0.950444 0.798933 0.330947
O O8 0.134700 0.652315 0.966808
O O9 0.120515 0.835057 0.992210
O O10 0.000000 0.696093 0.000000
O O11 0.254732 0.500000 0.975406
O O12 0.500000 0.866707 0.500000
O O13 0.186623 0.848066 0.374815
O O14 0.284100 0.000000 0.365645
O O15 0.750000 0.250000 0.500000
#
# Coordination Sequence:
#
# PCOD8099904 Si02
#       6
#     8   8   8   8   8   8
#     4   9  20  37  57  81 112 147 184 228 276 328
#     4  10  21  37  56  81 113 146 184 230 274 328
#     4  10  20  35  57  83 113 147 183 227 275 325
#     4   9  19  37  57  81 114 148 183 225 274 330
#     4  10  21  38  57  78 107 143 183 228 278 329
#     4  11  21  35  57  80 109 143 184 230 276 327
#
# _framework density 18.466745
#
# number of rings (size 3 to 8) (size 9 to 14) (size 15 to 20)
#    0.000    2.167    1.667    1.000    0.000    4.667 
#    0.000    0.833    0.000    0.000    0.000    0.000 
#    0.000    0.000    0.000    0.000    0.000    0.000 
#
# Total GULP energy -297715.858294 kJ/mol
# GULP energy per Si atom -12404.827429 kJ/mol
# Density = 1.842471 g / cm^3
# Si number density = 18.466745 Si / 1000 Ang^3
#
#
#
# Elastic Constant Matrix: (Units=GPa)
#
#
# Indices 1 2 3 4 5 6 
#
# 1 74.5729 -2.2379 31.4359 0.0000 5.9373 0.0000
# 2 -2.2379 77.0987 20.8611 0.0000 -1.0576 0.0000
# 3 31.4359 20.8611 90.8539 0.0001 -2.5138 0.0000
# 4 0.0000 0.0000 0.0001 26.7825 0.0000 2.1676
# 5 5.9373 -1.0576 -2.5138 0.0000 40.5841 0.0000
# 6 0.0000 0.0000 0.0000 2.1676 0.0000 14.4193
#
#
#
# Elastic Compliance Matrix: (Units=1/GPa)
#
#
# Indices 1 2 3 4 5 6 
#
# 1 0.016303 0.002114 -0.006202 0.000000 -0.002714 0.000000
# 2 0.002114 0.014105 -0.003975 0.000000 -0.000188 0.000000
# 3 -0.006202 -0.003975 0.014112 0.000000 0.001678 0.000000
# 4 0.000000 0.000000 0.000000 0.037798 0.000000 -0.005682
# 5 -0.002714 -0.000188 0.001678 0.000000 0.025136 0.000000
# 6 0.000000 0.000000 0.000000 -0.005682 0.000000 0.070205
#
#
# Mechanical properties :
#
#
# Convention : Reuss Voigt Hill
#
# Bulk Modulus (GPa) = 35.21844 38.07152 36.64498
# Shear Modulus (GPa) = 24.60027 29.18828 26.89427
#
# Velocity S-wave (km/s) = 3.65381 3.97997 3.82037
# Velocity P-wave (km/s) = 6.07561 6.46384 6.27273
#
# Compressibility (1/GPa) = 0.02839422
#
# Stress axis : x y z
#
# Youngs Moduli (GPa) = 61.33656 70.89789 70.86341
#
# Poissons Ratio (x) = -0.14988 0.43947
# Poissons Ratio (y) = -0.12967 0.28170
# Poissons Ratio (z) = 0.38038 0.28184
#
# Static dielectric constant tensor:
#      x y z
#    x 3.516620 0.000000 -0.006030 
#    y 0.000000 3.317920 0.000000 
#    z -0.006030 0.000000 3.606300 
# 
# 
# High freq. dielectric constant tensor:
#      x y z
#    x 1.725580 0.000000 -0.000120 
#    y 0.000000 1.710130 0.000000 
#    z -0.000120 0.000000 1.724550 
# 
# From -- ./inp_files/142724.got.cif
#   From: 2010.06.25/outbox.cif.g09.slc.cpg/sg12_72_cif.got.tgz:142724.got - 2010.06.28 00:19:55.
