data_PCOD8099988
_publ_section_title
;
Structure prediction by ZEFSAII (Michael W. Deem and Ramdas Pophale) SiO2 
 PCOD8099988
Probable space group: C 2/M
;
_chemical_formula_sum "Si O2"
_cell_formula_units_Z 44
_cell_length_a 9.547421
_cell_length_b 16.490298
_cell_length_c 19.862076
_cell_angle_alpha 90.000000
_cell_angle_beta 47.972461
_cell_angle_gamma 90.000000
_cell_volume 2322.868539
_symmetry_space_group_name_H-M "C 2/M"
_symmetry_group_IT_number 12
_symmetry_cell_setting 'monoclinic'
loop_
_space_group_symop_operation_xyz
x,y,z
-x,y,-z
-x,-y,-z
x,-y,z
1/2+x,1/2+y,z
1/2-x,1/2+y,-z
1/2-x,1/2-y,-z
1/2+x,1/2-y,z
loop_
_atom_site_type_symbol
_atom_site_label
_atom_site_fract_x
_atom_site_fract_y
_atom_site_fract_z
Si Si1 0.579354 0.500000 0.048749
Si Si2 0.439581 0.000000 0.444375
Si Si3 0.904498 0.320175 0.457556
Si Si4 0.855172 0.360972 0.993889
Si Si5 0.199164 0.500000 0.241117
Si Si6 0.857858 0.676588 0.748600
Si Si7 0.960156 0.752091 0.850572
O O1 0.705857 0.422169 0.013558
O O2 0.423951 0.500000 0.157975
O O3 0.500000 0.500000 0.000000
O O4 0.500000 0.000000 0.500000
O O5 0.327193 0.086238 0.468846
O O6 0.637143 0.000000 0.339454
O O7 0.750000 0.250000 0.500000
O O8 0.000000 0.313821 0.500000
O O9 0.057060 0.301272 0.351105
O O10 0.743303 0.290800 0.069164
O O11 0.000000 0.401756 0.000000
O O12 0.974624 0.327658 0.892298
O O13 0.112889 0.582624 0.237677
O O14 0.633765 0.690166 0.813781
O O15 0.962231 0.730364 0.770907
#
# Coordination Sequence:
#
# PCOD8099988 Si02
#       7
#     4   4   8   8   4   8   8
#     4  12  23  37  60  84 115 158 204 242 292 358
#     4   8  18  36  58  83 118 149 189 240 293 350
#     4  10  20  37  61  89 118 152 194 245 304 360
#     4  11  23  38  54  80 120 152 195 246 298 340
#     4  10  20  35  57  85 108 149 196 237 278 352
#     4  11  21  38  60  85 116 150 198 244 291 360
#     4  11  22  36  58  81 112 155 195 240 295 346
#
# _framework density 18.942097
#
# number of rings (size 3 to 8) (size 9 to 14) (size 15 to 20)
#    0.000    1.455    3.636    2.455    0.000    0.000 
#    0.000    0.455    0.000    2.182    0.000    0.000 
#    0.000    0.000    0.000    0.000    0.000    0.000 
#
# Total GULP energy -272578.876937 kJ/mol
# GULP energy per Si atom -12389.948952 kJ/mol
# Density = 1.889898 g / cm^3
# Si number density = 18.942097 Si / 1000 Ang^3
#
#
#
# Elastic Constant Matrix: (Units=GPa)
#
#
# Indices 1 2 3 4 5 6 
#
# 1 104.7487 46.4777 33.4778 0.0023 14.4521 -0.0001
# 2 46.4777 125.8225 45.0233 0.0032 0.8023 -0.0010
# 3 33.4778 45.0233 103.1310 0.0077 11.3219 -0.0020
# 4 0.0023 0.0032 0.0077 28.8782 -0.0026 -2.7706
# 5 14.4521 0.8023 11.3219 -0.0026 32.7102 0.0003
# 6 -0.0001 -0.0010 -0.0020 -2.7706 0.0003 29.3528
#
#
#
# Elastic Compliance Matrix: (Units=1/GPa)
#
#
# Indices 1 2 3 4 5 6 
#
# 1 0.012546 -0.003953 -0.001818 -0.000001 -0.004817 0.000000
# 2 -0.003953 0.010713 -0.003697 0.000000 0.002764 0.000000
# 3 -0.001818 -0.003697 0.012269 -0.000003 -0.003353 0.000000
# 4 -0.000001 0.000000 -0.000003 0.034945 0.000004 0.003298
# 5 -0.004817 0.002764 -0.003353 0.000004 0.033792 0.000000
# 6 0.000000 0.000000 0.000000 0.003298 0.000000 0.034380
#
#
# Mechanical properties :
#
#
# Convention : Reuss Voigt Hill
#
# Bulk Modulus (GPa) = 60.27204 64.85109 62.56157
# Shear Modulus (GPa) = 30.65368 32.10314 31.37841
#
# Velocity S-wave (km/s) = 4.02715 4.12127 4.07448
# Velocity P-wave (km/s) = 7.31520 7.54700 7.43200
#
# Compressibility (1/GPa) = 0.01659144
#
# Stress axis : x y z
#
# Youngs Moduli (GPa) = 79.70414 93.34162 81.50841
#
# Poissons Ratio (x) = 0.36900 0.14819
# Poissons Ratio (y) = 0.31509 0.30135
# Poissons Ratio (z) = 0.14491 0.34510
#
# Static dielectric constant tensor:
#      x y z
#    x 3.120070 -0.000020 0.149600 
#    y -0.000020 4.167790 0.000020 
#    z 0.149600 0.000020 3.645830 
# 
# 
# High freq. dielectric constant tensor:
#      x y z
#    x 1.707120 0.000000 0.016820 
#    y 0.000000 1.749150 0.000000 
#    z 0.016820 0.000000 1.747520 
# 
# From -- ./inp_files/195481.got.cif
#   From: 2010.06.25/outbox.cif.g09.slc.cpg/sg12_98_cif.got.tgz:195481.got - 2010.06.28 00:19:55.
