data_PCOD8099631
_publ_section_title
;
Structure prediction by ZEFSAII (Michael W. Deem and Ramdas Pophale) SiO2 
 PCOD8099631
Probable space group: C 2/M
;
_chemical_formula_sum "Si O2"
_cell_formula_units_Z 64
_cell_length_a 25.092646
_cell_length_b 9.053686
_cell_length_c 14.830175
_cell_angle_alpha 90.000000
_cell_angle_beta 70.635718
_cell_angle_gamma 90.000000
_cell_volume 3178.539666
_symmetry_space_group_name_H-M "C 2/M"
_symmetry_group_IT_number 12
_symmetry_cell_setting 'monoclinic'
loop_
_space_group_symop_operation_xyz
x,y,z
-x,y,-z
-x,-y,-z
x,-y,z
1/2+x,1/2+y,z
1/2-x,1/2+y,-z
1/2-x,1/2-y,-z
1/2+x,1/2-y,z
loop_
_atom_site_type_symbol
_atom_site_label
_atom_site_fract_x
_atom_site_fract_y
_atom_site_fract_z
Si Si1 0.611891 0.673631 0.087277
Si Si2 0.603494 0.325320 0.582740
Si Si3 0.000279 0.326314 0.103230
Si Si4 0.018769 0.839207 0.387716
Si Si5 0.120885 0.674066 0.751517
Si Si6 0.181891 0.172708 0.874318
Si Si7 0.810269 0.667667 0.817712
Si Si8 0.120687 0.667824 0.389717
O O1 0.604426 0.500000 0.096665
O O2 0.550235 0.746580 0.130023
O O3 0.650839 0.723169 0.147657
O O4 0.640766 0.722659 0.977715
O O5 0.613103 0.500000 0.578753
O O6 0.537165 0.283414 0.632844
O O7 0.635470 0.248689 0.647558
O O8 0.628442 0.265609 0.474510
O O9 0.010935 0.500000 0.102982
O O10 0.941282 0.279037 0.180508
O O11 0.000000 0.271897 0.000000
O O12 0.068866 0.720989 0.354635
O O13 0.000000 0.861694 0.500000
O O14 0.039022 0.000000 0.338870
O O15 0.127015 0.500000 0.738535
O O16 0.167048 0.732453 0.795337
O O17 0.245363 0.212006 0.868539
O O18 0.175686 0.000000 0.855087
O O19 0.821400 0.500000 0.844108
O O20 0.823827 0.681662 0.703289
O O21 0.108738 0.500000 0.426119
#
# Coordination Sequence:
#
# PCOD8099631 Si02
#       8
#     8   8   8   8   8   8   8   8
#     4  11  23  37  61  92 119 153 197 243 290 350
#     4  10  21  37  57  82 117 156 191 236 293 349
#     4  10  21  39  60  86 122 159 190 235 297 353
#     4   8  16  31  50  74 107 146 182 224 283 339
#     4  11  23  38  61  89 118 155 199 241 288 351
#     4  10  22  42  62  84 117 156 198 244 295 346
#     4  10  23  41  61  85 118 158 197 244 297 346
#     4  10  20  35  56  83 113 149 196 243 287 342
#
# _framework density 20.135031000000001
#
# number of rings (size 3 to 8) (size 9 to 14) (size 15 to 20)
#    0.000    2.000    1.250    2.625    1.750    6.000 
#    0.000    0.625    0.000    0.000    0.000    0.000 
#    0.000    0.000    0.000    0.000    0.000    0.000 
#
# Total GULP energy -396865.030225 kJ/mol
# GULP energy per Si atom -12402.032195 kJ/mol
# Density = 2.008920 g / cm^3
# Si number density = 20.135031 Si / 1000 Ang^3
#
#
#
# Elastic Constant Matrix: (Units=GPa)
#
#
# Indices 1 2 3 4 5 6 
#
# 1 77.7012 30.8969 17.2062 0.0000 9.8081 0.0000
# 2 30.8969 76.2514 28.1466 0.0000 8.0622 0.0000
# 3 17.2062 28.1466 59.1723 0.0000 16.6077 0.0000
# 4 0.0000 0.0000 0.0000 23.5573 0.0000 8.3142
# 5 9.8081 8.0622 16.6077 0.0000 31.2205 0.0000
# 6 0.0000 0.0000 0.0000 8.3142 0.0000 26.0831
#
#
#
# Elastic Compliance Matrix: (Units=1/GPa)
#
#
# Indices 1 2 3 4 5 6 
#
# 1 0.015728 -0.005675 -0.001056 0.000000 -0.002914 0.000000
# 2 -0.005675 0.017956 -0.007159 0.000000 0.000954 0.000000
# 3 -0.001056 -0.007159 0.023510 0.000000 -0.010326 0.000000
# 4 0.000000 0.000000 0.000000 0.047831 0.000000 -0.015246
# 5 -0.002914 0.000954 -0.010326 0.000000 0.038192 0.000000
# 6 0.000000 0.000000 0.000000 -0.015246 0.000000 0.043199
#
#
# Mechanical properties :
#
#
# Convention : Reuss Voigt Hill
#
# Bulk Modulus (GPa) = 33.99712 40.62494 37.31103
# Shear Modulus (GPa) = 22.32145 25.29720 23.80932
#
# Velocity S-wave (km/s) = 3.33316 3.54839 3.44245
# Velocity P-wave (km/s) = 5.63334 6.08343 5.86270
#
# Compressibility (1/GPa) = 0.02941426
#
# Stress axis : x y z
#
# Youngs Moduli (GPa) = 63.58051 55.69301 42.53479
#
# Poissons Ratio (x) = 0.31606 0.04493
# Poissons Ratio (y) = 0.36082 0.30449
# Poissons Ratio (z) = 0.06715 0.39868
#
# Static dielectric constant tensor:
#      x y z
#    x 3.644300 0.000000 -0.017960 
#    y 0.000000 3.604710 0.000000 
#    z -0.017960 0.000000 3.629240 
# 
# 
# High freq. dielectric constant tensor:
#      x y z
#    x 1.772070 0.000000 0.004580 
#    y 0.000000 1.787780 0.000000 
#    z 0.004580 0.000000 1.788100 
# 
# From -- ./inp_files/243902.got.cif
#   From: 2010.06.25/outbox.cif.g09.slc.cpg/sg12_122_cif.got.tgz:243902.got - 2010.06.28 00:19:55.
