data_PCOD8099760
_publ_section_title
;
Structure prediction by ZEFSAII (Michael W. Deem and Ramdas Pophale) SiO2 
 PCOD8099760
Probable space group: C 2/M
;
_chemical_formula_sum "Si O2"
_cell_formula_units_Z 64
_cell_length_a 30.927984
_cell_length_b 8.958825
_cell_length_c 14.668027
_cell_angle_alpha 90.000000
_cell_angle_beta 48.024980
_cell_angle_gamma 90.000000
_cell_volume 3021.469652
_symmetry_space_group_name_H-M "C 2/M"
_symmetry_group_IT_number 12
_symmetry_cell_setting 'monoclinic'
loop_
_space_group_symop_operation_xyz
x,y,z
-x,y,-z
-x,-y,-z
x,-y,z
1/2+x,1/2+y,z
1/2-x,1/2+y,-z
1/2-x,1/2-y,-z
1/2+x,1/2-y,z
loop_
_atom_site_type_symbol
_atom_site_label
_atom_site_fract_x
_atom_site_fract_y
_atom_site_fract_z
Si Si1 0.142365 0.669799 0.278026
Si Si2 0.245967 0.677375 0.906177
Si Si3 0.158662 0.327842 0.877187
Si Si4 0.582001 0.322219 0.713138
Si Si5 0.545870 0.332829 0.073512
Si Si6 0.559850 0.329938 0.267673
Si Si7 0.803421 0.674283 0.372264
Si Si8 0.944571 0.670198 0.433371
O O1 0.158281 0.500000 0.229526
O O2 0.199302 0.760637 0.227759
O O3 0.117284 0.749006 0.223210
O O4 0.098299 0.677388 0.422331
O O5 0.248509 0.500000 0.910870
O O6 0.190106 0.729782 0.925321
O O7 0.250000 0.750000 0.000000
O O8 0.145308 0.500000 0.906379
O O9 0.200872 0.298760 0.730634
O O10 0.095336 0.255623 0.949365
O O11 0.589075 0.500000 0.704746
O O12 0.520462 0.274034 0.847606
O O13 0.635286 0.244160 0.686670
O O14 0.582126 0.269947 0.608732
O O15 0.549427 0.500000 0.031119
O O16 0.561291 0.323646 0.157529
O O17 0.557013 0.500000 0.307058
O O18 0.504931 0.238673 0.383191
O O19 0.802899 0.500000 0.397969
O O20 0.750000 0.750000 0.500000
O O21 0.953950 0.500000 0.386881
#
# Coordination Sequence:
#
# PCOD8099760 Si02
#       8
#     8   8   8   8   8   8   8   8
#     4  11  23  36  54  83 118 159 208 261 313 373
#     4  11  24  42  62  88 122 163 207 258 315 377
#     4  10  24  43  64  92 125 163 208 257 317 377
#     4  10  22  41  64  93 126 163 206 257 313 373
#     4   9  20  38  62  91 123 159 204 253 308 371
#     4  10  20  35  56  86 122 164 207 254 313 372
#     4  11  25  45  67  95 127 165 210 260 316 376
#     4  10  21  36  56  86 122 161 206 258 312 372
#
# _framework density 21.181743999999998
#
# number of rings (size 3 to 8) (size 9 to 14) (size 15 to 20)
#    0.000    1.750    0.000    4.125    1.750   11.000 
#    0.000    2.500    0.000    0.000    0.000    0.000 
#    0.000    0.000    0.000    0.000    0.000    0.000 
#
# Total GULP energy -396762.460860 kJ/mol
# GULP energy per Si atom -12398.826902 kJ/mol
# Density = 2.113353 g / cm^3
# Si number density = 21.181744 Si / 1000 Ang^3
#
#
#
# Elastic Constant Matrix: (Units=GPa)
#
#
# Indices 1 2 3 4 5 6 
#
# 1 114.1751 51.8222 41.5440 0.0000 -19.8862 0.0001
# 2 51.8222 112.2695 52.3397 0.0000 -10.7904 0.0003
# 3 41.5440 52.3397 91.2607 0.0000 -16.9514 0.0000
# 4 0.0000 0.0000 0.0000 37.6965 0.0000 -5.9613
# 5 -19.8862 -10.7904 -16.9514 0.0000 29.3246 0.0000
# 6 0.0001 0.0003 0.0000 -5.9613 0.0000 33.4835
#
#
#
# Elastic Compliance Matrix: (Units=1/GPa)
#
#
# Indices 1 2 3 4 5 6 
#
# 1 0.012437 -0.004160 -0.002233 0.000000 0.005612 0.000000
# 2 -0.004160 0.013556 -0.006137 0.000000 -0.001381 0.000000
# 3 -0.002233 -0.006137 0.016573 0.000000 0.005807 0.000000
# 4 0.000000 0.000000 0.000000 0.027296 0.000000 0.004860
# 5 0.005612 -0.001381 0.005807 0.000000 0.040756 0.000000
# 6 0.000000 0.000000 0.000000 0.004860 0.000000 0.030731
#
#
# Mechanical properties :
#
#
# Convention : Reuss Voigt Hill
#
# Bulk Modulus (GPa) = 57.12879 67.67968 62.40424
# Shear Modulus (GPa) = 29.02862 31.56754 30.29808
#
# Velocity S-wave (km/s) = 3.70598 3.86465 3.78615
# Velocity P-wave (km/s) = 6.73363 7.20662 6.97413
#
# Compressibility (1/GPa) = 0.01750431
#
# Stress axis : x y z
#
# Youngs Moduli (GPa) = 80.40685 73.76878 60.34025
#
# Poissons Ratio (x) = 0.30689 0.13475
# Poissons Ratio (y) = 0.33451 0.37032
# Poissons Ratio (z) = 0.17956 0.45273
#
# Static dielectric constant tensor:
#      x y z
#    x 4.375690 0.000000 -0.261730 
#    y 0.000000 4.043730 0.000000 
#    z -0.261730 0.000000 3.883260 
# 
# 
# High freq. dielectric constant tensor:
#      x y z
#    x 1.833640 0.000000 -0.006580 
#    y 0.000000 1.836380 0.000000 
#    z -0.006580 0.000000 1.835610 
# 
# From -- ./inp_files/249846.got.cif
#   From: 2010.06.25/outbox.cif.g09.slc.cpg/sg12_125_cif.got.tgz:249846.got - 2010.06.28 00:19:55.
