data_PCOD8099837
_publ_section_title
;
Structure prediction by ZEFSAII (Michael W. Deem and Ramdas Pophale) SiO2 
 PCOD8099837
Probable space group: C 2/M
;
_chemical_formula_sum "Si O2"
_cell_formula_units_Z 48
_cell_length_a 23.351885
_cell_length_b 9.056548
_cell_length_c 12.490114
_cell_angle_alpha 90.000000
_cell_angle_beta 90.061910
_cell_angle_gamma 90.000000
_cell_volume 2641.501035
_symmetry_space_group_name_H-M "C 2/M"
_symmetry_group_IT_number 12
_symmetry_cell_setting 'monoclinic'
loop_
_space_group_symop_operation_xyz
x,y,z
-x,y,-z
-x,-y,-z
x,-y,z
1/2+x,1/2+y,z
1/2-x,1/2+y,-z
1/2-x,1/2-y,-z
1/2+x,1/2-y,z
loop_
_atom_site_type_symbol
_atom_site_label
_atom_site_fract_x
_atom_site_fract_y
_atom_site_fract_z
Si Si1 0.313374 0.172519 0.620707
Si Si2 0.885199 0.826082 0.793311
Si Si3 0.005494 0.670211 0.122585
Si Si4 0.621876 0.831640 0.820667
Si Si5 0.301920 0.830405 0.376941
Si Si6 0.310871 0.673519 0.996679
O O1 0.363930 0.252685 0.683913
O O2 0.322872 0.210132 0.495883
O O3 0.251745 0.231691 0.659057
O O4 0.316233 0.000000 0.644912
O O5 0.842676 0.778727 0.888341
O O6 0.948676 0.769932 0.817271
O O7 0.887173 0.000000 0.777991
O O8 0.025221 0.500000 0.126925
O O9 0.945790 0.695896 0.183155
O O10 0.000000 0.722660 0.000000
O O11 0.645656 0.798591 0.702444
O O12 0.635340 0.000000 0.855908
O O13 0.650841 0.722150 0.903881
O O14 0.281602 0.000000 0.371379
O O15 0.301442 0.500000 0.002091
O O16 0.250000 0.750000 0.000000
#
# Coordination Sequence:
#
# PCOD8099837 Si02
#       6
#     8   8   8   8   8   8
#     4  10  20  35  57  82 109 143 182 222 266 320
#     4  11  23  37  54  78 110 145 181 222 268 318
#     4  10  20  36  58  81 105 141 184 223 265 319
#     4  10  20  36  57  80 108 139 176 221 270 321
#     4   9  19  36  57  82 111 142 176 220 274 323
#     4  11  23  35  51  78 110 141 175 218 269 321
#
# _framework density 18.171486999999999
#
# number of rings (size 3 to 8) (size 9 to 14) (size 15 to 20)
#    0.000    1.833    1.667    2.500    0.000    8.333 
#    0.000    0.833    0.000    5.000    0.000    0.000 
#    0.000    0.000    0.000    0.000    0.000    0.000 
#
# Total GULP energy -297728.666530 kJ/mol
# GULP energy per Si atom -12405.361105 kJ/mol
# Density = 1.813013 g / cm^3
# Si number density = 18.171487 Si / 1000 Ang^3
#
#
#
# Elastic Constant Matrix: (Units=GPa)
#
#
# Indices 1 2 3 4 5 6 
#
# 1 112.6768 53.4754 57.3771 0.0000 9.4909 0.0000
# 2 53.4754 65.1339 45.6516 0.0000 4.8496 0.0000
# 3 57.3771 45.6516 99.1862 0.0000 7.0805 0.0000
# 4 0.0000 0.0000 0.0000 29.1830 0.0000 5.6449
# 5 9.4909 4.8496 7.0805 0.0000 31.3926 0.0000
# 6 0.0000 0.0000 0.0000 5.6449 0.0000 35.8323
#
#
#
# Elastic Compliance Matrix: (Units=1/GPa)
#
#
# Indices 1 2 3 4 5 6 
#
# 1 0.016065 -0.009772 -0.004631 0.000000 -0.002303 0.000000
# 2 -0.009772 0.028651 -0.007550 0.000000 0.000231 0.000000
# 3 -0.004631 -0.007550 0.016316 0.000000 -0.001113 0.000000
# 4 0.000000 0.000000 0.000000 0.035344 0.000000 -0.005568
# 5 -0.002303 0.000231 -0.001113 0.000000 0.032766 0.000000
# 6 0.000000 0.000000 0.000000 -0.005568 0.000000 0.028785
#
#
# Mechanical properties :
#
#
# Convention : Reuss Voigt Hill
#
# Bulk Modulus (GPa) = 58.39709 65.55612 61.97661
# Shear Modulus (GPa) = 24.09163 27.31444 25.70303
#
# Velocity S-wave (km/s) = 3.64509 3.88125 3.76502
# Velocity P-wave (km/s) = 7.06555 7.49934 7.28568
#
# Compressibility (1/GPa) = 0.01712414
#
# Stress axis : x y z
#
# Youngs Moduli (GPa) = 62.24770 34.90322 61.29069
#
# Poissons Ratio (x) = 0.34107 0.28384
# Poissons Ratio (y) = 0.60828 0.46277
# Poissons Ratio (z) = 0.28828 0.26353
#
# Static dielectric constant tensor:
#      x y z
#    x 3.345280 0.000000 -0.079380 
#    y 0.000000 3.405720 0.000000 
#    z -0.079380 0.000000 3.430830 
# 
# 
# High freq. dielectric constant tensor:
#      x y z
#    x 1.703300 0.000000 -0.001170 
#    y 0.000000 1.709260 0.000000 
#    z -0.001170 0.000000 1.704330 
# 
# From -- ./inp_files/172024.got.cif
#   From: 2010.06.25/outbox.cif.g09.slc.cpg/sg12_87_cif.got.tgz:172024.got - 2010.06.28 00:19:55.
