data_PCOD8099785
_publ_section_title
;
Structure prediction by ZEFSAII (Michael W. Deem and Ramdas Pophale) SiO2 
 PCOD8099785
Probable space group: C 2/M
;
_chemical_formula_sum "Si O2"
_cell_formula_units_Z 64
_cell_length_a 20.971723
_cell_length_b 13.858981
_cell_length_c 12.145055
_cell_angle_alpha 90.000000
_cell_angle_beta 66.272422
_cell_angle_gamma 90.000000
_cell_volume 3231.532661
_symmetry_space_group_name_H-M "C 2/M"
_symmetry_group_IT_number 12
_symmetry_cell_setting 'monoclinic'
loop_
_space_group_symop_operation_xyz
x,y,z
-x,y,-z
-x,-y,-z
x,-y,z
1/2+x,1/2+y,z
1/2-x,1/2+y,-z
1/2-x,1/2-y,-z
1/2+x,1/2-y,z
loop_
_atom_site_type_symbol
_atom_site_label
_atom_site_fract_x
_atom_site_fract_y
_atom_site_fract_z
Si Si1 0.313671 0.892498 0.819153
Si Si2 0.072345 0.113420 0.112525
Si Si3 0.931575 0.207903 0.252555
Si Si4 0.660039 0.391607 0.847245
Si Si5 0.433426 0.109827 0.122087
Si Si6 0.793427 0.389376 0.088457
Si Si7 0.848250 0.806994 0.738037
Si Si8 0.572237 0.388474 0.512622
O O1 0.242359 0.889909 0.801556
O O2 0.362911 0.808853 0.734077
O O3 0.347670 0.000000 0.784600
O O4 0.300826 0.866871 0.954948
O O5 0.102655 0.139109 0.210188
O O6 0.997255 0.160010 0.146071
O O7 0.063171 0.000000 0.114260
O O8 0.124263 0.151958 0.982145
O O9 0.861307 0.169803 0.244127
O O10 0.936066 0.323157 0.229121
O O11 0.929978 0.181575 0.381291
O O12 0.632975 0.500000 0.848359
O O13 0.365505 0.135146 0.097783
O O14 0.432056 0.000000 0.165439
O O15 0.500000 0.129137 0.000000
O O16 0.770928 0.500000 0.121554
O O17 0.733359 0.322722 0.180899
O O18 0.865278 0.849554 0.606537
O O19 0.500000 0.377933 0.500000
O O20 0.585672 0.500000 0.537528
#
# Coordination Sequence:
#
# PCOD8099785 Si02
#       8
#     8   8   8   8   8   8   8   8
#     4  10  22  37  58  89 123 158 197 243 299 367
#     4  11  21  34  58  91 120 149 190 248 309 366
#     4  12  23  37  60  85 122 164 199 242 307 357
#     4  10  20  35  56  91 127 151 186 244 314 370
#     4  10  23  40  61  91 125 161 204 249 295 358
#     4  10  20  37  62  91 123 158 200 250 302 357
#     4  12  22  36  63  89 120 157 204 250 299 351
#     4  11  24  42  62  86 119 159 206 250 293 356
#
# _framework density 19.804843999999999
#
# number of rings (size 3 to 8) (size 9 to 14) (size 15 to 20)
#    0.000    1.250    2.500    4.500    3.500    1.000 
#    0.000    3.125    0.000    3.750    0.000    0.000 
#    0.000    0.000    0.000    0.000    0.000    0.000 
#
# Total GULP energy -396877.444937 kJ/mol
# GULP energy per Si atom -12402.420154 kJ/mol
# Density = 1.975977 g / cm^3
# Si number density = 19.804844 Si / 1000 Ang^3
#
#
#
# Elastic Constant Matrix: (Units=GPa)
#
#
# Indices 1 2 3 4 5 6 
#
# 1 71.6369 35.4153 19.9298 0.0000 8.3936 0.0000
# 2 35.4153 131.4166 50.6617 0.0000 11.1795 0.0000
# 3 19.9298 50.6617 79.4818 0.0000 15.7428 0.0000
# 4 0.0000 0.0000 0.0000 31.9535 0.0000 5.2426
# 5 8.3936 11.1795 15.7428 0.0000 23.4980 0.0000
# 6 0.0000 0.0000 0.0000 5.2426 0.0000 21.8097
#
#
#
# Elastic Compliance Matrix: (Units=1/GPa)
#
#
# Indices 1 2 3 4 5 6 
#
# 1 0.016508 -0.003743 -0.001082 0.000000 -0.003391 0.000000
# 2 -0.003743 0.010944 -0.006077 0.000000 0.000202 0.000000
# 3 -0.001082 -0.006077 0.018537 0.000000 -0.009141 0.000000
# 4 0.000000 0.000000 0.000000 0.032580 0.000000 -0.007832
# 5 -0.003391 0.000202 -0.009141 0.000000 0.049797 0.000000
# 6 0.000000 0.000000 0.000000 -0.007832 0.000000 0.047734
#
#
# Mechanical properties :
#
#
# Convention : Reuss Voigt Hill
#
# Bulk Modulus (GPa) = 41.34819 54.94987 48.14903
# Shear Modulus (GPa) = 24.27603 27.22080 25.74842
#
# Velocity S-wave (km/s) = 3.50489 3.71138 3.60961
# Velocity P-wave (km/s) = 6.10755 6.79498 6.46041
#
# Compressibility (1/GPa) = 0.02418485
#
# Stress axis : x y z
#
# Youngs Moduli (GPa) = 60.57618 91.37740 53.94703
#
# Poissons Ratio (x) = 0.34205 0.05836
# Poissons Ratio (y) = 0.22675 0.32783
# Poissons Ratio (z) = 0.06553 0.55528
#
# Static dielectric constant tensor:
#      x y z
#    x 3.604670 0.000000 0.026310 
#    y 0.000000 3.926260 0.000000 
#    z 0.026310 0.000000 3.351550 
# 
# 
# High freq. dielectric constant tensor:
#      x y z
#    x 1.775080 0.000000 0.008770 
#    y 0.000000 1.789840 0.000000 
#    z 0.008770 0.000000 1.734280 
# 
# From -- ./inp_files/167257.got.cif
#   From: 2010.06.25/outbox.cif.g09.slc.cpg/sg12_84_cif.got.tgz:167257.got - 2010.06.28 00:19:55.
