data_PCOD8099617
_publ_section_title
;
Structure prediction by ZEFSAII (Michael W. Deem and Ramdas Pophale) SiO2 
 PCOD8099617
Probable space group: C 2/M
;
_chemical_formula_sum "Si O2"
_cell_formula_units_Z 56
_cell_length_a 22.558571
_cell_length_b 8.584385
_cell_length_c 16.616966
_cell_angle_alpha 90.000000
_cell_angle_beta 119.879736
_cell_angle_gamma 90.000000
_cell_volume 2790.153937
_symmetry_space_group_name_H-M "C 2/M"
_symmetry_group_IT_number 12
_symmetry_cell_setting 'monoclinic'
loop_
_space_group_symop_operation_xyz
x,y,z
-x,y,-z
-x,-y,-z
x,-y,z
1/2+x,1/2+y,z
1/2-x,1/2+y,-z
1/2-x,1/2-y,-z
1/2+x,1/2-y,z
loop_
_atom_site_type_symbol
_atom_site_label
_atom_site_fract_x
_atom_site_fract_y
_atom_site_fract_z
Si Si1 0.838956 0.183494 0.251241
Si Si2 0.816045 0.321116 0.851882
Si Si3 0.841200 0.318497 0.421552
Si Si4 0.195539 0.679426 0.340755
Si Si5 0.557320 0.316974 0.979286
Si Si6 0.453895 0.684836 0.207452
Si Si7 0.410709 0.682025 0.613776
O O1 0.761049 0.229471 0.177671
O O2 0.864783 0.272348 0.348104
O O3 0.886061 0.237821 0.209196
O O4 0.844216 0.000000 0.272479
O O5 0.828878 0.500000 0.883064
O O6 0.829507 0.291140 0.766951
O O7 0.867009 0.216258 0.937603
O O8 0.824395 0.500000 0.414257
O O9 0.774762 0.221705 0.403101
O O10 0.901453 0.274003 0.523954
O O11 0.185911 0.500000 0.359625
O O12 0.152431 0.789273 0.369495
O O13 0.546499 0.500000 0.967016
O O14 0.548489 0.243876 0.884172
O O15 0.500000 0.243453 0.000000
O O16 0.457012 0.500000 0.204704
O O17 0.520642 0.748242 0.298438
O O18 0.416850 0.500000 0.599097
#
# Coordination Sequence:
#
# PCOD8099617 Si02
#       7
#     8   8   8   8   8   8   8
#     4   9  19  39  59  77 106 144 188 227 267 323
#     4   9  19  34  55  80 107 141 178 223 274 320
#     4  11  22  36  55  81 111 142 180 227 279 328
#     4  10  20  36  56  81 113 146 182 224 272 325
#     4  10  20  35  56  83 112 141 178 222 268 322
#     4   9  20  37  57  79 107 147 188 226 267 321
#     4  11  21  35  56  81 109 145 187 226 271 322
#
# _framework density 20.070575999999999
#
# number of rings (size 3 to 8) (size 9 to 14) (size 15 to 20)
#    0.000    2.143    0.000    4.286    0.000    5.429 
#    0.000    6.429    0.000    0.000    0.000    0.000 
#    0.000    0.000    0.000    0.000    0.000    0.000 
#
# Total GULP energy -347290.196607 kJ/mol
# GULP energy per Si atom -12403.221307 kJ/mol
# Density = 2.002489 g / cm^3
# Si number density = 20.070576 Si / 1000 Ang^3
#
#
#
# Elastic Constant Matrix: (Units=GPa)
#
#
# Indices 1 2 3 4 5 6 
#
# 1 116.4274 14.1998 75.9192 0.0000 -16.2154 0.0000
# 2 14.1998 39.6271 25.7951 0.0000 -1.2940 0.0000
# 3 75.9192 25.7951 157.3094 0.0000 3.6328 0.0000
# 4 0.0000 0.0000 0.0000 30.4618 0.0000 3.5588
# 5 -16.2154 -1.2940 3.6328 0.0000 26.7659 0.0000
# 6 0.0000 0.0000 0.0000 3.5588 0.0000 21.7910
#
#
#
# Elastic Compliance Matrix: (Units=1/GPa)
#
#
# Indices 1 2 3 4 5 6 
#
# 1 0.014775 -0.000200 -0.007327 0.000000 0.009936 0.000000
# 2 -0.000200 0.028361 -0.004597 0.000000 0.001874 0.000000
# 3 -0.007327 -0.004597 0.010788 0.000000 -0.006126 0.000000
# 4 0.000000 0.000000 0.000000 0.033467 0.000000 -0.005466
# 5 0.009936 0.001874 -0.006126 0.000000 0.044302 0.000000
# 6 0.000000 0.000000 0.000000 -0.005466 0.000000 0.046783
#
#
# Mechanical properties :
#
#
# Convention : Reuss Voigt Hill
#
# Bulk Modulus (GPa) = 33.69852 60.57691 47.13772
# Shear Modulus (GPa) = 23.51641 28.96706 26.24174
#
# Velocity S-wave (km/s) = 3.42670 3.80315 3.61982
# Velocity P-wave (km/s) = 5.69937 7.03795 6.40373
#
# Compressibility (1/GPa) = 0.02967489
#
# Stress axis : x y z
#
# Youngs Moduli (GPa) = 67.68081 35.26005 92.69215
#
# Poissons Ratio (x) = 0.00706 0.67918
# Poissons Ratio (y) = 0.01356 0.42611
# Poissons Ratio (z) = 0.49592 0.16209
#
# Static dielectric constant tensor:
#      x y z
#    x 3.677550 0.000000 -0.091760 
#    y 0.000000 3.359500 0.000000 
#    z -0.091760 0.000000 3.817810 
# 
# 
# High freq. dielectric constant tensor:
#      x y z
#    x 1.780560 0.000000 -0.001090 
#    y 0.000000 1.761440 0.000000 
#    z -0.001090 0.000000 1.792280 
# 
# From -- ./inp_files/239046.got.cif
#   From: 2010.06.25/outbox.cif.g09.slc.cpg/sg12_120_cif.got.tgz:239046.got - 2010.06.28 00:19:55.
