data_PCOD8099169
_publ_section_title
;
Structure prediction by ZEFSAII (Michael W. Deem and Ramdas Pophale) SiO2 
 PCOD8099169
Probable space group: C 2/M
;
_chemical_formula_sum "Si O2"
_cell_formula_units_Z 64
_cell_length_a 23.630138
_cell_length_b 9.262498
_cell_length_c 14.917229
_cell_angle_alpha 90.000000
_cell_angle_beta 93.949025
_cell_angle_gamma 90.000000
_cell_volume 3257.243137
_symmetry_space_group_name_H-M "C 2/M"
_symmetry_group_IT_number 12
_symmetry_cell_setting 'monoclinic'
loop_
_space_group_symop_operation_xyz
x,y,z
-x,y,-z
-x,-y,-z
x,-y,z
1/2+x,1/2+y,z
1/2-x,1/2+y,-z
1/2-x,1/2-y,-z
1/2+x,1/2-y,z
loop_
_atom_site_type_symbol
_atom_site_label
_atom_site_fract_x
_atom_site_fract_y
_atom_site_fract_z
Si Si1 0.564922 0.830497 0.998301
Si Si2 0.362884 0.669511 0.846127
Si Si3 0.118636 0.330872 0.814937
Si Si4 0.723416 0.836548 0.577998
Si Si5 0.741717 0.170179 0.777151
Si Si6 0.950743 0.833995 0.340551
Si Si7 0.919357 0.835792 0.666225
Si Si8 0.596414 0.836398 0.510037
O O1 0.588535 0.787675 0.903804
O O2 0.569023 0.000000 0.016504
O O3 0.500000 0.776889 0.000000
O O4 0.604123 0.752952 0.074013
O O5 0.368341 0.500000 0.866084
O O6 0.297174 0.722404 0.837737
O O7 0.389317 0.711699 0.753913
O O8 0.110936 0.500000 0.792736
O O9 0.185201 0.287209 0.826274
O O10 0.090853 0.241135 0.733106
O O11 0.750000 0.750000 0.500000
O O12 0.741402 0.766517 0.675561
O O13 0.655732 0.831328 0.567909
O O14 0.745606 0.000000 0.571633
O O15 0.744495 0.000000 0.765200
O O16 0.948261 0.755895 0.436793
O O17 0.013934 0.818371 0.310503
O O18 0.932740 0.000000 0.350673
O O19 0.896207 0.731556 0.586972
O O20 0.903734 0.000000 0.638520
O O21 0.574156 0.000000 0.498221
#
# Coordination Sequence:
#
# PCOD8099169 Si02
#       8
#     8   8   8   8   8   8   8   8
#     4  10  22  39  60  87 117 149 185 232 290 344
#     4  10  21  38  61  84 112 149 188 234 285 341
#     4  10  20  38  61  82 113 153 190 235 289 346
#     4  10  20  35  55  79 111 150 194 235 277 334
#     4   9  18  36  58  80 110 149 188 229 283 338
#     4  11  22  36  56  83 115 150 191 239 290 344
#     4  10  22  38  55  80 115 153 190 238 296 342
#     4  11  22  36  56  83 113 152 196 236 284 344
#
# _framework density 19.648519
#
# number of rings (size 3 to 8) (size 9 to 14) (size 15 to 20)
#    0.000    1.875    1.250    2.625    0.000    6.250 
#    0.000    1.250    0.000    0.000    0.000    0.000 
#    0.000    0.000    0.000    0.000    0.000    0.000 
#
# Total GULP energy -396877.121568 kJ/mol
# GULP energy per Si atom -12402.410049 kJ/mol
# Density = 1.960380 g / cm^3
# Si number density = 19.648519 Si / 1000 Ang^3
#
#
#
# Elastic Constant Matrix: (Units=GPa)
#
#
# Indices 1 2 3 4 5 6 
#
# 1 95.0440 28.1535 39.2233 0.0000 -4.6575 0.0000
# 2 28.1535 72.9550 48.7831 0.0000 -0.5252 0.0000
# 3 39.2233 48.7831 102.3086 0.0000 -1.4321 0.0000
# 4 0.0000 0.0000 0.0000 35.8120 0.0000 8.7886
# 5 -4.6575 -0.5252 -1.4321 0.0000 39.4681 0.0000
# 6 0.0000 0.0000 0.0000 8.7886 0.0000 15.3205
#
#
#
# Elastic Compliance Matrix: (Units=1/GPa)
#
#
# Indices 1 2 3 4 5 6 
#
# 1 0.012858 -0.002450 -0.003742 0.000000 0.001349 0.000000
# 2 -0.002450 0.020590 -0.008883 0.000000 -0.000337 0.000000
# 3 -0.003742 -0.008883 0.015445 0.000000 0.000001 0.000000
# 4 0.000000 0.000000 0.000000 0.032499 0.000000 -0.018643
# 5 0.001349 -0.000337 0.000001 0.000000 0.025492 0.000000
# 6 0.000000 0.000000 0.000000 -0.018643 0.000000 0.075966
#
#
# Mechanical properties :
#
#
# Convention : Reuss Voigt Hill
#
# Bulk Modulus (GPa) = 53.35697 55.84751 54.60224
# Shear Modulus (GPa) = 22.80529 28.39664 25.60097
#
# Velocity S-wave (km/s) = 3.41054 3.80574 3.61355
# Velocity P-wave (km/s) = 6.53634 6.91350 6.72757
#
# Compressibility (1/GPa) = 0.01874169
#
# Stress axis : x y z
#
# Youngs Moduli (GPa) = 77.77495 48.56713 64.74597
#
# Poissons Ratio (x) = 0.11897 0.24231
# Poissons Ratio (y) = 0.19052 0.57517
# Poissons Ratio (z) = 0.29107 0.43144
#
# Static dielectric constant tensor:
#      x y z
#    x 3.940410 0.000000 -0.161630 
#    y 0.000000 3.551980 0.000000 
#    z -0.161630 0.000000 3.610110 
# 
# 
# High freq. dielectric constant tensor:
#      x y z
#    x 1.781620 0.000000 -0.003070 
#    y 0.000000 1.747510 0.000000 
#    z -0.003070 0.000000 1.766920 
# 
# From -- ./inp_files/238618.got.cif
#   From: 2010.06.25/outbox.cif.g09.slc.cpg/sg12_120_cif.got.tgz:238618.got - 2010.06.28 00:19:55.
