data_PCOD8099592
_publ_section_title
;
Structure prediction by ZEFSAII (Michael W. Deem and Ramdas Pophale) SiO2 
 PCOD8099592
Probable space group: C 2/M
;
_chemical_formula_sum "Si O2"
_cell_formula_units_Z 64
_cell_length_a 29.697212
_cell_length_b 9.763877
_cell_length_c 15.823342
_cell_angle_alpha 90.000000
_cell_angle_beta 47.881401
_cell_angle_gamma 90.000000
_cell_volume 3403.286678
_symmetry_space_group_name_H-M "C 2/M"
_symmetry_group_IT_number 12
_symmetry_cell_setting 'monoclinic'
loop_
_space_group_symop_operation_xyz
x,y,z
-x,y,-z
-x,-y,-z
x,-y,z
1/2+x,1/2+y,z
1/2-x,1/2+y,-z
1/2-x,1/2-y,-z
1/2+x,1/2-y,z
loop_
_atom_site_type_symbol
_atom_site_label
_atom_site_fract_x
_atom_site_fract_y
_atom_site_fract_z
Si Si1 0.478236 0.342335 0.292560
Si Si2 0.890024 0.654409 0.502174
Si Si3 0.203769 0.841015 0.893748
Si Si4 0.113863 0.147407 0.724615
Si Si5 0.318807 0.153735 0.235143
Si Si6 0.114099 0.842047 0.158201
Si Si7 0.657265 0.158471 0.254269
Si Si8 0.706884 0.290835 0.478858
O O1 0.468696 0.500000 0.330165
O O2 0.444383 0.251703 0.405049
O O3 0.452150 0.313717 0.230518
O O4 0.548935 0.304318 0.200903
O O5 0.913201 0.500000 0.464077
O O6 0.874908 0.691899 0.617148
O O7 0.828292 0.667445 0.524166
O O8 0.179034 0.743534 0.851465
O O9 0.272331 0.801271 0.829046
O O10 0.198421 0.000000 0.871875
O O11 0.164551 0.808978 0.025310
O O12 0.137682 0.270281 0.752305
O O13 0.155273 0.118734 0.588631
O O14 0.111722 0.000000 0.775976
O O15 0.249809 0.136335 0.355966
O O16 0.343878 0.000000 0.187016
O O17 0.124579 0.749789 0.226235
O O18 0.117406 0.000000 0.182105
O O19 0.650042 0.000000 0.238368
O O20 0.750000 0.250000 0.500000
#
# Coordination Sequence:
#
# PCOD8099592 Si02
#       8
#     8   8   8   8   8   8   8   8
#     4   9  20  38  57  81 112 146 190 232 271 325
#     4  10  20  35  56  82 114 149 181 222 276 333
#     4  10  21  39  59  80 111 148 186 228 278 334
#     4   9  18  33  53  76 109 148 182 222 272 328
#     4  11  21  32  52  84 115 143 182 228 277 329
#     4  10  22  40  61  81 105 146 192 235 280 325
#     4  10  21  37  58  85 113 141 181 231 282 336
#     4   9  18  30  49  78 111 144 179 216 266 324
#
# _framework density 18.805351000000002
#
# number of rings (size 3 to 8) (size 9 to 14) (size 15 to 20)
#    0.000    2.250    1.250    1.125    0.000    9.500 
#    0.000    3.125    0.000    3.750    0.000    0.000 
#    0.000    0.000    0.000    0.000    0.000    0.000 
#
# Total GULP energy -396588.761952 kJ/mol
# GULP energy per Si atom -12393.398811 kJ/mol
# Density = 1.876255 g / cm^3
# Si number density = 18.805351 Si / 1000 Ang^3
#
#
#
# Elastic Constant Matrix: (Units=GPa)
#
#
# Indices 1 2 3 4 5 6 
#
# 1 89.2726 45.7560 15.4483 0.0000 2.7094 0.0000
# 2 45.7560 92.1027 22.5509 0.0001 5.3304 0.0000
# 3 15.4483 22.5509 30.2121 0.0000 0.1311 0.0000
# 4 0.0000 0.0001 0.0000 22.6957 0.0000 4.1776
# 5 2.7094 5.3304 0.1311 0.0000 27.3518 0.0000
# 6 0.0000 0.0000 0.0000 4.1776 0.0000 30.7843
#
#
#
# Elastic Compliance Matrix: (Units=1/GPa)
#
#
# Indices 1 2 3 4 5 6 
#
# 1 0.015196 -0.006899 -0.002620 0.000000 -0.000148 0.000000
# 2 -0.006899 0.016597 -0.008850 0.000000 -0.002509 0.000000
# 3 -0.002620 -0.008850 0.041037 0.000000 0.001788 0.000000
# 4 0.000000 0.000000 0.000000 0.045190 0.000000 -0.006133
# 5 -0.000148 -0.002509 0.001788 0.000000 0.037056 0.000000
# 6 0.000000 0.000000 0.000000 -0.006133 0.000000 0.033316
#
#
# Mechanical properties :
#
#
# Convention : Reuss Voigt Hill
#
# Bulk Modulus (GPa) = 27.70673 42.12198 34.91436
# Shear Modulus (GPa) = 21.08293 24.68851 22.88572
#
# Velocity S-wave (km/s) = 3.35194 3.62725 3.49231
# Velocity P-wave (km/s) = 5.45399 6.32378 5.90492
#
# Compressibility (1/GPa) = 0.03609231
#
# Stress axis : x y z
#
# Youngs Moduli (GPa) = 65.80892 60.25246 24.36842
#
# Poissons Ratio (x) = 0.41568 0.06384
# Poissons Ratio (y) = 0.45402 0.21565
# Poissons Ratio (z) = 0.17240 0.53322
#
# Static dielectric constant tensor:
#      x y z
#    x 3.767570 0.000000 -0.250100 
#    y 0.000000 3.176920 0.000000 
#    z -0.250100 0.000000 3.518950 
# 
# 
# High freq. dielectric constant tensor:
#      x y z
#    x 1.733430 0.000000 -0.000550 
#    y 0.000000 1.727720 0.000000 
#    z -0.000550 0.000000 1.715630 
# 
# From -- ./inp_files/249886.got.cif
#   From: 2010.06.25/outbox.cif.g09.slc.cpg/sg12_125_cif.got.tgz:249886.got - 2010.06.28 00:19:55.
