data_PCOD8099493
_publ_section_title
;
Structure prediction by ZEFSAII (Michael W. Deem and Ramdas Pophale) SiO2 
 PCOD8099493
Probable space group: C 2/M
;
_chemical_formula_sum "Si O2"
_cell_formula_units_Z 48
_cell_length_a 15.815971
_cell_length_b 9.160384
_cell_length_c 26.855566
_cell_angle_alpha 90.000000
_cell_angle_beta 35.170124
_cell_angle_gamma 90.000000
_cell_volume 2241.150233
_symmetry_space_group_name_H-M "C 2/M"
_symmetry_group_IT_number 12
_symmetry_cell_setting 'monoclinic'
loop_
_space_group_symop_operation_xyz
x,y,z
-x,y,-z
-x,-y,-z
x,-y,z
1/2+x,1/2+y,z
1/2-x,1/2+y,-z
1/2-x,1/2-y,-z
1/2+x,1/2-y,z
loop_
_atom_site_type_symbol
_atom_site_label
_atom_site_fract_x
_atom_site_fract_y
_atom_site_fract_z
Si Si1 0.170033 0.337183 0.902343
Si Si2 0.208505 0.158241 0.973528
Si Si3 0.975288 0.670424 0.410738
Si Si4 0.384625 0.339158 0.161471
Si Si5 0.218837 0.668269 0.587936
Si Si6 0.272885 0.827755 0.300702
O O1 0.234746 0.500000 0.869458
O O2 0.258324 0.243535 0.900468
O O3 0.208342 0.261804 0.831318
O O4 0.000000 0.342623 0.000000
O O5 0.287161 0.000000 0.935638
O O6 0.250000 0.250000 0.000000
O O7 0.035426 0.135961 0.060241
O O8 0.000961 0.500000 0.409091
O O9 0.925187 0.696029 0.377128
O O10 0.848854 0.726955 0.508097
O O11 0.121544 0.758976 0.353325
O O12 0.311454 0.500000 0.204845
O O13 0.398975 0.251901 0.206891
O O14 0.270130 0.500000 0.557880
O O15 0.189747 0.706061 0.659813
O O16 0.271118 0.000000 0.291441
#
# Coordination Sequence:
#
# PCOD8099493 Si02
#       6
#     8   8   8   8   8   8
#     4   9  17  32  55  78 102 135 176 219 266 326
#     4  10  20  35  56  81 109 143 184 231 278 330
#     4  10  20  36  59  85 113 148 191 237 285 338
#     4  10  21  37  55  79 110 143 183 230 278 333
#     4   9  20  38  58  82 114 150 191 234 280 340
#     4  11  22  37  57  82 115 154 190 232 287 344
#
# _framework density 21.417573000000001
#
# number of rings (size 3 to 8) (size 9 to 14) (size 15 to 20)
#    0.000    2.167    0.000    3.000    0.000    8.000 
#    3.000    0.000    0.000    0.000    0.000    0.000 
#    0.000    0.000    0.000    0.000    0.000    0.000 
#
# Total GULP energy -297442.422330 kJ/mol
# GULP energy per Si atom -12393.434264 kJ/mol
# Density = 2.136883 g / cm^3
# Si number density = 21.417573 Si / 1000 Ang^3
#
#
#
# Elastic Constant Matrix: (Units=GPa)
#
#
# Indices 1 2 3 4 5 6 
#
# 1 121.7670 69.6937 19.4053 0.0000 45.5957 -0.0001
# 2 69.6937 187.5716 25.0818 0.0000 35.8349 0.0000
# 3 19.4053 25.0818 35.5199 -0.0001 27.6952 0.0000
# 4 0.0000 0.0000 -0.0001 29.7621 0.0000 6.2713
# 5 45.5957 35.8349 27.6952 0.0000 41.7283 0.0000
# 6 -0.0001 0.0000 0.0000 6.2713 0.0000 36.7645
#
#
#
# Elastic Compliance Matrix: (Units=1/GPa)
#
#
# Indices 1 2 3 4 5 6 
#
# 1 0.017009 -0.003404 0.011032 0.000000 -0.022985 0.000000
# 2 -0.003404 0.007063 -0.002691 0.000000 -0.000560 0.000000
# 3 0.011032 -0.002691 0.065541 0.000000 -0.053243 0.000000
# 4 0.000000 0.000000 0.000000 0.034853 0.000000 -0.005945
# 5 -0.022985 -0.000560 -0.053243 0.000000 0.084898 0.000000
# 6 0.000000 0.000000 0.000000 -0.005945 0.000000 0.028214
#
#
# Mechanical properties :
#
#
# Convention : Reuss Voigt Hill
#
# Bulk Modulus (GPa) = 10.05155 63.69110 36.87133
# Shear Modulus (GPa) = 19.16700 37.02947 28.09823
#
# Velocity S-wave (km/s) = 2.99477 4.16255 3.62598
# Velocity P-wave (km/s) = 4.08185 7.27357 5.89772
#
# Compressibility (1/GPa) = 0.09948714
#
# Stress axis : x y z
#
# Youngs Moduli (GPa) = 58.79221 141.58539 15.25770
#
# Poissons Ratio (x) = 0.48195 -0.16833
# Poissons Ratio (y) = 0.20013 0.04106
# Poissons Ratio (z) = -0.64862 0.38104
#
# Static dielectric constant tensor:
#      x y z
#    x 0.149610 0.000000 5.214340 
#    y 0.000000 4.254480 0.000000 
#    z 5.214340 0.000000 -2.992020 
# 
# 
# High freq. dielectric constant tensor:
#      x y z
#    x 1.839580 0.000000 0.023320 
#    y 0.000000 1.861470 0.000000 
#    z 0.023320 0.000000 1.812680 
# 
# From -- ./inp_files/273691.got.cif
#   From: 2010.06.25/outbox.cif.g09.slc.cpg/sg12_137_cif.got.tgz:273691.got - 2010.06.28 00:19:55.
