data_PCOD8099380
_publ_section_title
;
Structure prediction by ZEFSAII (Michael W. Deem and Ramdas Pophale) SiO2 
 PCOD8099380
Probable space group: C 2/M
;
_chemical_formula_sum "Si O2"
_cell_formula_units_Z 56
_cell_length_a 27.218712
_cell_length_b 14.373216
_cell_length_c 12.160328
_cell_angle_alpha 90.000000
_cell_angle_beta 37.988312
_cell_angle_gamma 90.000000
_cell_volume 2928.163833
_symmetry_space_group_name_H-M "C 2/M"
_symmetry_group_IT_number 12
_symmetry_cell_setting 'monoclinic'
loop_
_space_group_symop_operation_xyz
x,y,z
-x,y,-z
-x,-y,-z
x,-y,z
1/2+x,1/2+y,z
1/2-x,1/2+y,-z
1/2-x,1/2-y,-z
1/2+x,1/2-y,z
loop_
_atom_site_type_symbol
_atom_site_label
_atom_site_fract_x
_atom_site_fract_y
_atom_site_fract_z
Si Si1 0.824323 0.606858 0.920280
Si Si2 0.862932 0.900195 0.412956
Si Si3 0.579310 0.210761 0.418579
Si Si4 0.849211 0.102392 0.689753
Si Si5 0.594233 0.111223 0.997468
Si Si6 0.425998 0.198851 0.315488
Si Si7 0.706857 0.844643 0.602576
O O1 0.841647 0.500000 0.865046
O O2 0.845902 0.663754 0.773138
O O3 0.877495 0.638538 0.930319
O O4 0.731864 0.625558 0.104319
O O5 0.830234 0.891303 0.594328
O O6 0.917066 0.808397 0.293947
O O7 0.783110 0.912504 0.478892
O O8 0.910023 0.000000 0.315198
O O9 0.500000 0.173493 0.500000
O O10 0.584523 0.322250 0.393968
O O11 0.579915 0.182987 0.544404
O O12 0.881395 0.000000 0.665439
O O13 0.509467 0.159960 0.123809
O O14 0.588775 0.000000 0.989926
O O15 0.656727 0.156354 0.803431
O O16 0.355268 0.135825 0.387122
O O17 0.750000 0.750000 0.500000
#
# Coordination Sequence:
#
# PCOD8099380 Si02
#       7
#     8   8   8   8   8   8   8
#     4  10  20  35  56  79 109 151 192 227 272 333
#     4   9  17  34  59  81 108 145 185 230 279 330
#     4  11  21  35  54  82 117 153 182 228 281 327
#     4   9  18  34  56  81 105 143 195 233 269 324
#     4  11  21  36  59  83 110 148 188 229 278 336
#     4  10  22  35  52  87 119 146 186 228 281 332
#     4  10  20  35  57  83 109 137 182 237 279 327
#
# _framework density 19.124611999999999
#
# number of rings (size 3 to 8) (size 9 to 14) (size 15 to 20)
#    0.000    2.000    2.857    1.286    0.000    2.857 
#    0.000    0.000    0.000    7.714    0.000    0.000 
#    0.000    0.000    0.000    0.000    0.000    0.000 
#
# Total GULP energy -346936.653549 kJ/mol
# GULP energy per Si atom -12390.594770 kJ/mol
# Density = 1.908108 g / cm^3
# Si number density = 19.124612 Si / 1000 Ang^3
#
#
#
# Elastic Constant Matrix: (Units=GPa)
#
#
# Indices 1 2 3 4 5 6 
#
# 1 72.5385 16.1621 16.1625 0.0000 4.5879 0.0000
# 2 16.1621 74.8187 43.4046 0.0000 9.1980 0.0000
# 3 16.1625 43.4046 75.8804 0.0000 -2.4660 0.0000
# 4 0.0000 0.0000 0.0000 26.5493 0.0000 -2.3336
# 5 4.5879 9.1980 -2.4660 0.0000 15.8872 0.0000
# 6 0.0000 0.0000 0.0000 -2.3336 0.0000 20.0060
#
#
#
# Elastic Compliance Matrix: (Units=1/GPa)
#
#
# Indices 1 2 3 4 5 6 
#
# 1 0.014890 -0.001211 -0.002609 0.000000 -0.004004 0.000000
# 2 -0.001211 0.023424 -0.013639 0.000000 -0.015329 0.000000
# 3 -0.002609 -0.013639 0.021928 0.000000 0.012054 0.000000
# 4 0.000000 0.000000 0.000000 0.038056 0.000000 0.004439
# 5 -0.004004 -0.015329 0.012054 0.000000 0.074846 0.000000
# 6 0.000000 0.000000 0.000000 0.004439 0.000000 0.050503
#
#
# Mechanical properties :
#
#
# Convention : Reuss Voigt Hill
#
# Bulk Modulus (GPa) = 39.48800 41.63287 40.56043
# Shear Modulus (GPa) = 18.72612 22.32239 20.52425
#
# Velocity S-wave (km/s) = 3.13255 3.42015 3.27950
# Velocity P-wave (km/s) = 5.81175 6.11662 5.96613
#
# Compressibility (1/GPa) = 0.02532415
#
# Stress axis : x y z
#
# Youngs Moduli (GPa) = 67.15853 42.69080 45.60377
#
# Poissons Ratio (x) = 0.05168 0.11899
# Poissons Ratio (y) = 0.08130 0.62200
# Poissons Ratio (z) = 0.17524 0.58227
#
# Static dielectric constant tensor:
#      x y z
#    x 3.724930 0.000000 -0.049220 
#    y 0.000000 3.808350 0.000000 
#    z -0.049220 0.000000 3.340640 
# 
# 
# High freq. dielectric constant tensor:
#      x y z
#    x 1.741140 0.000000 -0.002330 
#    y 0.000000 1.743340 0.000000 
#    z -0.002330 0.000000 1.731810 
# 
# From -- ./inp_files/183476.got.cif
#   From: 2010.06.25/outbox.cif.g09.slc.cpg/sg12_92_cif.got.tgz:183476.got - 2010.06.28 00:19:55.
