data_PCOD8099261
_publ_section_title
;
Structure prediction by ZEFSAII (Michael W. Deem and Ramdas Pophale) SiO2 
 PCOD8099261
Probable space group: C 2/M
;
_chemical_formula_sum "Si O2"
_cell_formula_units_Z 56
_cell_length_a 19.833154
_cell_length_b 9.591262
_cell_length_c 18.575500
_cell_angle_alpha 90.000000
_cell_angle_beta 120.013567
_cell_angle_gamma 90.000000
_cell_volume 3059.703155
_symmetry_space_group_name_H-M "C 2/M"
_symmetry_group_IT_number 12
_symmetry_cell_setting 'monoclinic'
loop_
_space_group_symop_operation_xyz
x,y,z
-x,y,-z
-x,-y,-z
x,-y,z
1/2+x,1/2+y,z
1/2-x,1/2+y,-z
1/2-x,1/2-y,-z
1/2+x,1/2-y,z
loop_
_atom_site_type_symbol
_atom_site_label
_atom_site_fract_x
_atom_site_fract_y
_atom_site_fract_z
Si Si1 0.063188 0.340275 0.475426
Si Si2 0.033312 0.840225 0.320843
Si Si3 0.415362 0.838687 0.926502
Si Si4 0.691860 0.158515 0.653739
Si Si5 0.630967 0.663719 0.236545
Si Si6 0.642941 0.340850 0.756030
Si Si7 0.266745 0.838299 0.938855
O O1 0.044979 0.500000 0.444838
O O2 0.060201 0.248722 0.402881
O O3 0.149859 0.323948 0.554382
O O4 0.000000 0.287669 0.500000
O O5 0.077340 0.786433 0.273608
O O6 0.942123 0.823622 0.255128
O O7 0.055273 0.000000 0.349353
O O8 0.394124 0.745574 0.847373
O O9 0.354166 0.811039 0.957959
O O10 0.413110 0.000000 0.901415
O O11 0.500000 0.794841 0.000000
O O12 0.781255 0.204321 0.694826
O O13 0.645836 0.251821 0.685649
O O14 0.685340 0.000000 0.677508
O O15 0.621409 0.500000 0.215988
O O16 0.661064 0.500000 0.744834
O O17 0.706654 0.285697 0.846211
O O18 0.252565 0.000000 0.949521
O O19 0.250000 0.750000 0.000000
#
# Coordination Sequence:
#
# PCOD8099261 Si02
#       7
#     8   8   8   8   8   8   8
#     4  10  20  35  55  82 113 144 183 229 275 324
#     4  10  22  37  55  83 114 144 184 229 273 326
#     4  10  22  40  59  82 113 147 183 226 274 327
#     4  10  20  36  58  81 109 145 185 227 271 324
#     4  10  22  39  58  82 112 147 185 226 273 328
#     4  10  20  36  57  80 110 146 184 226 271 323
#     4  10  22  38  57  84 114 143 182 228 273 324
#
# _framework density 18.302427999999999
#
# number of rings (size 3 to 8) (size 9 to 14) (size 15 to 20)
#    0.000    2.000    2.857    0.000    2.000    3.429 
#    0.000    0.000    0.000    0.000    0.000    0.000 
#    0.000    0.000    0.000    0.000    0.000    0.000 
#
# Total GULP energy -347301.279065 kJ/mol
# GULP energy per Si atom -12403.617109 kJ/mol
# Density = 1.826077 g / cm^3
# Si number density = 18.302428 Si / 1000 Ang^3
#
#
#
# Elastic Constant Matrix: (Units=GPa)
#
#
# Indices 1 2 3 4 5 6 
#
# 1 117.9292 38.4980 49.4825 0.0000 4.3038 0.0000
# 2 38.4980 57.4531 45.0027 0.0000 -7.0122 0.0000
# 3 49.4825 45.0027 99.3001 0.0000 9.2220 0.0000
# 4 0.0000 0.0000 0.0000 39.2326 0.0000 -4.7798
# 5 4.3038 -7.0122 9.2220 0.0000 35.5880 0.0000
# 6 0.0000 0.0000 0.0000 -4.7798 0.0000 25.2630
#
#
#
# Elastic Compliance Matrix: (Units=1/GPa)
#
#
# Indices 1 2 3 4 5 6 
#
# 1 0.011677 -0.005578 -0.003133 0.000000 -0.001699 0.000000
# 2 -0.005578 0.032558 -0.012946 0.000000 0.010444 0.000000
# 3 -0.003133 -0.012946 0.018137 0.000000 -0.006872 0.000000
# 4 0.000000 0.000000 0.000000 0.026090 0.000000 0.004936
# 5 -0.001699 0.010444 -0.006872 0.000000 0.032144 0.000000
# 6 0.000000 0.000000 0.000000 0.004936 0.000000 0.040518
#
#
# Mechanical properties :
#
#
# Convention : Reuss Voigt Hill
#
# Bulk Modulus (GPa) = 52.46940 60.07210 56.27075
# Shear Modulus (GPa) = 23.72022 29.46335 26.59179
#
# Velocity S-wave (km/s) = 3.60393 4.01659 3.81584
# Velocity P-wave (km/s) = 6.78586 7.37590 7.08702
#
# Compressibility (1/GPa) = 0.01905873
#
# Stress axis : x y z
#
# Youngs Moduli (GPa) = 85.63665 30.71422 55.13581
#
# Poissons Ratio (x) = 0.17132 0.17275
# Poissons Ratio (y) = 0.47766 0.71378
# Poissons Ratio (z) = 0.26832 0.39762
#
# Static dielectric constant tensor:
#      x y z
#    x 3.570460 0.000000 0.223860 
#    y 0.000000 3.339780 0.000000 
#    z 0.223860 0.000000 3.358250 
# 
# 
# High freq. dielectric constant tensor:
#      x y z
#    x 1.718490 0.000000 0.013410 
#    y 0.000000 1.705830 0.000000 
#    z 0.013410 0.000000 1.710290 
# 
# From -- ./inp_files/280947.got.cif
#   From: 2010.06.25/outbox.cif.g09.slc.cpg/sg12_141_cif.got.tgz:280947.got - 2010.06.28 00:19:55.
