data_PCOD8099028
_publ_section_title
;
Structure prediction by ZEFSAII (Michael W. Deem and Ramdas Pophale) SiO2 
 PCOD8099028
Probable space group: C 2/M
;
_chemical_formula_sum "Si O2"
_cell_formula_units_Z 48
_cell_length_a 18.362187
_cell_length_b 8.942125
_cell_length_c 27.728328
_cell_angle_alpha 90.000000
_cell_angle_beta 146.190834
_cell_angle_gamma 90.000000
_cell_volume 2533.367692
_symmetry_space_group_name_H-M "C 2/M"
_symmetry_group_IT_number 12
_symmetry_cell_setting 'monoclinic'
loop_
_space_group_symop_operation_xyz
x,y,z
-x,y,-z
-x,-y,-z
x,-y,z
1/2+x,1/2+y,z
1/2-x,1/2+y,-z
1/2-x,1/2-y,-z
1/2+x,1/2-y,z
loop_
_atom_site_type_symbol
_atom_site_label
_atom_site_fract_x
_atom_site_fract_y
_atom_site_fract_z
Si Si1 0.052994 0.175766 0.903041
Si Si2 0.203570 0.676132 0.902449
Si Si3 0.654049 0.826177 0.583217
Si Si4 0.800822 0.322570 0.576556
Si Si5 0.759375 0.822557 0.743244
Si Si6 0.901604 0.677558 0.255870
O O1 0.094427 0.252089 0.876271
O O2 0.907287 0.229646 0.836020
O O3 0.057385 0.000000 0.896541
O O4 0.150583 0.222784 0.000154
O O5 0.183786 0.500000 0.894611
O O6 0.180042 0.735064 0.835379
O O7 0.500000 0.800378 0.500000
O O8 0.713566 0.730580 0.572919
O O9 0.714220 0.763886 0.666221
O O10 0.688262 0.000000 0.593710
O O11 0.792266 0.500000 0.567247
O O12 0.750000 0.250000 0.500000
O O13 0.949470 0.267292 0.666213
O O14 0.665852 0.754421 0.733290
O O15 0.747709 0.000000 0.737260
O O16 0.896535 0.500000 0.255519
#
# Coordination Sequence:
#
# PCOD8099028 Si02
#       6
#     8   8   8   8   8   8
#     4   9  17  29  48  73  98 127 163 203 245 289
#     4   9  17  30  49  72  98 128 162 201 245 292
#     4  10  20  35  55  76 101 135 170 205 250 300
#     4  11  22  36  55  77 102 132 167 207 251 299
#     4   9  17  30  49  73 100 129 165 206 245 290
#     4   9  18  32  50  73 100 130 164 203 247 293
#
# _framework density 18.947112000000001
#
# number of rings (size 3 to 8) (size 9 to 14) (size 15 to 20)
#    0.000    2.500    0.000    2.500    0.000    3.667 
#    0.000    4.167    0.000    4.000    0.000    4.667 
#    0.000    0.000    0.000    0.000    0.000    0.000 
#
# Total GULP energy -297589.045904 kJ/mol
# GULP energy per Si atom -12399.543579 kJ/mol
# Density = 1.890399 g / cm^3
# Si number density = 18.947112 Si / 1000 Ang^3
#
#
#
# Elastic Constant Matrix: (Units=GPa)
#
#
# Indices 1 2 3 4 5 6 
#
# 1 156.3930 34.2772 83.0096 0.0000 -10.6770 0.0000
# 2 34.2772 30.2652 28.9691 0.0000 0.5891 0.0001
# 3 83.0096 28.9691 139.9394 0.0000 -10.3891 0.0000
# 4 0.0000 0.0000 0.0000 17.3877 0.0000 -2.8701
# 5 -10.6770 0.5891 -10.3891 0.0000 37.8396 0.0000
# 6 0.0000 0.0001 0.0000 -2.8701 0.0000 26.8592
#
#
#
# Elastic Compliance Matrix: (Units=1/GPa)
#
#
# Indices 1 2 3 4 5 6 
#
# 1 0.010640 -0.007705 -0.004578 0.000000 0.001865 0.000000
# 2 -0.007705 0.047132 -0.005515 0.000000 -0.004422 0.000000
# 3 -0.004578 -0.005515 0.011141 0.000000 0.001853 0.000000
# 4 0.000000 0.000000 0.000000 0.058544 0.000000 0.006256
# 5 0.001865 -0.004422 0.001853 0.000000 0.027531 0.000000
# 6 0.000000 0.000000 0.000000 0.006256 0.000000 0.037900
#
#
# Mechanical properties :
#
#
# Convention : Reuss Voigt Hill
#
# Bulk Modulus (GPa) = 30.01414 68.78995 49.40205
# Shear Modulus (GPa) = 20.86899 28.44008 24.65454
#
# Velocity S-wave (km/s) = 3.32239 3.87851 3.61117
# Velocity P-wave (km/s) = 5.53110 7.51280 6.59679
#
# Compressibility (1/GPa) = 0.03331763
#
# Stress axis : x y z
#
# Youngs Moduli (GPa) = 93.98389 21.21686 89.76047
#
# Poissons Ratio (x) = 0.16347 0.41093
# Poissons Ratio (y) = 0.72414 0.49501
# Poissons Ratio (z) = 0.43026 0.11701
#
# Static dielectric constant tensor:
#      x y z
#    x 3.794740 0.000000 -0.044080 
#    y 0.000000 3.122480 0.000000 
#    z -0.044080 0.000000 3.810940 
# 
# 
# High freq. dielectric constant tensor:
#      x y z
#    x 1.742670 0.000000 -0.002260 
#    y 0.000000 1.695270 0.000000 
#    z -0.002260 0.000000 1.756180 
# 
# From -- ./inp_files/250906.got.cif
#   From: 2010.06.25/outbox.cif.g09.slc.cpg/sg12_126_cif.got.tgz:250906.got - 2010.06.28 00:19:55.
