data_PCOD8099405
_publ_section_title
;
Structure prediction by ZEFSAII (Michael W. Deem and Ramdas Pophale) SiO2 
 PCOD8099405
Probable space group: C 2/M
;
_chemical_formula_sum "Si O2"
_cell_formula_units_Z 48
_cell_length_a 19.225929
_cell_length_b 14.040444
_cell_length_c 18.323359
_cell_angle_alpha 90.000000
_cell_angle_beta 151.049653
_cell_angle_gamma 90.000000
_cell_volume 2394.224242
_symmetry_space_group_name_H-M "C 2/M"
_symmetry_group_IT_number 12
_symmetry_cell_setting 'monoclinic'
loop_
_space_group_symop_operation_xyz
x,y,z
-x,y,-z
-x,-y,-z
x,-y,z
1/2+x,1/2+y,z
1/2-x,1/2+y,-z
1/2-x,1/2-y,-z
1/2+x,1/2-y,z
loop_
_atom_site_type_symbol
_atom_site_label
_atom_site_fract_x
_atom_site_fract_y
_atom_site_fract_z
Si Si1 0.812032 0.220535 0.707789
Si Si2 0.307187 0.388630 0.145354
Si Si3 0.063587 0.890557 0.888365
Si Si4 0.003407 0.606280 0.089314
Si Si5 0.256147 0.387661 0.803557
Si Si6 0.992619 0.249947 0.410354
O O1 0.821265 0.164684 0.793084
O O2 0.651709 0.223832 0.528076
O O3 0.915209 0.167504 0.745176
O O4 0.865397 0.328658 0.764937
O O5 0.323631 0.500000 0.179001
O O6 0.331976 0.366252 0.082996
O O7 0.424936 0.333220 0.300330
O O8 0.147582 0.352631 0.018792
O O9 0.020018 0.000000 0.847292
O O10 0.142224 0.862934 0.035367
O O11 0.029829 0.500000 0.144717
O O12 0.000000 0.604254 0.000000
O O13 0.245158 0.500000 0.778757
O O14 0.098363 0.347462 0.676701
O O15 0.000000 0.211569 0.500000
#
# Coordination Sequence:
#
# PCOD8099405 Si02
#       6
#     8   8   8   8   8   8
#     4  11  21  34  57  86 116 147 183 226 278 332
#     4  10  22  40  59  81 111 147 188 233 279 327
#     4  10  21  37  59  84 110 146 190 233 276 324
#     4  10  20  35  56  80 106 141 188 235 274 320
#     4  10  21  38  59  84 114 148 187 228 272 327
#     4  10  22  36  55  84 113 147 185 223 278 337
#
# _framework density 20.048247
#
# number of rings (size 3 to 8) (size 9 to 14) (size 15 to 20)
#    0.000    1.833    0.000    5.000    0.000    9.333 
#    0.000    0.000    0.000    4.000    0.000    0.000 
#    0.000    0.000    0.000    0.000    0.000    0.000 
#
# Total GULP energy -297676.614712 kJ/mol
# GULP energy per Si atom -12403.192280 kJ/mol
# Density = 2.000262 g / cm^3
# Si number density = 20.048247 Si / 1000 Ang^3
#
#
#
# Elastic Constant Matrix: (Units=GPa)
#
#
# Indices 1 2 3 4 5 6 
#
# 1 90.0654 39.1232 35.4374 -0.0010 29.2234 -0.0003
# 2 39.1232 97.5951 46.6517 -0.0007 12.0043 -0.0004
# 3 35.4374 46.6517 94.9484 -0.0007 30.3930 -0.0012
# 4 -0.0010 -0.0007 -0.0007 29.0989 -0.0003 5.0274
# 5 29.2234 12.0043 30.3930 -0.0003 35.0270 -0.0005
# 6 -0.0003 -0.0004 -0.0012 5.0274 -0.0005 5.6494
#
#
#
# Elastic Compliance Matrix: (Units=1/GPa)
#
#
# Indices 1 2 3 4 5 6 
#
# 1 0.017670 -0.005653 0.000390 0.000001 -0.013143 -0.000001
# 2 -0.005653 0.015261 -0.007233 0.000000 0.005762 0.000000
# 3 0.000390 -0.007233 0.018347 0.000000 -0.013766 0.000002
# 4 0.000001 0.000000 0.000000 0.040609 0.000000 -0.036138
# 5 -0.013143 0.005762 -0.013766 0.000000 0.049485 0.000002
# 6 -0.000001 0.000000 0.000002 -0.036138 0.000002 0.209167
#
#
# Mechanical properties :
#
#
# Convention : Reuss Voigt Hill
#
# Bulk Modulus (GPa) = 38.04419 58.33706 48.19063
# Shear Modulus (GPa) = 13.01090 24.71484 18.86287
#
# Velocity S-wave (km/s) = 2.55027 3.51489 3.07069
# Velocity P-wave (km/s) = 5.26207 6.75530 6.05489
#
# Compressibility (1/GPa) = 0.02628522
#
# Stress axis : x y z
#
# Youngs Moduli (GPa) = 56.59405 65.52524 54.50495
#
# Poissons Ratio (x) = 0.37042 -0.02124
# Poissons Ratio (y) = 0.31993 0.39424
# Poissons Ratio (z) = -0.02206 0.47395
#
# Static dielectric constant tensor:
#      x y z
#    x 3.771050 0.000000 0.174510 
#    y 0.000000 3.791210 0.000000 
#    z 0.174510 0.000000 3.597030 
# 
# 
# High freq. dielectric constant tensor:
#      x y z
#    x 1.783600 0.000000 0.018980 
#    y 0.000000 1.794320 0.000000 
#    z 0.018980 0.000000 1.769790 
# 
# From -- ./inp_files/278033.got.cif
#   From: 2010.06.25/outbox.cif.g09.slc.cpg/sg12_140_cif.got.tgz:278033.got - 2010.06.28 00:19:55.
