data_PCOD8099789
_publ_section_title
;
Structure prediction by ZEFSAII (Michael W. Deem and Ramdas Pophale) SiO2 
 PCOD8099789
Probable space group: C 2/M
;
_chemical_formula_sum "Si O2"
_cell_formula_units_Z 64
_cell_length_a 18.181629
_cell_length_b 9.049631
_cell_length_c 30.672925
_cell_angle_alpha 90.000000
_cell_angle_beta 42.170374
_cell_angle_gamma 90.000000
_cell_volume 3388.127387
_symmetry_space_group_name_H-M "C 2/M"
_symmetry_group_IT_number 12
_symmetry_cell_setting 'monoclinic'
loop_
_space_group_symop_operation_xyz
x,y,z
-x,y,-z
-x,-y,-z
x,-y,z
1/2+x,1/2+y,z
1/2-x,1/2+y,-z
1/2-x,1/2-y,-z
1/2+x,1/2-y,z
loop_
_atom_site_type_symbol
_atom_site_label
_atom_site_fract_x
_atom_site_fract_y
_atom_site_fract_z
Si Si1 0.322321 0.325046 0.574443
Si Si2 0.122492 0.826182 0.935203
Si Si3 0.506735 0.674843 0.429130
Si Si4 0.283912 0.826158 0.940684
Si Si5 0.901622 0.824573 0.308771
Si Si6 0.189091 0.674025 0.817420
Si Si7 0.029366 0.673592 0.809865
Si Si8 0.568355 0.324518 0.308619
O O1 0.298727 0.500000 0.585834
O O2 0.390571 0.273153 0.586822
O O3 0.391422 0.277402 0.501216
O O4 0.210542 0.235599 0.622108
O O5 0.201187 0.773192 0.939535
O O6 0.158304 0.748247 0.875810
O O7 0.130988 0.000000 0.924245
O O8 0.000000 0.775767 0.000000
O O9 0.510546 0.500000 0.426303
O O10 0.518410 0.741895 0.375466
O O11 0.405358 0.776701 0.873518
O O12 0.277729 0.000000 0.950962
O O13 0.250000 0.750000 0.000000
O O14 0.923825 0.759905 0.251685
O O15 0.997512 0.769232 0.298871
O O16 0.896528 0.000000 0.308050
O O17 0.190327 0.500000 0.824230
O O18 0.101337 0.720260 0.819682
O O19 0.307922 0.733284 0.750781
O O20 0.038467 0.500000 0.796209
O O21 0.566776 0.500000 0.311904
#
# Coordination Sequence:
#
# PCOD8099789 Si02
#       8
#     8   8   8   8   8   8   8   8
#     4   9  17  32  56  79  98 130 175 215 251 297
#     4  10  21  36  53  76 109 143 169 201 254 314
#     4   8  15  31  55  77  98 132 175 212 249 299
#     4  10  21  36  55  80 108 138 173 214 258 303
#     4  11  22  33  49  75 106 138 167 204 260 313
#     4  10  20  35  57  79  98 129 174 219 256 293
#     4  10  21  37  56  77 101 132 175 221 256 295
#     4   9  18  32  49  73 104 133 166 209 255 305
#
# _framework density 18.889489999999999
#
# number of rings (size 3 to 8) (size 9 to 14) (size 15 to 20)
#    0.000    2.375    0.000    3.375    0.000    4.250 
#    0.000    1.875    0.000    3.000    0.000    0.000 
#    0.000    0.000    0.000    0.000    0.000    0.000 
#
# Total GULP energy -396834.163091 kJ/mol
# GULP energy per Si atom -12401.067597 kJ/mol
# Density = 1.884650 g / cm^3
# Si number density = 18.889490 Si / 1000 Ang^3
#
#
#
# Elastic Constant Matrix: (Units=GPa)
#
#
# Indices 1 2 3 4 5 6 
#
# 1 160.3427 36.8408 96.6798 -0.0013 -2.9385 -0.0035
# 2 36.8408 31.0336 39.2464 -0.0032 2.5570 -0.0002
# 3 96.6798 39.2464 168.8174 0.0005 2.9412 0.0008
# 4 -0.0013 -0.0032 0.0005 26.1601 -0.0004 -1.1580
# 5 -2.9385 2.5570 2.9412 -0.0004 43.4834 -0.0012
# 6 -0.0035 -0.0002 0.0008 -1.1580 -0.0012 17.4922
#
#
#
# Elastic Compliance Matrix: (Units=1/GPa)
#
#
# Indices 1 2 3 4 5 6 
#
# 1 0.010552 -0.007040 -0.004431 0.000000 0.001427 0.000002
# 2 -0.007040 0.050508 -0.007659 0.000006 -0.002928 0.000000
# 3 -0.004431 -0.007659 0.010251 -0.000001 -0.000542 -0.000002
# 4 0.000000 0.000006 -0.000001 0.038339 0.000000 0.002538
# 5 0.001427 -0.002928 -0.000542 0.000000 0.023303 0.000002
# 6 0.000002 0.000000 -0.000002 0.002538 0.000002 0.057336
#
#
# Mechanical properties :
#
#
# Convention : Reuss Voigt Hill
#
# Bulk Modulus (GPa) = 30.25695 78.41418 54.33557
# Shear Modulus (GPa) = 20.87091 29.92224 25.39658
#
# Velocity S-wave (km/s) = 3.32760 3.98435 3.67070
# Velocity P-wave (km/s) = 5.55127 7.92269 6.84052
#
# Compressibility (1/GPa) = 0.03305025
#
# Stress axis : x y z
#
# Youngs Moduli (GPa) = 94.76600 19.79872 97.54833
#
# Poissons Ratio (x) = 0.13939 0.43226
# Poissons Ratio (y) = 0.66720 0.74713
# Poissons Ratio (z) = 0.41994 0.15164
#
# Static dielectric constant tensor:
#      x y z
#    x 3.798260 0.000000 -0.095260 
#    y 0.000000 3.114030 0.000000 
#    z -0.095260 0.000000 3.764900 
# 
# 
# High freq. dielectric constant tensor:
#      x y z
#    x 1.746710 0.000000 -0.001110 
#    y 0.000000 1.699870 0.000000 
#    z -0.001110 0.000000 1.752570 
# 
# From -- ./inp_files/378013.got.cif
#   From: 2010.06.25/outbox.cif.g09.slc.cpg/sg12_190_cif.got.tgz:378013.got - 2010.06.28 00:19:55.
