data_PCOD8099513
_publ_section_title
;
Structure prediction by ZEFSAII (Michael W. Deem and Ramdas Pophale) SiO2 
 PCOD8099513
Probable space group: C 2/M
;
_chemical_formula_sum "Si O2"
_cell_formula_units_Z 64
_cell_length_a 23.986789
_cell_length_b 9.119116
_cell_length_c 15.254640
_cell_angle_alpha 90.000000
_cell_angle_beta 86.229068
_cell_angle_gamma 90.000000
_cell_volume 3329.549954
_symmetry_space_group_name_H-M "C 2/M"
_symmetry_group_IT_number 12
_symmetry_cell_setting 'monoclinic'
loop_
_space_group_symop_operation_xyz
x,y,z
-x,y,-z
-x,-y,-z
x,-y,z
1/2+x,1/2+y,z
1/2-x,1/2+y,-z
1/2-x,1/2-y,-z
1/2+x,1/2-y,z
loop_
_atom_site_type_symbol
_atom_site_label
_atom_site_fract_x
_atom_site_fract_y
_atom_site_fract_z
Si Si1 0.342754 0.666984 0.360767
Si Si2 0.262462 0.669184 0.696589
Si Si3 0.722029 0.829156 0.130554
Si Si4 0.834151 0.171113 0.019185
Si Si5 0.969518 0.673468 0.591485
Si Si6 0.546141 0.325760 0.927793
Si Si7 0.037366 0.832390 0.732041
Si Si8 0.361004 0.668803 0.556081
O O1 0.320125 0.500000 0.365422
O O2 0.298015 0.770492 0.320486
O O3 0.397723 0.678487 0.297115
O O4 0.354970 0.724231 0.457248
O O5 0.256917 0.500000 0.723258
O O6 0.288796 0.755201 0.775157
O O7 0.302105 0.692345 0.609194
O O8 0.785895 0.799137 0.095357
O O9 0.709143 0.000000 0.139270
O O10 0.678411 0.759948 0.067459
O O11 0.892395 0.231377 0.051878
O O12 0.837317 0.000000 0.994564
O O13 0.967544 0.500000 0.595529
O O14 0.907065 0.735025 0.600385
O O15 0.000000 0.729389 0.500000
O O16 0.001549 0.730374 0.673014
O O17 0.547202 0.500000 0.929360
O O18 0.529999 0.273232 0.831867
O O19 0.500000 0.263196 0.000000
O O20 0.016476 0.000000 0.724429
O O21 0.380417 0.500000 0.556354
#
# Coordination Sequence:
#
# PCOD8099513 Si02
#       8
#     8   8   8   8   8   8   8   8
#     4  10  20  36  58  81 109 147 191 234 283 339
#     4  11  23  36  54  83 115 146 186 233 287 342
#     4  10  20  35  56  81 110 146 186 228 281 340
#     4   9  18  35  58  81 109 143 185 232 278 332
#     4  11  23  38  58  85 116 147 187 240 289 331
#     4   9  18  33  55  84 113 142 181 230 279 328
#     4  10  20  36  61  86 112 152 195 231 277 342
#     4  10  22  39  58  80 109 150 191 232 282 341
#
# _framework density 19.221816
#
# number of rings (size 3 to 8) (size 9 to 14) (size 15 to 20)
#    0.000    2.000    1.250    2.250    0.000    6.000 
#    0.000    3.125    0.000    0.750    0.000    0.000 
#    0.000    0.000    0.000    0.000    0.000    0.000 
#
# Total GULP energy -396948.732024 kJ/mol
# GULP energy per Si atom -12404.647876 kJ/mol
# Density = 1.917807 g / cm^3
# Si number density = 19.221816 Si / 1000 Ang^3
#
#
#
# Elastic Constant Matrix: (Units=GPa)
#
#
# Indices 1 2 3 4 5 6 
#
# 1 60.2224 25.1837 39.6012 0.0000 17.5990 0.0000
# 2 25.1837 65.0595 41.7827 0.0000 9.7441 0.0000
# 3 39.6012 41.7827 140.7000 0.0000 7.0928 0.0000
# 4 0.0000 0.0000 0.0000 29.3386 0.0000 8.0624
# 5 17.5990 9.7441 7.0928 0.0000 28.9275 0.0000
# 6 0.0000 0.0000 0.0000 8.0624 0.0000 29.1545
#
#
#
# Elastic Compliance Matrix: (Units=1/GPa)
#
#
# Indices 1 2 3 4 5 6 
#
# 1 0.025731 -0.004704 -0.005200 0.000000 -0.012795 0.000000
# 2 -0.004704 0.020619 -0.004651 0.000000 -0.002943 0.000000
# 3 -0.005200 -0.004651 0.009835 0.000000 0.002319 0.000000
# 4 0.000000 0.000000 0.000000 0.036888 0.000000 -0.010201
# 5 -0.012795 -0.002943 0.002319 0.000000 0.042776 0.000000
# 6 0.000000 0.000000 0.000000 -0.010201 0.000000 0.037121
#
#
# Mechanical properties :
#
#
# Convention : Reuss Voigt Hill
#
# Bulk Modulus (GPa) = 36.93451 53.23522 45.08487
# Shear Modulus (GPa) = 23.68487 28.11175 25.89831
#
# Velocity S-wave (km/s) = 3.51406 3.82840 3.67459
# Velocity P-wave (km/s) = 5.97674 6.87732 6.44279
#
# Compressibility (1/GPa) = 0.02707495
#
# Stress axis : x y z
#
# Youngs Moduli (GPa) = 38.86383 48.49886 101.67590
#
# Poissons Ratio (x) = 0.22814 0.52874
# Poissons Ratio (y) = 0.18282 0.47287
# Poissons Ratio (z) = 0.20210 0.22555
#
# Static dielectric constant tensor:
#      x y z
#    x 3.475530 0.000000 -0.018430 
#    y 0.000000 3.372790 0.000000 
#    z -0.018430 0.000000 3.667630 
# 
# 
# High freq. dielectric constant tensor:
#      x y z
#    x 1.747170 0.000000 0.004170 
#    y 0.000000 1.731790 0.000000 
#    z 0.004170 0.000000 1.759000 
# 
# From -- ./inp_files/238795.got.cif
#   From: 2010.06.25/outbox.cif.g09.slc.cpg/sg12_120_cif.got.tgz:238795.got - 2010.06.28 00:19:55.
