data_PCOD8099877
_publ_section_title
;
Structure prediction by ZEFSAII (Michael W. Deem and Ramdas Pophale) SiO2 
 PCOD8099877
Probable space group: C 2/M
;
_chemical_formula_sum "Si O2"
_cell_formula_units_Z 48
_cell_length_a 19.088809
_cell_length_b 8.645928
_cell_length_c 15.748716
_cell_angle_alpha 90.000000
_cell_angle_beta 104.191650
_cell_angle_gamma 90.000000
_cell_volume 2519.851459
_symmetry_space_group_name_H-M "C 2/M"
_symmetry_group_IT_number 12
_symmetry_cell_setting 'monoclinic'
loop_
_space_group_symop_operation_xyz
x,y,z
-x,y,-z
-x,-y,-z
x,-y,z
1/2+x,1/2+y,z
1/2-x,1/2+y,-z
1/2-x,1/2-y,-z
1/2+x,1/2-y,z
loop_
_atom_site_type_symbol
_atom_site_label
_atom_site_fract_x
_atom_site_fract_y
_atom_site_fract_z
Si Si1 0.736156 0.679506 0.404819
Si Si2 0.191893 0.181107 0.734654
Si Si3 0.444860 0.819684 0.221074
Si Si4 0.070114 0.179803 0.966150
Si Si5 0.407557 0.677840 0.732445
Si Si6 0.836943 0.320440 0.870219
O O1 0.757395 0.500000 0.409298
O O2 0.750000 0.750000 0.500000
O O3 0.785792 0.769970 0.353037
O O4 0.651714 0.704017 0.358174
O O5 0.121817 0.275767 0.739501
O O6 0.255529 0.223579 0.819708
O O7 0.175011 0.000000 0.731100
O O8 0.428988 0.775401 0.119662
O O9 0.514646 0.730217 0.278897
O O10 0.459561 0.000000 0.232422
O O11 0.071199 0.000000 0.942986
O O12 0.141872 0.222962 0.040353
O O13 0.000000 0.225215 0.000000
O O14 0.409704 0.500000 0.762565
O O15 0.390844 0.779996 0.809818
O O16 0.844931 0.500000 0.893790
#
# Coordination Sequence:
#
# PCOD8099877 Si02
#       6
#     8   8   8   8   8   8
#     4  10  21  39  65  92 117 147 186 229 279 341
#     4  10  22  40  60  84 118 152 187 234 290 342
#     4  12  24  37  57  84 116 153 193 239 286 334
#     4  11  22  35  55  81 113 154 197 239 282 333
#     4  10  20  36  58  84 115 151 188 230 282 339
#     4  10  20  35  57  83 110 149 196 240 281 331
#
# _framework density 19.048742000000001
#
# number of rings (size 3 to 8) (size 9 to 14) (size 15 to 20)
#    0.000    1.500    1.667    4.000    0.000    5.333 
#    0.000    0.833    0.000    5.000    0.000    0.000 
#    0.000    0.000    0.000    0.000    0.000    0.000 
#
# Total GULP energy -297726.334120 kJ/mol
# GULP energy per Si atom -12405.263922 kJ/mol
# Density = 1.900539 g / cm^3
# Si number density = 19.048742 Si / 1000 Ang^3
#
#
#
# Elastic Constant Matrix: (Units=GPa)
#
#
# Indices 1 2 3 4 5 6 
#
# 1 107.5565 24.8187 37.3075 0.0000 -0.7546 0.0000
# 2 24.8187 55.6859 25.9931 0.0000 3.4703 0.0000
# 3 37.3075 25.9931 93.4942 0.0000 10.0854 0.0000
# 4 0.0000 0.0000 0.0000 34.2335 0.0000 -0.3010
# 5 -0.7546 3.4703 10.0854 0.0000 22.5863 0.0000
# 6 0.0000 0.0000 0.0000 -0.3010 0.0000 33.7988
#
#
#
# Elastic Compliance Matrix: (Units=1/GPa)
#
#
# Indices 1 2 3 4 5 6 
#
# 1 0.011467 -0.003455 -0.003902 0.000000 0.002656 0.000000
# 2 -0.003455 0.021686 -0.004495 0.000000 -0.001440 0.000000
# 3 -0.003902 -0.004495 0.014122 0.000000 -0.005746 0.000000
# 4 0.000000 0.000000 0.000000 0.029213 0.000000 0.000260
# 5 0.002656 -0.001440 -0.005746 0.000000 0.047150 0.000000
# 6 0.000000 0.000000 0.000000 0.000260 0.000000 0.029589
#
#
# Mechanical properties :
#
#
# Convention : Reuss Voigt Hill
#
# Bulk Modulus (GPa) = 42.42421 48.10836 45.26628
# Shear Modulus (GPa) = 27.05809 29.36485 28.21147
#
# Velocity S-wave (km/s) = 3.77300 3.93053 3.85257
# Velocity P-wave (km/s) = 6.42654 6.77562 6.60339
#
# Compressibility (1/GPa) = 0.02357145
#
# Stress axis : x y z
#
# Youngs Moduli (GPa) = 87.20965 46.11343 70.81041
#
# Poissons Ratio (x) = 0.15932 0.27627
# Poissons Ratio (y) = 0.30130 0.31830
# Poissons Ratio (z) = 0.34026 0.20728
#
# Static dielectric constant tensor:
#      x y z
#    x 3.567750 0.000000 0.077390 
#    y 0.000000 3.592350 0.000000 
#    z 0.077390 0.000000 3.250680 
# 
# 
# High freq. dielectric constant tensor:
#      x y z
#    x 1.742560 0.000000 0.010320 
#    y 0.000000 1.756880 0.000000 
#    z 0.010320 0.000000 1.724780 
# 
# From -- ./inp_files/221633.got.cif
#   From: 2010.06.25/outbox.cif.g09.slc.cpg/sg12_111_cif.got.tgz:221633.got - 2010.06.28 00:19:55.
