data_PCOD8099826
_publ_section_title
;
Structure prediction by ZEFSAII (Michael W. Deem and Ramdas Pophale) SiO2 
 PCOD8099826
Probable space group: C 2/M
;
_chemical_formula_sum "Si O2"
_cell_formula_units_Z 64
_cell_length_a 19.150393
_cell_length_b 9.003187
_cell_length_c 21.814233
_cell_angle_alpha 90.000000
_cell_angle_beta 114.567581
_cell_angle_gamma 90.000000
_cell_volume 3420.605618
_symmetry_space_group_name_H-M "C 2/M"
_symmetry_group_IT_number 12
_symmetry_cell_setting 'monoclinic'
loop_
_space_group_symop_operation_xyz
x,y,z
-x,y,-z
-x,-y,-z
x,-y,z
1/2+x,1/2+y,z
1/2-x,1/2+y,-z
1/2-x,1/2-y,-z
1/2+x,1/2-y,z
loop_
_atom_site_type_symbol
_atom_site_label
_atom_site_fract_x
_atom_site_fract_y
_atom_site_fract_z
Si Si1 0.655118 0.674048 0.626877
Si Si2 0.017168 0.171659 0.901683
Si Si3 0.019199 0.325225 0.647528
Si Si4 0.317510 0.675503 0.986461
Si Si5 0.969620 0.172187 0.748319
Si Si6 0.928159 0.163885 0.519024
Si Si7 0.822056 0.671490 0.732827
Si Si8 0.867961 0.327276 0.886415
O O1 0.638543 0.500000 0.632676
O O2 0.597296 0.769045 0.646224
O O3 0.644135 0.711421 0.550159
O O4 0.739775 0.720105 0.677664
O O5 0.011673 0.205153 0.827650
O O6 0.955054 0.266772 0.916599
O O7 0.999752 0.000000 0.909923
O O8 0.101830 0.218459 0.952972
O O9 0.019742 0.500000 0.650927
O O10 0.016395 0.260798 0.714536
O O11 0.944123 0.275451 0.580852
O O12 0.304226 0.500000 0.979732
O O13 0.317461 0.740208 0.917843
O O14 0.250000 0.750000 0.000000
O O15 0.882377 0.228049 0.718803
O O16 0.970051 0.000000 0.731587
O O17 0.000000 0.161611 0.500000
O O18 0.914935 0.000000 0.542421
O O19 0.840155 0.500000 0.724978
O O20 0.825697 0.701791 0.806646
O O21 0.870489 0.500000 0.904389
#
# Coordination Sequence:
#
# PCOD8099826 Si02
#       8
#     8   8   8   8   8   8   8   8
#     4   9  18  34  55  76 102 137 173 211 257 308
#     4   9  20  38  58  77 100 137 178 214 254 304
#     4  11  21  32  50  77 107 136 171 215 260 306
#     4  11  23  38  55  78 109 139 172 215 260 303
#     4  10  20  36  56  76 102 136 175 215 257 306
#     4   8  15  30  51  73  98 133 175 212 252 305
#     4   9  19  36  56  79 107 136 169 212 259 306
#     4  10  20  35  57  82 107 137 172 209 254 310
#
# _framework density 18.710137
#
# number of rings (size 3 to 8) (size 9 to 14) (size 15 to 20)
#    0.000    2.375    0.000    3.375    0.000    7.250 
#    0.000    5.625    0.000    0.000    0.000    0.000 
#    0.000    0.000    0.000    0.000    0.000    0.000 
#
# Total GULP energy -396837.069599 kJ/mol
# GULP energy per Si atom -12401.158425 kJ/mol
# Density = 1.866755 g / cm^3
# Si number density = 18.710137 Si / 1000 Ang^3
#
#
#
# Elastic Constant Matrix: (Units=GPa)
#
#
# Indices 1 2 3 4 5 6 
#
# 1 43.8958 21.4925 9.6601 0.0000 4.7946 0.0000
# 2 21.4925 83.6159 12.4975 0.0000 -3.7010 0.0000
# 3 9.6601 12.4975 46.5529 0.0000 12.0030 0.0000
# 4 0.0000 0.0000 0.0000 26.9496 0.0000 -4.4061
# 5 4.7946 -3.7010 12.0030 0.0000 34.2693 0.0000
# 6 0.0000 0.0000 0.0000 -4.4061 0.0000 34.1809
#
#
#
# Elastic Compliance Matrix: (Units=1/GPa)
#
#
# Indices 1 2 3 4 5 6 
#
# 1 0.027075 -0.006676 -0.002928 0.000000 -0.003483 0.000000
# 2 -0.006676 0.014349 -0.003416 0.000000 0.003680 0.000000
# 3 -0.002928 -0.003416 0.025278 0.000000 -0.008813 0.000000
# 4 0.000000 0.000000 0.000000 0.037905 0.000000 0.004886
# 5 -0.003483 0.003680 -0.008813 0.000000 0.033152 0.000000
# 6 0.000000 0.000000 0.000000 0.004886 0.000000 0.029886
#
#
# Mechanical properties :
#
#
# Convention : Reuss Voigt Hill
#
# Bulk Modulus (GPa) = 24.59260 29.04054 26.81657
# Shear Modulus (GPa) = 24.12692 27.77426 25.95059
#
# Velocity S-wave (km/s) = 3.59487 3.85704 3.72826
# Velocity P-wave (km/s) = 5.51392 5.94900 5.73559
#
# Compressibility (1/GPa) = 0.04066265
#
# Stress axis : x y z
#
# Youngs Moduli (GPa) = 36.93480 69.69234 39.56050
#
# Poissons Ratio (x) = 0.46525 0.11583
# Poissons Ratio (y) = 0.24657 0.13512
# Poissons Ratio (z) = 0.10814 0.23804
#
# Static dielectric constant tensor:
#      x y z
#    x 3.229250 0.000000 0.071740 
#    y 0.000000 3.439440 0.000000 
#    z 0.071740 0.000000 3.752670 
# 
# 
# High freq. dielectric constant tensor:
#      x y z
#    x 1.706140 0.000000 0.000390 
#    y 0.000000 1.728510 0.000000 
#    z 0.000390 0.000000 1.738730 
# 
# From -- ./inp_files/320031.got.cif
#   From: 2010.06.25/outbox.cif.g09.slc.cpg/sg12_161_cif.got.tgz:320031.got - 2010.06.28 00:19:55.
