data_PCOD8099179
_publ_section_title
;
Structure prediction by ZEFSAII (Michael W. Deem and Ramdas Pophale) SiO2 
 PCOD8099179
Probable space group: C 2/M
;
_chemical_formula_sum "Si O2"
_cell_formula_units_Z 48
_cell_length_a 20.729293
_cell_length_b 8.828858
_cell_length_c 23.253784
_cell_angle_alpha 90.000000
_cell_angle_beta 38.287004
_cell_angle_gamma 90.000000
_cell_volume 2636.906759
_symmetry_space_group_name_H-M "C 2/M"
_symmetry_group_IT_number 12
_symmetry_cell_setting 'monoclinic'
loop_
_space_group_symop_operation_xyz
x,y,z
-x,y,-z
-x,-y,-z
x,-y,z
1/2+x,1/2+y,z
1/2-x,1/2+y,-z
1/2-x,1/2-y,-z
1/2+x,1/2-y,z
loop_
_atom_site_type_symbol
_atom_site_label
_atom_site_fract_x
_atom_site_fract_y
_atom_site_fract_z
Si Si1 0.751421 0.821479 0.936488
Si Si2 0.061070 0.822811 0.276034
Si Si3 0.893731 0.323487 0.549589
Si Si4 0.145809 0.320260 0.549186
Si Si5 0.698977 0.174041 0.270094
Si Si6 0.387447 0.676879 0.060022
O O1 0.859985 0.775012 0.830167
O O2 0.653898 0.761191 0.967685
O O3 0.740264 0.000000 0.949430
O O4 0.750000 0.750000 0.000000
O O5 0.112394 0.777741 0.300727
O O6 0.952359 0.734932 0.344092
O O7 0.038301 0.000000 0.291014
O O8 0.912485 0.500000 0.525900
O O9 0.864527 0.253672 0.508464
O O10 0.802382 0.293787 0.660430
O O11 0.000000 0.250760 0.500000
O O12 0.153130 0.500000 0.546653
O O13 0.250000 0.250000 0.500000
O O14 0.813183 0.210754 0.166339
O O15 0.667920 0.000000 0.279063
O O16 0.393132 0.500000 0.040992
O O17 0.500000 0.739979 0.000000
#
# Coordination Sequence:
#
# PCOD8099179 Si02
#       6
#     8   8   8   8   8   8
#     4  10  21  37  58  81 107 141 184 229 274 329
#     4  10  20  35  55  80 107 139 179 223 273 323
#     4   9  16  30  54  79  99 133 180 217 254 310
#     4  11  22  37  55  77 111 146 181 222 269 321
#     4   9  16  31  55  78 102 138 180 218 261 315
#     4   9  18  33  54  81 111 141 177 220 270 327
#
# _framework density 18.203147000000001
#
# number of rings (size 3 to 8) (size 9 to 14) (size 15 to 20)
#    0.000    2.333    1.667    1.500    0.000    2.333 
#    3.000    2.500    0.000    0.000    0.000    0.000 
#    0.000    0.000    0.000    0.000    0.000    0.000 
#
# Total GULP energy -297564.661942 kJ/mol
# GULP energy per Si atom -12398.527581 kJ/mol
# Density = 1.816172 g / cm^3
# Si number density = 18.203147 Si / 1000 Ang^3
#
#
#
# Elastic Constant Matrix: (Units=GPa)
#
#
# Indices 1 2 3 4 5 6 
#
# 1 147.2990 47.0442 88.5562 -0.0001 -5.0779 0.0001
# 2 47.0442 60.8255 42.1977 -0.0004 -3.4841 0.0007
# 3 88.5562 42.1977 123.2835 0.0000 -5.5319 0.0001
# 4 -0.0001 -0.0004 0.0000 24.8038 0.0000 -2.6177
# 5 -5.0779 -3.4841 -5.5319 0.0000 37.0639 -0.0001
# 6 0.0001 0.0007 0.0001 -2.6177 -0.0001 29.0343
#
#
#
# Elastic Compliance Matrix: (Units=1/GPa)
#
#
# Indices 1 2 3 4 5 6 
#
# 1 0.012879 -0.004640 -0.007655 0.000000 0.000186 0.000000
# 2 -0.004640 0.023264 -0.004591 0.000000 0.000866 0.000000
# 3 -0.007655 -0.004591 0.015217 0.000000 0.000791 0.000000
# 4 0.000000 0.000000 0.000000 0.040704 0.000000 0.003670
# 5 0.000186 0.000866 0.000791 0.000000 0.027205 0.000000
# 6 0.000000 0.000000 0.000000 0.003670 0.000000 0.034773
#
#
# Mechanical properties :
#
#
# Convention : Reuss Voigt Hill
#
# Bulk Modulus (GPa) = 56.85591 76.33380 66.59485
# Shear Modulus (GPa) = 25.81626 28.42104 27.11865
#
# Velocity S-wave (km/s) = 3.77003 3.95565 3.86395
# Velocity P-wave (km/s) = 7.08891 7.93021 7.52134
#
# Compressibility (1/GPa) = 0.01758832
#
# Stress axis : x y z
#
# Youngs Moduli (GPa) = 77.64362 42.98532 65.71656
#
# Poissons Ratio (x) = 0.19945 0.50305
# Poissons Ratio (y) = 0.36027 0.30170
# Poissons Ratio (z) = 0.59435 0.19734
#
# Static dielectric constant tensor:
#      x y z
#    x 3.319560 0.000000 0.048030 
#    y 0.000000 3.239370 0.000000 
#    z 0.048030 0.000000 3.622580 
# 
# 
# High freq. dielectric constant tensor:
#      x y z
#    x 1.690260 0.000000 0.002990 
#    y 0.000000 1.691430 0.000000 
#    z 0.002990 0.000000 1.716440 
# 
# From -- ./inp_files/345411.got.cif
#   From: 2010.06.25/outbox.cif.g09.slc.cpg/sg12_173_cif.got.tgz:345411.got - 2010.06.28 00:19:55.
