data_PCOD8099475
_publ_section_title
;
Structure prediction by ZEFSAII (Michael W. Deem and Ramdas Pophale) SiO2 
 PCOD8099475
Probable space group: C 2/M
;
_chemical_formula_sum "Si O2"
_cell_formula_units_Z 64
_cell_length_a 28.892807
_cell_length_b 9.268594
_cell_length_c 12.791229
_cell_angle_alpha 90.000000
_cell_angle_beta 100.114268
_cell_angle_gamma 90.000000
_cell_volume 3372.203032
_symmetry_space_group_name_H-M "C 2/M"
_symmetry_group_IT_number 12
_symmetry_cell_setting 'monoclinic'
loop_
_space_group_symop_operation_xyz
x,y,z
-x,y,-z
-x,-y,-z
x,-y,z
1/2+x,1/2+y,z
1/2-x,1/2+y,-z
1/2-x,1/2-y,-z
1/2+x,1/2-y,z
loop_
_atom_site_type_symbol
_atom_site_label
_atom_site_fract_x
_atom_site_fract_y
_atom_site_fract_z
Si Si1 0.938274 0.828793 0.808508
Si Si2 0.425988 0.839339 0.389085
Si Si3 0.393193 0.832497 0.980480
Si Si4 0.181135 0.339126 0.716180
Si Si5 0.896825 0.831496 0.569459
Si Si6 0.707388 0.330559 0.536282
Si Si7 0.296824 0.832681 0.043827
Si Si8 0.467199 0.169280 0.188808
O O1 0.907249 0.767919 0.890035
O O2 0.914121 0.782516 0.690029
O O3 0.989617 0.760550 0.837645
O O4 0.942014 0.000000 0.820481
O O5 0.373442 0.842792 0.328024
O O6 0.429840 0.742219 0.494458
O O7 0.456735 0.779934 0.303911
O O8 0.442799 0.000000 0.426283
O O9 0.399677 0.000000 0.952176
O O10 0.338858 0.794818 0.981119
O O11 0.423319 0.797477 0.096010
O O12 0.202394 0.500000 0.706725
O O13 0.207457 0.222674 0.655440
O O14 0.187214 0.284953 0.835494
O O15 0.842060 0.786698 0.537514
O O16 0.902812 0.000000 0.553623
O O17 0.716374 0.500000 0.535439
O O18 0.750000 0.250000 0.500000
O O19 0.285136 0.000000 0.034682
O O20 0.250000 0.750000 0.000000
O O21 0.479427 0.000000 0.191237
#
# Coordination Sequence:
#
# PCOD8099475 Si02
#       8
#     8   8   8   8   8   8   8   8
#     4  11  24  39  55  81 117 154 190 231 281 338
#     4   9  17  33  60  85 105 138 186 231 273 328
#     4  10  21  40  61  81 112 152 191 233 282 335
#     4   9  17  34  56  78 107 142 179 227 279 328
#     4   9  21  39  54  75 114 152 181 224 285 337
#     4  10  20  35  56  81 107 143 187 229 277 334
#     4  10  21  37  58  85 115 147 185 231 286 339
#     4  10  20  37  61  86 111 145 189 235 284 335
#
# _framework density 18.978691000000001
#
# number of rings (size 3 to 8) (size 9 to 14) (size 15 to 20)
#    0.000    2.250    1.250    1.125    0.000    6.500 
#    0.000    6.250    0.000    0.000    0.000    0.000 
#    0.000    0.000    0.000    0.000    0.000    0.000 
#
# Total GULP energy -396790.203842 kJ/mol
# GULP energy per Si atom -12399.693870 kJ/mol
# Density = 1.893549 g / cm^3
# Si number density = 18.978691 Si / 1000 Ang^3
#
#
#
# Elastic Constant Matrix: (Units=GPa)
#
#
# Indices 1 2 3 4 5 6 
#
# 1 92.1205 46.8340 47.4779 0.0000 -17.7804 0.0000
# 2 46.8340 68.4784 54.8083 0.0000 -8.4900 0.0000
# 3 47.4779 54.8083 121.1275 0.0000 -13.7817 0.0000
# 4 0.0000 0.0000 0.0000 34.9053 0.0000 -2.0527
# 5 -17.7804 -8.4900 -13.7817 0.0000 28.0831 0.0000
# 6 0.0000 0.0000 0.0000 -2.0527 0.0000 28.1285
#
#
#
# Elastic Compliance Matrix: (Units=1/GPa)
#
#
# Indices 1 2 3 4 5 6 
#
# 1 0.018466 -0.010318 -0.001688 0.000000 0.007743 0.000000
# 2 -0.010318 0.028761 -0.009239 0.000000 -0.002372 0.000000
# 3 -0.001688 -0.009239 0.013407 0.000000 0.002718 0.000000
# 4 0.000000 0.000000 0.000000 0.028772 0.000000 0.002100
# 5 0.007743 -0.002372 0.002718 0.000000 0.041128 0.000000
# 6 0.000000 0.000000 0.000000 0.002100 0.000000 0.035704
#
#
# Mechanical properties :
#
#
# Convention : Reuss Voigt Hill
#
# Bulk Modulus (GPa) = 55.11835 64.44075 59.77955
# Shear Modulus (GPa) = 23.28002 27.06381 25.17191
#
# Velocity S-wave (km/s) = 3.50614 3.78035 3.64583
# Velocity P-wave (km/s) = 6.74507 7.28579 7.02064
#
# Compressibility (1/GPa) = 0.01814278
#
# Stress axis : x y z
#
# Youngs Moduli (GPa) = 54.15478 34.76976 74.58598
#
# Poissons Ratio (x) = 0.35875 0.12591
# Poissons Ratio (y) = 0.55876 0.68913
# Poissons Ratio (z) = 0.09142 0.32125
#
# Static dielectric constant tensor:
#      x y z
#    x 3.370130 0.000000 -0.140500 
#    y 0.000000 3.211960 0.000000 
#    z -0.140500 0.000000 3.791380 
# 
# 
# High freq. dielectric constant tensor:
#      x y z
#    x 1.736880 0.000000 -0.006520 
#    y 0.000000 1.731330 0.000000 
#    z -0.006520 0.000000 1.745560 
# 
# From -- ./inp_files/187586.got.cif
#   From: 2010.06.25/outbox.cif.g09.slc.cpg/sg12_94_cif.got.tgz:187586.got - 2010.06.28 00:19:55.
