data_PCOD8099489
_publ_section_title
;
Structure prediction by ZEFSAII (Michael W. Deem and Ramdas Pophale) SiO2 
 PCOD8099489
Probable space group: C 2/M
;
_chemical_formula_sum "Si O2"
_cell_formula_units_Z 64
_cell_length_a 9.902120
_cell_length_b 18.506313
_cell_length_c 18.737444
_cell_angle_alpha 90.000000
_cell_angle_beta 97.628922
_cell_angle_gamma 90.000000
_cell_volume 3403.276472
_symmetry_space_group_name_H-M "C 2/M"
_symmetry_group_IT_number 12
_symmetry_cell_setting 'monoclinic'
loop_
_space_group_symop_operation_xyz
x,y,z
-x,y,-z
-x,-y,-z
x,-y,z
1/2+x,1/2+y,z
1/2-x,1/2+y,-z
1/2-x,1/2-y,-z
1/2+x,1/2-y,z
loop_
_atom_site_type_symbol
_atom_site_label
_atom_site_fract_x
_atom_site_fract_y
_atom_site_fract_z
Si Si1 0.493602 0.414135 0.418233
Si Si2 0.626201 0.834105 0.050110
Si Si3 0.921876 0.318159 0.796645
Si Si4 0.248821 0.325457 0.806479
Si Si5 0.642661 0.337213 0.034747
Si Si6 0.510464 0.081801 0.576854
Si Si7 0.717854 0.082160 0.330065
Si Si8 0.729421 0.585466 0.329338
O O1 0.500000 0.382683 0.500000
O O2 0.485595 0.500000 0.422789
O O3 0.363892 0.386049 0.363605
O O4 0.621747 0.387397 0.380954
O O5 0.611360 0.857617 0.131039
O O6 0.627296 0.748311 0.040340
O O7 0.500000 0.868907 0.000000
O O8 0.762014 0.864073 0.023153
O O9 0.839153 0.243625 0.791683
O O10 0.859446 0.368621 0.731816
O O11 0.085897 0.306985 0.798622
O O12 0.297580 0.361811 0.884453
O O13 0.291145 0.383334 0.750453
O O14 0.500000 0.372234 0.000000
O O15 0.500000 0.122417 0.500000
O O16 0.364434 0.083592 0.602333
O O17 0.625450 0.117324 0.634518
O O18 0.561641 0.000000 0.566501
O O19 0.727268 0.000000 0.300862
O O20 0.723399 0.500000 0.320341
#
# Coordination Sequence:
#
# PCOD8099489 Si02
#       8
#     8   8   8   8   8   8   8   8
#     4   9  18  33  55  84 111 137 178 229 271 311
#     4   9  16  30  49  73 103 134 177 223 264 305
#     4  11  23  35  55  81 111 144 178 224 271 322
#     4  11  23  36  54  82 112 142 179 222 272 323
#     4   9  18  30  51  77 104 135 179 224 265 308
#     4   9  16  29  53  81 102 129 178 228 261 298
#     4  10  20  35  56  81 109 141 177 220 269 319
#     4  10  20  35  57  81 109 144 178 219 271 322
#
# _framework density 18.805408
#
# number of rings (size 3 to 8) (size 9 to 14) (size 15 to 20)
#    0.000    2.250    2.500    0.750    7.000    3.000 
#    0.000    0.000    0.000    6.000    0.000    0.000 
#    0.000    0.000    0.000    0.000    0.000    0.000 
#
# Total GULP energy -396485.757421 kJ/mol
# GULP energy per Si atom -12390.179919 kJ/mol
# Density = 1.876261 g / cm^3
# Si number density = 18.805408 Si / 1000 Ang^3
#
#
#
# Elastic Constant Matrix: (Units=GPa)
#
#
# Indices 1 2 3 4 5 6 
#
# 1 132.7438 22.1101 53.1931 0.0000 0.0753 0.0000
# 2 22.1101 25.8061 31.2821 0.0000 0.2048 0.0000
# 3 53.1931 31.2821 141.4743 0.0000 -1.5108 0.0000
# 4 0.0000 0.0000 0.0000 24.0661 0.0000 2.0572
# 5 0.0753 0.2048 -1.5108 0.0000 38.5514 0.0000
# 6 0.0000 0.0000 0.0000 2.0572 0.0000 15.9278
#
#
#
# Elastic Compliance Matrix: (Units=1/GPa)
#
#
# Indices 1 2 3 4 5 6 
#
# 1 0.009340 -0.005114 -0.002382 0.000000 -0.000084 0.000000
# 2 -0.005114 0.055762 -0.010414 0.000000 -0.000694 0.000000
# 3 -0.002382 -0.010414 0.010272 0.000000 0.000463 0.000000
# 4 0.000000 0.000000 0.000000 0.042016 0.000000 -0.005427
# 5 -0.000084 -0.000694 0.000463 0.000000 0.025961 0.000000
# 6 0.000000 0.000000 0.000000 -0.005427 0.000000 0.063484
#
#
# Mechanical properties :
#
#
# Convention : Reuss Voigt Hill
#
# Bulk Modulus (GPa) = 25.28264 57.02165 41.15215
# Shear Modulus (GPa) = 19.54349 28.60499 24.07424
#
# Velocity S-wave (km/s) = 3.22723 3.90437 3.58184
# Velocity P-wave (km/s) = 5.23070 7.12132 6.24794
#
# Compressibility (1/GPa) = 0.03955283
#
# Stress axis : x y z
#
# Youngs Moduli (GPa) = 107.07125 17.93331 97.35554
#
# Poissons Ratio (x) = 0.09171 0.23187
# Poissons Ratio (y) = 0.54759 1.01390
# Poissons Ratio (z) = 0.25501 0.18676
#
# Static dielectric constant tensor:
#      x y z
#    x 3.814480 0.000000 0.081730 
#    y 0.000000 2.811720 0.000000 
#    z 0.081730 0.000000 3.734400 
# 
# 
# High freq. dielectric constant tensor:
#      x y z
#    x 1.753130 0.000000 0.000790 
#    y 0.000000 1.656300 0.000000 
#    z 0.000790 0.000000 1.750200 
# 
# From -- ./inp_files/251924.got.cif
#   From: 2010.06.25/outbox.cif.g09.slc.cpg/sg12_126_cif.got.tgz:251924.got - 2010.06.28 00:19:55.
