data_PCOD8099910
_publ_section_title
;
Structure prediction by ZEFSAII (Michael W. Deem and Ramdas Pophale) SiO2 
 PCOD8099910
Probable space group: C 2/M
;
_chemical_formula_sum "Si O2"
_cell_formula_units_Z 44
_cell_length_a 17.899285
_cell_length_b 16.560094
_cell_length_c 12.707763
_cell_angle_alpha 90.000000
_cell_angle_beta 140.455923
_cell_angle_gamma 90.000000
_cell_volume 2398.187243
_symmetry_space_group_name_H-M "C 2/M"
_symmetry_group_IT_number 12
_symmetry_cell_setting 'monoclinic'
loop_
_space_group_symop_operation_xyz
x,y,z
-x,y,-z
-x,-y,-z
x,-y,z
1/2+x,1/2+y,z
1/2-x,1/2+y,-z
1/2-x,1/2-y,-z
1/2+x,1/2-y,z
loop_
_atom_site_type_symbol
_atom_site_label
_atom_site_fract_x
_atom_site_fract_y
_atom_site_fract_z
Si Si1 0.861079 0.593977 0.367811
Si Si2 0.000000 0.182548 0.500000
Si Si3 0.216092 0.824738 0.388676
Si Si4 0.128795 0.301778 0.155241
Si Si5 0.287708 0.234605 0.159677
Si Si6 0.823888 0.092528 0.457270
O O1 0.822514 0.500000 0.326999
O O2 0.825149 0.637440 0.439857
O O3 0.789866 0.639733 0.196003
O O4 0.000000 0.601466 0.500000
O O5 0.082853 0.235813 0.665050
O O6 0.073078 0.128554 0.499910
O O7 0.250000 0.750000 0.500000
O O8 0.123139 0.785728 0.206841
O O9 0.154123 0.892626 0.393820
O O10 0.191311 0.288842 0.112470
O O11 0.198084 0.368531 0.296664
O O12 0.000000 0.336966 0.000000
O O13 0.250000 0.250000 0.000000
O O14 0.817071 0.000000 0.422825
#
# Coordination Sequence:
#
# PCOD8099910 Si02
#       6
#     8   4   8   8   8   8
#     4  10  20  36  59  89 124 151 192 262 313 349
#     4  10  21  38  57  86 116 154 204 246 289 362
#     4   9  19  34  56  82 110 152 196 230 287 362
#     4   9  20  35  53  81 111 144 192 245 282 342
#     4  10  21  36  60  83 114 159 200 237 291 367
#     4  10  20  35  57  83 113 153 191 240 300 352
#
# _framework density 18.347190999999999
#
# number of rings (size 3 to 8) (size 9 to 14) (size 15 to 20)
#    0.000    2.364    0.909    1.909    2.545    1.818 
#    0.000    4.545    0.000    2.727    0.000    0.000 
#    0.000    0.000    0.000    0.000    0.000    0.000 
#
# Total GULP energy -272543.280027 kJ/mol
# GULP energy per Si atom -12388.330910 kJ/mol
# Density = 1.830543 g / cm^3
# Si number density = 18.347191 Si / 1000 Ang^3
#
#
#
# Elastic Constant Matrix: (Units=GPa)
#
#
# Indices 1 2 3 4 5 6 
#
# 1 110.8421 51.6807 53.5242 0.0000 -8.4750 0.0000
# 2 51.6807 125.0639 42.7583 0.0000 -6.4842 0.0000
# 3 53.5242 42.7583 101.4779 0.0000 -8.6137 0.0000
# 4 0.0000 0.0000 0.0000 14.7325 0.0000 -5.5210
# 5 -8.4750 -6.4842 -8.6137 0.0000 37.4916 0.0000
# 6 0.0000 0.0000 0.0000 -5.5210 0.0000 20.8756
#
#
#
# Elastic Compliance Matrix: (Units=1/GPa)
#
#
# Indices 1 2 3 4 5 6 
#
# 1 0.013438 -0.003626 -0.005462 0.000000 0.001156 0.000000
# 2 -0.003626 0.010339 -0.002409 0.000000 0.000415 0.000000
# 3 -0.005462 -0.002409 0.013881 0.000000 0.001538 0.000000
# 4 0.000000 0.000000 0.000000 0.075344 0.000000 0.019926
# 5 0.001156 0.000415 0.001538 0.000000 0.027359 0.000000
# 6 0.000000 0.000000 0.000000 0.019926 0.000000 0.053173
#
#
# Mechanical properties :
#
#
# Convention : Reuss Voigt Hill
#
# Bulk Modulus (GPa) = 68.19013 70.36783 69.27898
# Shear Modulus (GPa) = 22.58184 27.24799 24.91491
#
# Velocity S-wave (km/s) = 3.51209 3.85792 3.68906
# Velocity P-wave (km/s) = 7.32759 7.63423 7.48248
#
# Compressibility (1/GPa) = 0.01466488
#
# Stress axis : x y z
#
# Youngs Moduli (GPa) = 74.41374 96.71814 72.04151
#
# Poissons Ratio (x) = 0.35068 0.39350
# Poissons Ratio (y) = 0.26981 0.17354
# Poissons Ratio (z) = 0.40646 0.23298
#
# Static dielectric constant tensor:
#      x y z
#    x 3.605480 0.000000 -0.146820 
#    y 0.000000 3.533180 0.000000 
#    z -0.146820 0.000000 3.207090 
# 
# 
# High freq. dielectric constant tensor:
#      x y z
#    x 1.728280 0.000000 -0.009750 
#    y 0.000000 1.709560 0.000000 
#    z -0.009750 0.000000 1.686200 
# 
# From -- ./inp_files/158383.got.cif
#   From: 2010.06.25/outbox.cif.g09.slc.cpg/sg12_80_cif.got.tgz:158383.got - 2010.06.28 00:19:55.
