data_PCOD8099467
_publ_section_title
;
Structure prediction by ZEFSAII (Michael W. Deem and Ramdas Pophale) SiO2 
 PCOD8099467
Probable space group: C 2/M
;
_chemical_formula_sum "Si O2"
_cell_formula_units_Z 64
_cell_length_a 12.287286
_cell_length_b 12.835698
_cell_length_c 22.895705
_cell_angle_alpha 90.000000
_cell_angle_beta 108.929017
_cell_angle_gamma 90.000000
_cell_volume 3415.737075
_symmetry_space_group_name_H-M "C 2/M"
_symmetry_group_IT_number 12
_symmetry_cell_setting 'monoclinic'
loop_
_space_group_symop_operation_xyz
x,y,z
-x,y,-z
-x,-y,-z
x,-y,z
1/2+x,1/2+y,z
1/2-x,1/2+y,-z
1/2-x,1/2-y,-z
1/2+x,1/2-y,z
loop_
_atom_site_type_symbol
_atom_site_label
_atom_site_fract_x
_atom_site_fract_y
_atom_site_fract_z
Si Si1 0.029188 0.878171 0.764626
Si Si2 0.819753 0.618408 0.446513
Si Si3 0.232685 0.378579 0.257647
Si Si4 0.620449 0.296249 0.043833
Si Si5 0.959459 0.275077 0.851028
Si Si6 0.951034 0.617956 0.582516
Si Si7 0.849086 0.618192 0.040433
Si Si8 0.645881 0.258696 0.342568
O O1 0.151166 0.851462 0.756687
O O2 0.019062 0.814156 0.822682
O O3 0.924716 0.846285 0.704218
O O4 0.018464 0.000000 0.777231
O O5 0.776764 0.500000 0.445612
O O6 0.866098 0.660052 0.516783
O O7 0.716195 0.688591 0.406707
O O8 0.918639 0.624738 0.415459
O O9 0.229193 0.500000 0.274219
O O10 0.121206 0.351607 0.199819
O O11 0.229464 0.307991 0.315173
O O12 0.616932 0.280512 0.112657
O O13 0.721904 0.375204 0.045780
O O14 0.500000 0.344220 0.000000
O O15 0.642188 0.184277 0.017297
O O16 0.060324 0.343511 0.896063
O O17 0.916903 0.500000 0.591052
O O18 0.942626 0.681985 0.640749
O O19 0.875295 0.500000 0.027682
#
# Coordination Sequence:
#
# PCOD8099467 Si02
#       8
#     8   8   8   8   8   8   8   8
#     4  10  22  37  52  73 102 135 170 210 255 300
#     4   9  18  32  50  73 101 132 166 205 251 303
#     4  10  21  35  51  73 101 133 169 211 257 298
#     4   9  20  36  53  80 110 134 165 204 250 300
#     4  10  20  36  56  75 100 135 174 210 245 294
#     4   9  18  32  50  74 102 131 165 206 252 302
#     4  10  20  35  56  81 107 134 167 206 247 296
#     4  11  19  32  53  75  99 131 170 210 252 301
#
# _framework density 18.736806000000001
#
# number of rings (size 3 to 8) (size 9 to 14) (size 15 to 20)
#    0.000    2.250    0.000    3.750    0.000    3.500 
#    0.000    7.500    0.000    8.250    0.000   10.500 
#    0.000    0.000    0.000    0.000    0.000    0.000 
#
# Total GULP energy -396845.868717 kJ/mol
# GULP energy per Si atom -12401.433397 kJ/mol
# Density = 1.869416 g / cm^3
# Si number density = 18.736806 Si / 1000 Ang^3
#
#
#
# Elastic Constant Matrix: (Units=GPa)
#
#
# Indices 1 2 3 4 5 6 
#
# 1 84.1565 32.1287 13.7726 0.0000 -7.3664 0.0000
# 2 32.1287 85.7093 24.5722 0.0000 -6.4918 0.0000
# 3 13.7726 24.5722 50.0781 0.0000 -9.1289 0.0000
# 4 0.0000 0.0000 0.0000 22.6407 0.0000 1.1847
# 5 -7.3664 -6.4918 -9.1289 0.0000 30.8739 0.0000
# 6 0.0000 0.0000 0.0000 1.1847 0.0000 21.6840
#
#
#
# Elastic Compliance Matrix: (Units=1/GPa)
#
#
# Indices 1 2 3 4 5 6 
#
# 1 0.014078 -0.004794 -0.001153 0.000000 0.002010 0.000000
# 2 -0.004794 0.015236 -0.006111 0.000000 0.000253 0.000000
# 3 -0.001153 -0.006111 0.024310 0.000000 0.005628 0.000000
# 4 0.000000 0.000000 0.000000 0.044295 0.000000 -0.002420
# 5 0.002010 0.000253 0.005628 0.000000 0.034587 0.000000
# 6 0.000000 0.000000 0.000000 -0.002420 0.000000 0.046249
#
#
# Mechanical properties :
#
#
# Convention : Reuss Voigt Hill
#
# Bulk Modulus (GPa) = 33.89015 40.09898 36.99456
# Shear Modulus (GPa) = 23.50654 25.00442 24.25548
#
# Velocity S-wave (km/s) = 3.54583 3.65706 3.60187
# Velocity P-wave (km/s) = 5.90683 6.26735 6.08976
#
# Compressibility (1/GPa) = 0.02950710
#
# Stress axis : x y z
#
# Youngs Moduli (GPa) = 71.03504 65.63526 41.13453
#
# Poissons Ratio (x) = 0.31468 0.04742
# Poissons Ratio (y) = 0.34057 0.25138
# Poissons Ratio (z) = 0.08189 0.40111
#
# Static dielectric constant tensor:
#      x y z
#    x 3.473090 0.000000 -0.032940 
#    y 0.000000 3.289880 0.000000 
#    z -0.032940 0.000000 3.376980 
# 
# 
# High freq. dielectric constant tensor:
#      x y z
#    x 1.733890 0.000000 -0.002680 
#    y 0.000000 1.721660 0.000000 
#    z -0.002680 0.000000 1.729310 
# 
# From -- ./inp_files/335211.got.cif
#   From: 2010.06.25/outbox.cif.g09.slc.cpg/sg12_168_cif.got.tgz:335211.got - 2010.06.28 00:19:55.
