data_PCOD8099222
_publ_section_title
;
Structure prediction by ZEFSAII (Michael W. Deem and Ramdas Pophale) SiO2 
 PCOD8099222
Probable space group: C 2/M
;
_chemical_formula_sum "Si O2"
_cell_formula_units_Z 56
_cell_length_a 19.188777
_cell_length_b 8.735449
_cell_length_c 26.651484
_cell_angle_alpha 90.000000
_cell_angle_beta 140.423979
_cell_angle_gamma 90.000000
_cell_volume 2846.181084
_symmetry_space_group_name_H-M "C 2/M"
_symmetry_group_IT_number 12
_symmetry_cell_setting 'monoclinic'
loop_
_space_group_symop_operation_xyz
x,y,z
-x,y,-z
-x,-y,-z
x,-y,z
1/2+x,1/2+y,z
1/2-x,1/2+y,-z
1/2-x,1/2-y,-z
1/2+x,1/2-y,z
loop_
_atom_site_type_symbol
_atom_site_label
_atom_site_fract_x
_atom_site_fract_y
_atom_site_fract_z
Si Si1 0.715123 0.680534 0.748491
Si Si2 0.357498 0.181397 0.083650
Si Si3 0.596378 0.679596 0.784115
Si Si4 0.639080 0.321160 0.319315
Si Si5 0.974707 0.819390 0.429795
Si Si6 0.315335 0.181424 0.491058
Si Si7 0.921701 0.817977 0.821805
O O1 0.732202 0.500000 0.758813
O O2 0.656626 0.735790 0.767182
O O3 0.642573 0.728155 0.659070
O O4 0.833754 0.761638 0.814012
O O5 0.360289 0.231187 0.143288
O O6 0.458385 0.244977 0.105957
O O7 0.356446 0.000000 0.079511
O O8 0.250000 0.250000 0.000000
O O9 0.615485 0.500000 0.804426
O O10 0.467273 0.715812 0.705521
O O11 0.650994 0.500000 0.318840
O O12 0.749800 0.257750 0.405558
O O13 0.624500 0.250403 0.256275
O O14 0.000000 0.755725 0.500000
O O15 0.063057 0.745761 0.441817
O O16 0.989226 0.000000 0.436545
O O17 0.250000 0.250000 0.500000
O O18 0.316507 0.000000 0.495524
O O19 0.933667 0.000000 0.830533
#
# Coordination Sequence:
#
# PCOD8099222 Si02
#       7
#     8   8   8   8   8   8   8
#     4  10  20  35  55  80 113 150 186 228 278 328
#     4  11  22  39  63  89 115 141 175 216 264 323
#     4   9  18  35  57  80 110 147 184 223 273 327
#     4   8  16  32  52  72  99 140 184 226 273 325
#     4  10  21  36  53  76 109 148 190 236 283 328
#     4  11  21  33  50  73 103 140 185 234 283 330
#     4  10  20  36  58  82 109 142 181 222 266 320
#
# _framework density 19.675488000000001
#
# number of rings (size 3 to 8) (size 9 to 14) (size 15 to 20)
#    0.000    2.143    0.000    4.714    0.000    3.714 
#    0.000   10.000    0.000    4.286    0.000    0.000 
#    0.000    0.000    0.000    0.000    0.000    0.000 
#
# Total GULP energy -347078.538540 kJ/mol
# GULP energy per Si atom -12395.662091 kJ/mol
# Density = 1.963071 g / cm^3
# Si number density = 19.675488 Si / 1000 Ang^3
#
#
#
# Elastic Constant Matrix: (Units=GPa)
#
#
# Indices 1 2 3 4 5 6 
#
# 1 105.4723 35.3847 24.7010 0.0000 20.5960 0.0000
# 2 35.3847 59.9520 35.3364 0.0000 9.5542 0.0000
# 3 24.7010 35.3364 92.9069 0.0000 20.5465 0.0000
# 4 0.0000 0.0000 0.0000 25.8580 0.0000 4.2893
# 5 20.5960 9.5542 20.5465 0.0000 30.6948 0.0000
# 6 0.0000 0.0000 0.0000 4.2893 0.0000 33.6460
#
#
#
# Elastic Compliance Matrix: (Units=1/GPa)
#
#
# Indices 1 2 3 4 5 6 
#
# 1 0.013039 -0.007021 0.000769 0.000000 -0.007078 0.000000
# 2 -0.007021 0.025334 -0.008295 0.000000 0.002378 0.000000
# 3 0.000769 -0.008295 0.015560 0.000000 -0.008350 0.000000
# 4 0.000000 0.000000 0.000000 0.039508 0.000000 -0.005037
# 5 -0.007078 0.002378 -0.008350 0.000000 0.042178 0.000000
# 6 0.000000 0.000000 0.000000 -0.005037 0.000000 0.030363
#
#
# Mechanical properties :
#
#
# Convention : Reuss Voigt Hill
#
# Bulk Modulus (GPa) = 40.25764 49.90837 45.08300
# Shear Modulus (GPa) = 24.58747 28.90037 26.74392
#
# Velocity S-wave (km/s) = 3.53887 3.83672 3.69080
# Velocity P-wave (km/s) = 6.09946 6.71178 6.41293
#
# Compressibility (1/GPa) = 0.02484001
#
# Stress axis : x y z
#
# Youngs Moduli (GPa) = 76.69473 39.47258 64.26545
#
# Poissons Ratio (x) = 0.27714 -0.04943
# Poissons Ratio (y) = 0.53847 0.53307
# Poissons Ratio (z) = -0.05899 0.32742
#
# Static dielectric constant tensor:
#      x y z
#    x 3.620900 0.000000 0.219180 
#    y 0.000000 3.363460 0.000000 
#    z 0.219180 0.000000 3.294660 
# 
# 
# High freq. dielectric constant tensor:
#      x y z
#    x 1.772020 0.000000 0.011530 
#    y 0.000000 1.752440 0.000000 
#    z 0.011530 0.000000 1.759940 
# 
# From -- ./inp_files/363220.got.cif
#   From: 2010.06.25/outbox.cif.g09.slc.cpg/sg12_182_cif.got.tgz:363220.got - 2010.06.28 00:19:55.
