data_PCOD8099314
_publ_section_title
;
Structure prediction by ZEFSAII (Michael W. Deem and Ramdas Pophale) SiO2 
 PCOD8099314
Probable space group: C 2/M
;
_chemical_formula_sum "Si O2"
_cell_formula_units_Z 64
_cell_length_a 15.486545
_cell_length_b 8.737135
_cell_length_c 28.360802
_cell_angle_alpha 90.000000
_cell_angle_beta 57.161125
_cell_angle_gamma 90.000000
_cell_volume 3224.216397
_symmetry_space_group_name_H-M "C 2/M"
_symmetry_group_IT_number 12
_symmetry_cell_setting 'monoclinic'
loop_
_space_group_symop_operation_xyz
x,y,z
-x,y,-z
-x,-y,-z
x,-y,z
1/2+x,1/2+y,z
1/2-x,1/2+y,-z
1/2-x,1/2-y,-z
1/2+x,1/2-y,z
loop_
_atom_site_type_symbol
_atom_site_label
_atom_site_fract_x
_atom_site_fract_y
_atom_site_fract_z
Si Si1 0.856795 0.319620 0.177450
Si Si2 0.464506 0.680048 0.824955
Si Si3 0.281735 0.681202 0.440835
Si Si4 0.088651 0.318488 0.439699
Si Si5 0.364375 0.178279 0.763652
Si Si6 0.088737 0.319069 0.940872
Si Si7 0.498662 0.821391 0.632745
Si Si8 0.778786 0.179400 0.942190
O O1 0.835018 0.500000 0.184925
O O2 0.750535 0.231100 0.213034
O O3 0.916869 0.268415 0.111938
O O4 0.928555 0.269731 0.199819
O O5 0.485612 0.500000 0.818312
O O6 0.412827 0.725252 0.791416
O O7 0.390425 0.727877 0.890362
O O8 0.279336 0.500000 0.446116
O O9 0.250000 0.750000 0.500000
O O10 0.200072 0.737994 0.425219
O O11 0.394228 0.734564 0.392305
O O12 0.086150 0.500000 0.441352
O O13 0.064628 0.259548 0.393959
O O14 0.000000 0.252093 0.500000
O O15 0.430175 0.213937 0.698095
O O16 0.365454 0.000000 0.776518
O O17 0.079613 0.500000 0.947015
O O18 0.197946 0.260811 0.927528
O O19 0.000000 0.243882 0.000000
O O20 0.523451 0.000000 0.619492
O O21 0.770035 0.000000 0.950652
O O22 0.750000 0.250000 0.000000
#
# Coordination Sequence:
#
# PCOD8099314 Si02
#       8
#     8   8   8   8   8   8   8   8
#     4  11  22  40  65  90 121 161 206 258 312 371
#     4  11  23  41  63  88 123 164 209 256 308 374
#     4  11  21  35  60  91 123 163 204 247 303 360
#     4   9  17  34  60  85 117 160 196 234 295 359
#     4  11  24  42  64  90 124 166 210 258 312 370
#     4   9  17  32  55  83 117 153 192 243 308 369
#     4  10  22  41  62  88 121 158 204 252 298 361
#     4  10  20  35  55  85 120 157 197 250 311 370
#
# _framework density 19.849785000000001
#
# number of rings (size 3 to 8) (size 9 to 14) (size 15 to 20)
#    0.000    1.750    2.500    2.250    0.000    4.000 
#    0.000    3.125    0.000    2.625    0.000    0.000 
#    0.000    0.000    0.000    0.000    0.000    0.000 
#
# Total GULP energy -396792.156949 kJ/mol
# GULP energy per Si atom -12399.754905 kJ/mol
# Density = 1.980461 g / cm^3
# Si number density = 19.849785 Si / 1000 Ang^3
#
#
#
# Elastic Constant Matrix: (Units=GPa)
#
#
# Indices 1 2 3 4 5 6 
#
# 1 149.7114 24.4033 50.8306 0.0000 -11.1097 0.0000
# 2 24.4033 37.8363 34.4547 0.0000 -2.1119 -0.0001
# 3 50.8306 34.4547 111.8770 0.0000 -5.6575 0.0000
# 4 0.0000 0.0000 0.0000 26.1614 0.0000 -1.4256
# 5 -11.1097 -2.1119 -5.6575 0.0000 31.8910 0.0000
# 6 0.0000 -0.0001 0.0000 -1.4256 0.0000 31.7955
#
#
#
# Elastic Compliance Matrix: (Units=1/GPa)
#
#
# Indices 1 2 3 4 5 6 
#
# 1 0.008226 -0.002614 -0.002822 0.000000 0.002192 0.000000
# 2 -0.002614 0.037567 -0.010395 0.000000 -0.000267 0.000000
# 3 -0.002822 -0.010395 0.013458 0.000000 0.000716 0.000000
# 4 0.000000 0.000000 0.000000 0.038318 0.000000 0.001718
# 5 0.002192 -0.000267 0.000716 0.000000 0.032230 0.000000
# 6 0.000000 0.000000 0.000000 0.001718 0.000000 0.031528
#
#
# Mechanical properties :
#
#
# Convention : Reuss Voigt Hill
#
# Bulk Modulus (GPa) = 36.24578 57.64465 46.94521
# Shear Modulus (GPa) = 24.72978 30.61865 27.67422
#
# Velocity S-wave (km/s) = 3.53348 3.93175 3.73793
# Velocity P-wave (km/s) = 5.91160 7.05089 6.50623
#
# Compressibility (1/GPa) = 0.02758942
#
# Stress axis : x y z
#
# Youngs Moduli (GPa) = 121.56139 26.61916 74.30471
#
# Poissons Ratio (x) = 0.06958 0.20967
# Poissons Ratio (y) = 0.31774 0.77243
# Poissons Ratio (z) = 0.34301 0.27672
#
# Static dielectric constant tensor:
#      x y z
#    x 4.032390 0.000000 -0.042400 
#    y 0.000000 3.386160 0.000000 
#    z -0.042400 0.000000 3.707450 
# 
# 
# High freq. dielectric constant tensor:
#      x y z
#    x 1.792010 0.000000 -0.002490 
#    y 0.000000 1.751670 0.000000 
#    z -0.002490 0.000000 1.774720 
# 
# From -- ./inp_files/375476.got.cif
#   From: 2010.06.25/outbox.cif.g09.slc.cpg/sg12_188_cif.got.tgz:375476.got - 2010.06.28 00:19:55.
