data_PCOD8099100
_publ_section_title
;
Structure prediction by ZEFSAII (Michael W. Deem and Ramdas Pophale) SiO2 
 PCOD8099100
Probable space group: C 2/M
;
_chemical_formula_sum "Si O2"
_cell_formula_units_Z 64
_cell_length_a 19.778327
_cell_length_b 9.322247
_cell_length_c 23.952484
_cell_angle_alpha 90.000000
_cell_angle_beta 50.919085
_cell_angle_gamma 90.000000
_cell_volume 3428.198285
_symmetry_space_group_name_H-M "C 2/M"
_symmetry_group_IT_number 12
_symmetry_cell_setting 'monoclinic'
loop_
_space_group_symop_operation_xyz
x,y,z
-x,y,-z
-x,-y,-z
x,-y,z
1/2+x,1/2+y,z
1/2-x,1/2+y,-z
1/2-x,1/2-y,-z
1/2+x,1/2-y,z
loop_
_atom_site_type_symbol
_atom_site_label
_atom_site_fract_x
_atom_site_fract_y
_atom_site_fract_z
Si Si1 0.766756 0.170199 0.701457
Si Si2 0.586639 0.834960 0.076499
Si Si3 0.606280 0.834746 0.859044
Si Si4 0.244439 0.331564 0.588424
Si Si5 0.656770 0.666631 0.937024
Si Si6 0.574780 0.332272 0.307293
Si Si7 0.641214 0.165220 0.170473
Si Si8 0.878114 0.165706 0.424519
O O1 0.683273 0.224461 0.779614
O O2 0.761724 0.231064 0.641219
O O3 0.854660 0.227728 0.685127
O O4 0.767944 0.000000 0.698142
O O5 0.483048 0.815340 0.127663
O O6 0.617471 0.782589 0.120924
O O7 0.613346 0.000000 0.051539
O O8 0.635911 0.735376 0.007214
O O9 0.600168 0.743190 0.918751
O O10 0.622626 0.000000 0.867259
O O11 0.225427 0.500000 0.599866
O O12 0.159119 0.256858 0.607534
O O13 0.329000 0.294032 0.507344
O O14 0.631980 0.500000 0.951889
O O15 0.757488 0.691408 0.870493
O O16 0.589377 0.500000 0.289687
O O17 0.584786 0.256389 0.242781
O O18 0.479373 0.298301 0.381138
O O19 0.615346 0.000000 0.191479
O O20 0.863986 0.000000 0.416668
#
# Coordination Sequence:
#
# PCOD8099100 Si02
#       8
#     8   8   8   8   8   8   8   8
#     4   9  18  33  55  80 103 139 184 219 256 306
#     4  10  22  37  56  79 103 137 180 223 262 312
#     4  10  20  36  56  78 105 138 180 221 259 311
#     4   9  18  34  57  81 109 144 179 216 258 309
#     4  11  22  37  56  79 108 138 172 218 271 323
#     4  10  20  35  55  78 108 142 177 220 266 312
#     4  10  22  38  55  79 107 138 179 221 263 315
#     4   9  19  34  53  83 114 140 174 217 266 312
#
# _framework density 18.668699
#
# number of rings (size 3 to 8) (size 9 to 14) (size 15 to 20)
#    0.000    2.250    1.250    1.125    1.750    4.000 
#    0.000    3.750    0.000    0.000    0.000    4.375 
#    0.000    0.000    0.000    0.000    0.000    0.000 
#
# Total GULP energy -396920.873094 kJ/mol
# GULP energy per Si atom -12403.777284 kJ/mol
# Density = 1.862621 g / cm^3
# Si number density = 18.668699 Si / 1000 Ang^3
#
#
#
# Elastic Constant Matrix: (Units=GPa)
#
#
# Indices 1 2 3 4 5 6 
#
# 1 71.7610 29.1116 30.2556 0.0000 15.7001 -0.0001
# 2 29.1116 51.8087 34.1238 0.0000 6.0250 -0.0003
# 3 30.2556 34.1238 87.4943 0.0000 12.9172 -0.0001
# 4 0.0000 0.0000 0.0000 27.4247 0.0000 1.9703
# 5 15.7001 6.0250 12.9172 0.0000 37.3226 0.0001
# 6 -0.0001 -0.0003 -0.0001 1.9703 0.0001 24.8325
#
#
#
# Elastic Compliance Matrix: (Units=1/GPa)
#
#
# Indices 1 2 3 4 5 6 
#
# 1 0.019910 -0.008797 -0.002558 0.000000 -0.006070 0.000000
# 2 -0.008797 0.029879 -0.008900 0.000000 0.001957 0.000000
# 3 -0.002558 -0.008900 0.016244 0.000000 -0.003109 0.000000
# 4 0.000000 0.000000 0.000000 0.036673 0.000000 -0.002910
# 5 -0.006070 0.001957 -0.003109 0.000000 0.030107 0.000000
# 6 0.000000 0.000000 0.000000 -0.002910 0.000000 0.040501
#
#
# Mechanical properties :
#
#
# Convention : Reuss Voigt Hill
#
# Bulk Modulus (GPa) = 39.17976 44.22732 41.70354
# Shear Modulus (GPa) = 22.48885 25.75416 24.12151
#
# Velocity S-wave (km/s) = 3.47454 3.71824 3.59846
# Velocity P-wave (km/s) = 6.09336 6.49429 6.29702
#
# Compressibility (1/GPa) = 0.02552338
#
# Stress axis : x y z
#
# Youngs Moduli (GPa) = 50.22512 33.46783 61.56078
#
# Poissons Ratio (x) = 0.29442 0.15747
# Poissons Ratio (y) = 0.44183 0.54791
# Poissons Ratio (z) = 0.12847 0.29787
#
# Static dielectric constant tensor:
#      x y z
#    x 3.556570 0.000000 0.012830 
#    y 0.000000 3.255040 0.000000 
#    z 0.012830 0.000000 3.475210 
# 
# 
# High freq. dielectric constant tensor:
#      x y z
#    x 1.734030 0.000000 -0.001460 
#    y 0.000000 1.704430 0.000000 
#    z -0.001460 0.000000 1.728720 
# 
# From -- ./inp_files/346030.got.cif
#   From: 2010.06.25/outbox.cif.g09.slc.cpg/sg12_174_cif.got.tgz:346030.got - 2010.06.28 00:19:55.
