data_PCOD8099473
_publ_section_title
;
Structure prediction by ZEFSAII (Michael W. Deem and Ramdas Pophale) SiO2 
 PCOD8099473
Probable space group: C 2/M
;
_chemical_formula_sum "Si O2"
_cell_formula_units_Z 48
_cell_length_a 30.528544
_cell_length_b 9.122685
_cell_length_c 9.303199
_cell_angle_alpha 90.000000
_cell_angle_beta 90.324298
_cell_angle_gamma 90.000000
_cell_volume 2590.920727
_symmetry_space_group_name_H-M "C 2/M"
_symmetry_group_IT_number 12
_symmetry_cell_setting 'monoclinic'
loop_
_space_group_symop_operation_xyz
x,y,z
-x,y,-z
-x,-y,-z
x,-y,z
1/2+x,1/2+y,z
1/2-x,1/2+y,-z
1/2-x,1/2-y,-z
1/2+x,1/2-y,z
loop_
_atom_site_type_symbol
_atom_site_label
_atom_site_fract_x
_atom_site_fract_y
_atom_site_fract_z
Si Si1 0.539564 0.671540 0.599478
Si Si2 0.539471 0.170363 0.902009
Si Si3 0.211614 0.167960 0.079964
Si Si4 0.882847 0.827372 0.608497
Si Si5 0.285920 0.336011 0.586340
Si Si6 0.621715 0.171872 0.100466
O O1 0.500000 0.729418 0.500000
O O2 0.534633 0.500000 0.627571
O O3 0.538726 0.749352 0.751068
O O4 0.584509 0.710239 0.519403
O O5 0.532121 0.000000 0.871412
O O6 0.500000 0.231113 0.000000
O O7 0.585571 0.201163 0.978887
O O8 0.224287 0.174271 0.246269
O O9 0.165814 0.248739 0.048932
O O10 0.207687 0.000000 0.026704
O O11 0.250000 0.250000 0.000000
O O12 0.834720 0.774649 0.557061
O O13 0.896493 0.739437 0.751409
O O14 0.882412 0.000000 0.647994
O O15 0.283104 0.500000 0.528498
O O16 0.250000 0.250000 0.500000
O O17 0.630841 0.000000 0.122456
#
# Coordination Sequence:
#
# PCOD8099473 Si02
#       6
#     8   8   8   8   8   8
#     4  10  21  36  56  82 108 137 178 224 269 322
#     4  10  22  38  55  79 111 144 180 223 270 323
#     4  10  21  37  56  80 110 143 180 223 270 320
#     4   9  19  36  54  76 107 139 174 219 269 318
#     4   9  19  34  52  75 104 137 173 214 259 310
#     4  10  20  35  56  81 107 140 183 224 267 322
#
# _framework density 18.526233000000001
#
# number of rings (size 3 to 8) (size 9 to 14) (size 15 to 20)
#    0.000    2.333    0.000    3.000    0.000    7.333 
#    0.000    3.333    0.000    0.000    0.000    0.000 
#    0.000    0.000    0.000    0.000    0.000    0.000 
#
# Total GULP energy -297636.684463 kJ/mol
# GULP energy per Si atom -12401.528519 kJ/mol
# Density = 1.848407 g / cm^3
# Si number density = 18.526233 Si / 1000 Ang^3
#
#
#
# Elastic Constant Matrix: (Units=GPa)
#
#
# Indices 1 2 3 4 5 6 
#
# 1 127.3546 61.5800 85.1378 0.0000 -6.5124 0.0000
# 2 61.5800 91.5515 66.2256 0.0000 0.4871 0.0000
# 3 85.1378 66.2256 131.0432 0.0000 -3.3047 0.0000
# 4 0.0000 0.0000 0.0000 39.0285 0.0000 0.6121
# 5 -6.5124 0.4871 -3.3047 0.0000 35.8906 0.0000
# 6 0.0000 0.0000 0.0000 0.6121 0.0000 31.2533
#
#
#
# Elastic Compliance Matrix: (Units=1/GPa)
#
#
# Indices 1 2 3 4 5 6 
#
# 1 0.015291 -0.004965 -0.007371 0.000000 0.002163 0.000000
# 2 -0.004965 0.018867 -0.006353 0.000000 -0.001742 0.000000
# 3 -0.007371 -0.006353 0.015635 0.000000 0.000188 0.000000
# 4 0.000000 0.000000 0.000000 0.025630 0.000000 -0.000502
# 5 0.002163 -0.001742 0.000188 0.000000 0.028296 0.000000
# 6 0.000000 0.000000 0.000000 -0.000502 0.000000 0.032006
#
#
# Mechanical properties :
#
#
# Convention : Reuss Voigt Hill
#
# Bulk Modulus (GPa) = 80.54276 86.20400 83.37338
# Shear Modulus (GPa) = 28.21001 30.36821 29.28911
#
# Velocity S-wave (km/s) = 3.90642 4.05310 3.98043
# Velocity P-wave (km/s) = 7.99476 8.27860 8.13792
#
# Compressibility (1/GPa) = 0.01241577
#
# Stress axis : x y z
#
# Youngs Moduli (GPa) = 65.39941 53.00158 63.95782
#
# Poissons Ratio (x) = 0.26314 0.47141
# Poissons Ratio (y) = 0.32469 0.40635
# Poissons Ratio (z) = 0.48204 0.33674
#
# Static dielectric constant tensor:
#      x y z
#    x 3.624560 0.000000 -0.127330 
#    y 0.000000 3.468200 0.000000 
#    z -0.127330 0.000000 3.473390 
# 
# 
# High freq. dielectric constant tensor:
#      x y z
#    x 1.734910 0.000000 -0.002650 
#    y 0.000000 1.719400 0.000000 
#    z -0.002650 0.000000 1.714840 
# 
# From -- ./inp_files/108609.got.cif
#   From: 2010.06.25/outbox.cif.g09.slc.cpg/sg12_55_cif.got.tgz:108609.got - 2010.06.28 00:19:55.
