data_PCOD8099510
_publ_section_title
;
Structure prediction by ZEFSAII (Michael W. Deem and Ramdas Pophale) SiO2 
 PCOD8099510
Probable space group: C 2/M
;
_chemical_formula_sum "Si O2"
_cell_formula_units_Z 56
_cell_length_a 18.498098
_cell_length_b 8.795265
_cell_length_c 29.194989
_cell_angle_alpha 90.000000
_cell_angle_beta 37.817184
_cell_angle_gamma 90.000000
_cell_volume 2912.371745
_symmetry_space_group_name_H-M "C 2/M"
_symmetry_group_IT_number 12
_symmetry_cell_setting 'monoclinic'
loop_
_space_group_symop_operation_xyz
x,y,z
-x,y,-z
-x,-y,-z
x,-y,z
1/2+x,1/2+y,z
1/2-x,1/2+y,-z
1/2-x,1/2-y,-z
1/2+x,1/2-y,z
loop_
_atom_site_type_symbol
_atom_site_label
_atom_site_fract_x
_atom_site_fract_y
_atom_site_fract_z
Si Si1 0.872987 0.172081 0.567073
Si Si2 0.795196 0.672874 0.431976
Si Si3 0.674055 0.679391 0.997757
Si Si4 0.593874 0.322733 0.857601
Si Si5 0.485185 0.679385 0.274464
Si Si6 0.767742 0.322358 0.852727
Si Si7 0.840009 0.319315 0.268760
O O1 0.814594 0.179520 0.546938
O O2 0.784213 0.245271 0.648954
O O3 0.000000 0.257499 0.500000
O O4 0.896359 0.000000 0.571443
O O5 0.834444 0.500000 0.421783
O O6 0.750000 0.750000 0.500000
O O7 0.906255 0.761806 0.355872
O O8 0.681456 0.500000 0.998115
O O9 0.723935 0.734385 0.924132
O O10 0.750000 0.750000 0.000000
O O11 0.539402 0.734467 0.069005
O O12 0.598525 0.500000 0.842649
O O13 0.664269 0.287569 0.868617
O O14 0.652157 0.228008 0.787596
O O15 0.474190 0.500000 0.276767
O O16 0.618469 0.726761 0.218536
O O17 0.446843 0.750089 0.244916
O O18 0.799972 0.500000 0.837176
O O19 0.847030 0.500000 0.271107
#
# Coordination Sequence:
#
# PCOD8099510 Si02
#       7
#     8   8   8   8   8   8   8
#     4   8  16  32  53  76 103 137 177 220 266 318
#     4  10  20  35  56  82 112 146 184 229 281 333
#     4  10  21  37  58  82 109 146 186 224 273 333
#     4  10  21  37  57  82 112 145 182 226 278 336
#     4  11  22  37  57  80 109 147 191 234 277 330
#     4  10  21  38  58  81 112 146 182 229 282 332
#     4  10  20  35  56  81 110 145 184 227 278 334
#
# _framework density 19.228314000000001
#
# number of rings (size 3 to 8) (size 9 to 14) (size 15 to 20)
#    0.000    2.143    0.000    4.286    0.000    6.857 
#    0.000    1.429    0.000   17.143    0.000    0.000 
#    0.000    0.000    0.000    0.000    0.000    0.000 
#
# Total GULP energy -347235.563412 kJ/mol
# GULP energy per Si atom -12401.270122 kJ/mol
# Density = 1.918455 g / cm^3
# Si number density = 19.228314 Si / 1000 Ang^3
#
#
#
# Elastic Constant Matrix: (Units=GPa)
#
#
# Indices 1 2 3 4 5 6 
#
# 1 116.9942 43.0242 80.9209 -0.0006 -4.7123 -0.0071
# 2 43.0242 80.7325 47.9773 0.0023 1.2251 -0.0074
# 3 80.9209 47.9773 144.5092 -0.0003 0.3815 0.0011
# 4 -0.0006 0.0023 -0.0003 30.0264 0.0004 3.8619
# 5 -4.7123 1.2251 0.3815 0.0004 43.6559 0.0012
# 6 -0.0071 -0.0074 0.0011 3.8619 0.0012 28.4873
#
#
#
# Elastic Compliance Matrix: (Units=1/GPa)
#
#
# Indices 1 2 3 4 5 6 
#
# 1 0.014918 -0.003750 -0.007113 0.000000 0.001778 0.000003
# 2 -0.003750 0.016380 -0.003336 -0.000002 -0.000835 0.000004
# 3 -0.007113 -0.003336 0.012013 0.000001 -0.000779 -0.000003
# 4 0.000000 -0.000002 0.000001 0.033895 0.000000 -0.004595
# 5 0.001778 -0.000835 -0.000779 0.000000 0.023129 -0.000001
# 6 0.000003 0.000004 -0.000003 -0.004595 -0.000001 0.035726
#
#
# Mechanical properties :
#
#
# Convention : Reuss Voigt Hill
#
# Bulk Modulus (GPa) = 67.05876 76.23117 71.64496
# Shear Modulus (GPa) = 29.51049 31.78816 30.64933
#
# Velocity S-wave (km/s) = 3.92183 4.07036 3.99678
# Velocity P-wave (km/s) = 7.44704 7.86268 7.65768
#
# Compressibility (1/GPa) = 0.01491230
#
# Stress axis : x y z
#
# Youngs Moduli (GPa) = 67.03239 61.04892 83.24303
#
# Poissons Ratio (x) = 0.22892 0.59215
# Poissons Ratio (y) = 0.25136 0.27772
# Poissons Ratio (z) = 0.47683 0.20368
#
# Static dielectric constant tensor:
#      x y z
#    x 3.459150 0.000010 -0.125650 
#    y 0.000010 3.399600 0.000000 
#    z -0.125650 0.000000 3.747330 
# 
# 
# High freq. dielectric constant tensor:
#      x y z
#    x 1.748350 0.000000 -0.002870 
#    y 0.000000 1.731720 0.000000 
#    z -0.002870 0.000000 1.765160 
# 
# From -- ./inp_files/342208.got.cif
#   From: 2010.06.25/outbox.cif.g09.slc.cpg/sg12_172_cif.got.tgz:342208.got - 2010.06.28 00:19:55.
