data_PCOD8099284
_publ_section_title
;
Structure prediction by ZEFSAII (Michael W. Deem and Ramdas Pophale) SiO2 
 PCOD8099284
Probable space group: C 2/M
;
_chemical_formula_sum "Si O2"
_cell_formula_units_Z 64
_cell_length_a 30.047946
_cell_length_b 8.964084
_cell_length_c 14.875914
_cell_angle_alpha 90.000000
_cell_angle_beta 59.270956
_cell_angle_gamma 90.000000
_cell_volume 3444.271823
_symmetry_space_group_name_H-M "C 2/M"
_symmetry_group_IT_number 12
_symmetry_cell_setting 'monoclinic'
loop_
_space_group_symop_operation_xyz
x,y,z
-x,y,-z
-x,-y,-z
x,-y,z
1/2+x,1/2+y,z
1/2-x,1/2+y,-z
1/2-x,1/2-y,-z
1/2+x,1/2-y,z
loop_
_atom_site_type_symbol
_atom_site_label
_atom_site_fract_x
_atom_site_fract_y
_atom_site_fract_z
Si Si1 0.663074 0.822729 0.828658
Si Si2 0.032560 0.171901 0.554811
Si Si3 0.299239 0.324141 0.902768
Si Si4 0.894659 0.675107 0.284177
Si Si5 0.118361 0.325347 0.062087
Si Si6 0.504243 0.172935 0.235824
Si Si7 0.364451 0.823321 0.510886
Si Si8 0.280841 0.325184 0.716948
O O1 0.632848 0.751742 0.774403
O O2 0.722181 0.769759 0.765405
O O3 0.659355 0.000000 0.831934
O O4 0.637091 0.762968 0.946816
O O5 0.085613 0.262324 0.488396
O O6 0.000000 0.198502 0.500000
O O7 0.997640 0.229843 0.672572
O O8 0.046446 0.000000 0.556003
O O9 0.295087 0.500000 0.921906
O O10 0.352256 0.262312 0.889576
O O11 0.300244 0.283858 0.796466
O O12 0.250000 0.250000 0.000000
O O13 0.886819 0.500000 0.285572
O O14 0.867579 0.732063 0.403950
O O15 0.955776 0.715879 0.221639
O O16 0.130932 0.500000 0.060417
O O17 0.057283 0.292644 0.129665
O O18 0.499947 0.000000 0.268412
O O19 0.312949 0.761205 0.608844
O O20 0.364699 0.000000 0.517058
O O21 0.286216 0.500000 0.693242
#
# Coordination Sequence:
#
# PCOD8099284 Si02
#       8
#     8   8   8   8   8   8   8   8
#     4   9  17  33  56  79 109 145 183 223 266 322
#     4  10  21  36  54  76 105 142 184 222 268 328
#     4  11  22  37  56  78 110 146 183 226 272 323
#     4   8  16  33  55  80 109 141 178 226 273 314
#     4  10  20  35  55  83 113 146 184 220 268 323
#     4   9  19  34  54  82 112 139 178 225 270 318
#     4  10  21  36  55  81 110 139 179 227 273 319
#     4  10  21  36  54  79 110 146 184 220 269 327
#
# _framework density 18.581575999999998
#
# number of rings (size 3 to 8) (size 9 to 14) (size 15 to 20)
#    0.000    2.375    1.250    1.875    1.750    3.500 
#    0.000    2.500    0.000    6.750    0.000    4.375 
#    0.000    0.000    0.000    0.000    0.000    0.000 
#
# Total GULP energy -396812.738068 kJ/mol
# GULP energy per Si atom -12400.398065 kJ/mol
# Density = 1.853928 g / cm^3
# Si number density = 18.581576 Si / 1000 Ang^3
#
#
#
# Elastic Constant Matrix: (Units=GPa)
#
#
# Indices 1 2 3 4 5 6 
#
# 1 155.8931 48.1790 96.4527 0.0000 3.7806 0.0000
# 2 48.1790 41.1565 32.8876 0.0000 4.0595 0.0000
# 3 96.4527 32.8876 116.6304 0.0000 -11.1708 0.0000
# 4 0.0000 0.0000 0.0000 26.8768 0.0000 -6.2253
# 5 3.7806 4.0595 -11.1708 0.0000 33.3228 0.0000
# 6 0.0000 0.0000 0.0000 -6.2253 0.0000 22.9372
#
#
#
# Elastic Compliance Matrix: (Units=1/GPa)
#
#
# Indices 1 2 3 4 5 6 
#
# 1 0.016643 -0.009936 -0.011393 0.000000 -0.004497 0.000000
# 2 -0.009936 0.038966 -0.003221 0.000000 -0.004700 0.000000
# 3 -0.011393 -0.003221 0.019698 0.000000 0.008288 0.000000
# 4 0.000000 0.000000 0.000000 0.039703 0.000000 0.010776
# 5 -0.004497 -0.004700 0.008288 0.000000 0.033871 0.000000
# 6 0.000000 0.000000 0.000000 0.010776 0.000000 0.046522
#
#
# Mechanical properties :
#
#
# Convention : Reuss Voigt Hill
#
# Bulk Modulus (GPa) = 38.15629 74.30209 56.22919
# Shear Modulus (GPa) = 19.74428 25.70474 22.72451
#
# Velocity S-wave (km/s) = 3.26325 3.72337 3.50088
# Velocity P-wave (km/s) = 5.89724 7.65235 6.83139
#
# Compressibility (1/GPa) = 0.02620800
#
# Stress axis : x y z
#
# Youngs Moduli (GPa) = 60.08435 25.66351 50.76610
#
# Poissons Ratio (x) = 0.25498 0.57838
# Poissons Ratio (y) = 0.59697 0.16352
# Poissons Ratio (z) = 0.68454 0.08267
#
# Static dielectric constant tensor:
#      x y z
#    x 3.649420 0.000000 0.069500 
#    y 0.000000 3.232500 0.000000 
#    z 0.069500 0.000000 3.555850 
# 
# 
# High freq. dielectric constant tensor:
#      x y z
#    x 1.729650 0.000000 -0.002370 
#    y 0.000000 1.696580 0.000000 
#    z -0.002370 0.000000 1.725810 
# 
# From -- ./inp_files/249099.got.cif
#   From: 2010.06.25/outbox.cif.g09.slc.cpg/sg12_125_cif.got.tgz:249099.got - 2010.06.28 00:19:55.
