data_PCOD8099313
_publ_section_title
;
Structure prediction by ZEFSAII (Michael W. Deem and Ramdas Pophale) SiO2 
 PCOD8099313
Probable space group: C 2/M
;
_chemical_formula_sum "Si O2"
_cell_formula_units_Z 48
_cell_length_a 24.272232
_cell_length_b 9.069816
_cell_length_c 11.369730
_cell_angle_alpha 90.000000
_cell_angle_beta 69.022407
_cell_angle_gamma 90.000000
_cell_volume 2337.088931
_symmetry_space_group_name_H-M "C 2/M"
_symmetry_group_IT_number 12
_symmetry_cell_setting 'monoclinic'
loop_
_space_group_symop_operation_xyz
x,y,z
-x,y,-z
-x,-y,-z
x,-y,z
1/2+x,1/2+y,z
1/2-x,1/2+y,-z
1/2-x,1/2-y,-z
1/2+x,1/2-y,z
loop_
_atom_site_type_symbol
_atom_site_label
_atom_site_fract_x
_atom_site_fract_y
_atom_site_fract_z
Si Si1 0.728168 0.826694 0.635052
Si Si2 0.442025 0.167435 0.485284
Si Si3 0.878826 0.829400 0.163014
Si Si4 0.602827 0.669168 0.112395
Si Si5 0.840872 0.169828 0.690951
Si Si6 0.019068 0.668152 0.804383
O O1 0.750000 0.750000 0.500000
O O2 0.666058 0.760706 0.722280
O O3 0.773902 0.793899 0.705934
O O4 0.720449 0.000000 0.616927
O O5 0.500000 0.241402 0.500000
O O6 0.383187 0.246900 0.569516
O O7 0.444926 0.179023 0.343669
O O8 0.437812 0.000000 0.533163
O O9 0.944999 0.765263 0.128755
O O10 0.877293 0.000000 0.202018
O O11 0.863420 0.809140 0.037026
O O12 0.581975 0.500000 0.141973
O O13 0.648000 0.715353 0.181788
O O14 0.546301 0.772488 0.165033
O O15 0.854980 0.000000 0.660962
O O16 0.015224 0.500000 0.851872
#
# Coordination Sequence:
#
# PCOD8099313 Si02
#       6
#     8   8   8   8   8   8
#     4  11  24  43  65  90 119 154 198 246 295 352
#     4  10  20  35  55  85 120 151 189 239 294 346
#     4  11  24  41  61  86 119 160 201 243 296 353
#     4  10  22  40  60  86 121 158 197 244 298 354
#     4  10  22  39  61  88 118 155 199 244 292 350
#     4  11  22  37  60  89 122 158 199 248 297 351
#
# _framework density 20.538371000000001
#
# number of rings (size 3 to 8) (size 9 to 14) (size 15 to 20)
#    0.000    1.500    1.667    3.000    0.000    9.667 
#    0.000    0.000    0.000    0.000    0.000    0.000 
#    0.000    0.000    0.000    0.000    0.000    0.000 
#
# Total GULP energy -297687.952931 kJ/mol
# GULP energy per Si atom -12403.664705 kJ/mol
# Density = 2.049162 g / cm^3
# Si number density = 20.538371 Si / 1000 Ang^3
#
#
#
# Elastic Constant Matrix: (Units=GPa)
#
#
# Indices 1 2 3 4 5 6 
#
# 1 101.5777 52.0468 30.2039 0.0000 11.2715 0.0000
# 2 52.0468 104.1495 42.9581 0.0000 2.6769 0.0000
# 3 30.2039 42.9581 90.1221 0.0000 10.9940 0.0000
# 4 0.0000 0.0000 0.0000 26.9220 0.0000 -1.8864
# 5 11.2715 2.6769 10.9940 0.0000 33.6224 0.0000
# 6 0.0000 0.0000 0.0000 -1.8864 0.0000 32.6779
#
#
#
# Elastic Compliance Matrix: (Units=1/GPa)
#
#
# Indices 1 2 3 4 5 6 
#
# 1 0.013862 -0.006352 -0.001159 0.000000 -0.003762 0.000000
# 2 -0.006352 0.014892 -0.005296 0.000000 0.002676 0.000000
# 3 -0.001159 -0.005296 0.014488 0.000000 -0.003927 0.000000
# 4 0.000000 0.000000 0.000000 0.037295 0.000000 0.002153
# 5 -0.003762 0.002676 -0.003927 0.000000 0.032074 0.000000
# 6 0.000000 0.000000 0.000000 0.002153 0.000000 0.030726
#
#
# Mechanical properties :
#
#
# Convention : Reuss Voigt Hill
#
# Bulk Modulus (GPa) = 56.73037 60.69635 58.71336
# Shear Modulus (GPa) = 28.59983 30.02049 29.31016
#
# Velocity S-wave (km/s) = 3.73568 3.82734 3.78179
# Velocity P-wave (km/s) = 6.80358 7.01058 6.90785
#
# Compressibility (1/GPa) = 0.01762724
#
# Stress axis : x y z
#
# Youngs Moduli (GPa) = 72.14180 67.15167 69.02378
#
# Poissons Ratio (x) = 0.42658 0.07998
# Poissons Ratio (y) = 0.45828 0.36553
# Poissons Ratio (z) = 0.08359 0.35562
#
# Static dielectric constant tensor:
#      x y z
#    x 3.809950 0.000000 0.296590 
#    y 0.000000 3.758610 0.000000 
#    z 0.296590 0.000000 3.743910 
# 
# 
# High freq. dielectric constant tensor:
#      x y z
#    x 1.805960 0.000000 0.013910 
#    y 0.000000 1.804740 0.000000 
#    z 0.013910 0.000000 1.808040 
# 
# From -- ./inp_files/172425.got.cif
#   From: 2010.06.25/outbox.cif.g09.slc.cpg/sg12_87_cif.got.tgz:172425.got - 2010.06.28 00:19:55.
