data_PCOD8099642
_publ_section_title
;
Structure prediction by ZEFSAII (Michael W. Deem and Ramdas Pophale) SiO2 
 PCOD8099642
Probable space group: C 2/M
;
_chemical_formula_sum "Si O2"
_cell_formula_units_Z 64
_cell_length_a 18.453410
_cell_length_b 8.602409
_cell_length_c 20.496404
_cell_angle_alpha 90.000000
_cell_angle_beta 90.307954
_cell_angle_gamma 90.000000
_cell_volume 3253.629656
_symmetry_space_group_name_H-M "C 2/M"
_symmetry_group_IT_number 12
_symmetry_cell_setting 'monoclinic'
loop_
_space_group_symop_operation_xyz
x,y,z
-x,y,-z
-x,-y,-z
x,-y,z
1/2+x,1/2+y,z
1/2-x,1/2+y,-z
1/2-x,1/2-y,-z
1/2+x,1/2-y,z
loop_
_atom_site_type_symbol
_atom_site_label
_atom_site_fract_x
_atom_site_fract_y
_atom_site_fract_z
Si Si1 0.458008 0.817810 0.687888
Si Si2 0.792124 0.683041 0.438975
Si Si3 0.709807 0.818449 0.317069
Si Si4 0.457190 0.324274 0.058499
Si Si5 0.050981 0.183833 0.798823
Si Si6 0.789985 0.176410 0.060732
Si Si7 0.705881 0.182850 0.799451
Si Si8 0.455928 0.815133 0.438230
O O1 0.374519 0.776781 0.675911
O O2 0.486093 0.723589 0.750291
O O3 0.503626 0.757547 0.626452
O O4 0.469408 0.000000 0.700530
O O5 0.794458 0.500000 0.446634
O O6 0.750000 0.750000 0.500000
O O7 0.753537 0.725926 0.371780
O O8 0.874051 0.750062 0.438719
O O9 0.735988 0.767278 0.246047
O O10 0.723386 0.000000 0.327671
O O11 0.486526 0.500000 0.061993
O O12 0.471389 0.249435 0.129826
O O13 0.373257 0.317230 0.041444
O O14 0.500000 0.236126 0.000000
O O15 0.125662 0.264430 0.777145
O O16 0.065879 0.000000 0.802727
O O17 0.775111 0.272523 0.126350
O O18 0.764023 0.000000 0.072228
O O19 0.750000 0.250000 0.000000
O O20 0.712867 0.000000 0.790060
O O21 0.500000 0.747248 0.500000
O O22 0.455825 0.000000 0.440777
#
# Coordination Sequence:
#
# PCOD8099642 Si02
#       8
#     8   8   8   8   8   8   8   8
#     4  10  21  37  58  83 112 147 186 233 290 346
#     4  11  22  37  60  87 116 152 192 235 286 345
#     4  11  23  39  59  85 117 150 190 243 296 345
#     4   8  16  32  53  77 105 139 180 225 275 330
#     4  10  20  35  57  83 112 146 186 235 286 340
#     4  10  20  35  56  83 114 148 188 236 289 344
#     4  11  22  38  59  81 111 153 197 239 288 346
#     4   9  18  35  58  81 106 142 186 228 276 334
#
# _framework density 19.670338000000001
#
# number of rings (size 3 to 8) (size 9 to 14) (size 15 to 20)
#    0.000    2.000    0.000    4.875    0.000    5.000 
#    0.000    1.875    0.000   15.375    0.000    0.000 
#    0.000    0.000    0.000    0.000    0.000    0.000 
#
# Total GULP energy -396842.115092 kJ/mol
# GULP energy per Si atom -12401.316097 kJ/mol
# Density = 1.962557 g / cm^3
# Si number density = 19.670338 Si / 1000 Ang^3
#
#
#
# Elastic Constant Matrix: (Units=GPa)
#
#
# Indices 1 2 3 4 5 6 
#
# 1 131.9753 31.2556 78.0867 0.0000 -7.3067 0.0000
# 2 31.2556 43.0990 17.6156 0.0000 0.1929 0.0000
# 3 78.0867 17.6156 132.9057 0.0000 -2.2728 0.0000
# 4 0.0000 0.0000 0.0000 31.9029 0.0000 3.3897
# 5 -7.3067 0.1929 -2.2728 0.0000 46.0600 0.0000
# 6 0.0000 0.0000 0.0000 3.3897 0.0000 25.5098
#
#
#
# Elastic Compliance Matrix: (Units=1/GPa)
#
#
# Indices 1 2 3 4 5 6 
#
# 1 0.013417 -0.006903 -0.006937 0.000000 0.001815 0.000000
# 2 -0.006903 0.028086 0.000313 0.000000 -0.001197 0.000000
# 3 -0.006937 0.000313 0.011549 0.000000 -0.000532 0.000000
# 4 0.000000 0.000000 0.000000 0.031794 0.000000 -0.004225
# 5 0.001815 -0.001197 -0.000532 0.000000 0.021978 0.000000
# 6 0.000000 0.000000 0.000000 -0.004225 0.000000 0.039762
#
#
# Mechanical properties :
#
#
# Convention : Reuss Voigt Hill
#
# Bulk Modulus (GPa) = 38.46474 62.43288 50.44881
# Shear Modulus (GPa) = 27.42644 32.76267 30.09455
#
# Velocity S-wave (km/s) = 3.73809 4.08559 3.91570
# Velocity P-wave (km/s) = 6.18290 7.35286 6.79311
#
# Compressibility (1/GPa) = 0.02599783
#
# Stress axis : x y z
#
# Youngs Moduli (GPa) = 74.53304 35.60495 86.58538
#
# Poissons Ratio (x) = 0.24577 0.60064
# Poissons Ratio (y) = 0.51449 -0.02707
# Poissons Ratio (z) = 0.51703 -0.01113
#
# Static dielectric constant tensor:
#      x y z
#    x 3.703130 0.000000 -0.103980 
#    y 0.000000 3.426080 0.000000 
#    z -0.103980 0.000000 3.814990 
# 
# 
# High freq. dielectric constant tensor:
#      x y z
#    x 1.769860 0.000000 -0.002520 
#    y 0.000000 1.747790 0.000000 
#    z -0.002520 0.000000 1.784520 
# 
# From -- ./inp_files/313992.got.cif
#   From: 2010.06.25/outbox.cif.g09.slc.cpg/sg12_157_cif.got.tgz:313992.got - 2010.06.28 00:19:55.
