data_PCOD8099990
_publ_section_title
;
Structure prediction by ZEFSAII (Michael W. Deem and Ramdas Pophale) SiO2 
 PCOD8099990
Probable space group: C 2/M
;
_chemical_formula_sum "Si O2"
_cell_formula_units_Z 64
_cell_length_a 19.774945
_cell_length_b 8.895318
_cell_length_c 31.030079
_cell_angle_alpha 90.000000
_cell_angle_beta 36.048246
_cell_angle_gamma 90.000000
_cell_volume 3212.042067
_symmetry_space_group_name_H-M "C 2/M"
_symmetry_group_IT_number 12
_symmetry_cell_setting 'monoclinic'
loop_
_space_group_symop_operation_xyz
x,y,z
-x,y,-z
-x,-y,-z
x,-y,z
1/2+x,1/2+y,z
1/2-x,1/2+y,-z
1/2-x,1/2-y,-z
1/2+x,1/2-y,z
loop_
_atom_site_type_symbol
_atom_site_label
_atom_site_fract_x
_atom_site_fract_y
_atom_site_fract_z
Si Si1 0.783822 0.174919 0.359054
Si Si2 0.946181 0.322827 0.485402
Si Si3 0.079904 0.823234 0.919278
Si Si4 0.978166 0.676387 0.743995
Si Si5 0.682097 0.826875 0.095010
Si Si6 0.165779 0.675231 0.328081
Si Si7 0.696619 0.677474 0.224079
Si Si8 0.595683 0.173239 0.045077
O O1 0.689261 0.218945 0.445031
O O2 0.734556 0.210777 0.336751
O O3 0.892172 0.276262 0.313842
O O4 0.817403 0.000000 0.344961
O O5 0.956768 0.500000 0.485302
O O6 0.000000 0.245857 0.500000
O O7 0.029578 0.276744 0.402733
O O8 0.204216 0.745526 0.857780
O O9 0.016638 0.769705 0.908442
O O10 0.099917 0.000000 0.908806
O O11 0.000000 0.770617 0.000000
O O12 0.974098 0.500000 0.737126
O O13 0.903883 0.723665 0.823595
O O14 0.926124 0.761518 0.729414
O O15 0.617009 0.796716 0.084076
O O16 0.720204 0.000000 0.079836
O O17 0.796446 0.727535 0.039019
O O18 0.177379 0.500000 0.310377
O O19 0.217999 0.771468 0.262270
O O20 0.700156 0.500000 0.219567
O O21 0.571991 0.000000 0.046965
#
# Coordination Sequence:
#
# PCOD8099990 Si02
#       8
#     8   8   8   8   8   8   8   8
#     4   9  18  34  60  92 119 149 192 236 282 342
#     4   7  12  28  56  87 118 149 185 231 281 337
#     4  11  24  41  60  81 110 149 192 236 288 348
#     4  11  23  39  57  79 115 156 194 236 290 346
#     4   9  20  37  55  78 111 148 183 231 286 339
#     4   9  18  36  62  90 119 153 190 233 288 345
#     4  12  26  41  58  83 117 153 196 245 290 340
#     4  10  20  35  57  85 110 139 184 235 285 340
#
# _framework density 19.92502
#
# number of rings (size 3 to 8) (size 9 to 14) (size 15 to 20)
#    0.000    2.250    0.000    4.500    1.750    6.000 
#    0.000    1.250    0.000    2.250    0.000    0.000 
#    0.000    0.000    0.000    0.000    0.000    0.000 
#
# Total GULP energy -396680.528576 kJ/mol
# GULP energy per Si atom -12396.266518 kJ/mol
# Density = 1.987967 g / cm^3
# Si number density = 19.925020 Si / 1000 Ang^3
#
#
#
# Elastic Constant Matrix: (Units=GPa)
#
#
# Indices 1 2 3 4 5 6 
#
# 1 74.3705 37.2663 36.6399 -0.0017 -14.4123 0.0144
# 2 37.2663 84.4620 42.0115 -0.0020 -5.4436 0.0131
# 3 36.6399 42.0115 100.6236 0.0002 -10.7573 0.0007
# 4 -0.0017 -0.0020 0.0002 25.0816 -0.0006 -7.2629
# 5 -14.4123 -5.4436 -10.7573 -0.0006 23.2276 0.0018
# 6 0.0144 0.0131 0.0007 -7.2629 0.0018 27.5605
#
#
#
# Elastic Compliance Matrix: (Units=1/GPa)
#
#
# Indices 1 2 3 4 5 6 
#
# 1 0.020359 -0.006550 -0.003674 -0.000001 0.009396 -0.000008
# 2 -0.006550 0.017059 -0.004992 0.000000 -0.002378 -0.000005
# 3 -0.003674 -0.004992 0.013668 0.000000 0.002880 0.000004
# 4 -0.000001 0.000000 0.000000 0.043164 0.000000 0.011375
# 5 0.009396 -0.002378 0.002880 0.000000 0.049659 -0.000007
# 6 -0.000008 -0.000005 0.000004 0.011375 -0.000007 0.039281
#
#
# Mechanical properties :
#
#
# Convention : Reuss Voigt Hill
#
# Bulk Modulus (GPa) = 48.41461 54.58795 51.50128
# Shear Modulus (GPa) = 22.67508 24.74318 23.70913
#
# Velocity S-wave (km/s) = 3.37712 3.52776 3.45326
# Velocity P-wave (km/s) = 6.28949 6.63699 6.46558
#
# Compressibility (1/GPa) = 0.02065492
#
# Stress axis : x y z
#
# Youngs Moduli (GPa) = 49.11779 58.61978 73.16401
#
# Poissons Ratio (x) = 0.38394 0.26883
# Poissons Ratio (y) = 0.32171 0.36521
# Poissons Ratio (z) = 0.18047 0.29261
#
# Static dielectric constant tensor:
#      x y z
#    x 3.539610 -0.000020 -0.057250 
#    y -0.000020 3.385790 0.000000 
#    z -0.057250 0.000000 3.861210 
# 
# 
# High freq. dielectric constant tensor:
#      x y z
#    x 1.767670 0.000000 -0.006810 
#    y 0.000000 1.760630 0.000000 
#    z -0.006810 0.000000 1.784260 
# 
# From -- ./inp_files/378075.got.cif
#   From: 2010.06.25/outbox.cif.g09.slc.cpg/sg12_190_cif.got.tgz:378075.got - 2010.06.28 00:19:55.
