data_PCOD8099099
_publ_section_title
;
Structure prediction by ZEFSAII (Michael W. Deem and Ramdas Pophale) SiO2 
 PCOD8099099
Probable space group: C 2/M
;
_chemical_formula_sum "Si O2"
_cell_formula_units_Z 56
_cell_length_a 32.597490
_cell_length_b 8.853311
_cell_length_c 11.344121
_cell_angle_alpha 90.000000
_cell_angle_beta 119.058341
_cell_angle_gamma 90.000000
_cell_volume 2861.768973
_symmetry_space_group_name_H-M "C 2/M"
_symmetry_group_IT_number 12
_symmetry_cell_setting 'monoclinic'
loop_
_space_group_symop_operation_xyz
x,y,z
-x,y,-z
-x,-y,-z
x,-y,z
1/2+x,1/2+y,z
1/2-x,1/2+y,-z
1/2-x,1/2-y,-z
1/2+x,1/2-y,z
loop_
_atom_site_type_symbol
_atom_site_label
_atom_site_fract_x
_atom_site_fract_y
_atom_site_fract_z
Si Si1 0.054023 0.823502 0.820897
Si Si2 0.263506 0.820896 0.895357
Si Si3 0.629805 0.322086 0.328086
Si Si4 0.541515 0.821857 0.317421
Si Si5 0.678203 0.322220 0.626724
Si Si6 0.418575 0.678223 0.401847
Si Si7 0.352758 0.675760 0.912083
O O1 0.068584 0.769461 0.710854
O O2 0.008929 0.730876 0.801499
O O3 0.041966 0.000000 0.805429
O O4 0.095863 0.784636 0.968354
O O5 0.226648 0.756171 0.746282
O O6 0.315356 0.773079 0.930956
O O7 0.260803 0.000000 0.902931
O O8 0.250000 0.750000 0.000000
O O9 0.620045 0.500000 0.324777
O O10 0.580736 0.240226 0.283416
O O11 0.668432 0.268261 0.478726
O O12 0.649470 0.277941 0.228008
O O13 0.547144 0.758036 0.457483
O O14 0.544616 0.000000 0.324459
O O15 0.682240 0.500000 0.634930
O O16 0.634901 0.270372 0.648485
O O17 0.424602 0.500000 0.427701
O O18 0.341220 0.500000 0.915521
#
# Coordination Sequence:
#
# PCOD8099099 Si02
#       7
#     8   8   8   8   8   8   8
#     4  10  20  35  55  78 107 145 184 221 269 327
#     4  11  22  37  58  84 115 146 178 218 267 322
#     4   9  19  39  61  78 103 142 186 223 262 321
#     4  11  22  34  52  80 112 141 177 227 274 318
#     4   8  16  33  57  81 106 141 180 219 264 315
#     4   9  17  33  56  78 105 142 182 220 263 321
#     4  10  22  39  59  82 107 139 183 229 267 315
#
# _framework density 19.568315999999999
#
# number of rings (size 3 to 8) (size 9 to 14) (size 15 to 20)
#    0.000    2.286    0.000    3.857    0.000    6.857 
#    0.000   11.429    0.000    0.000    0.000    0.000 
#    0.000    0.000    0.000    0.000    0.000    0.000 
#
# Total GULP energy -347225.648186 kJ/mol
# GULP energy per Si atom -12400.916007 kJ/mol
# Density = 1.952378 g / cm^3
# Si number density = 19.568316 Si / 1000 Ang^3
#
#
#
# Elastic Constant Matrix: (Units=GPa)
#
#
# Indices 1 2 3 4 5 6 
#
# 1 81.3506 38.1233 64.9412 0.0000 -5.4318 0.0000
# 2 38.1233 64.9819 40.4479 0.0000 -1.8770 0.0000
# 3 64.9412 40.4479 121.1031 0.0000 1.6589 0.0000
# 4 0.0000 0.0000 0.0000 18.2362 0.0000 2.8973
# 5 -5.4318 -1.8770 1.6589 0.0000 33.3492 0.0000
# 6 0.0000 0.0000 0.0000 2.8973 0.0000 26.9777
#
#
#
# Elastic Compliance Matrix: (Units=1/GPa)
#
#
# Indices 1 2 3 4 5 6 
#
# 1 0.024781 -0.007716 -0.010768 0.000000 0.004138 0.000000
# 2 -0.007716 0.021898 -0.003178 0.000000 0.000134 0.000000
# 3 -0.010768 -0.003178 0.015130 0.000000 -0.002685 0.000000
# 4 0.000000 0.000000 0.000000 0.055788 0.000000 -0.005991
# 5 0.004138 0.000134 -0.002685 0.000000 0.030801 0.000000
# 6 0.000000 0.000000 0.000000 -0.005991 0.000000 0.037711
#
#
# Mechanical properties :
#
#
# Convention : Reuss Voigt Hill
#
# Bulk Modulus (GPa) = 54.10012 61.60671 57.85341
# Shear Modulus (GPa) = 21.22297 23.97417 22.59857
#
# Velocity S-wave (km/s) = 3.29683 3.50402 3.40200
# Velocity P-wave (km/s) = 6.49607 6.92258 6.71271
#
# Compressibility (1/GPa) = 0.01848425
#
# Stress axis : x y z
#
# Youngs Moduli (GPa) = 40.35375 45.66698 66.09397
#
# Poissons Ratio (x) = 0.35237 0.71171
# Poissons Ratio (y) = 0.31138 0.21003
# Poissons Ratio (z) = 0.43454 0.14512
#
# Static dielectric constant tensor:
#      x y z
#    x 3.590000 0.000000 0.065800 
#    y 0.000000 3.283040 0.000000 
#    z 0.065800 0.000000 3.938190 
# 
# 
# High freq. dielectric constant tensor:
#      x y z
#    x 1.762610 0.000000 0.004100 
#    y 0.000000 1.736210 0.000000 
#    z 0.004100 0.000000 1.771990 
# 
# From -- ./inp_files/187767.got.cif
#   From: 2010.06.25/outbox.cif.g09.slc.cpg/sg12_94_cif.got.tgz:187767.got - 2010.06.28 00:19:55.
