data_PCOD8099995
_publ_section_title
;
Structure prediction by ZEFSAII (Michael W. Deem and Ramdas Pophale) SiO2 
 PCOD8099995
Probable space group: C 2/M
;
_chemical_formula_sum "Si O2"
_cell_formula_units_Z 48
_cell_length_a 30.469429
_cell_length_b 8.678206
_cell_length_c 14.892314
_cell_angle_alpha 90.000000
_cell_angle_beta 39.946716
_cell_angle_gamma 90.000000
_cell_volume 2528.378944
_symmetry_space_group_name_H-M "C 2/M"
_symmetry_group_IT_number 12
_symmetry_cell_setting 'monoclinic'
loop_
_space_group_symop_operation_xyz
x,y,z
-x,y,-z
-x,-y,-z
x,-y,z
1/2+x,1/2+y,z
1/2-x,1/2+y,-z
1/2-x,1/2-y,-z
1/2+x,1/2-y,z
loop_
_atom_site_type_symbol
_atom_site_label
_atom_site_fract_x
_atom_site_fract_y
_atom_site_fract_z
Si Si1 0.581005 0.317834 0.153220
Si Si2 0.928961 0.182993 0.356301
Si Si3 0.666640 0.316699 0.851884
Si Si4 0.816834 0.318150 0.660582
Si Si5 0.570243 0.317068 0.848890
Si Si6 0.181447 0.182024 0.148661
O O1 0.581397 0.500000 0.142558
O O2 0.502997 0.260370 0.274795
O O3 0.617452 0.265320 0.187808
O O4 0.622385 0.248305 0.003711
O O5 0.873330 0.271319 0.500948
O O6 0.919303 0.239117 0.269072
O O7 0.919689 0.000000 0.381184
O O8 0.665622 0.500000 0.857097
O O9 0.743990 0.255816 0.738746
O O10 0.633723 0.258372 0.809925
O O11 0.815269 0.500000 0.676481
O O12 0.834104 0.241960 0.728212
O O13 0.565453 0.500000 0.857849
O O14 0.500000 0.249038 0.000000
O O15 0.189037 0.000000 0.137604
O O16 0.250000 0.250000 0.000000
#
# Coordination Sequence:
#
# PCOD8099995 Si02
#       6
#     8   8   8   8   8   8
#     4   9  17  32  56  82 108 140 180 225 273 324
#     4  10  20  35  57  85 112 139 182 233 275 320
#     4   9  16  30  53  81 108 141 181 221 270 324
#     4  11  23  38  54  77 116 154 181 221 277 329
#     4   9  15  27  54  86 108 133 180 233 270 316
#     4  11  21  36  59  85 110 142 185 228 273 325
#
# _framework density 18.984494999999999
#
# number of rings (size 3 to 8) (size 9 to 14) (size 15 to 20)
#    0.000    2.167    3.333    1.000    0.000    1.333 
#    0.000    5.000    0.000    1.500    0.000    0.000 
#    0.000    0.000    0.000    0.000    0.000    0.000 
#
# Total GULP energy -297575.136785 kJ/mol
# GULP energy per Si atom -12398.964033 kJ/mol
# Density = 1.894129 g / cm^3
# Si number density = 18.984495 Si / 1000 Ang^3
#
#
#
# Elastic Constant Matrix: (Units=GPa)
#
#
# Indices 1 2 3 4 5 6 
#
# 1 202.2832 26.3805 86.8564 0.0001 0.0244 0.0000
# 2 26.3805 30.2147 15.0245 -0.0001 1.6523 0.0003
# 3 86.8564 15.0245 141.3480 0.0002 -0.9345 0.0000
# 4 0.0001 -0.0001 0.0002 29.5873 0.0001 0.2164
# 5 0.0244 1.6523 -0.9345 0.0001 38.1384 0.0000
# 6 0.0000 0.0003 0.0000 0.2164 0.0000 18.3916
#
#
#
# Elastic Compliance Matrix: (Units=1/GPa)
#
#
# Indices 1 2 3 4 5 6 
#
# 1 0.007213 -0.004328 -0.003972 0.000000 0.000086 0.000000
# 2 -0.004328 0.037638 -0.001352 0.000000 -0.001661 -0.000001
# 3 -0.003972 -0.001352 0.009661 0.000000 0.000298 0.000000
# 4 0.000000 0.000000 0.000000 0.033801 0.000000 -0.000398
# 5 0.000086 -0.001661 0.000298 0.000000 0.026299 0.000000
# 6 0.000000 -0.000001 0.000000 -0.000398 0.000000 0.054377
#
#
# Mechanical properties :
#
#
# Convention : Reuss Voigt Hill
#
# Bulk Modulus (GPa) = 28.40197 70.04095 49.22146
# Shear Modulus (GPa) = 24.99608 33.59577 29.29592
#
# Velocity S-wave (km/s) = 3.63251 4.21128 3.93256
# Velocity P-wave (km/s) = 5.70847 7.78590 6.82667
#
# Compressibility (1/GPa) = 0.03520882
#
# Stress axis : x y z
#
# Youngs Moduli (GPa) = 138.63039 26.56866 103.50689
#
# Poissons Ratio (x) = 0.11498 0.41113
# Poissons Ratio (y) = 0.59994 0.13999
# Poissons Ratio (z) = 0.55064 0.03593
#
# Static dielectric constant tensor:
#      x y z
#    x 4.093450 0.000000 0.000910 
#    y 0.000000 3.022750 0.000000 
#    z 0.000910 0.000000 3.460980 
# 
# 
# High freq. dielectric constant tensor:
#      x y z
#    x 1.760110 0.000000 -0.000600 
#    y 0.000000 1.688970 0.000000 
#    z -0.000600 0.000000 1.739170 
# 
# From -- ./inp_files/230343.got.cif
#   From: 2010.06.25/outbox.cif.g09.slc.cpg/sg12_116_cif.got.tgz:230343.got - 2010.06.28 00:19:55.
