data_PCOD8099658
_publ_section_title
;
Structure prediction by ZEFSAII (Michael W. Deem and Ramdas Pophale) SiO2 
 PCOD8099658
Probable space group: C 2/M
;
_chemical_formula_sum "Si O2"
_cell_formula_units_Z 64
_cell_length_a 23.679640
_cell_length_b 8.739581
_cell_length_c 28.846834
_cell_angle_alpha 90.000000
_cell_angle_beta 148.554492
_cell_angle_gamma 90.000000
_cell_volume 3114.398781
_symmetry_space_group_name_H-M "C 2/M"
_symmetry_group_IT_number 12
_symmetry_cell_setting 'monoclinic'
loop_
_space_group_symop_operation_xyz
x,y,z
-x,y,-z
-x,-y,-z
x,-y,z
1/2+x,1/2+y,z
1/2-x,1/2+y,-z
1/2-x,1/2-y,-z
1/2+x,1/2-y,z
loop_
_atom_site_type_symbol
_atom_site_label
_atom_site_fract_x
_atom_site_fract_y
_atom_site_fract_z
Si Si1 0.306933 0.319936 0.084638
Si Si2 0.698363 0.824650 0.154953
Si Si3 0.576676 0.823069 0.162635
Si Si4 0.302386 0.179402 0.663020
Si Si5 0.989442 0.679396 0.727830
Si Si6 0.367605 0.677527 0.977581
Si Si7 0.945270 0.181083 0.321956
Si Si8 0.940239 0.817473 0.504526
O O1 0.315860 0.500000 0.084687
O O2 0.426225 0.253690 0.176951
O O3 0.235342 0.277010 0.078836
O O4 0.250000 0.250000 0.000000
O O5 0.664496 0.802252 0.184027
O O6 0.619748 0.721286 0.067724
O O7 0.820997 0.767408 0.235823
O O8 0.684521 0.000000 0.129814
O O9 0.631070 0.755148 0.246771
O O10 0.540572 0.000000 0.142529
O O11 0.472006 0.721166 0.080089
O O12 0.368670 0.215547 0.662433
O O13 0.181804 0.250064 0.577694
O O14 0.290268 0.000000 0.662517
O O15 0.013046 0.500000 0.743162
O O16 0.995074 0.745692 0.680212
O O17 0.343255 0.500000 0.967491
O O18 0.998604 0.241769 0.406782
O O19 0.956486 0.000000 0.325494
O O20 0.000000 0.755353 0.500000
O O21 0.940064 0.000000 0.503495
#
# Coordination Sequence:
#
# PCOD8099658 Si02
#       8
#     8   8   8   8   8   8   8   8
#     4  12  24  40  61  85 116 155 202 251 297 353
#     4  10  20  35  56  83 115 154 199 248 301 358
#     4  10  20  36  58  82 113 155 200 251 307 357
#     4   9  19  35  56  84 117 151 194 246 296 350
#     4  11  22  37  57  84 120 162 201 241 296 356
#     4  12  24  37  55  83 117 156 198 243 298 358
#     4  10  20  35  59  88 118 155 200 251 300 354
#     4   9  17  33  60  92 120 149 195 250 299 352
#
# _framework density 20.549713000000001
#
# number of rings (size 3 to 8) (size 9 to 14) (size 15 to 20)
#    0.000    1.625    1.250    4.500    0.000    6.500 
#    0.000    0.625    0.000    1.875    0.000    0.000 
#    0.000    0.000    0.000    0.000    0.000    0.000 
#
# Total GULP energy -396866.457807 kJ/mol
# GULP energy per Si atom -12402.076806 kJ/mol
# Density = 2.050294 g / cm^3
# Si number density = 20.549713 Si / 1000 Ang^3
#
#
#
# Elastic Constant Matrix: (Units=GPa)
#
#
# Indices 1 2 3 4 5 6 
#
# 1 104.9169 28.0356 45.9014 0.0000 -0.8624 0.0001
# 2 28.0356 65.4496 30.3928 0.0000 -0.7607 -0.0007
# 3 45.9014 30.3928 126.5715 0.0001 -3.0739 0.0001
# 4 0.0000 0.0000 0.0001 17.6550 0.0001 0.3860
# 5 -0.8624 -0.7607 -3.0739 0.0001 42.1511 0.0001
# 6 0.0001 -0.0007 0.0001 0.3860 0.0001 26.3858
#
#
#
# Elastic Compliance Matrix: (Units=1/GPa)
#
#
# Indices 1 2 3 4 5 6 
#
# 1 0.012006 -0.003513 -0.003512 0.000000 -0.000074 0.000000
# 2 -0.003513 0.018224 -0.003101 0.000000 0.000031 0.000000
# 3 -0.003512 -0.003101 0.009934 0.000000 0.000597 0.000000
# 4 0.000000 0.000000 0.000000 0.056659 0.000000 -0.000829
# 5 -0.000074 0.000031 0.000597 0.000000 0.023767 0.000000
# 6 0.000000 0.000000 0.000000 -0.000829 0.000000 0.037911
#
#
# Mechanical properties :
#
#
# Convention : Reuss Voigt Hill
#
# Bulk Modulus (GPa) = 50.22353 56.17749 53.20051
# Shear Modulus (GPa) = 26.97001 30.07892 28.52447
#
# Velocity S-wave (km/s) = 3.62667 3.83000 3.72972
# Velocity P-wave (km/s) = 6.48306 6.85239 6.67028
#
# Compressibility (1/GPa) = 0.01991099
#
# Stress axis : x y z
#
# Youngs Moduli (GPa) = 83.29135 54.87224 100.66803
#
# Poissons Ratio (x) = 0.19275 0.35358
# Poissons Ratio (y) = 0.29258 0.31221
# Poissons Ratio (z) = 0.29255 0.17018
#
# Static dielectric constant tensor:
#      x y z
#    x 3.926590 0.000000 0.012680 
#    y 0.000000 3.367310 0.000000 
#    z 0.012680 0.000000 3.897890 
# 
# 
# High freq. dielectric constant tensor:
#      x y z
#    x 1.820250 0.000000 -0.001950 
#    y 0.000000 1.767840 0.000000 
#    z -0.001950 0.000000 1.808320 
# 
# From -- ./inp_files/382567.got.cif
#   From: 2010.06.25/outbox.cif.g09.slc.cpg/sg12_192_cif.got.tgz:382567.got - 2010.06.28 00:19:55.
