data_PCOD8099683
_publ_section_title
;
Structure prediction by ZEFSAII (Michael W. Deem and Ramdas Pophale) SiO2 
 PCOD8099683
Probable space group: C 2/M
;
_chemical_formula_sum "Si O2"
_cell_formula_units_Z 64
_cell_length_a 20.673706
_cell_length_b 8.749695
_cell_length_c 24.490230
_cell_angle_alpha 90.000000
_cell_angle_beta 129.309032
_cell_angle_gamma 90.000000
_cell_volume 3427.672835
_symmetry_space_group_name_H-M "C 2/M"
_symmetry_group_IT_number 12
_symmetry_cell_setting 'monoclinic'
loop_
_space_group_symop_operation_xyz
x,y,z
-x,y,-z
-x,-y,-z
x,-y,z
1/2+x,1/2+y,z
1/2-x,1/2+y,-z
1/2-x,1/2-y,-z
1/2+x,1/2-y,z
loop_
_atom_site_type_symbol
_atom_site_label
_atom_site_fract_x
_atom_site_fract_y
_atom_site_fract_z
Si Si1 0.717679 0.823010 0.207153
Si Si2 0.993735 0.180138 0.657815
Si Si3 0.405853 0.178604 0.952839
Si Si4 0.354583 0.178874 0.209870
Si Si5 0.246582 0.179409 0.655753
Si Si6 0.063020 0.818213 0.578729
Si Si7 0.732278 0.320142 0.048931
Si Si8 0.186433 0.681695 0.422419
O O1 0.635434 0.786172 0.128046
O O2 0.795752 0.723294 0.229100
O O3 0.699133 0.783305 0.260709
O O4 0.744550 0.000000 0.215298
O O5 0.906588 0.265181 0.615850
O O6 0.057156 0.232514 0.739615
O O7 0.033811 0.235422 0.622502
O O8 0.978647 0.000000 0.652724
O O9 0.355639 0.260612 0.974371
O O10 0.405815 0.000000 0.966511
O O11 0.500000 0.243054 0.000000
O O12 0.308135 0.228631 0.129300
O O13 0.372798 0.000000 0.220892
O O14 0.154244 0.249931 0.614302
O O15 0.289577 0.247434 0.624757
O O16 0.238228 0.000000 0.642907
O O17 0.000000 0.751301 0.500000
O O18 0.064821 0.000000 0.577558
O O19 0.725804 0.500000 0.040069
O O20 0.750000 0.250000 0.000000
O O21 0.191745 0.500000 0.428033
O O22 0.250000 0.750000 0.500000
#
# Coordination Sequence:
#
# PCOD8099683 Si02
#       8
#     8   8   8   8   8   8   8   8
#     4   9  16  32  57  80 105 142 185 223 267 324
#     4  11  21  36  59  82 110 146 185 227 275 333
#     4   9  18  33  55  84 115 146 183 226 273 332
#     4  10  20  35  56  84 115 145 179 227 284 331
#     4   9  17  32  54  78 102 140 185 222 264 324
#     4   9  16  28  52  81 101 127 176 224 259 310
#     4  10  21  37  58  83 114 151 189 232 282 333
#     4  11  23  39  57  78 111 149 188 231 282 336
#
# _framework density 18.671559999999999
#
# number of rings (size 3 to 8) (size 9 to 14) (size 15 to 20)
#    0.000    2.250    1.250    2.250    0.000    3.750 
#    2.250    1.250    0.000    1.500    0.000    0.000 
#    0.000    0.000    0.000    0.000    0.000    0.000 
#
# Total GULP energy -396776.703229 kJ/mol
# GULP energy per Si atom -12399.271976 kJ/mol
# Density = 1.862906 g / cm^3
# Si number density = 18.671560 Si / 1000 Ang^3
#
#
#
# Elastic Constant Matrix: (Units=GPa)
#
#
# Indices 1 2 3 4 5 6 
#
# 1 126.4892 39.2916 80.4936 0.0000 0.5118 0.0000
# 2 39.2916 48.9724 37.2413 0.0000 -1.2566 0.0000
# 3 80.4936 37.2413 137.7439 0.0000 1.5400 0.0000
# 4 0.0000 0.0000 0.0000 25.6397 0.0000 1.8232
# 5 0.5118 -1.2566 1.5400 0.0000 39.6742 0.0000
# 6 0.0000 0.0000 0.0000 1.8232 0.0000 27.5863
#
#
#
# Elastic Compliance Matrix: (Units=1/GPa)
#
#
# Indices 1 2 3 4 5 6 
#
# 1 0.013976 -0.006303 -0.006462 0.000000 -0.000129 0.000000
# 2 -0.006303 0.028594 -0.004060 0.000000 0.001145 0.000000
# 3 -0.006462 -0.004060 0.012140 0.000000 -0.000516 0.000000
# 4 0.000000 0.000000 0.000000 0.039186 0.000000 -0.002590
# 5 -0.000129 0.001145 -0.000516 0.000000 0.025263 0.000000
# 6 0.000000 0.000000 0.000000 -0.002590 0.000000 0.036421
#
#
# Mechanical properties :
#
#
# Convention : Reuss Voigt Hill
#
# Bulk Modulus (GPa) = 47.48470 69.69539 58.59004
# Shear Modulus (GPa) = 25.47773 28.99198 27.23486
#
# Velocity S-wave (km/s) = 3.69795 3.94475 3.82334
# Velocity P-wave (km/s) = 6.61210 7.62602 7.13709
#
# Compressibility (1/GPa) = 0.02105942
#
# Stress axis : x y z
#
# Youngs Moduli (GPa) = 71.54969 34.97277 82.37562
#
# Poissons Ratio (x) = 0.22043 0.53230
# Poissons Ratio (y) = 0.45097 0.33447
# Poissons Ratio (z) = 0.46234 0.14200
#
# Static dielectric constant tensor:
#      x y z
#    x 3.474180 0.000000 -0.106580 
#    y 0.000000 3.223960 0.000000 
#    z -0.106580 0.000000 3.528110 
# 
# 
# High freq. dielectric constant tensor:
#      x y z
#    x 1.717390 0.000000 0.000140 
#    y 0.000000 1.703260 0.000000 
#    z 0.000140 0.000000 1.739030 
# 
# From -- ./inp_files/346272.got.cif
#   From: 2010.06.25/outbox.cif.g09.slc.cpg/sg12_174_cif.got.tgz:346272.got - 2010.06.28 00:19:55.
