data_PCOD8099733
_publ_section_title
;
Structure prediction by ZEFSAII (Michael W. Deem and Ramdas Pophale) SiO2 
 PCOD8099733
Probable space group: C 2/M
;
_chemical_formula_sum "Si O2"
_cell_formula_units_Z 56
_cell_length_a 15.643646
_cell_length_b 27.277736
_cell_length_c 12.542218
_cell_angle_alpha 90.000000
_cell_angle_beta 32.251508
_cell_angle_gamma 90.000000
_cell_volume 2856.053889
_symmetry_space_group_name_H-M "C 2/M"
_symmetry_group_IT_number 12
_symmetry_cell_setting 'monoclinic'
loop_
_space_group_symop_operation_xyz
x,y,z
-x,y,-z
-x,-y,-z
x,-y,z
1/2+x,1/2+y,z
1/2-x,1/2+y,-z
1/2-x,1/2-y,-z
1/2+x,1/2-y,z
loop_
_atom_site_type_symbol
_atom_site_label
_atom_site_fract_x
_atom_site_fract_y
_atom_site_fract_z
Si Si1 0.188220 0.698099 0.288664
Si Si2 0.883950 0.126369 0.218013
Si Si3 0.685039 0.593267 0.340632
Si Si4 0.829803 0.853393 0.943178
Si Si5 0.176894 0.805077 0.274417
Si Si6 0.797236 0.557194 0.443833
Si Si7 0.335255 0.944309 0.979157
O O1 0.275294 0.671688 0.295069
O O2 0.265655 0.752980 0.198997
O O3 0.000000 0.699471 0.500000
O O4 0.213580 0.667928 0.154443
O O5 0.768441 0.082984 0.380053
O O6 0.988388 0.145314 0.207076
O O7 0.000000 0.107466 0.000000
O O8 0.500000 0.592736 0.500000
O O9 0.752088 0.649353 0.261574
O O10 0.695131 0.573842 0.449298
O O11 0.790896 0.559325 0.151180
O O12 0.820410 0.817988 0.852668
O O13 0.776748 0.908814 0.971723
O O14 0.000000 0.795684 0.500000
O O15 0.774302 0.500000 0.485806
O O16 0.981217 0.571520 0.230701
O O17 0.306766 0.000000 0.970575
#
# Coordination Sequence:
#
# PCOD8099733 Si02
#       7
#     8   8   8   8   8   8   8
#     4  10  20  37  57  79 110 146 182 223 272 320
#     4  10  22  38  57  81 110 142 186 232 269 318
#     4  10  20  35  56  85 117 145 180 223 270 329
#     4  10  20  37  58  80 110 143 183 228 269 322
#     4   9  18  34  56  82 110 142 179 221 271 324
#     4  11  22  37  56  80 112 147 184 226 275 328
#     4  10  21  36  56  83 112 144 181 225 278 331
#
# _framework density 19.607474
#
# number of rings (size 3 to 8) (size 9 to 14) (size 15 to 20)
#    0.000    2.000    0.000    4.714    0.000    4.286 
#    0.000   18.571    0.000    7.714    0.000    0.000 
#    0.000    0.000    0.000    0.000    0.000    0.000 
#
# Total GULP energy -347164.404631 kJ/mol
# GULP energy per Si atom -12398.728737 kJ/mol
# Density = 1.956285 g / cm^3
# Si number density = 19.607474 Si / 1000 Ang^3
#
#
#
# Elastic Constant Matrix: (Units=GPa)
#
#
# Indices 1 2 3 4 5 6 
#
# 1 89.4324 65.8667 31.7741 -0.0002 -9.7364 0.0004
# 2 65.8667 142.8482 52.0740 -0.0001 1.0071 -0.0002
# 3 31.7741 52.0740 98.6088 0.0006 -0.1491 0.0006
# 4 -0.0002 -0.0001 0.0006 31.9196 0.0000 3.4551
# 5 -9.7364 1.0071 -0.1491 0.0000 22.3064 -0.0007
# 6 0.0004 -0.0002 0.0006 3.4551 -0.0007 22.5723
#
#
#
# Elastic Compliance Matrix: (Units=1/GPa)
#
#
# Indices 1 2 3 4 5 6 
#
# 1 0.018628 -0.008007 -0.001761 0.000000 0.008480 0.000000
# 2 -0.008007 0.012115 -0.003824 0.000000 -0.004067 0.000000
# 3 -0.001761 -0.003824 0.012727 0.000000 -0.000511 0.000000
# 4 0.000000 0.000000 0.000000 0.031857 0.000000 -0.004876
# 5 0.008480 -0.004067 -0.000511 0.000000 0.048712 0.000001
# 6 0.000000 0.000000 0.000000 -0.004876 0.000001 0.045048
#
#
# Mechanical properties :
#
#
# Convention : Reuss Voigt Hill
#
# Bulk Modulus (GPa) = 61.40263 70.03544 65.71903
# Shear Modulus (GPa) = 24.78937 27.43798 26.11367
#
# Velocity S-wave (km/s) = 3.55953 3.74486 3.65337
# Velocity P-wave (km/s) = 6.94821 7.38207 7.16842
#
# Compressibility (1/GPa) = 0.01628595
#
# Stress axis : x y z
#
# Youngs Moduli (GPa) = 53.68366 82.54203 78.57223
#
# Poissons Ratio (x) = 0.66091 0.13837
# Poissons Ratio (y) = 0.42984 0.30045
# Poissons Ratio (z) = 0.09454 0.31563
#
# Static dielectric constant tensor:
#      x y z
#    x 3.313530 0.000000 -0.094370 
#    y 0.000000 3.902600 0.000000 
#    z -0.094370 0.000000 3.383460 
# 
# 
# High freq. dielectric constant tensor:
#      x y z
#    x 1.747890 0.000000 0.008160 
#    y 0.000000 1.772720 0.000000 
#    z 0.008160 0.000000 1.774830 
# 
# From -- ./inp_files/150449.got.cif
#   From: 2010.06.25/outbox.cif.g09.slc.cpg/sg12_76_cif.got.tgz:150449.got - 2010.06.28 00:19:55.
