data_PCOD8099242
_publ_section_title
;
Structure prediction by ZEFSAII (Michael W. Deem and Ramdas Pophale) SiO2 
 PCOD8099242
Probable space group: C 2/M
;
_chemical_formula_sum "Si O2"
_cell_formula_units_Z 64
_cell_length_a 29.250265
_cell_length_b 9.380585
_cell_length_c 14.477216
_cell_angle_alpha 90.000000
_cell_angle_beta 60.822512
_cell_angle_gamma 90.000000
_cell_volume 3468.291424
_symmetry_space_group_name_H-M "C 2/M"
_symmetry_group_IT_number 12
_symmetry_cell_setting 'monoclinic'
loop_
_space_group_symop_operation_xyz
x,y,z
-x,y,-z
-x,-y,-z
x,-y,z
1/2+x,1/2+y,z
1/2-x,1/2+y,-z
1/2-x,1/2-y,-z
1/2+x,1/2-y,z
loop_
_atom_site_type_symbol
_atom_site_label
_atom_site_fract_x
_atom_site_fract_y
_atom_site_fract_z
Si Si1 0.776612 0.660537 0.895665
Si Si2 0.346909 0.665743 0.582131
Si Si3 0.021546 0.666892 0.242082
Si Si4 0.871837 0.832427 0.191072
Si Si5 0.081333 0.836276 0.660579
Si Si6 0.254171 0.663273 0.278571
Si Si7 0.551032 0.167273 0.007852
Si Si8 0.613652 0.167244 0.288356
O O1 0.775112 0.500000 0.932559
O O2 0.744864 0.680361 0.832538
O O3 0.836457 0.709461 0.822787
O O4 0.750000 0.750000 0.000000
O O5 0.341516 0.500000 0.613953
O O6 0.372050 0.686819 0.457334
O O7 0.289519 0.735634 0.633585
O O8 0.384585 0.742595 0.619287
O O9 0.010018 0.500000 0.251533
O O10 0.062421 0.708093 0.281444
O O11 0.968270 0.744785 0.320974
O O12 0.043056 0.716125 0.121326
O O13 0.898806 0.784142 0.259455
O O14 0.810947 0.789654 0.258856
O O15 0.898713 0.749758 0.080293
O O16 0.877638 0.000000 0.166739
O O17 0.063778 0.000000 0.681440
O O18 0.241098 0.500000 0.318699
O O19 0.562317 0.000000 0.988832
O O20 0.500000 0.211563 0.000000
O O21 0.615713 0.000000 0.312115
#
# Coordination Sequence:
#
# PCOD8099242 Si02
#       8
#     8   8   8   8   8   8   8   8
#     4   9  18  32  50  74 104 136 173 217 263 313
#     4  10  21  38  58  81 109 141 181 231 279 321
#     4  10  21  37  57  82 111 146 185 222 269 326
#     4  10  21  37  57  81 111 148 184 220 270 331
#     4  10  22  38  56  81 112 143 181 229 276 322
#     4   9  20  38  56  78 109 143 182 224 269 326
#     4  10  20  35  55  81 114 145 179 228 273 316
#     4   9  20  38  56  77 109 145 181 223 270 324
#
# _framework density 18.452888000000002
#
# number of rings (size 3 to 8) (size 9 to 14) (size 15 to 20)
#    0.000    2.375    1.250    1.125    1.750    5.750 
#    0.000    2.500    0.000    0.000    0.000    0.000 
#    0.000    0.000    0.000    0.000    0.000    0.000 
#
# Total GULP energy -396889.899876 kJ/mol
# GULP energy per Si atom -12402.809371 kJ/mol
# Density = 1.841089 g / cm^3
# Si number density = 18.452888 Si / 1000 Ang^3
#
#
#
# Elastic Constant Matrix: (Units=GPa)
#
#
# Indices 1 2 3 4 5 6 
#
# 1 107.6888 36.2405 21.7662 0.0000 -16.4924 0.0000
# 2 36.2405 57.8822 38.6502 0.0000 -8.5040 0.0000
# 3 21.7662 38.6502 77.6701 0.0000 -10.6643 0.0000
# 4 0.0000 0.0000 0.0000 34.6051 0.0000 -6.1271
# 5 -16.4924 -8.5040 -10.6643 0.0000 17.6701 0.0000
# 6 0.0000 0.0000 0.0000 -6.1271 0.0000 26.4849
#
#
#
# Elastic Compliance Matrix: (Units=1/GPa)
#
#
# Indices 1 2 3 4 5 6 
#
# 1 0.013033 -0.007797 0.001508 0.000000 0.009322 0.000000
# 2 -0.007797 0.030968 -0.013278 0.000000 -0.000387 0.000000
# 3 0.001508 -0.013278 0.020036 0.000000 0.007109 0.000000
# 4 0.000000 0.000000 0.000000 0.030132 0.000000 0.006971
# 5 0.009322 -0.000387 0.007109 0.000000 0.069397 0.000000
# 6 0.000000 0.000000 0.000000 0.006971 0.000000 0.039370
#
#
# Mechanical properties :
#
#
# Convention : Reuss Voigt Hill
#
# Bulk Modulus (GPa) = 40.15898 48.50611 44.33254
# Shear Modulus (GPa) = 19.97032 25.52431 22.74732
#
# Velocity S-wave (km/s) = 3.29330 3.72319 3.51483
# Velocity P-wave (km/s) = 6.02257 6.69525 6.36780
#
# Compressibility (1/GPa) = 0.02490103
#
# Stress axis : x y z
#
# Youngs Moduli (GPa) = 76.72918 32.29156 49.90987
#
# Poissons Ratio (x) = 0.25178 -0.07524
# Poissons Ratio (y) = 0.59827 0.66272
# Poissons Ratio (z) = -0.11567 0.42878
#
# Static dielectric constant tensor:
#      x y z
#    x 3.837700 0.000000 0.081110 
#    y 0.000000 3.360180 0.000000 
#    z 0.081110 0.000000 3.283440 
# 
# 
# High freq. dielectric constant tensor:
#      x y z
#    x 1.721640 0.000000 -0.000980 
#    y 0.000000 1.711000 0.000000 
#    z -0.000980 0.000000 1.714280 
# 
# From -- ./inp_files/249027.got.cif
#   From: 2010.06.25/outbox.cif.g09.slc.cpg/sg12_125_cif.got.tgz:249027.got - 2010.06.28 00:19:55.
