data_PCOD8099275
_publ_section_title
;
Structure prediction by ZEFSAII (Michael W. Deem and Ramdas Pophale) SiO2 
 PCOD8099275
Probable space group: C 2/M
;
_chemical_formula_sum "Si O2"
_cell_formula_units_Z 56
_cell_length_a 32.173676
_cell_length_b 8.748129
_cell_length_c 20.304654
_cell_angle_alpha 90.000000
_cell_angle_beta 29.908701
_cell_angle_gamma 90.000000
_cell_volume 2849.578411
_symmetry_space_group_name_H-M "C 2/M"
_symmetry_group_IT_number 12
_symmetry_cell_setting 'monoclinic'
loop_
_space_group_symop_operation_xyz
x,y,z
-x,y,-z
-x,-y,-z
x,-y,z
1/2+x,1/2+y,z
1/2-x,1/2+y,-z
1/2-x,1/2-y,-z
1/2+x,1/2-y,z
loop_
_atom_site_type_symbol
_atom_site_label
_atom_site_fract_x
_atom_site_fract_y
_atom_site_fract_z
Si Si1 0.098025 0.819163 0.046658
Si Si2 0.428940 0.319889 0.646782
Si Si3 0.497390 0.319579 0.693387
Si Si4 0.709365 0.819712 0.620481
Si Si5 0.673212 0.180618 0.434355
Si Si6 0.782770 0.319028 0.772215
Si Si7 0.968119 0.821014 0.116516
O O1 0.061935 0.764810 0.166153
O O2 0.039096 0.762022 0.068794
O O3 0.103519 0.000000 0.036535
O O4 0.190363 0.750508 0.910208
O O5 0.500000 0.257792 0.500000
O O6 0.419434 0.500000 0.653324
O O7 0.452783 0.269038 0.687447
O O8 0.341174 0.244791 0.749497
O O9 0.514927 0.500000 0.670877
O O10 0.584424 0.234028 0.583239
O O11 0.750000 0.750000 0.500000
O O12 0.753695 0.756565 0.624470
O O13 0.613091 0.775852 0.755905
O O14 0.719594 0.000000 0.603404
O O15 0.683389 0.235523 0.345083
O O16 0.681981 0.000000 0.429079
O O17 0.782065 0.500000 0.777900
O O18 0.947979 0.000000 0.153770
O O19 0.000000 0.785480 0.000000
#
# Coordination Sequence:
#
# PCOD8099275 Si02
#       7
#     8   8   8   8   8   8   8
#     4   9  19  36  57  82 111 148 190 233 286 345
#     4  10  20  35  55  82 116 150 190 236 289 343
#     4  10  20  36  58  81 113 155 194 236 289 347
#     4  12  25  40  60  87 120 155 198 247 298 353
#     4  11  22  37  59  86 114 147 192 241 293 348
#     4  10  21  37  59  85 113 146 190 237 282 342
#     4  10  20  38  63  87 118 157 198 245 300 356
#
# _framework density 19.65203
#
# number of rings (size 3 to 8) (size 9 to 14) (size 15 to 20)
#    0.000    1.714    1.429    3.429    0.000    5.714 
#    0.000    1.429    0.000    0.000    0.000    0.000 
#    0.000    0.000    0.000    0.000    0.000    0.000 
#
# Total GULP energy -347336.298481 kJ/mol
# GULP energy per Si atom -12404.867803 kJ/mol
# Density = 1.960730 g / cm^3
# Si number density = 19.652030 Si / 1000 Ang^3
#
#
#
# Elastic Constant Matrix: (Units=GPa)
#
#
# Indices 1 2 3 4 5 6 
#
# 1 143.2360 23.5526 61.0578 -0.0034 -7.4151 -0.0002
# 2 23.5526 46.8430 30.9054 -0.0098 1.0114 0.0067
# 3 61.0578 30.9054 134.6888 -0.0321 -12.2886 0.0099
# 4 -0.0034 -0.0098 -0.0321 29.3403 -0.0002 -10.1329
# 5 -7.4151 1.0114 -12.2886 -0.0002 41.0152 0.0022
# 6 -0.0002 0.0067 0.0099 -10.1329 0.0022 24.8801
#
#
#
# Elastic Compliance Matrix: (Units=1/GPa)
#
#
# Indices 1 2 3 4 5 6 
#
# 1 0.008844 -0.002183 -0.003452 -0.000003 0.000618 0.000001
# 2 -0.002183 0.025930 -0.005197 0.000001 -0.002591 -0.000004
# 3 -0.003452 -0.005197 0.010421 0.000010 0.002626 0.000001
# 4 -0.000003 0.000001 0.000010 0.039661 0.000002 0.016153
# 5 0.000618 -0.002591 0.002626 0.000002 0.025344 -0.000002
# 6 0.000001 -0.000004 0.000001 0.016153 -0.000002 0.046771
#
#
# Mechanical properties :
#
#
# Convention : Reuss Voigt Hill
#
# Bulk Modulus (GPa) = 42.49418 61.75550 52.12484
# Shear Modulus (GPa) = 26.81272 32.99724 29.90498
#
# Velocity S-wave (km/s) = 3.69775 4.10210 3.90516
# Velocity P-wave (km/s) = 6.31675 7.34364 6.84947
#
# Compressibility (1/GPa) = 0.02353263
#
# Stress axis : x y z
#
# Youngs Moduli (GPa) = 113.07297 38.56545 95.95600
#
# Poissons Ratio (x) = 0.08417 0.33123
# Poissons Ratio (y) = 0.24679 0.49867
# Poissons Ratio (z) = 0.39032 0.20042
#
# Static dielectric constant tensor:
#      x y z
#    x 3.205190 0.000080 0.696630 
#    y 0.000080 3.334400 -0.000070 
#    z 0.696630 -0.000070 2.857430 
# 
# 
# High freq. dielectric constant tensor:
#      x y z
#    x 1.783000 0.000000 -0.002150 
#    y 0.000000 1.743080 0.000000 
#    z -0.002150 0.000000 1.776910 
# 
# From -- ./inp_files/281705.got.cif
#   From: 2010.06.25/outbox.cif.g09.slc.cpg/sg12_141_cif.got.tgz:281705.got - 2010.06.28 00:19:55.
