data_PCOD8099928
_publ_section_title
;
Structure prediction by ZEFSAII (Michael W. Deem and Ramdas Pophale) SiO2 
 PCOD8099928
Probable space group: C 2/M
;
_chemical_formula_sum "Si O2"
_cell_formula_units_Z 64
_cell_length_a 11.921278
_cell_length_b 25.449643
_cell_length_c 11.617008
_cell_angle_alpha 90.000000
_cell_angle_beta 108.703203
_cell_angle_gamma 90.000000
_cell_volume 3338.389317
_symmetry_space_group_name_H-M "C 2/M"
_symmetry_group_IT_number 12
_symmetry_cell_setting 'monoclinic'
loop_
_space_group_symop_operation_xyz
x,y,z
-x,y,-z
-x,-y,-z
x,-y,z
1/2+x,1/2+y,z
1/2-x,1/2+y,-z
1/2-x,1/2-y,-z
1/2+x,1/2-y,z
loop_
_atom_site_type_symbol
_atom_site_label
_atom_site_fract_x
_atom_site_fract_y
_atom_site_fract_z
Si Si1 0.923876 0.857447 0.280204
Si Si2 0.136828 0.056372 0.575317
Si Si3 0.627274 0.230872 0.079411
Si Si4 0.251620 0.714224 0.346120
Si Si5 0.859212 0.319966 0.470199
Si Si6 0.813257 0.838897 0.013288
Si Si7 0.631550 0.440150 0.094035
Si Si8 0.174765 0.897241 0.354955
O O1 0.847749 0.905179 0.310859
O O2 0.867652 0.806547 0.318928
O O3 0.912227 0.855414 0.138740
O O4 0.063726 0.859690 0.352928
O O5 0.206010 0.069908 0.479994
O O6 0.000000 0.053823 0.500000
O O7 0.184403 0.000000 0.633224
O O8 0.648433 0.229318 0.222498
O O9 0.702131 0.185473 0.042101
O O10 0.500000 0.212092 0.000000
O O11 0.642795 0.291980 0.053050
O O12 0.186792 0.673700 0.412551
O O13 0.311307 0.763360 0.424746
O O14 0.792302 0.362771 0.368013
O O15 0.000000 0.326188 0.500000
O O16 0.787582 0.893054 0.933673
O O17 0.676460 0.500000 0.080816
O O18 0.637478 0.433442 0.234678
O O19 0.500000 0.433332 0.000000
#
# Coordination Sequence:
#
# PCOD8099928 Si02
#       8
#     8   8   8   8   8   8   8   8
#     4  10  20  35  57  83 118 150 191 240 295 347
#     4   9  18  32  54  83 109 142 188 237 292 341
#     4  10  22  38  62  88 118 161 199 245 297 360
#     4  10  23  38  56  85 119 152 197 242 294 351
#     4  11  25  37  57  85 117 159 197 241 296 358
#     4  10  21  37  56  89 123 155 196 243 296 358
#     4  11  22  36  59  92 126 157 193 245 308 364
#     4  11  21  37  59  84 117 158 193 249 290 359
#
# _framework density 19.170922000000001
#
# number of rings (size 3 to 8) (size 9 to 14) (size 15 to 20)
#    0.000    1.750    2.500    1.500    5.250    4.000 
#    0.000    0.000    0.000    1.875    0.000    0.000 
#    0.000    0.000    0.000    0.000    0.000    0.000 
#
# Total GULP energy -396422.044191 kJ/mol
# GULP energy per Si atom -12388.188881 kJ/mol
# Density = 1.912729 g / cm^3
# Si number density = 19.170922 Si / 1000 Ang^3
#
#
#
# Elastic Constant Matrix: (Units=GPa)
#
#
# Indices 1 2 3 4 5 6 
#
# 1 80.4866 21.3204 20.2976 0.0000 10.3250 0.0000
# 2 21.3204 108.5819 32.1835 0.0000 1.5639 0.0000
# 3 20.2976 32.1835 90.8258 0.0000 1.0976 0.0000
# 4 0.0000 0.0000 0.0000 24.6497 0.0000 -1.7112
# 5 10.3250 1.5639 1.0976 0.0000 25.0878 0.0000
# 6 0.0000 0.0000 0.0000 -1.7112 0.0000 6.7057
#
#
#
# Elastic Compliance Matrix: (Units=1/GPa)
#
#
# Indices 1 2 3 4 5 6 
#
# 1 0.014290 -0.002009 -0.002413 0.000000 -0.005650 0.000000
# 2 -0.002009 0.010579 -0.003303 0.000000 0.000312 0.000000
# 3 -0.002413 -0.003303 0.012712 0.000000 0.000643 0.000000
# 4 0.000000 0.000000 0.000000 0.041300 0.000000 0.010539
# 5 -0.005650 0.000312 0.000643 0.000000 0.042138 0.000000
# 6 0.000000 0.000000 0.000000 0.010539 0.000000 0.151816
#
#
# Mechanical properties :
#
#
# Convention : Reuss Voigt Hill
#
# Bulk Modulus (GPa) = 45.18873 47.49970 46.34422
# Shear Modulus (GPa) = 16.91117 25.02816 20.96967
#
# Velocity S-wave (km/s) = 2.97328 3.61713 3.31089
# Velocity P-wave (km/s) = 5.95062 6.50197 6.23239
#
# Compressibility (1/GPa) = 0.02212941
#
# Stress axis : x y z
#
# Youngs Moduli (GPa) = 69.97851 94.52917 78.66511
#
# Poissons Ratio (x) = 0.18993 0.18984
# Poissons Ratio (y) = 0.14060 0.25985
# Poissons Ratio (z) = 0.16888 0.31225
#
# Static dielectric constant tensor:
#      x y z
#    x 3.300080 0.000000 -0.176120 
#    y 0.000000 3.718660 0.000000 
#    z -0.176120 0.000000 3.774990 
# 
# 
# High freq. dielectric constant tensor:
#      x y z
#    x 1.709380 0.000000 -0.014630 
#    y 0.000000 1.744940 0.000000 
#    z -0.014630 0.000000 1.756670 
# 
# From -- ./inp_files/136696.got.cif
#   From: 2010.06.25/outbox.cif.g09.slc.cpg/sg12_69_cif.got.tgz:136696.got - 2010.06.28 00:19:55.
