data_PCOD8099085
_publ_section_title
;
Structure prediction by ZEFSAII (Michael W. Deem and Ramdas Pophale) SiO2 
 PCOD8099085
Probable space group: C 2/M
;
_chemical_formula_sum "Si O2"
_cell_formula_units_Z 56
_cell_length_a 18.895803
_cell_length_b 8.949058
_cell_length_c 25.929515
_cell_angle_alpha 90.000000
_cell_angle_beta 40.241398
_cell_angle_gamma 90.000000
_cell_volume 2832.538991
_symmetry_space_group_name_H-M "C 2/M"
_symmetry_group_IT_number 12
_symmetry_cell_setting 'monoclinic'
loop_
_space_group_symop_operation_xyz
x,y,z
-x,y,-z
-x,-y,-z
x,-y,z
1/2+x,1/2+y,z
1/2-x,1/2+y,-z
1/2-x,1/2-y,-z
1/2+x,1/2-y,z
loop_
_atom_site_type_symbol
_atom_site_label
_atom_site_fract_x
_atom_site_fract_y
_atom_site_fract_z
Si Si1 0.829937 0.169599 0.820642
Si Si2 0.435022 0.169778 0.483695
Si Si3 0.164026 0.175241 0.769371
Si Si4 0.883985 0.174157 0.086485
Si Si5 0.962627 0.675534 0.252099
Si Si6 0.231112 0.675148 0.565622
Si Si7 0.119505 0.830352 0.326921
O O1 0.708987 0.238358 0.893686
O O2 0.863205 0.177529 0.743055
O O3 0.915572 0.264262 0.806302
O O4 0.829156 0.000000 0.841507
O O5 0.500000 0.180203 0.500000
O O6 0.321120 0.256575 0.554356
O O7 0.504866 0.248205 0.400150
O O8 0.411980 0.000000 0.479517
O O9 0.118055 0.211252 0.851734
O O10 0.081961 0.246224 0.774220
O O11 0.284156 0.246146 0.696058
O O12 0.174671 0.000000 0.752966
O O13 0.863852 0.000000 0.087827
O O14 0.000000 0.228042 0.000000
O O15 0.966992 0.500000 0.239404
O O16 0.886819 0.712610 0.343974
O O17 0.249240 0.500000 0.549715
O O18 0.250000 0.750000 0.500000
O O19 0.114761 0.000000 0.349831
#
# Coordination Sequence:
#
# PCOD8099085 Si02
#       7
#     8   8   8   8   8   8   8
#     4  10  21  36  57  84 111 142 181 223 268 322
#     4  11  23  36  52  76 106 141 183 232 281 327
#     4  10  20  35  58  85 113 146 183 225 274 327
#     4   9  19  38  63  89 116 145 178 218 267 325
#     4  11  23  38  56  80 112 148 187 230 276 328
#     4  11  24  39  56  78 107 146 189 235 284 331
#     4  10  20  35  55  78 106 141 183 229 275 327
#
# _framework density 19.770247999999999
#
# number of rings (size 3 to 8) (size 9 to 14) (size 15 to 20)
#    0.000    1.714    0.000    4.286    0.000   10.571 
#    0.000    0.714    0.000    0.000    0.000    0.000 
#    0.000    0.000    0.000    0.000    0.000    0.000 
#
# Total GULP energy -347319.909014 kJ/mol
# GULP energy per Si atom -12404.282465 kJ/mol
# Density = 1.972525 g / cm^3
# Si number density = 19.770248 Si / 1000 Ang^3
#
#
#
# Elastic Constant Matrix: (Units=GPa)
#
#
# Indices 1 2 3 4 5 6 
#
# 1 106.4420 53.3044 25.3856 0.0000 -20.8301 0.0001
# 2 53.3044 118.4959 42.2634 0.0001 -12.8410 0.0000
# 3 25.3856 42.2634 77.1045 0.0000 -20.7057 0.0001
# 4 0.0000 0.0001 0.0000 26.9962 0.0000 -5.9739
# 5 -20.8301 -12.8410 -20.7057 0.0000 28.4333 0.0000
# 6 0.0001 0.0000 0.0001 -5.9739 0.0000 39.5727
#
#
#
# Elastic Compliance Matrix: (Units=1/GPa)
#
#
# Indices 1 2 3 4 5 6 
#
# 1 0.013522 -0.005463 0.000672 0.000000 0.007928 0.000000
# 2 -0.005463 0.012708 -0.005843 0.000000 -0.002518 0.000000
# 3 0.000672 -0.005843 0.019112 0.000000 0.011771 0.000000
# 4 0.000000 0.000000 0.000000 0.038322 0.000000 0.005785
# 5 0.007928 -0.002518 0.011771 0.000000 0.048413 0.000000
# 6 0.000000 0.000000 0.000000 0.005785 0.000000 0.026143
#
#
# Mechanical properties :
#
#
# Convention : Reuss Voigt Hill
#
# Bulk Modulus (GPa) = 41.54129 60.43879 50.99004
# Shear Modulus (GPa) = 26.66469 31.07302 28.86886
#
# Velocity S-wave (km/s) = 3.67649 3.96878 3.82542
# Velocity P-wave (km/s) = 6.25138 7.18599 6.73492
#
# Compressibility (1/GPa) = 0.02407243
#
# Stress axis : x y z
#
# Youngs Moduli (GPa) = 73.95396 78.69180 52.32279
#
# Poissons Ratio (x) = 0.42990 -0.03514
# Poissons Ratio (y) = 0.40402 0.30573
# Poissons Ratio (z) = -0.04967 0.45981
#
# Static dielectric constant tensor:
#      x y z
#    x 3.672750 0.000000 -0.261580 
#    y 0.000000 3.827900 0.000000 
#    z -0.261580 0.000000 3.701370 
# 
# 
# High freq. dielectric constant tensor:
#      x y z
#    x 1.775190 0.000000 -0.011360 
#    y 0.000000 1.784660 0.000000 
#    z -0.011360 0.000000 1.758080 
# 
# From -- ./inp_files/362971.got.cif
#   From: 2010.06.25/outbox.cif.g09.slc.cpg/sg12_182_cif.got.tgz:362971.got - 2010.06.28 00:19:55.
