data_PCOD8099102
_publ_section_title
;
Structure prediction by ZEFSAII (Michael W. Deem and Ramdas Pophale) SiO2 
 PCOD8099102
Probable space group: C 2/M
;
_chemical_formula_sum "Si O2"
_cell_formula_units_Z 48
_cell_length_a 12.409458
_cell_length_b 12.671108
_cell_length_c 16.030363
_cell_angle_alpha 90.000000
_cell_angle_beta 73.751523
_cell_angle_gamma 90.000000
_cell_volume 2419.958474
_symmetry_space_group_name_H-M "C 2/M"
_symmetry_group_IT_number 12
_symmetry_cell_setting 'monoclinic'
loop_
_space_group_symop_operation_xyz
x,y,z
-x,y,-z
-x,-y,-z
x,-y,z
1/2+x,1/2+y,z
1/2-x,1/2+y,-z
1/2-x,1/2-y,-z
1/2+x,1/2-y,z
loop_
_atom_site_type_symbol
_atom_site_label
_atom_site_fract_x
_atom_site_fract_y
_atom_site_fract_z
Si Si1 0.845687 0.264734 0.082383
Si Si2 0.986905 0.273230 0.200893
Si Si3 0.134306 0.123311 0.075110
Si Si4 0.871145 0.877039 0.512894
Si Si5 0.284823 0.715199 0.362731
Si Si6 0.191770 0.619160 0.227099
O O1 0.940928 0.315619 0.121189
O O2 0.766535 0.357909 0.064592
O O3 0.776803 0.187000 0.155697
O O4 0.899166 0.193866 0.997602
O O5 0.889657 0.255747 0.287814
O O6 0.057086 0.164483 0.168653
O O7 0.065425 0.361916 0.223775
O O8 0.111855 0.000000 0.064510
O O9 0.788598 0.814388 0.591920
O O10 0.833379 0.854998 0.426796
O O11 0.000000 0.841133 0.500000
O O12 0.857317 0.000000 0.536473
O O13 0.203622 0.644410 0.322754
O O14 0.224981 0.500000 0.203082
#
# Coordination Sequence:
#
# PCOD8099102 Si02
#       6
#     8   8   8   8   8   8
#     4   9  20  36  52  79 114 144 184 232 271 312
#     4  10  21  35  53  80 111 142 180 226 270 321
#     4  10  20  35  56  80 109 148 189 227 270 319
#     4  10  21  38  61  84 108 142 180 221 273 331
#     4  10  21  38  56  82 115 140 176 227 273 323
#     4  10  20  35  55  78 108 147 184 221 269 321
#
# _framework density 19.835052000000001
#
# number of rings (size 3 to 8) (size 9 to 14) (size 15 to 20)
#    0.000    2.167    0.000    2.500    0.000    6.000 
#    0.000   10.000    0.000   11.500    0.000    0.000 
#    0.000    0.000    0.000    0.000    0.000    0.000 
#
# Total GULP energy -297541.601301 kJ/mol
# GULP energy per Si atom -12397.566721 kJ/mol
# Density = 1.978991 g / cm^3
# Si number density = 19.835052 Si / 1000 Ang^3
#
#
#
# Elastic Constant Matrix: (Units=GPa)
#
#
# Indices 1 2 3 4 5 6 
#
# 1 124.7723 29.2294 42.4048 0.0000 18.6400 0.0000
# 2 29.2294 63.1083 30.6806 0.0000 -1.5355 0.0000
# 3 42.4048 30.6806 96.4717 0.0000 -0.7569 0.0000
# 4 0.0000 0.0000 0.0000 15.4792 0.0000 -0.4531
# 5 18.6400 -1.5355 -0.7569 0.0000 39.6358 0.0000
# 6 0.0000 0.0000 0.0000 -0.4531 0.0000 18.8417
#
#
#
# Elastic Compliance Matrix: (Units=1/GPa)
#
#
# Indices 1 2 3 4 5 6 
#
# 1 0.010866 -0.003336 -0.003757 0.000000 -0.005311 0.000000
# 2 -0.003336 0.019783 -0.004808 0.000000 0.002243 0.000000
# 3 -0.003757 -0.004808 0.013561 0.000000 0.001840 0.000000
# 4 0.000000 0.000000 0.000000 0.064649 0.000000 0.001554
# 5 -0.005311 0.002243 0.001840 0.000000 0.027849 0.000000
# 6 0.000000 0.000000 0.000000 0.001554 0.000000 0.053111
#
#
# Mechanical properties :
#
#
# Convention : Reuss Voigt Hill
#
# Bulk Modulus (GPa) = 48.99866 54.33132 51.66499
# Shear Modulus (GPa) = 22.68374 26.92718 24.80546
#
# Velocity S-wave (km/s) = 3.38541 3.68850 3.54020
# Velocity P-wave (km/s) = 6.32756 6.75212 6.54328
#
# Compressibility (1/GPa) = 0.02040872
#
# Stress axis : x y z
#
# Youngs Moduli (GPa) = 92.02705 50.54973 73.74280
#
# Poissons Ratio (x) = 0.16861 0.27707
# Poissons Ratio (y) = 0.30696 0.35453
# Poissons Ratio (z) = 0.34577 0.24302
#
# Static dielectric constant tensor:
#      x y z
#    x 4.187180 0.000000 0.283020 
#    y 0.000000 3.271020 0.000000 
#    z 0.283020 0.000000 3.759260 
# 
# 
# High freq. dielectric constant tensor:
#      x y z
#    x 1.796780 0.000000 0.006750 
#    y 0.000000 1.746510 0.000000 
#    z 0.006750 0.000000 1.779840 
# 
# From -- ./inp_files/262114.got.cif
#   From: 2010.06.25/outbox.cif.g09.slc.cpg/sg12_132_cif.got.tgz:262114.got - 2010.06.28 00:19:55.
