data_PCOD8099583
_publ_section_title
;
Structure prediction by ZEFSAII (Michael W. Deem and Ramdas Pophale) SiO2 
 PCOD8099583
Probable space group: C 2/M
;
_chemical_formula_sum "Si O2"
_cell_formula_units_Z 56
_cell_length_a 18.186569
_cell_length_b 11.310831
_cell_length_c 15.554409
_cell_angle_alpha 90.000000
_cell_angle_beta 112.676995
_cell_angle_gamma 90.000000
_cell_volume 2952.269571
_symmetry_space_group_name_H-M "C 2/M"
_symmetry_group_IT_number 12
_symmetry_cell_setting 'monoclinic'
loop_
_space_group_symop_operation_xyz
x,y,z
-x,y,-z
-x,-y,-z
x,-y,z
1/2+x,1/2+y,z
1/2-x,1/2+y,-z
1/2-x,1/2-y,-z
1/2+x,1/2-y,z
loop_
_atom_site_type_symbol
_atom_site_label
_atom_site_fract_x
_atom_site_fract_y
_atom_site_fract_z
Si Si1 0.799169 0.362087 0.557187
Si Si2 0.843685 0.367383 0.770169
Si Si3 0.505027 0.791973 0.906226
Si Si4 0.412939 0.867321 0.223614
Si Si5 0.145143 0.130468 0.981875
Si Si6 0.765954 0.788486 0.136784
Si Si7 0.024783 0.363916 0.421046
O O1 0.766432 0.500000 0.528894
O O2 0.750000 0.250000 0.500000
O O3 0.810393 0.335498 0.662347
O O4 0.881836 0.349436 0.545874
O O5 0.880134 0.500000 0.786447
O O6 0.768738 0.363419 0.800321
O O7 0.915224 0.278466 0.829205
O O8 0.557556 0.866921 0.862229
O O9 0.551632 0.666602 0.933703
O O10 0.500000 0.850142 0.000000
O O11 0.329028 0.804957 0.200388
O O12 0.478278 0.808470 0.317653
O O13 0.396188 0.000000 0.243001
O O14 0.188422 0.126115 0.908761
O O15 0.149107 0.000000 0.023931
O O16 0.190273 0.224032 0.060970
O O17 0.999717 0.500000 0.413043
O O18 0.000000 0.301706 0.500000
#
# Coordination Sequence:
#
# PCOD8099583 Si02
#       7
#     8   8   8   8   8   8   8
#     4  10  22  41  65  90 122 151 192 249 305 360
#     4  11  22  39  60  84 114 151 194 245 291 348
#     4  11  21  37  55  83 112 152 199 234 287 345
#     4  10  20  35  56  82 113 146 193 244 283 339
#     4  10  21  38  53  75 116 155 192 241 290 338
#     4  10  21  36  54  82 108 149 200 231 285 347
#     4   9  18  34  57  84 111 148 187 237 297 347
#
# _framework density 18.968457999999998
#
# number of rings (size 3 to 8) (size 9 to 14) (size 15 to 20)
#    0.000    1.857    2.857    1.286    2.000    1.429 
#    0.000    1.429    0.000    0.429    0.000    0.000 
#    0.000    0.000    0.000    0.000    0.000    0.000 
#
# Total GULP energy -346927.967318 kJ/mol
# GULP energy per Si atom -12390.284547 kJ/mol
# Density = 1.892528 g / cm^3
# Si number density = 18.968458 Si / 1000 Ang^3
#
#
#
# Elastic Constant Matrix: (Units=GPa)
#
#
# Indices 1 2 3 4 5 6 
#
# 1 96.9857 27.3971 48.6359 0.0000 -3.8355 0.0000
# 2 27.3971 72.7390 41.5396 0.0000 10.5945 0.0000
# 3 48.6359 41.5396 119.0458 0.0000 -6.4383 0.0000
# 4 0.0000 0.0000 0.0000 3.3797 0.0000 -0.6172
# 5 -3.8355 10.5945 -6.4383 0.0000 34.1103 0.0000
# 6 0.0000 0.0000 0.0000 -0.6172 0.0000 18.7327
#
#
#
# Elastic Compliance Matrix: (Units=1/GPa)
#
#
# Indices 1 2 3 4 5 6 
#
# 1 0.013360 -0.002725 -0.004425 0.000000 0.001513 0.000000
# 2 -0.002725 0.019296 -0.006022 0.000000 -0.007437 0.000000
# 3 -0.004425 -0.006022 0.012511 0.000000 0.003734 0.000000
# 4 0.000000 0.000000 0.000000 0.297675 0.000000 0.009807
# 5 0.001513 -0.007437 0.003734 0.000000 0.032501 0.000000
# 6 0.000000 0.000000 0.000000 0.009807 0.000000 0.053706
#
#
# Mechanical properties :
#
#
# Convention : Reuss Voigt Hill
#
# Bulk Modulus (GPa) = 53.12825 58.21286 55.67056
# Shear Modulus (GPa) = 10.83027 22.65773 16.74400
#
# Velocity S-wave (km/s) = 2.39207 3.45990 2.97430
# Velocity P-wave (km/s) = 5.97486 6.83499 6.41935
#
# Compressibility (1/GPa) = 0.01882238
#
# Stress axis : x y z
#
# Youngs Moduli (GPa) = 74.85227 51.82311 79.92723
#
# Poissons Ratio (x) = 0.14122 0.35370
# Poissons Ratio (y) = 0.20398 0.48133
# Poissons Ratio (z) = 0.33124 0.31208
#
# Static dielectric constant tensor:
#      x y z
#    x 3.567260 0.000000 -0.126480 
#    y 0.000000 3.206990 0.000000 
#    z -0.126480 0.000000 3.669540 
# 
# 
# High freq. dielectric constant tensor:
#      x y z
#    x 1.750930 0.000000 -0.008290 
#    y 0.000000 1.699830 0.000000 
#    z -0.008290 0.000000 1.738590 
# 
# From -- ./inp_files/223918.got.cif
#   From: 2010.06.25/outbox.cif.g09.slc.cpg/sg12_112_cif.got.tgz:223918.got - 2010.06.28 00:19:55.
