data_PCOD8099796
_publ_section_title
;
Structure prediction by ZEFSAII (Michael W. Deem and Ramdas Pophale) SiO2 
 PCOD8099796
Probable space group: C 2/M
;
_chemical_formula_sum "Si O2"
_cell_formula_units_Z 40
_cell_length_a 14.405208
_cell_length_b 13.329854
_cell_length_c 14.584712
_cell_angle_alpha 90.000000
_cell_angle_beta 49.886446
_cell_angle_gamma 90.000000
_cell_volume 2141.771138
_symmetry_space_group_name_H-M "C 2/M"
_symmetry_group_IT_number 12
_symmetry_cell_setting 'monoclinic'
loop_
_space_group_symop_operation_xyz
x,y,z
-x,y,-z
-x,-y,-z
x,-y,z
1/2+x,1/2+y,z
1/2-x,1/2+y,-z
1/2-x,1/2-y,-z
1/2+x,1/2-y,z
loop_
_atom_site_type_symbol
_atom_site_label
_atom_site_fract_x
_atom_site_fract_y
_atom_site_fract_z
Si Si1 0.297689 0.717362 0.745133
Si Si2 0.640020 0.615283 0.918578
Si Si3 0.871055 0.883956 0.868964
Si Si4 0.261949 0.118005 0.406483
Si Si5 0.553922 0.274762 0.644454
O O1 0.219575 0.818878 0.798776
O O2 0.274668 0.652376 0.852931
O O3 0.256748 0.651919 0.685661
O O4 0.441011 0.746024 0.646826
O O5 0.660024 0.500000 0.877756
O O6 0.500000 0.645266 0.000000
O O7 0.682805 0.636378 0.995945
O O8 0.999280 0.825587 0.771709
O O9 0.900192 0.000000 0.837294
O O10 0.380881 0.170624 0.372983
O O11 0.145147 0.146769 0.540174
O O12 0.283557 0.000000 0.396527
#
# Coordination Sequence:
#
# PCOD8099796 Si02
#       5
#     8   8   8   8   8
#     4  10  21  35  58  85 117 148 193 239 284 338
#     4  10  20  35  57  80 112 154 193 233 288 345
#     4   9  18  34  56  82 109 149 193 231 279 339
#     4  11  21  38  60  87 118 150 192 240 288 340
#     4   9  22  35  57  87 115 152 185 237 288 342
#
# _framework density 18.676131999999999
#
# number of rings (size 3 to 8) (size 9 to 14) (size 15 to 20)
#    1.200    1.000    0.000    3.600    0.000    1.600 
#    0.000    4.000    0.000    8.400    0.000    0.000 
#    0.000    0.000    0.000    0.000    0.000    0.000 
#
# Total GULP energy -247882.630752 kJ/mol
# GULP energy per Si atom -12394.131538 kJ/mol
# Density = 1.863362 g / cm^3
# Si number density = 18.676132 Si / 1000 Ang^3
#
#
#
# Elastic Constant Matrix: (Units=GPa)
#
#
# Indices 1 2 3 4 5 6 
#
# 1 45.5606 36.4830 12.1556 0.0000 4.6199 0.0000
# 2 36.4830 137.0330 46.1892 0.0000 -8.3271 0.0000
# 3 12.1556 46.1892 32.1341 0.0000 -4.1685 0.0000
# 4 0.0000 0.0000 0.0000 33.7883 0.0000 2.4979
# 5 4.6199 -8.3271 -4.1685 0.0000 29.8362 0.0000
# 6 0.0000 0.0000 0.0000 2.4979 0.0000 26.2317
#
#
#
# Elastic Compliance Matrix: (Units=1/GPa)
#
#
# Indices 1 2 3 4 5 6 
#
# 1 0.029195 -0.008082 -0.000311 0.000000 -0.006820 0.000000
# 2 -0.008082 0.016431 -0.020169 0.000000 0.003019 0.000000
# 3 -0.000311 -0.020169 0.060602 0.000000 0.002886 0.000000
# 4 0.000000 0.000000 0.000000 0.029806 0.000000 -0.002838
# 5 -0.006820 0.003019 0.002886 0.000000 0.035818 0.000000
# 6 0.000000 0.000000 0.000000 -0.002838 0.000000 0.038392
#
#
# Mechanical properties :
#
#
# Convention : Reuss Voigt Hill
#
# Bulk Modulus (GPa) = 20.36496 44.93149 32.64823
# Shear Modulus (GPa) = 17.62196 25.96457 21.79327
#
# Velocity S-wave (km/s) = 3.07507 3.73266 3.41970
# Velocity P-wave (km/s) = 4.85139 6.53356 5.75428
#
# Compressibility (1/GPa) = 0.04910394
#
# Stress axis : x y z
#
# Youngs Moduli (GPa) = 34.25198 60.86056 16.50113
#
# Poissons Ratio (x) = 0.49190 0.00513
# Poissons Ratio (y) = 0.27684 0.33281
# Poissons Ratio (z) = 0.01066 1.22748
#
# Static dielectric constant tensor:
#      x y z
#    x 3.362310 0.000000 0.110720 
#    y 0.000000 3.268740 0.000000 
#    z 0.110720 0.000000 3.326220 
# 
# 
# High freq. dielectric constant tensor:
#      x y z
#    x 1.720200 0.000000 0.009340 
#    y 0.000000 1.721670 0.000000 
#    z 0.009340 0.000000 1.719040 
# 
# From -- ./inp_files/211855.got.cif
#   From: 2010.06.25/outbox.cif.g09.slc.cpg/sg12_106_cif.got.tgz:211855.got - 2010.06.28 00:19:55.
