data_PCOD8099941
_publ_section_title
;
Structure prediction by ZEFSAII (Michael W. Deem and Ramdas Pophale) SiO2 
 PCOD8099941
Probable space group: C 2/M
;
_chemical_formula_sum "Si O2"
_cell_formula_units_Z 64
_cell_length_a 24.022073
_cell_length_b 9.164164
_cell_length_c 28.311120
_cell_angle_alpha 90.000000
_cell_angle_beta 149.513243
_cell_angle_gamma 90.000000
_cell_volume 3161.977705
_symmetry_space_group_name_H-M "C 2/M"
_symmetry_group_IT_number 12
_symmetry_cell_setting 'monoclinic'
loop_
_space_group_symop_operation_xyz
x,y,z
-x,y,-z
-x,-y,-z
x,-y,z
1/2+x,1/2+y,z
1/2-x,1/2+y,-z
1/2-x,1/2-y,-z
1/2+x,1/2-y,z
loop_
_atom_site_type_symbol
_atom_site_label
_atom_site_fract_x
_atom_site_fract_y
_atom_site_fract_z
Si Si1 0.132169 0.836630 0.641890
Si Si2 0.875282 0.661299 0.860481
Si Si3 0.454011 0.668088 0.834557
Si Si4 0.215653 0.669278 0.618153
Si Si5 0.821009 0.666839 0.513987
Si Si6 0.567250 0.832000 0.681984
Si Si7 0.664746 0.828505 0.971183
Si Si8 0.735481 0.830817 0.128360
O O1 0.253129 0.841288 0.751348
O O2 0.133263 0.759704 0.591514
O O3 0.058554 0.744927 0.624523
O O4 0.084675 0.000000 0.601682
O O5 0.929300 0.500000 0.894338
O O6 0.946447 0.777133 0.883357
O O7 0.864501 0.704922 0.908042
O O8 0.489070 0.500000 0.860901
O O9 0.341015 0.694238 0.724833
O O10 0.545155 0.761385 0.873440
O O11 0.182138 0.500000 0.597400
O O12 0.202455 0.729123 0.555510
O O13 0.783257 0.500000 0.487971
O O14 0.750000 0.750000 0.500000
O O15 0.949174 0.683848 0.620498
O O16 0.656299 0.762017 0.781742
O O17 0.598798 0.000000 0.696421
O O18 0.695569 0.791015 0.047365
O O19 0.663789 0.000000 0.960012
O O20 0.750000 0.750000 0.000000
O O21 0.768416 0.000000 0.157557
#
# Coordination Sequence:
#
# PCOD8099941 Si02
#       8
#     8   8   8   8   8   8   8   8
#     4   9  17  31  54  84 114 144 180 221 269 326
#     4   8  15  31  54  80 109 140 175 215 265 326
#     4  10  20  35  57  84 111 142 180 222 271 323
#     4   9  19  37  58  80 111 148 182 222 273 327
#     4  10  23  40  56  78 108 145 189 231 274 325
#     4  10  20  35  57  84 113 144 179 224 276 325
#     4  11  24  41  58  78 108 145 186 230 272 321
#     4   9  20  38  59  82 110 146 182 219 271 329
#
# _framework density 20.240497999999999
#
# number of rings (size 3 to 8) (size 9 to 14) (size 15 to 20)
#    0.000    2.500    0.000    2.250    0.000    8.000 
#    0.000    8.750    0.000    0.000    0.000    0.000 
#    0.000    0.000    0.000    0.000    0.000    0.000 
#
# Total GULP energy -396836.763514 kJ/mol
# GULP energy per Si atom -12401.148860 kJ/mol
# Density = 2.019443 g / cm^3
# Si number density = 20.240498 Si / 1000 Ang^3
#
#
#
# Elastic Constant Matrix: (Units=GPa)
#
#
# Indices 1 2 3 4 5 6 
#
# 1 92.1642 43.9445 9.9046 0.0000 5.7669 0.0000
# 2 43.9445 106.4623 27.1997 0.0000 8.0118 0.0002
# 3 9.9046 27.1997 29.6828 0.0000 0.4876 0.0000
# 4 0.0000 0.0000 0.0000 24.9988 0.0000 3.0713
# 5 5.7669 8.0118 0.4876 0.0000 30.3191 0.0000
# 6 0.0000 0.0002 0.0000 3.0713 0.0000 42.1806
#
#
#
# Elastic Compliance Matrix: (Units=1/GPa)
#
#
# Indices 1 2 3 4 5 6 
#
# 1 0.013558 -0.005697 0.000714 0.000000 -0.001085 0.000000
# 2 -0.005697 0.014949 -0.011753 0.000000 -0.002678 0.000000
# 3 0.000714 -0.011753 0.044184 0.000000 0.002259 0.000000
# 4 0.000000 0.000000 0.000000 0.040363 0.000000 -0.002939
# 5 -0.001085 -0.002678 0.002259 0.000000 0.033860 0.000000
# 6 0.000000 0.000000 0.000000 -0.002939 0.000000 0.023922
#
#
# Mechanical properties :
#
#
# Convention : Reuss Voigt Hill
#
# Bulk Modulus (GPa) = 25.49811 43.37856 34.43834
# Shear Modulus (GPa) = 23.00116 29.31709 26.15913
#
# Velocity S-wave (km/s) = 3.37470 3.80996 3.59892
# Velocity P-wave (km/s) = 5.27349 6.39003 5.85842
#
# Compressibility (1/GPa) = 0.03921859
#
# Stress axis : x y z
#
# Youngs Moduli (GPa) = 73.75872 66.89452 22.63257
#
# Poissons Ratio (x) = 0.38110 -0.01617
# Poissons Ratio (y) = 0.42021 0.26601
# Poissons Ratio (z) = -0.05269 0.78623
#
# Static dielectric constant tensor:
#      x y z
#    x 3.772650 0.000000 -0.052880 
#    y 0.000000 3.752140 0.000000 
#    z -0.052880 0.000000 3.555650 
# 
# 
# High freq. dielectric constant tensor:
#      x y z
#    x 1.786950 0.000000 0.001230 
#    y 0.000000 1.791300 0.000000 
#    z 0.001230 0.000000 1.789150 
# 
# From -- ./inp_files/382438.got.cif
#   From: 2010.06.25/outbox.cif.g09.slc.cpg/sg12_192_cif.got.tgz:382438.got - 2010.06.28 00:19:55.
