data_PCOD8099737
_publ_section_title
;
Structure prediction by ZEFSAII (Michael W. Deem and Ramdas Pophale) SiO2 
 PCOD8099737
Probable space group: C 2/M
;
_chemical_formula_sum "Si O2"
_cell_formula_units_Z 56
_cell_length_a 12.380902
_cell_length_b 13.224062
_cell_length_c 17.544446
_cell_angle_alpha 90.000000
_cell_angle_beta 114.630755
_cell_angle_gamma 90.000000
_cell_volume 2611.119155
_symmetry_space_group_name_H-M "C 2/M"
_symmetry_group_IT_number 12
_symmetry_cell_setting 'monoclinic'
loop_
_space_group_symop_operation_xyz
x,y,z
-x,y,-z
-x,-y,-z
x,-y,z
1/2+x,1/2+y,z
1/2-x,1/2+y,-z
1/2-x,1/2-y,-z
1/2+x,1/2-y,z
loop_
_atom_site_type_symbol
_atom_site_label
_atom_site_fract_x
_atom_site_fract_y
_atom_site_fract_z
Si Si1 0.453353 0.380317 0.906270
Si Si2 0.131766 0.737796 0.559934
Si Si3 0.299151 0.115505 0.129505
Si Si4 0.435551 0.791506 0.297032
Si Si5 0.631307 0.120009 0.014656
Si Si6 0.827424 0.379976 0.573564
Si Si7 0.629922 0.618618 0.828027
O O1 0.459385 0.500000 0.903319
O O2 0.318855 0.337365 0.865590
O O3 0.535554 0.340095 0.862468
O O4 0.500000 0.339536 0.000000
O O5 0.139272 0.692666 0.647397
O O6 0.175274 0.647783 0.517014
O O7 0.206012 0.841350 0.575170
O O8 0.000000 0.772302 0.500000
O O9 0.401970 0.128622 0.221638
O O10 0.272061 0.000000 0.103907
O O11 0.334431 0.165511 0.058695
O O12 0.572437 0.813847 0.354645
O O13 0.406754 0.677961 0.259282
O O14 0.736385 0.148812 0.105500
O O15 0.624016 0.000000 0.006675
O O16 0.500000 0.161676 0.000000
O O17 0.844535 0.500000 0.589348
O O18 0.619537 0.500000 0.808340
#
# Coordination Sequence:
#
# PCOD8099737 Si02
#       7
#     8   8   8   8   8   8   8
#     4   9  16  33  58  77 108 158 212 266 310 355
#     4   9  22  44  66  95 128 160 204 246 300 379
#     4  10  20  35  56  85 117 158 211 262 311 359
#     4  11  24  37  60  94 128 156 202 252 310 374
#     4   9  18  35  56  80 119 169 216 260 313 372
#     4  10  22  44  71  95 126 164 199 246 308 374
#     4  10  21  38  57  83 121 167 212 260 315 363
#
# _framework density 21.446740999999999
#
# number of rings (size 3 to 8) (size 9 to 14) (size 15 to 20)
#    0.000    2.286    1.429    0.429    2.000    5.714 
#    0.000    7.143    0.000    0.000    0.000    0.000 
#    0.000    0.000    0.000    0.000    0.000    0.000 
#
# Total GULP energy -346979.733880 kJ/mol
# GULP energy per Si atom -12392.133353 kJ/mol
# Density = 2.139793 g / cm^3
# Si number density = 21.446741 Si / 1000 Ang^3
#
#
#
# Elastic Constant Matrix: (Units=GPa)
#
#
# Indices 1 2 3 4 5 6 
#
# 1 125.1109 29.5463 32.0119 0.0000 2.1612 0.0000
# 2 29.5463 88.7388 26.5924 0.0000 8.9714 0.0000
# 3 32.0119 26.5924 112.0087 0.0000 -3.5830 0.0000
# 4 0.0000 0.0000 0.0000 46.1435 0.0000 8.2804
# 5 2.1612 8.9714 -3.5830 0.0000 22.3378 0.0000
# 6 0.0000 0.0000 0.0000 8.2804 0.0000 16.3489
#
#
#
# Elastic Compliance Matrix: (Units=1/GPa)
#
#
# Indices 1 2 3 4 5 6 
#
# 1 0.009082 -0.002389 -0.002036 0.000000 -0.000246 0.000000
# 2 -0.002389 0.013435 -0.002686 0.000000 -0.005595 0.000000
# 3 -0.002036 -0.002686 0.010241 0.000000 0.002918 0.000000
# 4 0.000000 0.000000 0.000000 0.023838 0.000000 -0.012074
# 5 -0.000246 -0.005595 0.002918 0.000000 0.047506 0.000000
# 6 0.000000 0.000000 0.000000 -0.012074 0.000000 0.067281
#
#
# Mechanical properties :
#
#
# Convention : Reuss Voigt Hill
#
# Bulk Modulus (GPa) = 53.94966 55.79550 54.87258
# Shear Modulus (GPa) = 26.07082 32.81322 29.44202
#
# Velocity S-wave (km/s) = 3.49034 3.91575 3.70915
# Velocity P-wave (km/s) = 6.43841 6.82030 6.63210
#
# Compressibility (1/GPa) = 0.01853580
#
# Stress axis : x y z
#
# Youngs Moduli (GPa) = 110.10324 74.43237 97.64757
#
# Poissons Ratio (x) = 0.17781 0.19885
# Poissons Ratio (y) = 0.26303 0.26227
# Poissons Ratio (z) = 0.22422 0.19992
#
# Static dielectric constant tensor:
#      x y z
#    x 4.295030 0.000000 -0.073670 
#    y 0.000000 3.630870 0.000000 
#    z -0.073670 0.000000 3.858320 
# 
# 
# High freq. dielectric constant tensor:
#      x y z
#    x 1.852380 0.000000 -0.000410 
#    y 0.000000 1.838470 0.000000 
#    z -0.000410 0.000000 1.832130 
# 
# From -- ./inp_files/262960.got.cif
#   From: 2010.06.25/outbox.cif.g09.slc.cpg/sg12_132_cif.got.tgz:262960.got - 2010.06.28 00:19:55.
