data_PCOD8099139
_publ_section_title
;
Structure prediction by ZEFSAII (Michael W. Deem and Ramdas Pophale) SiO2 
 PCOD8099139
Probable space group: C 2/M
;
_chemical_formula_sum "Si O2"
_cell_formula_units_Z 48
_cell_length_a 16.119609
_cell_length_b 12.916432
_cell_length_c 12.612663
_cell_angle_alpha 90.000000
_cell_angle_beta 104.375261
_cell_angle_gamma 90.000000
_cell_volume 2543.834629
_symmetry_space_group_name_H-M "C 2/M"
_symmetry_group_IT_number 12
_symmetry_cell_setting 'monoclinic'
loop_
_space_group_symop_operation_xyz
x,y,z
-x,y,-z
-x,-y,-z
x,-y,z
1/2+x,1/2+y,z
1/2-x,1/2+y,-z
1/2-x,1/2-y,-z
1/2+x,1/2-y,z
loop_
_atom_site_type_symbol
_atom_site_label
_atom_site_fract_x
_atom_site_fract_y
_atom_site_fract_z
Si Si1 0.771980 0.381653 0.716011
Si Si2 0.937158 0.737758 0.690128
Si Si3 0.663066 0.737591 0.536325
Si Si4 0.479704 0.378224 0.113125
Si Si5 0.389332 0.876823 0.296236
Si Si6 0.696953 0.720451 0.882111
O O1 0.792407 0.500000 0.708286
O O2 0.853502 0.323459 0.696858
O O3 0.682474 0.353478 0.627084
O O4 0.759064 0.352908 0.834002
O O5 0.914584 0.790553 0.568774
O O6 0.955915 0.824371 0.783791
O O7 0.014344 0.657831 0.699425
O O8 0.750000 0.750000 0.500000
O O9 0.638325 0.841235 0.594446
O O10 0.492813 0.500000 0.129527
O O11 0.384013 0.346988 0.110348
O O12 0.500000 0.341364 0.000000
O O13 0.327219 0.824574 0.189630
O O14 0.381060 0.000000 0.285429
O O15 0.750000 0.750000 0.000000
#
# Coordination Sequence:
#
# PCOD8099139 Si02
#       6
#     8   8   8   8   8   8
#     4  10  20  35  55  79 108 142 179 221 271 320
#     4  10  20  36  56  82 112 142 179 224 270 321
#     4   9  20  35  51  78 111 141 176 216 262 317
#     4  10  21  37  57  80 108 145 185 224 270 322
#     4  10  21  36  57  83 109 141 181 225 272 322
#     4  10  21  38  56  78 110 141 180 228 271 323
#
# _framework density 18.869150999999999
#
# number of rings (size 3 to 8) (size 9 to 14) (size 15 to 20)
#    0.000    2.167    0.000    2.500    0.000    6.000 
#    0.000   10.000    0.000   11.500    0.000    0.000 
#    0.000    0.000    0.000    0.000    0.000    0.000 
#
# Total GULP energy -297527.852612 kJ/mol
# GULP energy per Si atom -12396.993859 kJ/mol
# Density = 1.882620 g / cm^3
# Si number density = 18.869151 Si / 1000 Ang^3
#
#
#
# Elastic Constant Matrix: (Units=GPa)
#
#
# Indices 1 2 3 4 5 6 
#
# 1 79.1537 43.3772 42.3797 0.0000 -4.5926 0.0000
# 2 43.3772 111.2542 61.8237 0.0000 3.2479 0.0000
# 3 42.3797 61.8237 165.1898 0.0000 11.3229 0.0000
# 4 0.0000 0.0000 0.0000 15.0919 0.0000 -1.1441
# 5 -4.5926 3.2479 11.3229 0.0000 38.9332 0.0000
# 6 0.0000 0.0000 0.0000 -1.1441 0.0000 21.3269
#
#
#
# Elastic Compliance Matrix: (Units=1/GPa)
#
#
# Indices 1 2 3 4 5 6 
#
# 1 0.017143 -0.005317 -0.002630 0.000000 0.003230 0.000000
# 2 -0.005317 0.013001 -0.003453 0.000000 -0.000707 0.000000
# 3 -0.002630 -0.003453 0.008185 0.000000 -0.002403 0.000000
# 4 0.000000 0.000000 0.000000 0.066531 0.000000 0.003569
# 5 0.003230 -0.000707 -0.002403 0.000000 0.026824 0.000000
# 6 0.000000 0.000000 0.000000 0.003569 0.000000 0.047081
#
#
# Mechanical properties :
#
#
# Convention : Reuss Voigt Hill
#
# Bulk Modulus (GPa) = 64.39228 72.30654 68.34941
# Shear Modulus (GPa) = 24.18490 28.93822 26.56156
#
# Velocity S-wave (km/s) = 3.58399 3.92040 3.75596
# Velocity P-wave (km/s) = 7.16425 7.67437 7.42369
#
# Compressibility (1/GPa) = 0.01552981
#
# Stress axis : x y z
#
# Youngs Moduli (GPa) = 58.33397 76.91697 122.16989
#
# Poissons Ratio (x) = 0.40896 0.32125
# Poissons Ratio (y) = 0.31016 0.42188
# Poissons Ratio (z) = 0.15339 0.26561
#
# Static dielectric constant tensor:
#      x y z
#    x 3.526360 0.000000 -0.091860 
#    y 0.000000 3.262520 0.000000 
#    z -0.091860 0.000000 3.910740 
# 
# 
# High freq. dielectric constant tensor:
#      x y z
#    x 1.745430 0.000000 -0.007130 
#    y 0.000000 1.714890 0.000000 
#    z -0.007130 0.000000 1.752250 
# 
# From -- ./inp_files/153542.got.cif
#   From: 2010.06.25/outbox.cif.g09.slc.cpg/sg12_77_cif.got.tgz:153542.got - 2010.06.28 00:19:55.
