data_PCOD8099044
_publ_section_title
;
Structure prediction by ZEFSAII (Michael W. Deem and Ramdas Pophale) SiO2 
 PCOD8099044
Probable space group: C 2/M
;
_chemical_formula_sum "Si O2"
_cell_formula_units_Z 48
_cell_length_a 18.459891
_cell_length_b 9.007153
_cell_length_c 18.512125
_cell_angle_alpha 90.000000
_cell_angle_beta 60.812462
_cell_angle_gamma 90.000000
_cell_volume 2687.207497
_symmetry_space_group_name_H-M "C 2/M"
_symmetry_group_IT_number 12
_symmetry_cell_setting 'monoclinic'
loop_
_space_group_symop_operation_xyz
x,y,z
-x,y,-z
-x,-y,-z
x,-y,z
1/2+x,1/2+y,z
1/2-x,1/2+y,-z
1/2-x,1/2-y,-z
1/2+x,1/2-y,z
loop_
_atom_site_type_symbol
_atom_site_label
_atom_site_fract_x
_atom_site_fract_y
_atom_site_fract_z
Si Si1 0.583030 0.662897 0.414020
Si Si2 0.334447 0.676219 0.483820
Si Si3 0.422027 0.669935 0.827240
Si Si4 0.239370 0.670830 0.929848
Si Si5 0.080087 0.173728 0.003773
Si Si6 0.006253 0.674544 0.660626
O O1 0.500000 0.649163 0.500000
O O2 0.604181 0.500000 0.370705
O O3 0.654103 0.713562 0.436184
O O4 0.569500 0.779511 0.356041
O O5 0.332525 0.500000 0.472168
O O6 0.250000 0.750000 0.500000
O O7 0.409075 0.743428 0.400809
O O8 0.450840 0.500000 0.802349
O O9 0.326765 0.689083 0.845282
O O10 0.429996 0.715356 0.907211
O O11 0.481481 0.778135 0.753420
O O12 0.218943 0.500000 0.953532
O O13 0.250000 0.750000 0.000000
O O14 0.160528 0.746224 0.928805
O O15 0.093606 0.000000 0.986649
O O16 0.000000 0.231470 0.000000
O O17 0.020498 0.500000 0.649308
#
# Coordination Sequence:
#
# PCOD8099044 Si02
#       6
#     8   8   8   8   8   8
#     4   8  16  32  52  72  96 128 162 199 245 293
#     4  10  20  35  55  77 103 134 167 205 251 303
#     4   9  18  33  51  71  99 134 168 208 257 300
#     4   9  17  30  50  73  96 127 165 203 245 294
#     4   9  18  33  53  76 102 133 168 207 253 303
#     4  11  21  32  51  77 102 132 171 211 249 294
#
# _framework density 17.862410000000001
#
# number of rings (size 3 to 8) (size 9 to 14) (size 15 to 20)
#    0.000    2.667    0.000    4.500    0.000    7.333 
#    0.000    1.667    0.000    4.000    0.000    0.000 
#    0.000    0.000    0.000    0.000    0.000    0.000 
#
# Total GULP energy -297449.852458 kJ/mol
# GULP energy per Si atom -12393.743852 kJ/mol
# Density = 1.782175 g / cm^3
# Si number density = 17.862410 Si / 1000 Ang^3
#
#
#
# Elastic Constant Matrix: (Units=GPa)
#
#
# Indices 1 2 3 4 5 6 
#
# 1 137.5475 52.0946 39.0623 0.0000 -13.4523 -0.0002
# 2 52.0946 101.9902 41.4417 0.0000 -7.6954 -0.0006
# 3 39.0623 41.4417 67.9715 0.0000 -4.4613 0.0000
# 4 0.0000 0.0000 0.0000 27.3148 0.0000 -5.6159
# 5 -13.4523 -7.6954 -4.4613 0.0000 19.0434 0.0000
# 6 -0.0002 -0.0006 0.0000 -5.6159 0.0000 29.3779
#
#
#
# Elastic Compliance Matrix: (Units=1/GPa)
#
#
# Indices 1 2 3 4 5 6 
#
# 1 0.009977 -0.003360 -0.003364 0.000000 0.004902 0.000000
# 2 -0.003360 0.014393 -0.006722 0.000000 0.001868 0.000000
# 3 -0.003364 -0.006722 0.020728 0.000000 -0.000237 0.000000
# 4 0.000000 0.000000 0.000000 0.038108 0.000000 0.007285
# 5 0.004902 0.001868 -0.000237 0.000000 0.056674 0.000000
# 6 0.000000 0.000000 0.000000 0.007285 0.000000 0.035432
#
#
# Mechanical properties :
#
#
# Convention : Reuss Voigt Hill
#
# Bulk Modulus (GPa) = 54.92172 63.63405 59.27788
# Shear Modulus (GPa) = 24.00697 26.80792 25.40744
#
# Velocity S-wave (km/s) = 3.67003 3.87822 3.77556
# Velocity P-wave (km/s) = 6.98374 7.46700 7.22941
#
# Compressibility (1/GPa) = 0.01820773
#
# Stress axis : x y z
#
# Youngs Moduli (GPa) = 100.22699 69.47708 48.24367
#
# Poissons Ratio (x) = 0.23341 0.16228
# Poissons Ratio (y) = 0.33671 0.32430
# Poissons Ratio (z) = 0.33714 0.46704
#
# Static dielectric constant tensor:
#      x y z
#    x 3.685730 0.000000 -0.101010 
#    y 0.000000 3.386020 0.000000 
#    z -0.101010 0.000000 3.145110 
# 
# 
# High freq. dielectric constant tensor:
#      x y z
#    x 1.687380 0.000000 -0.006080 
#    y 0.000000 1.694520 0.000000 
#    z -0.006080 0.000000 1.665610 
# 
# From -- ./inp_files/313614.got.cif
#   From: 2010.06.25/outbox.cif.g09.slc.cpg/sg12_157_cif.got.tgz:313614.got - 2010.06.28 00:19:55.
