data_PCOD8099428
_publ_section_title
;
Structure prediction by ZEFSAII (Michael W. Deem and Ramdas Pophale) SiO2 
 PCOD8099428
Probable space group: C 2/M
;
_chemical_formula_sum "Si O2"
_cell_formula_units_Z 64
_cell_length_a 18.899591
_cell_length_b 15.039255
_cell_length_c 25.509737
_cell_angle_alpha 90.000000
_cell_angle_beta 152.268811
_cell_angle_gamma 90.000000
_cell_volume 3373.961389
_symmetry_space_group_name_H-M "C 2/M"
_symmetry_group_IT_number 12
_symmetry_cell_setting 'monoclinic'
loop_
_space_group_symop_operation_xyz
x,y,z
-x,y,-z
-x,-y,-z
x,-y,z
1/2+x,1/2+y,z
1/2-x,1/2+y,-z
1/2-x,1/2-y,-z
1/2+x,1/2-y,z
loop_
_atom_site_type_symbol
_atom_site_label
_atom_site_fract_x
_atom_site_fract_y
_atom_site_fract_z
Si Si1 0.391562 0.603039 0.622543
Si Si2 0.235868 0.898338 0.022736
Si Si3 0.167744 0.258343 0.226483
Si Si4 0.567117 0.602721 0.230756
Si Si5 0.427729 0.101423 0.638395
Si Si6 0.870533 0.237950 0.261933
Si Si7 0.071138 0.397734 0.239155
Si Si8 0.599914 0.719475 0.019114
O O1 0.435013 0.500000 0.644134
O O2 0.398675 0.632425 0.687781
O O3 0.223322 0.624225 0.492797
O O4 0.508661 0.659496 0.664962
O O5 0.400707 0.859954 0.115016
O O6 0.179304 0.858904 0.039968
O O7 0.263869 0.000000 0.054625
O O8 0.114143 0.882898 0.896700
O O9 0.162037 0.163419 0.252749
O O10 0.314303 0.259755 0.285167
O O11 0.185277 0.338047 0.279729
O O12 0.012505 0.275699 0.091882
O O13 0.612606 0.500000 0.250246
O O14 0.560062 0.165766 0.705507
O O15 0.390773 0.116673 0.675100
O O16 0.480269 0.000000 0.662809
O O17 0.729809 0.218249 0.130146
O O18 0.092190 0.500000 0.236051
O O19 0.500000 0.675040 0.000000
#
# Coordination Sequence:
#
# PCOD8099428 Si02
#       8
#     8   8   8   8   8   8   8   8
#     4  10  22  39  59  80 107 144 188 230 265 316
#     4   9  17  30  52  80 105 141 183 222 271 320
#     4  10  22  35  53  82 117 148 173 220 277 326
#     4   9  19  35  55  80 109 141 181 224 271 323
#     4  10  21  39  61  83 105 139 187 233 272 315
#     4  11  21  36  57  81 111 147 183 220 272 328
#     4  10  20  35  56  80 108 142 187 228 265 317
#     4   9  19  32  49  80 115 145 175 215 273 329
#
# _framework density 18.968800000000002
#
# number of rings (size 3 to 8) (size 9 to 14) (size 15 to 20)
#    0.000    2.250    1.250    1.125    1.750    2.250 
#    0.000    5.000    0.000    6.750    0.000    0.000 
#    0.000    0.000    0.000    0.000    0.000    0.000 
#
# Total GULP energy -396763.358276 kJ/mol
# GULP energy per Si atom -12398.854946 kJ/mol
# Density = 1.892563 g / cm^3
# Si number density = 18.968800 Si / 1000 Ang^3
#
#
#
# Elastic Constant Matrix: (Units=GPa)
#
#
# Indices 1 2 3 4 5 6 
#
# 1 122.3311 54.2985 37.4915 -0.0018 -5.7288 -0.0008
# 2 54.2985 79.2694 24.4462 0.0012 1.1203 0.0003
# 3 37.4915 24.4462 78.3279 -0.0003 -12.9920 0.0008
# 4 -0.0018 0.0012 -0.0003 17.5033 -0.0013 -3.2519
# 5 -5.7288 1.1203 -12.9920 -0.0013 22.9228 -0.0005
# 6 -0.0008 0.0003 0.0008 -3.2519 -0.0005 21.1336
#
#
#
# Elastic Compliance Matrix: (Units=1/GPa)
#
#
# Indices 1 2 3 4 5 6 
#
# 1 0.012702 -0.007669 -0.003419 0.000002 0.001611 0.000001
# 2 -0.007669 0.018845 -0.002960 -0.000003 -0.004515 -0.000001
# 3 -0.003419 -0.002960 0.016787 0.000001 0.008805 0.000000
# 4 0.000002 -0.000003 0.000001 0.058813 0.000005 0.009050
# 5 0.001611 -0.004515 0.008805 0.000005 0.049239 0.000002
# 6 0.000001 -0.000001 0.000000 0.009050 0.000002 0.048711
#
#
# Mechanical properties :
#
#
# Convention : Reuss Voigt Hill
#
# Bulk Modulus (GPa) = 49.40944 56.93342 53.17143
# Shear Modulus (GPa) = 20.83869 23.22474 22.03171
#
# Velocity S-wave (km/s) = 3.31807 3.50289 3.41173
# Velocity P-wave (km/s) = 6.38622 6.81467 6.60392
#
# Compressibility (1/GPa) = 0.02023905
#
# Stress axis : x y z
#
# Youngs Moduli (GPa) = 78.72894 53.06465 59.56821
#
# Poissons Ratio (x) = 0.40695 0.20366
# Poissons Ratio (y) = 0.60377 0.17630
# Poissons Ratio (z) = 0.26917 0.15706
#
# Static dielectric constant tensor:
#      x y z
#    x 3.392940 0.000000 -0.121820 
#    y 0.000000 3.353910 0.000000 
#    z -0.121820 0.000000 3.593220 
# 
# 
# High freq. dielectric constant tensor:
#      x y z
#    x 1.729840 0.000000 -0.012730 
#    y 0.000000 1.730230 0.000000 
#    z -0.012730 0.000000 1.738730 
# 
# From -- ./inp_files/183809.got.cif
#   From: 2010.06.25/outbox.cif.g09.slc.cpg/sg12_92_cif.got.tgz:183809.got - 2010.06.28 00:19:55.
