data_PCOD8099848
_publ_section_title
;
Structure prediction by ZEFSAII (Michael W. Deem and Ramdas Pophale) SiO2 
 PCOD8099848
Probable space group: C 2/M
;
_chemical_formula_sum "Si O2"
_cell_formula_units_Z 56
_cell_length_a 33.307668
_cell_length_b 8.640488
_cell_length_c 12.421276
_cell_angle_alpha 90.000000
_cell_angle_beta 59.352544
_cell_angle_gamma 90.000000
_cell_volume 3075.450814
_symmetry_space_group_name_H-M "C 2/M"
_symmetry_group_IT_number 12
_symmetry_cell_setting 'monoclinic'
loop_
_space_group_symop_operation_xyz
x,y,z
-x,y,-z
-x,-y,-z
x,-y,z
1/2+x,1/2+y,z
1/2-x,1/2+y,-z
1/2-x,1/2-y,-z
1/2+x,1/2-y,z
loop_
_atom_site_type_symbol
_atom_site_label
_atom_site_fract_x
_atom_site_fract_y
_atom_site_fract_z
Si Si1 0.701449 0.679833 0.184713
Si Si2 0.055965 0.819296 0.260917
Si Si3 0.797902 0.179740 0.065078
Si Si4 0.391842 0.820469 0.613527
Si Si5 0.450586 0.678881 0.352632
Si Si6 0.111159 0.679561 0.990679
Si Si7 0.948710 0.820338 0.105222
O O1 0.712161 0.500000 0.184058
O O2 0.745649 0.773286 0.170169
O O3 0.656029 0.725628 0.313708
O O4 0.692816 0.722570 0.072088
O O5 0.072369 0.724713 0.341713
O O6 0.086603 0.781610 0.115323
O O7 0.003033 0.771885 0.309736
O O8 0.061401 0.000000 0.279193
O O9 0.805470 0.000000 0.078002
O O10 0.834187 0.277421 0.086843
O O11 0.414872 0.783732 0.467538
O O12 0.379850 0.000000 0.638611
O O13 0.442486 0.500000 0.393151
O O14 0.441153 0.711085 0.240871
O O15 0.104367 0.500000 0.026243
O O16 0.089476 0.719425 0.904761
O O17 0.942182 0.000000 0.084166
O O18 0.000000 0.764735 0.000000
#
# Coordination Sequence:
#
# PCOD8099848 Si02
#       7
#     8   8   8   8   8   8   8
#     4  10  20  35  57  82 113 148 185 229 277 335
#     4  11  21  37  57  80 111 152 194 231 277 335
#     4  10  20  35  57  83 113 148 184 229 280 334
#     4  12  24  36  54  83 119 152 186 230 282 339
#     4  10  22  39  59  79 108 152 197 234 276 334
#     4  12  23  34  55  86 119 149 183 232 286 334
#     4  10  20  39  61  81 107 148 196 237 278 329
#
# _framework density 18.208711999999998
#
# number of rings (size 3 to 8) (size 9 to 14) (size 15 to 20)
#    0.000    1.286    2.857    4.286    0.000    4.857 
#    0.000    0.000    0.000    0.857    0.000    0.000 
#    0.000    0.000    0.000    0.000    0.000    0.000 
#
# Total GULP energy -347395.857300 kJ/mol
# GULP energy per Si atom -12406.994904 kJ/mol
# Density = 1.816727 g / cm^3
# Si number density = 18.208712 Si / 1000 Ang^3
#
#
#
# Elastic Constant Matrix: (Units=GPa)
#
#
# Indices 1 2 3 4 5 6 
#
# 1 113.5681 31.3994 45.7137 0.0000 -9.8264 0.0000
# 2 31.3994 59.2258 18.3592 0.0000 -0.8477 0.0000
# 3 45.7137 18.3592 58.4665 0.0000 3.4109 0.0000
# 4 0.0000 0.0000 0.0000 26.9734 0.0000 -2.9050
# 5 -9.8264 -0.8477 3.4109 0.0000 23.5122 0.0000
# 6 0.0000 0.0000 0.0000 -2.9050 0.0000 31.2099
#
#
#
# Elastic Compliance Matrix: (Units=1/GPa)
#
#
# Indices 1 2 3 4 5 6 
#
# 1 0.015079 -0.004531 -0.010817 0.000000 0.007708 0.000000
# 2 -0.004531 0.020122 -0.002731 0.000000 -0.000772 0.000000
# 3 -0.010817 -0.002731 0.026916 0.000000 -0.008524 0.000000
# 4 0.000000 0.000000 0.000000 0.037449 0.000000 0.003486
# 5 0.007708 -0.000772 -0.008524 0.000000 0.046961 0.000000
# 6 0.000000 0.000000 0.000000 0.003486 0.000000 0.032366
#
#
# Mechanical properties :
#
#
# Convention : Reuss Voigt Hill
#
# Bulk Modulus (GPa) = 38.52103 46.91165 42.71634
# Shear Modulus (GPa) = 22.35103 25.39164 23.87133
#
# Velocity S-wave (km/s) = 3.50736 3.73832 3.62468
# Velocity P-wave (km/s) = 6.13215 6.66728 6.40531
#
# Compressibility (1/GPa) = 0.02595984
#
# Stress axis : x y z
#
# Youngs Moduli (GPa) = 66.31782 49.69642 37.15258
#
# Poissons Ratio (x) = 0.22517 0.40187
# Poissons Ratio (y) = 0.30048 0.10146
# Poissons Ratio (z) = 0.71734 0.13572
#
# Static dielectric constant tensor:
#      x y z
#    x 3.489220 0.000000 -0.067720 
#    y 0.000000 3.328590 0.000000 
#    z -0.067720 0.000000 3.192060 
# 
# 
# High freq. dielectric constant tensor:
#      x y z
#    x 1.707240 0.000000 -0.010490 
#    y 0.000000 1.711710 0.000000 
#    z -0.010490 0.000000 1.686360 
# 
# From -- ./inp_files/186836.got.cif
#   From: 2010.06.25/outbox.cif.g09.slc.cpg/sg12_94_cif.got.tgz:186836.got - 2010.06.28 00:19:55.
