data_PCOD8099281
_publ_section_title
;
Structure prediction by ZEFSAII (Michael W. Deem and Ramdas Pophale) SiO2 
 PCOD8099281
Probable space group: C 2/M
;
_chemical_formula_sum "Si O2"
_cell_formula_units_Z 56
_cell_length_a 11.112219
_cell_length_b 28.180564
_cell_length_c 9.481262
_cell_angle_alpha 90.000000
_cell_angle_beta 71.054417
_cell_angle_gamma 90.000000
_cell_volume 2808.202961
_symmetry_space_group_name_H-M "C 2/M"
_symmetry_group_IT_number 12
_symmetry_cell_setting 'monoclinic'
loop_
_space_group_symop_operation_xyz
x,y,z
-x,y,-z
-x,-y,-z
x,-y,z
1/2+x,1/2+y,z
1/2-x,1/2+y,-z
1/2-x,1/2-y,-z
1/2+x,1/2-y,z
loop_
_atom_site_type_symbol
_atom_site_label
_atom_site_fract_x
_atom_site_fract_y
_atom_site_fract_z
Si Si1 0.468058 0.552948 0.666004
Si Si2 0.749710 0.381829 0.187764
Si Si3 0.966088 0.446580 0.176738
Si Si4 0.149268 0.193210 0.432735
Si Si5 0.324343 0.876142 0.852375
Si Si6 0.355124 0.196470 0.597213
Si Si7 0.874405 0.949777 0.138320
O O1 0.500000 0.574619 0.500000
O O2 0.408397 0.500000 0.672572
O O3 0.375872 0.587055 0.791121
O O4 0.597210 0.550819 0.705583
O O5 0.836326 0.417483 0.246621
O O6 0.717042 0.334465 0.282256
O O7 0.821713 0.363694 0.019562
O O8 0.955550 0.500000 0.244144
O O9 0.068452 0.415305 0.223350
O O10 0.000000 0.450130 0.000000
O O11 0.238487 0.182414 0.536020
O O12 0.153307 0.247392 0.381819
O O13 0.000000 0.177584 0.500000
O O14 0.334333 0.828752 0.755860
O O15 0.193201 0.901416 0.870624
O O16 0.500000 0.182039 0.500000
O O17 0.799379 0.000000 0.134738
O O18 0.000000 0.951726 0.000000
#
# Coordination Sequence:
#
# PCOD8099281 Si02
#       7
#     8   8   8   8   8   8   8
#     4  10  21  35  53  81 118 157 193 233 283 345
#     4  11  21  35  60  88 116 149 198 248 295 349
#     4   9  19  35  56  83 117 160 200 237 289 356
#     4  10  23  42  65  88 117 159 199 243 312 373
#     4  11  22  35  60  88 116 151 203 246 296 347
#     4  10  23  44  64  86 118 158 199 249 308 370
#     4  10  20  35  55  82 120 155 189 236 293 345
#
# _framework density 19.941576999999999
#
# number of rings (size 3 to 8) (size 9 to 14) (size 15 to 20)
#    0.000    1.857    1.429    2.143    4.000    1.714 
#    0.000    0.000    0.000    7.714    0.000    0.000 
#    0.000    0.000    0.000    0.000    0.000    0.000 
#
# Total GULP energy -346902.485967 kJ/mol
# GULP energy per Si atom -12389.374499 kJ/mol
# Density = 1.989619 g / cm^3
# Si number density = 19.941577 Si / 1000 Ang^3
#
#
#
# Elastic Constant Matrix: (Units=GPa)
#
#
# Indices 1 2 3 4 5 6 
#
# 1 99.1838 34.0092 30.1129 0.0000 1.0644 0.0000
# 2 34.0092 97.4419 53.1497 0.0000 -1.7961 0.0000
# 3 30.1129 53.1497 91.2322 0.0000 2.7110 0.0000
# 4 0.0000 0.0000 0.0000 50.3763 0.0000 4.0925
# 5 1.0644 -1.7961 2.7110 0.0000 23.9065 0.0000
# 6 0.0000 0.0000 0.0000 4.0925 0.0000 21.0595
#
#
#
# Elastic Compliance Matrix: (Units=1/GPa)
#
#
# Indices 1 2 3 4 5 6 
#
# 1 0.011748 -0.002935 -0.002153 0.000000 -0.000499 0.000000
# 2 -0.002935 0.015885 -0.008353 0.000000 0.002271 0.000000
# 3 -0.002153 -0.008353 0.016610 0.000000 -0.002415 0.000000
# 4 0.000000 0.000000 0.000000 0.020169 0.000000 -0.003919
# 5 -0.000499 0.002271 -0.002415 0.000000 0.042296 0.000000
# 6 0.000000 0.000000 0.000000 -0.003919 0.000000 0.048246
#
#
# Mechanical properties :
#
#
# Convention : Reuss Voigt Hill
#
# Bulk Modulus (GPa) = 57.60173 58.04462 57.82317
# Shear Modulus (GPa) = 26.64934 30.44088 28.54511
#
# Velocity S-wave (km/s) = 3.65961 3.91129 3.78754
# Velocity P-wave (km/s) = 6.84141 7.04046 6.94165
#
# Compressibility (1/GPa) = 0.01736059
#
# Stress axis : x y z
#
# Youngs Moduli (GPa) = 85.12320 62.95283 60.20636
#
# Poissons Ratio (x) = 0.18478 0.12961
# Poissons Ratio (y) = 0.24985 0.50290
# Poissons Ratio (z) = 0.18325 0.52584
#
# Static dielectric constant tensor:
#      x y z
#    x 3.624550 0.000000 0.303990 
#    y 0.000000 3.656120 0.000000 
#    z 0.303990 0.000000 3.164560 
# 
# 
# High freq. dielectric constant tensor:
#      x y z
#    x 1.782160 0.000000 0.002200 
#    y 0.000000 1.782570 0.000000 
#    z 0.002200 0.000000 1.756660 
# 
# From -- ./inp_files/54169.got.cif
#   From: 2010.06.25/outbox.cif.g09.slc.cpg/sg12_28_cif.got.tgz:54169.got - 2010.06.28 00:19:55.
