data_PCOD8099153
_publ_section_title
;
Structure prediction by ZEFSAII (Michael W. Deem and Ramdas Pophale) SiO2 
 PCOD8099153
Probable space group: C 2/M
;
_chemical_formula_sum "Si O2"
_cell_formula_units_Z 64
_cell_length_a 18.154710
_cell_length_b 8.526933
_cell_length_c 30.586153
_cell_angle_alpha 90.000000
_cell_angle_beta 137.878375
_cell_angle_gamma 90.000000
_cell_volume 3175.701043
_symmetry_space_group_name_H-M "C 2/M"
_symmetry_group_IT_number 12
_symmetry_cell_setting 'monoclinic'
loop_
_space_group_symop_operation_xyz
x,y,z
-x,y,-z
-x,-y,-z
x,-y,z
1/2+x,1/2+y,z
1/2-x,1/2+y,-z
1/2-x,1/2-y,-z
1/2+x,1/2-y,z
loop_
_atom_site_type_symbol
_atom_site_label
_atom_site_fract_x
_atom_site_fract_y
_atom_site_fract_z
Si Si1 0.256491 0.681272 0.073031
Si Si2 0.035932 0.314410 0.562813
Si Si3 0.442717 0.813964 0.689061
Si Si4 0.773556 0.685344 0.686790
Si Si5 0.310795 0.816972 0.187769
Si Si6 0.412775 0.318389 0.063705
Si Si7 0.145276 0.317555 0.182479
Si Si8 0.630803 0.813630 0.437582
O O1 0.259928 0.500000 0.088358
O O2 0.265482 0.788980 0.119426
O O3 0.356684 0.726562 0.085063
O O4 0.141140 0.717076 0.998702
O O5 0.029844 0.500000 0.559312
O O6 0.157643 0.264375 0.627953
O O7 0.000000 0.244857 0.500000
O O8 0.952869 0.247917 0.562801
O O9 0.358173 0.748799 0.687919
O O10 0.564371 0.755529 0.754490
O O11 0.408424 0.748320 0.626585
O O12 0.439650 0.000000 0.688032
O O13 0.759228 0.500000 0.677242
O O14 0.818445 0.737318 0.753570
O O15 0.243416 0.715679 0.192606
O O16 0.301066 0.000000 0.195298
O O17 0.393177 0.500000 0.044381
O O18 0.540831 0.282319 0.121853
O O19 0.114172 0.500000 0.168250
O O20 0.750000 0.750000 0.500000
O O21 0.633241 0.000000 0.438713
#
# Coordination Sequence:
#
# PCOD8099153 Si02
#       8
#     8   8   8   8   8   8   8   8
#     4  10  21  38  60  87 118 148 184 235 285 330
#     4  10  21  36  54  80 114 148 183 228 281 332
#     4   9  19  36  57  80 107 142 184 229 277 331
#     4  10  21  37  58  82 108 143 186 230 279 336
#     4  11  22  38  60  83 112 151 191 230 280 343
#     4  10  21  38  61  87 114 150 193 230 276 341
#     4  11  23  38  56  82 116 148 185 237 290 336
#     4  10  20  35  55  79 109 144 183 226 273 326
#
# _framework density 20.153030999999999
#
# number of rings (size 3 to 8) (size 9 to 14) (size 15 to 20)
#    0.000    1.875    0.000    3.750    0.000    5.750 
#    0.000    5.000    0.000    0.000    0.000    0.000 
#    0.000    0.000    0.000    0.000    0.000    0.000 
#
# Total GULP energy -396969.089584 kJ/mol
# GULP energy per Si atom -12405.284050 kJ/mol
# Density = 2.010716 g / cm^3
# Si number density = 20.153031 Si / 1000 Ang^3
#
#
#
# Elastic Constant Matrix: (Units=GPa)
#
#
# Indices 1 2 3 4 5 6 
#
# 1 164.1566 12.6765 79.7249 0.0001 -0.8689 -0.0001
# 2 12.6765 25.0613 12.6001 0.0003 -3.9265 -0.0007
# 3 79.7249 12.6001 135.7879 0.0000 -2.5452 0.0000
# 4 0.0001 0.0003 0.0000 30.9285 0.0000 6.1040
# 5 -0.8689 -3.9265 -2.5452 0.0000 41.7181 0.0000
# 6 -0.0001 -0.0007 0.0000 6.1040 0.0000 21.3300
#
#
#
# Elastic Compliance Matrix: (Units=1/GPa)
#
#
# Indices 1 2 3 4 5 6 
#
# 1 0.008611 -0.001949 -0.004881 0.000000 -0.000302 0.000000
# 2 -0.001949 0.042877 -0.002763 -0.000001 0.003826 0.000002
# 3 -0.004881 -0.002763 0.010491 0.000000 0.000278 0.000000
# 4 0.000000 -0.000001 0.000000 0.034268 0.000000 -0.009807
# 5 -0.000302 0.003826 0.000278 0.000000 0.024341 0.000000
# 6 0.000000 0.000002 0.000000 -0.009807 0.000000 0.049689
#
#
# Mechanical properties :
#
#
# Convention : Reuss Voigt Hill
#
# Bulk Modulus (GPa) = 23.36739 59.44542 41.40640
# Shear Modulus (GPa) = 24.54274 33.46227 29.00250
#
# Velocity S-wave (km/s) = 3.49351 4.07923 3.79768
# Velocity P-wave (km/s) = 5.28138 7.19360 6.31034
#
# Compressibility (1/GPa) = 0.04279468
#
# Stress axis : x y z
#
# Youngs Moduli (GPa) = 116.13108 23.32278 95.31540
#
# Poissons Ratio (x) = 0.04546 0.46519
# Poissons Ratio (y) = 0.22635 0.26331
# Poissons Ratio (z) = 0.56678 0.06443
#
# Static dielectric constant tensor:
#      x y z
#    x 3.901100 0.000000 -0.122410 
#    y 0.000000 3.393530 0.000000 
#    z -0.122410 0.000000 3.752750 
# 
# 
# High freq. dielectric constant tensor:
#      x y z
#    x 1.798580 0.000000 -0.001490 
#    y 0.000000 1.769820 0.000000 
#    z -0.001490 0.000000 1.800830 
# 
# From -- ./inp_files/378405.got.cif
#   From: 2010.06.25/outbox.cif.g09.slc.cpg/sg12_190_cif.got.tgz:378405.got - 2010.06.28 00:19:55.
