data_PCOD8099157
_publ_section_title
;
Structure prediction by ZEFSAII (Michael W. Deem and Ramdas Pophale) SiO2 
 PCOD8099157
Probable space group: C 2/M
;
_chemical_formula_sum "Si O2"
_cell_formula_units_Z 48
_cell_length_a 18.636381
_cell_length_b 8.826897
_cell_length_c 15.391835
_cell_angle_alpha 90.000000
_cell_angle_beta 90.237022
_cell_angle_gamma 90.000000
_cell_volume 2531.956980
_symmetry_space_group_name_H-M "C 2/M"
_symmetry_group_IT_number 12
_symmetry_cell_setting 'monoclinic'
loop_
_space_group_symop_operation_xyz
x,y,z
-x,y,-z
-x,-y,-z
x,-y,z
1/2+x,1/2+y,z
1/2-x,1/2+y,-z
1/2-x,1/2-y,-z
1/2+x,1/2-y,z
loop_
_atom_site_type_symbol
_atom_site_label
_atom_site_fract_x
_atom_site_fract_y
_atom_site_fract_z
Si Si1 0.293324 0.822049 0.922557
Si Si2 0.703392 0.821704 0.575161
Si Si3 0.050097 0.175491 0.582837
Si Si4 0.209165 0.820532 0.256719
Si Si5 0.056094 0.824967 0.072932
Si Si6 0.048591 0.174639 0.267134
O O1 0.263572 0.756149 0.831707
O O2 0.376219 0.782581 0.936906
O O3 0.281968 0.000000 0.922754
O O4 0.250000 0.750000 0.000000
O O5 0.750000 0.750000 0.500000
O O6 0.622104 0.768286 0.568685
O O7 0.736696 0.771671 0.667487
O O8 0.707037 0.000000 0.564018
O O9 0.000000 0.198096 0.500000
O O10 0.008275 0.247180 0.666025
O O11 0.070618 0.000000 0.596586
O O12 0.129035 0.758532 0.278681
O O13 0.206575 0.000000 0.241527
O O14 0.021247 0.801460 0.168230
O O15 0.079759 0.000000 0.061331
O O16 0.000000 0.774586 0.000000
O O17 0.052927 0.000000 0.293493
#
# Coordination Sequence:
#
# PCOD8099157 Si02
#       6
#     8   8   8   8   8   8
#     4  11  22  36  56  82 113 149 188 231 278 328
#     4  11  23  38  58  84 114 147 184 230 279 328
#     4  10  20  35  55  79 109 146 184 221 268 328
#     4   9  19  38  59  79 107 145 188 232 279 329
#     4   9  18  34  55  79 109 145 183 223 271 328
#     4   8  15  31  54  75  99 136 180 221 264 319
#
# _framework density 18.957668000000002
#
# number of rings (size 3 to 8) (size 9 to 14) (size 15 to 20)
#    0.000    2.333    0.000    4.000    0.000    6.000 
#    0.000    5.000    0.000    0.000    0.000    0.000 
#    0.000    0.000    0.000    0.000    0.000    0.000 
#
# Total GULP energy -297596.335872 kJ/mol
# GULP energy per Si atom -12399.847328 kJ/mol
# Density = 1.891452 g / cm^3
# Si number density = 18.957668 Si / 1000 Ang^3
#
#
#
# Elastic Constant Matrix: (Units=GPa)
#
#
# Indices 1 2 3 4 5 6 
#
# 1 101.6876 37.1474 76.8908 0.0000 -5.6761 0.0000
# 2 37.1474 72.0379 58.2494 0.0000 -0.9001 0.0000
# 3 76.8908 58.2494 158.1437 0.0000 -8.6428 0.0000
# 4 0.0000 0.0000 0.0000 23.2737 0.0000 -4.2896
# 5 -5.6761 -0.9001 -8.6428 0.0000 44.0037 0.0000
# 6 0.0000 0.0000 0.0000 -4.2896 0.0000 26.9442
#
#
#
# Elastic Compliance Matrix: (Units=1/GPa)
#
#
# Indices 1 2 3 4 5 6 
#
# 1 0.015954 -0.002815 -0.006682 0.000000 0.000688 0.000000
# 2 -0.002815 0.020313 -0.006177 0.000000 -0.001161 0.000000
# 3 -0.006682 -0.006177 0.011921 0.000000 0.001353 0.000000
# 4 0.000000 0.000000 0.000000 0.044266 0.000000 0.007047
# 5 0.000688 -0.001161 0.001353 0.000000 0.023056 0.000000
# 6 0.000000 0.000000 0.000000 0.007047 0.000000 0.038236
#
#
# Mechanical properties :
#
#
# Convention : Reuss Voigt Hill
#
# Bulk Modulus (GPa) = 59.38187 75.16048 67.27118
# Shear Modulus (GPa) = 26.21822 29.48310 27.85066
#
# Velocity S-wave (km/s) = 3.72289 3.94789 3.83704
# Velocity P-wave (km/s) = 7.06196 7.77905 7.42916
#
# Compressibility (1/GPa) = 0.01684016
#
# Stress axis : x y z
#
# Youngs Moduli (GPa) = 62.68189 49.22934 83.88209
#
# Poissons Ratio (x) = 0.13857 0.56054
# Poissons Ratio (y) = 0.17643 0.51813
# Poissons Ratio (z) = 0.41887 0.30408
#
# Static dielectric constant tensor:
#      x y z
#    x 3.323840 0.000000 -0.015130 
#    y 0.000000 3.222420 0.000000 
#    z -0.015130 0.000000 3.777980 
# 
# 
# High freq. dielectric constant tensor:
#      x y z
#    x 1.733300 0.000000 -0.002030 
#    y 0.000000 1.714200 0.000000 
#    z -0.002030 0.000000 1.755550 
# 
# From -- ./inp_files/221575.got.cif
#   From: 2010.06.25/outbox.cif.g09.slc.cpg/sg12_111_cif.got.tgz:221575.got - 2010.06.28 00:19:55.
