data_PCOD8099024
_publ_section_title
;
Structure prediction by ZEFSAII (Michael W. Deem and Ramdas Pophale) SiO2 
 PCOD8099024
Probable space group: C 2/M
;
_chemical_formula_sum "Si O2"
_cell_formula_units_Z 48
_cell_length_a 18.199054
_cell_length_b 9.322757
_cell_length_c 16.226563
_cell_angle_alpha 90.000000
_cell_angle_beta 74.312469
_cell_angle_gamma 90.000000
_cell_volume 2650.534870
_symmetry_space_group_name_H-M "C 2/M"
_symmetry_group_IT_number 12
_symmetry_cell_setting 'monoclinic'
loop_
_space_group_symop_operation_xyz
x,y,z
-x,y,-z
-x,-y,-z
x,-y,z
1/2+x,1/2+y,z
1/2-x,1/2+y,-z
1/2-x,1/2-y,-z
1/2+x,1/2-y,z
loop_
_atom_site_type_symbol
_atom_site_label
_atom_site_fract_x
_atom_site_fract_y
_atom_site_fract_z
Si Si1 0.185050 0.328802 0.570399
Si Si2 0.318396 0.841147 0.078257
Si Si3 0.533841 0.335308 0.580242
Si Si4 0.233866 0.329850 0.735507
Si Si5 0.602768 0.329146 0.265089
Si Si6 0.143657 0.841230 0.077414
O O1 0.190833 0.500000 0.556545
O O2 0.250000 0.250000 0.500000
O O3 0.104682 0.271031 0.563478
O O4 0.194535 0.282968 0.662804
O O5 0.316253 0.772912 0.171360
O O6 0.232646 0.846564 0.071119
O O7 0.353807 0.000000 0.069605
O O8 0.371607 0.750563 0.000271
O O9 0.500000 0.326243 0.500000
O O10 0.557740 0.500000 0.592706
O O11 0.471329 0.275320 0.663633
O O12 0.238239 0.500000 0.742641
O O13 0.320576 0.268761 0.713795
O O14 0.606106 0.500000 0.265877
O O15 0.599583 0.276083 0.170675
O O16 0.112891 0.000000 0.067834
#
# Coordination Sequence:
#
# PCOD8099024 Si02
#       6
#     8   8   8   8   8   8
#     4  11  22  36  54  75 100 128 162 203 247 295
#     4   8  13  23  41  65  92 121 155 193 233 279
#     4  10  20  35  55  75  97 129 167 203 244 296
#     4   8  15  29  49  71  95 127 163 197 237 287
#     4   8  14  27  48  71  95 126 163 198 236 288
#     4   8  13  22  39  65  94 121 152 193 237 278
#
# _framework density 18.109551
#
# number of rings (size 3 to 8) (size 9 to 14) (size 15 to 20)
#    0.000    3.167    0.000    3.500    0.000    3.000 
#    0.000    2.500    0.000    8.000    0.000    7.000 
#    0.000    0.000    0.000    0.000    0.000    0.000 
#
# Total GULP energy -297409.213019 kJ/mol
# GULP energy per Si atom -12392.050542 kJ/mol
# Density = 1.806833 g / cm^3
# Si number density = 18.109551 Si / 1000 Ang^3
#
#
#
# Elastic Constant Matrix: (Units=GPa)
#
#
# Indices 1 2 3 4 5 6 
#
# 1 66.7100 30.2718 46.6564 0.0000 -4.8924 0.0000
# 2 30.2718 60.2930 49.1477 0.0000 0.0052 0.0000
# 3 46.6564 49.1477 153.1873 0.0000 -8.1545 0.0000
# 4 0.0000 0.0000 0.0000 27.9010 0.0000 -1.9311
# 5 -4.8924 0.0052 -8.1545 0.0000 25.2766 0.0000
# 6 0.0000 0.0000 0.0000 -1.9311 0.0000 17.8787
#
#
#
# Elastic Compliance Matrix: (Units=1/GPa)
#
#
# Indices 1 2 3 4 5 6 
#
# 1 0.021369 -0.007513 -0.003945 0.000000 0.002865 0.000000
# 2 -0.007513 0.025241 -0.005991 0.000000 -0.003392 0.000000
# 3 -0.003945 -0.005991 0.009779 0.000000 0.002392 0.000000
# 4 0.000000 0.000000 0.000000 0.036111 0.000000 0.003900
# 5 0.002865 -0.003392 0.002392 0.000000 0.040889 0.000000
# 6 0.000000 0.000000 0.000000 0.003900 0.000000 0.056354
#
#
# Mechanical properties :
#
#
# Convention : Reuss Voigt Hill
#
# Bulk Modulus (GPa) = 46.53078 59.14913 52.83996
# Shear Modulus (GPa) = 21.56983 24.48555 23.02769
#
# Velocity S-wave (km/s) = 3.45494 3.68105 3.56979
# Velocity P-wave (km/s) = 6.45487 7.12738 6.79945
#
# Compressibility (1/GPa) = 0.02149115
#
# Stress axis : x y z
#
# Youngs Moduli (GPa) = 46.79668 39.61762 102.26037
#
# Poissons Ratio (x) = 0.29765 0.40346
# Poissons Ratio (y) = 0.35159 0.61260
# Poissons Ratio (z) = 0.18463 0.23733
#
# Static dielectric constant tensor:
#      x y z
#    x 3.061340 0.000000 -0.088460 
#    y 0.000000 3.170900 0.000000 
#    z -0.088460 0.000000 3.931250 
# 
# 
# High freq. dielectric constant tensor:
#      x y z
#    x 1.660700 0.000000 -0.004570 
#    y 0.000000 1.664600 0.000000 
#    z -0.004570 0.000000 1.726080 
# 
# From -- ./inp_files/212665.got.cif
#   From: 2010.06.25/outbox.cif.g09.slc.cpg/sg12_107_cif.got.tgz:212665.got - 2010.06.28 00:19:55.
