data_PCOD8099535
_publ_section_title
;
Structure prediction by ZEFSAII (Michael W. Deem and Ramdas Pophale) SiO2 
 PCOD8099535
Probable space group: C 2/M
;
_chemical_formula_sum "Si O2"
_cell_formula_units_Z 64
_cell_length_a 27.767041
_cell_length_b 9.768452
_cell_length_c 15.672452
_cell_angle_alpha 90.000000
_cell_angle_beta 128.855555
_cell_angle_gamma 90.000000
_cell_volume 3310.390453
_symmetry_space_group_name_H-M "C 2/M"
_symmetry_group_IT_number 12
_symmetry_cell_setting 'monoclinic'
loop_
_space_group_symop_operation_xyz
x,y,z
-x,y,-z
-x,-y,-z
x,-y,z
1/2+x,1/2+y,z
1/2-x,1/2+y,-z
1/2-x,1/2-y,-z
1/2+x,1/2-y,z
loop_
_atom_site_type_symbol
_atom_site_label
_atom_site_fract_x
_atom_site_fract_y
_atom_site_fract_z
Si Si1 0.602685 0.648842 0.227617
Si Si2 0.733371 0.342398 0.060872
Si Si3 0.911542 0.152439 0.079328
Si Si4 0.056235 0.660024 0.501116
Si Si5 0.744514 0.349419 0.414951
Si Si6 0.931364 0.350455 0.952215
Si Si7 0.472946 0.344175 0.690590
Si Si8 0.304470 0.160423 0.307902
O O1 0.575554 0.500000 0.167797
O O2 0.672888 0.626148 0.326764
O O3 0.604309 0.760240 0.155653
O O4 0.563595 0.700893 0.264942
O O5 0.753294 0.500000 0.066997
O O6 0.767533 0.282831 0.183823
O O7 0.750000 0.250000 0.000000
O O8 0.660264 0.328484 0.985190
O O9 0.952990 0.169556 0.211143
O O10 0.923929 0.000000 0.055024
O O11 0.934454 0.270779 0.043603
O O12 0.052870 0.500000 0.474869
O O13 0.049394 0.743395 0.407171
O O14 0.122464 0.696335 0.617844
O O15 0.000000 0.703265 0.500000
O O16 0.775097 0.500000 0.466815
O O17 0.750000 0.250000 0.500000
O O18 0.775683 0.281868 0.364605
O O19 0.898990 0.500000 0.926646
O O20 0.000000 0.375627 0.000000
O O21 0.455886 0.500000 0.645974
O O22 0.292477 0.000000 0.295983
#
# Coordination Sequence:
#
# PCOD8099535 Si02
#       8
#     8   8   8   8   8   8   8   8
#     4  10  20  35  56  81 113 153 191 225 280 348
#     4  10  22  40  63  87 113 150 195 240 291 349
#     4  10  21  38  59  83 116 156 193 229 286 353
#     4  10  22  38  58  81 106 145 190 231 287 344
#     4  10  20  35  58  84 112 151 190 228 280 338
#     4  11  22  34  52  84 118 150 190 235 284 330
#     4  10  21  36  56  84 114 145 186 235 281 334
#     4   9  19  38  58  80 114 150 186 230 282 343
#
# _framework density 19.333067
#
# number of rings (size 3 to 8) (size 9 to 14) (size 15 to 20)
#    0.000    2.000    1.250    1.875    1.750    4.750 
#    0.000    1.250    0.000    0.000    0.000    0.000 
#    0.000    0.000    0.000    0.000    0.000    0.000 
#
# Total GULP energy -396605.104005 kJ/mol
# GULP energy per Si atom -12393.909500 kJ/mol
# Density = 1.928906 g / cm^3
# Si number density = 19.333067 Si / 1000 Ang^3
#
#
#
# Elastic Constant Matrix: (Units=GPa)
#
#
# Indices 1 2 3 4 5 6 
#
# 1 92.8441 28.8158 49.3911 0.0000 3.8648 0.0000
# 2 28.8158 93.4336 41.1149 0.0000 -15.2048 0.0000
# 3 49.3911 41.1149 103.7349 0.0000 -4.0323 0.0000
# 4 0.0000 0.0000 0.0000 7.9400 0.0000 -10.5855
# 5 3.8648 -15.2048 -4.0323 0.0000 36.2767 0.0000
# 6 0.0000 0.0000 0.0000 -10.5855 0.0000 30.8743
#
#
#
# Elastic Compliance Matrix: (Units=1/GPa)
#
#
# Indices 1 2 3 4 5 6 
#
# 1 0.015017 -0.002381 -0.006335 0.000000 -0.003302 0.000000
# 2 -0.002381 0.014264 -0.004296 0.000000 0.005755 0.000000
# 3 -0.006335 -0.004296 0.014377 0.000000 0.000472 0.000000
# 4 0.000000 0.000000 0.000000 0.231983 0.000000 0.079537
# 5 -0.003302 0.005755 0.000472 0.000000 0.030382 0.000000
# 6 0.000000 0.000000 0.000000 0.079537 0.000000 0.059659
#
#
# Mechanical properties :
#
#
# Convention : Reuss Voigt Hill
#
# Bulk Modulus (GPa) = 56.70697 58.73958 57.72327
# Shear Modulus (GPa) = 12.57593 26.39759 19.48676
#
# Velocity S-wave (km/s) = 2.55323 3.69916 3.17827
# Velocity P-wave (km/s) = 6.17149 6.97810 6.58715
#
# Compressibility (1/GPa) = 0.01763452
#
# Stress axis : x y z
#
# Youngs Moduli (GPa) = 66.59049 70.10582 69.55484
#
# Poissons Ratio (x) = 0.16694 0.44060
# Poissons Ratio (y) = 0.15857 0.29881
# Poissons Ratio (z) = 0.42183 0.30118
#
# Static dielectric constant tensor:
#      x y z
#    x 3.672750 0.000000 0.197390 
#    y 0.000000 3.998760 0.000000 
#    z 0.197390 0.000000 3.571620 
# 
# 
# High freq. dielectric constant tensor:
#      x y z
#    x 1.753480 0.000000 0.010920 
#    y 0.000000 1.743260 0.000000 
#    z 0.010920 0.000000 1.751690 
# 
# From -- ./inp_files/249926.got.cif
#   From: 2010.06.25/outbox.cif.g09.slc.cpg/sg12_125_cif.got.tgz:249926.got - 2010.06.28 00:19:55.
