data_PCOD8099976
_publ_section_title
;
Structure prediction by ZEFSAII (Michael W. Deem and Ramdas Pophale) SiO2 
 PCOD8099976
Probable space group: C 2/M
;
_chemical_formula_sum "Si O2"
_cell_formula_units_Z 64
_cell_length_a 27.778245
_cell_length_b 8.918019
_cell_length_c 18.962465
_cell_angle_alpha 90.000000
_cell_angle_beta 137.102466
_cell_angle_gamma 90.000000
_cell_volume 3197.547014
_symmetry_space_group_name_H-M "C 2/M"
_symmetry_group_IT_number 12
_symmetry_cell_setting 'monoclinic'
loop_
_space_group_symop_operation_xyz
x,y,z
-x,y,-z
-x,-y,-z
x,-y,z
1/2+x,1/2+y,z
1/2-x,1/2+y,-z
1/2-x,1/2-y,-z
1/2+x,1/2-y,z
loop_
_atom_site_type_symbol
_atom_site_label
_atom_site_fract_x
_atom_site_fract_y
_atom_site_fract_z
Si Si1 0.743860 0.326506 0.604215
Si Si2 0.855869 0.672704 0.602573
Si Si3 0.986668 0.676651 0.191801
Si Si4 0.553899 0.674855 0.996128
Si Si5 0.442109 0.169001 0.498435
Si Si6 0.547688 0.322846 0.708428
Si Si7 0.840791 0.823481 0.288872
Si Si8 0.287287 0.324329 0.794442
O O1 0.735853 0.500000 0.615957
O O2 0.804896 0.297404 0.613263
O O3 0.669614 0.266800 0.492880
O O4 0.765727 0.233038 0.695096
O O5 0.855931 0.500000 0.580196
O O6 0.932816 0.727371 0.709128
O O7 0.976072 0.500000 0.187688
O O8 0.938034 0.759721 0.198016
O O9 0.963547 0.727211 0.090222
O O10 0.547417 0.500000 0.970067
O O11 0.632031 0.719262 0.104700
O O12 0.500000 0.719582 0.000000
O O13 0.500000 0.169028 0.500000
O O14 0.475185 0.247831 0.602557
O O15 0.374868 0.260989 0.398052
O O16 0.419228 0.000000 0.493819
O O17 0.537725 0.500000 0.698100
O O18 0.614243 0.275488 0.731351
O O19 0.762344 0.753535 0.199350
O O20 0.836046 0.000000 0.290592
O O21 0.275002 0.500000 0.785709
#
# Coordination Sequence:
#
# PCOD8099976 Si02
#       8
#     8   8   8   8   8   8   8   8
#     4  10  20  35  57  84 116 154 193 236 289 354
#     4   9  20  37  55  82 119 154 190 235 292 354
#     4  11  23  38  61  89 118 154 198 248 299 352
#     4  10  23  44  67  90 117 152 196 246 301 360
#     4   9  17  31  53  81 115 155 196 240 290 343
#     4  10  21  37  57  83 119 159 201 246 291 348
#     4  10  21  37  57  83 117 158 202 246 292 347
#     4  11  23  38  60  87 117 153 194 245 300 355
#
# _framework density 20.015342
#
# number of rings (size 3 to 8) (size 9 to 14) (size 15 to 20)
#    0.000    2.000    0.000    3.000    1.750    5.750 
#    0.000    0.625    0.000    0.000    0.000    0.000 
#    0.000    0.000    0.000    0.000    0.000    0.000 
#
# Total GULP energy -396920.629315 kJ/mol
# GULP energy per Si atom -12403.769666 kJ/mol
# Density = 1.996979 g / cm^3
# Si number density = 20.015342 Si / 1000 Ang^3
#
#
#
# Elastic Constant Matrix: (Units=GPa)
#
#
# Indices 1 2 3 4 5 6 
#
# 1 93.0304 49.7274 66.4445 0.0000 6.1923 0.0000
# 2 49.7274 93.3909 53.1223 0.0000 4.3618 0.0000
# 3 66.4445 53.1223 113.8288 0.0000 2.4964 0.0000
# 4 0.0000 0.0000 0.0000 35.1301 0.0000 -3.2569
# 5 6.1923 4.3618 2.4964 0.0000 35.1693 0.0000
# 6 0.0000 0.0000 0.0000 -3.2569 0.0000 30.8574
#
#
#
# Elastic Compliance Matrix: (Units=1/GPa)
#
#
# Indices 1 2 3 4 5 6 
#
# 1 0.020529 -0.005496 -0.009369 0.000000 -0.002268 0.000000
# 2 -0.005496 0.016111 -0.004295 0.000000 -0.000726 0.000000
# 3 -0.009369 -0.004295 0.016236 0.000000 0.001030 0.000000
# 4 0.000000 0.000000 0.000000 0.028747 0.000000 0.003034
# 5 -0.002268 -0.000726 0.001030 0.000000 0.028850 0.000000
# 6 0.000000 0.000000 0.000000 0.003034 0.000000 0.032727
#
#
# Mechanical properties :
#
#
# Convention : Reuss Voigt Hill
#
# Bulk Modulus (GPa) = 68.69636 70.98206 69.83921
# Shear Modulus (GPa) = 26.82814 28.96175 27.89494
#
# Velocity S-wave (km/s) = 3.66509 3.80804 3.73725
# Velocity P-wave (km/s) = 7.23235 7.40782 7.32061
#
# Compressibility (1/GPa) = 0.01455681
#
# Stress axis : x y z
#
# Youngs Moduli (GPa) = 48.71070 62.06976 61.59334
#
# Poissons Ratio (x) = 0.34114 0.57705
# Poissons Ratio (y) = 0.26772 0.26452
# Poissons Ratio (z) = 0.45636 0.26656
#
# Static dielectric constant tensor:
#      x y z
#    x 3.944800 0.000000 0.154910 
#    y 0.000000 3.647410 0.000000 
#    z 0.154910 0.000000 3.584150 
# 
# 
# High freq. dielectric constant tensor:
#      x y z
#    x 1.798120 0.000000 -0.000540 
#    y 0.000000 1.787490 0.000000 
#    z -0.000540 0.000000 1.763600 
# 
# From -- ./inp_files/295830.got.cif
#   From: 2010.06.25/outbox.cif.g09.slc.cpg/sg12_148_cif.got.tgz:295830.got - 2010.06.28 00:19:55.
