data_PCOD8099603
_publ_section_title
;
Structure prediction by ZEFSAII (Michael W. Deem and Ramdas Pophale) SiO2 
 PCOD8099603
Probable space group: C 2/M
;
_chemical_formula_sum "Si O2"
_cell_formula_units_Z 56
_cell_length_a 27.192740
_cell_length_b 8.962550
_cell_length_c 17.453154
_cell_angle_alpha 90.000000
_cell_angle_beta 43.272265
_cell_angle_gamma 90.000000
_cell_volume 2915.710421
_symmetry_space_group_name_H-M "C 2/M"
_symmetry_group_IT_number 12
_symmetry_cell_setting 'monoclinic'
loop_
_space_group_symop_operation_xyz
x,y,z
-x,y,-z
-x,-y,-z
x,-y,z
1/2+x,1/2+y,z
1/2-x,1/2+y,-z
1/2-x,1/2-y,-z
1/2+x,1/2-y,z
loop_
_atom_site_type_symbol
_atom_site_label
_atom_site_fract_x
_atom_site_fract_y
_atom_site_fract_z
Si Si1 0.930258 0.327227 0.192663
Si Si2 0.594482 0.827117 0.044226
Si Si3 0.098645 0.829649 0.624722
Si Si4 0.659859 0.676462 0.830865
Si Si5 0.924029 0.176815 0.613338
Si Si6 0.806860 0.174979 0.627092
Si Si7 0.063351 0.172085 0.230039
O O1 0.913475 0.500000 0.197354
O O2 0.888806 0.275271 0.316176
O O3 0.904668 0.235157 0.148581
O O4 0.014234 0.295389 0.106493
O O5 0.603485 0.770580 0.120931
O O6 0.614390 0.000000 0.018503
O O7 0.649705 0.738560 0.928100
O O8 0.158969 0.792371 0.494286
O O9 0.021808 0.799592 0.673245
O O10 0.103968 0.000000 0.646843
O O11 0.658598 0.500000 0.834181
O O12 0.734244 0.732968 0.712165
O O13 0.859863 0.236661 0.632987
O O14 0.907726 0.221980 0.719595
O O15 0.000000 0.246483 0.500000
O O16 0.929115 0.000000 0.598780
O O17 0.791011 0.000000 0.656148
O O18 0.080811 0.000000 0.193290
#
# Coordination Sequence:
#
# PCOD8099603 Si02
#       7
#     8   8   8   8   8   8   8
#     4  10  21  37  59  83 108 140 180 226 276 327
#     4  10  21  38  59  82 109 141 181 226 275 327
#     4   9  17  31  54  84 114 144 179 221 268 321
#     4  12  25  39  55  77 108 146 187 229 273 323
#     4   9  15  29  57  89 114 142 181 222 266 320
#     4  10  20  35  56  82 115 150 183 221 270 324
#     4   9  16  30  56  88 115 139 178 226 268 316
#
# _framework density 19.206296999999999
#
# number of rings (size 3 to 8) (size 9 to 14) (size 15 to 20)
#    0.000    2.143    1.429    2.571    0.000    4.571 
#    0.000    1.429    0.000    0.857    0.000    0.000 
#    0.000    0.000    0.000    0.000    0.000    0.000 
#
# Total GULP energy -347285.209206 kJ/mol
# GULP energy per Si atom -12403.043186 kJ/mol
# Density = 1.916258 g / cm^3
# Si number density = 19.206297 Si / 1000 Ang^3
#
#
#
# Elastic Constant Matrix: (Units=GPa)
#
#
# Indices 1 2 3 4 5 6 
#
# 1 42.4288 15.4474 9.7247 0.0393 15.3555 -0.0783
# 2 15.4474 85.1593 41.5419 0.0550 9.3714 -0.0788
# 3 9.7247 41.5419 92.4112 0.0540 17.2497 -0.1341
# 4 0.0393 0.0550 0.0540 27.0236 -0.0312 3.3313
# 5 15.3555 9.3714 17.2497 -0.0312 22.9537 0.0734
# 6 -0.0783 -0.0788 -0.1341 3.3313 0.0734 19.4610
#
#
#
# Elastic Compliance Matrix: (Units=1/GPa)
#
#
# Indices 1 2 3 4 5 6 
#
# 1 0.032662 -0.004906 0.002877 -0.000097 -0.022010 0.000231
# 2 -0.004906 0.015808 -0.006976 -0.000007 0.002071 -0.000010
# 3 0.002877 -0.006976 0.015682 -0.000051 -0.010862 0.000141
# 4 -0.000097 -0.000007 -0.000051 0.037803 0.000179 -0.006473
# 5 -0.022010 0.002071 -0.010862 0.000179 0.065609 -0.000433
# 6 0.000231 -0.000010 0.000141 -0.006473 -0.000433 0.052496
#
#
# Mechanical properties :
#
#
# Convention : Reuss Voigt Hill
#
# Bulk Modulus (GPa) = 21.67230 39.26970 30.47100
# Shear Modulus (GPa) = 19.72762 24.10670 21.91716
#
# Velocity S-wave (km/s) = 3.20838 3.54665 3.38175
# Velocity P-wave (km/s) = 5.00334 6.10428 5.58103
#
# Compressibility (1/GPa) = 0.04614185
#
# Stress axis : x y z
#
# Youngs Moduli (GPa) = 30.61676 63.25946 63.76578
#
# Poissons Ratio (x) = 0.31034 -0.18346
# Poissons Ratio (y) = 0.15020 0.44486
# Poissons Ratio (z) = -0.08809 0.44133
#
# Static dielectric constant tensor:
#      x y z
#    x 3.512350 0.000010 0.180210 
#    y 0.000010 3.318150 0.000000 
#    z 0.180210 0.000000 3.482590 
# 
# 
# High freq. dielectric constant tensor:
#      x y z
#    x 1.739730 0.000000 0.018680 
#    y 0.000000 1.728160 0.000000 
#    z 0.018680 0.000000 1.749060 
# 
# From -- ./inp_files/280872.got.cif
#   From: 2010.06.25/outbox.cif.g09.slc.cpg/sg12_141_cif.got.tgz:280872.got - 2010.06.28 00:19:55.
