data_PCOD8099430
_publ_section_title
;
Structure prediction by ZEFSAII (Michael W. Deem and Ramdas Pophale) SiO2 
 PCOD8099430
Probable space group: C 2/M
;
_chemical_formula_sum "Si O2"
_cell_formula_units_Z 56
_cell_length_a 8.799751
_cell_length_b 18.129741
_cell_length_c 28.096697
_cell_angle_alpha 90.000000
_cell_angle_beta 39.492367
_cell_angle_gamma 90.000000
_cell_volume 2850.739811
_symmetry_space_group_name_H-M "C 2/M"
_symmetry_group_IT_number 12
_symmetry_cell_setting 'monoclinic'
loop_
_space_group_symop_operation_xyz
x,y,z
-x,y,-z
-x,-y,-z
x,-y,z
1/2+x,1/2+y,z
1/2-x,1/2+y,-z
1/2-x,1/2-y,-z
1/2+x,1/2-y,z
loop_
_atom_site_type_symbol
_atom_site_label
_atom_site_fract_x
_atom_site_fract_y
_atom_site_fract_z
Si Si1 0.545332 0.334571 0.356720
Si Si2 0.974074 0.414342 0.779694
Si Si3 0.112871 0.179597 0.923175
Si Si4 0.862048 0.915377 0.226156
Si Si5 0.242177 0.834732 0.076842
Si Si6 0.307590 0.174873 0.645081
Si Si7 0.328567 0.917085 0.496258
O O1 0.762519 0.381356 0.283420
O O2 0.632723 0.257359 0.355302
O O3 0.358604 0.320731 0.360352
O O4 0.422711 0.379779 0.429300
O O5 0.987857 0.500000 0.788752
O O6 0.819182 0.376888 0.858479
O O7 0.857277 0.400092 0.756429
O O8 0.228580 0.260206 0.899939
O O9 0.904302 0.183951 0.934999
O O10 0.000000 0.152178 0.000000
O O11 0.833868 0.864778 0.278742
O O12 0.110380 0.895657 0.140454
O O13 0.871906 0.000000 0.239970
O O14 0.500000 0.867203 0.000000
O O15 0.549694 0.129861 0.575292
O O16 0.500000 0.919689 0.500000
O O17 0.280165 0.000000 0.489273
#
# Coordination Sequence:
#
# PCOD8099430 Si02
#       7
#     8   8   8   8   8   8   8
#     4  11  22  37  59  84 112 148 188 229 274 326
#     4  10  22  39  57  81 114 147 182 229 281 330
#     4  10  20  35  56  80 108 143 182 226 274 325
#     4  10  22  39  57  81 114 147 182 229 281 330
#     4  10  20  35  56  80 108 143 182 226 274 325
#     4  11  22  37  59  84 112 148 188 229 274 326
#     4   9  19  36  57  83 114 145 182 229 276 324
#
# _framework density 19.644024999999999
#
# number of rings (size 3 to 8) (size 9 to 14) (size 15 to 20)
#    0.000    1.857    0.000    4.714    0.000    6.857 
#    0.000    2.143    0.000    5.143    0.000    0.000 
#    0.000    0.000    0.000    0.000    0.000    0.000 
#
# Total GULP energy -347318.860946 kJ/mol
# GULP energy per Si atom -12404.245034 kJ/mol
# Density = 1.959931 g / cm^3
# Si number density = 19.644025 Si / 1000 Ang^3
#
#
#
# Elastic Constant Matrix: (Units=GPa)
#
#
# Indices 1 2 3 4 5 6 
#
# 1 61.3600 8.2130 27.4144 0.0116 -15.1418 0.0184
# 2 8.2130 64.8345 29.0443 0.0107 -25.6968 0.0290
# 3 27.4144 29.0443 107.1024 0.0399 -22.7453 0.0019
# 4 0.0116 0.0107 0.0399 38.7421 -0.0065 -1.7738
# 5 -15.1418 -25.6968 -22.7453 -0.0065 24.8386 0.0222
# 6 0.0184 0.0290 0.0019 -1.7738 0.0222 -13.2291
#
#
#
# Elastic Compliance Matrix: (Units=1/GPa)
#
#
# Indices 1 2 3 4 5 6 
#
# 1 0.020757 0.004556 -0.003551 0.000001 0.014115 0.000062
# 2 0.004556 0.027387 -0.002466 0.000004 0.028852 0.000114
# 3 -0.003551 -0.002466 0.012306 -0.000010 0.006554 0.000004
# 4 0.000001 0.000004 -0.000010 0.025654 0.000006 -0.003440
# 5 0.014115 0.028852 0.006554 0.000006 0.084714 0.000225
# 6 0.000062 0.000114 0.000004 -0.003440 0.000225 -0.075129
#
#
# Mechanical properties :
#
#
# Convention : Reuss Voigt Hill
#
# Bulk Modulus (GPa) = 17.38274 40.29337 28.83805
# Shear Modulus (GPa) = 42.44946 21.31202 31.88074
#
# Velocity S-wave (km/s) = 4.65363 3.29737 4.03292
# Velocity P-wave (km/s) = 6.14354 5.92057 6.03309
#
# Compressibility (1/GPa) = 0.05752832
#
# Stress axis : x y z
#
# Youngs Moduli (GPa) = 48.17622 36.51425 81.25999
#
# Poissons Ratio (x) = -0.16635 0.28855
# Poissons Ratio (y) = -0.21947 0.20035
# Poissons Ratio (z) = 0.17107 0.09003
#
# Static dielectric constant tensor:
#      x y z
#    x 3.511590 -0.000010 -0.079540 
#    y -0.000010 3.644590 0.000030 
#    z -0.079540 0.000030 3.751720 
# 
# 
# High freq. dielectric constant tensor:
#      x y z
#    x 1.757670 0.000000 -0.004210 
#    y 0.000000 1.772920 0.000000 
#    z -0.004210 0.000000 1.780300 
# 
# From -- ./inp_files/257148.got.cif
#   From: 2010.06.25/outbox.cif.g09.slc.cpg/sg12_129_cif.got.tgz:257148.got - 2010.06.28 00:19:55.
