data_PCOD8099740
_publ_section_title
;
Structure prediction by ZEFSAII (Michael W. Deem and Ramdas Pophale) SiO2 
 PCOD8099740
Probable space group: C 2/M
;
_chemical_formula_sum "Si O2"
_cell_formula_units_Z 56
_cell_length_a 23.592741
_cell_length_b 8.923444
_cell_length_c 15.523410
_cell_angle_alpha 90.000000
_cell_angle_beta 57.144114
_cell_angle_gamma 90.000000
_cell_volume 2745.344642
_symmetry_space_group_name_H-M "C 2/M"
_symmetry_group_IT_number 12
_symmetry_cell_setting 'monoclinic'
loop_
_space_group_symop_operation_xyz
x,y,z
-x,y,-z
-x,-y,-z
x,-y,z
1/2+x,1/2+y,z
1/2-x,1/2+y,-z
1/2-x,1/2-y,-z
1/2+x,1/2-y,z
loop_
_atom_site_type_symbol
_atom_site_label
_atom_site_fract_x
_atom_site_fract_y
_atom_site_fract_z
Si Si1 0.797283 0.322682 0.389365
Si Si2 0.431289 0.674924 0.008238
Si Si3 0.204111 0.172978 0.785142
Si Si4 0.573033 0.327671 0.653574
Si Si5 0.839262 0.328253 0.754682
Si Si6 0.573306 0.329283 0.455320
Si Si7 0.436504 0.823100 0.821719
O O1 0.793203 0.500000 0.402582
O O2 0.750000 0.250000 0.500000
O O3 0.773738 0.274600 0.313725
O O4 0.873894 0.265926 0.334783
O O5 0.429646 0.500000 0.985452
O O6 0.369276 0.720322 0.120423
O O7 0.500000 0.718292 0.000000
O O8 0.424315 0.771054 0.928339
O O9 0.258579 0.199468 0.817191
O O10 0.204159 0.000000 0.755477
O O11 0.573050 0.500000 0.685123
O O12 0.594748 0.315418 0.536648
O O13 0.499539 0.259960 0.727462
O O14 0.857661 0.500000 0.727492
O O15 0.870396 0.249099 0.646657
O O16 0.870919 0.274366 0.819345
O O17 0.500000 0.254187 0.500000
O O18 0.569639 0.500000 0.427178
O O19 0.449219 0.000000 0.810033
#
# Coordination Sequence:
#
# PCOD8099740 Si02
#       7
#     8   8   8   8   8   8   8
#     4  12  25  41  62  91 125 161 203 249 301 359
#     4  10  22  41  65  89 115 154 205 257 310 364
#     4  10  22  42  64  88 122 163 205 251 305 363
#     4  11  22  38  61  88 121 160 204 253 306 361
#     4  10  22  38  58  87 124 162 200 246 303 365
#     4  10  20  35  56  85 118 156 201 247 293 351
#     4  11  23  38  59  90 123 156 200 251 305 363
#
# _framework density 20.398167000000001
#
# number of rings (size 3 to 8) (size 9 to 14) (size 15 to 20)
#    0.000    1.429    1.429    3.857    0.000    7.429 
#    0.000    0.000    0.000    0.000    0.000    0.000 
#    0.000    0.000    0.000    0.000    0.000    0.000 
#
# Total GULP energy -347293.460393 kJ/mol
# GULP energy per Si atom -12403.337871 kJ/mol
# Density = 2.035174 g / cm^3
# Si number density = 20.398167 Si / 1000 Ang^3
#
#
#
# Elastic Constant Matrix: (Units=GPa)
#
#
# Indices 1 2 3 4 5 6 
#
# 1 144.5479 54.7630 57.4364 0.0000 -0.8260 0.0000
# 2 54.7630 104.4732 51.9908 0.0000 4.8538 -0.0001
# 3 57.4364 51.9908 115.5065 0.0000 1.0553 0.0000
# 4 0.0000 0.0000 0.0000 35.4932 0.0000 1.1238
# 5 -0.8260 4.8538 1.0553 0.0000 34.4379 0.0000
# 6 0.0000 -0.0001 0.0000 1.1238 0.0000 23.6315
#
#
#
# Elastic Compliance Matrix: (Units=1/GPa)
#
#
# Indices 1 2 3 4 5 6 
#
# 1 0.009485 -0.003426 -0.003182 0.000000 0.000808 0.000000
# 2 -0.003426 0.013658 -0.004427 0.000000 -0.001871 0.000000
# 3 -0.003182 -0.004427 0.012231 0.000000 0.000173 0.000000
# 4 0.000000 0.000000 0.000000 0.028217 0.000000 -0.001342
# 5 0.000808 -0.001871 0.000173 0.000000 0.029316 0.000000
# 6 0.000000 0.000000 0.000000 -0.001342 0.000000 0.042380
#
#
# Mechanical properties :
#
#
# Convention : Reuss Voigt Hill
#
# Bulk Modulus (GPa) = 75.16434 76.98977 76.07706
# Shear Modulus (GPa) = 30.90434 32.06836 31.48635
#
# Velocity S-wave (km/s) = 3.89659 3.96930 3.93311
# Velocity P-wave (km/s) = 7.56129 7.67024 7.61596
#
# Compressibility (1/GPa) = 0.01330418
#
# Stress axis : x y z
#
# Youngs Moduli (GPa) = 105.42985 73.21944 81.76193
#
# Poissons Ratio (x) = 0.25085 0.26015
# Poissons Ratio (y) = 0.36120 0.36194
# Poissons Ratio (z) = 0.33545 0.32412
#
# Static dielectric constant tensor:
#      x y z
#    x 3.990630 0.000000 0.010810 
#    y 0.000000 3.665970 0.000000 
#    z 0.010810 0.000000 3.551790 
# 
# 
# High freq. dielectric constant tensor:
#      x y z
#    x 1.817630 0.000000 0.001190 
#    y 0.000000 1.792110 0.000000 
#    z 0.001190 0.000000 1.790680 
# 
# From -- ./inp_files/238423.got.cif
#   From: 2010.06.25/outbox.cif.g09.slc.cpg/sg12_120_cif.got.tgz:238423.got - 2010.06.28 00:19:55.
