data_PCOD8099495
_publ_section_title
;
Structure prediction by ZEFSAII (Michael W. Deem and Ramdas Pophale) SiO2 
 PCOD8099495
Probable space group: C 2/M
;
_chemical_formula_sum "Si O2"
_cell_formula_units_Z 48
_cell_length_a 27.397250
_cell_length_b 8.697727
_cell_length_c 15.539467
_cell_angle_alpha 90.000000
_cell_angle_beta 139.010992
_cell_angle_gamma 90.000000
_cell_volume 2428.823271
_symmetry_space_group_name_H-M "C 2/M"
_symmetry_group_IT_number 12
_symmetry_cell_setting 'monoclinic'
loop_
_space_group_symop_operation_xyz
x,y,z
-x,y,-z
-x,-y,-z
x,-y,z
1/2+x,1/2+y,z
1/2-x,1/2+y,-z
1/2-x,1/2-y,-z
1/2+x,1/2-y,z
loop_
_atom_site_type_symbol
_atom_site_label
_atom_site_fract_x
_atom_site_fract_y
_atom_site_fract_z
Si Si1 0.458642 0.817220 0.529443
Si Si2 0.537115 0.320760 0.140423
Si Si3 0.208192 0.818579 0.363780
Si Si4 0.209295 0.181552 0.027303
Si Si5 0.047536 0.319335 0.815170
Si Si6 0.208925 0.683220 0.694148
O O1 0.500000 0.751649 0.500000
O O2 0.501040 0.760773 0.671015
O O3 0.374930 0.751352 0.419985
O O4 0.456623 0.000000 0.523383
O O5 0.528515 0.500000 0.152690
O O6 0.622517 0.268292 0.249981
O O7 0.497740 0.218080 0.159447
O O8 0.500000 0.284273 0.000000
O O9 0.250000 0.750000 0.500000
O O10 0.246402 0.752592 0.328532
O O11 0.216017 0.000000 0.377306
O O12 0.250555 0.245664 0.166831
O O13 0.215134 0.000000 0.030708
O O14 0.250000 0.250000 0.000000
O O15 0.124192 0.229340 0.917520
O O16 0.063336 0.500000 0.830637
O O17 0.208643 0.500000 0.693196
#
# Coordination Sequence:
#
# PCOD8099495 Si02
#       6
#     8   8   8   8   8   8
#     4   9  17  31  53  80 108 140 182 227 271 327
#     4  10  21  38  58  79 108 149 192 230 274 332
#     4  10  20  35  56  81 109 144 186 230 277 329
#     4  11  22  38  60  84 113 148 186 228 273 326
#     4  11  22  36  58  86 113 143 182 231 283 330
#     4   9  18  34  56  79 106 146 190 226 267 326
#
# _framework density 19.762657000000001
#
# number of rings (size 3 to 8) (size 9 to 14) (size 15 to 20)
#    0.000    2.000    0.000    4.000    0.000    7.667 
#    0.000    3.333    0.000   13.000    0.000    0.000 
#    0.000    0.000    0.000    0.000    0.000    0.000 
#
# Total GULP energy -297680.361561 kJ/mol
# GULP energy per Si atom -12403.348398 kJ/mol
# Density = 1.971768 g / cm^3
# Si number density = 19.762657 Si / 1000 Ang^3
#
#
#
# Elastic Constant Matrix: (Units=GPa)
#
#
# Indices 1 2 3 4 5 6 
#
# 1 179.3621 23.2529 91.9887 0.0000 -1.0398 0.0000
# 2 23.2529 29.4283 26.6335 0.0000 -2.2846 0.0000
# 3 91.9887 26.6335 197.7441 0.0000 0.5067 0.0000
# 4 0.0000 0.0000 0.0000 28.3644 0.0000 -2.5856
# 5 -1.0398 -2.2846 0.5067 0.0000 45.9321 0.0000
# 6 0.0000 0.0000 0.0000 -2.5856 0.0000 28.7447
#
#
#
# Elastic Compliance Matrix: (Units=1/GPa)
#
#
# Indices 1 2 3 4 5 6 
#
# 1 0.007576 -0.003180 -0.003096 0.000000 0.000047 0.000000
# 2 -0.003180 0.040215 -0.003942 0.000000 0.001972 0.000000
# 3 -0.003096 -0.003942 0.007029 0.000000 -0.000344 0.000000
# 4 0.000000 0.000000 0.000000 0.035547 0.000000 0.003198
# 5 0.000047 0.001972 -0.000344 0.000000 0.021874 0.000000
# 6 0.000000 0.000000 0.000000 0.003198 0.000000 0.035077
#
#
# Mechanical properties :
#
#
# Convention : Reuss Voigt Hill
#
# Bulk Modulus (GPa) = 29.08429 76.69831 52.89130
# Shear Modulus (GPa) = 27.89954 38.25221 33.07587
#
# Velocity S-wave (km/s) = 3.76138 4.40430 4.09547
# Velocity P-wave (km/s) = 5.79764 8.04722 7.01322
#
# Compressibility (1/GPa) = 0.03438282
#
# Stress axis : x y z
#
# Youngs Moduli (GPa) = 132.00124 24.86662 142.26717
#
# Poissons Ratio (x) = 0.07909 0.44045
# Poissons Ratio (y) = 0.41982 0.56081
# Poissons Ratio (z) = 0.40866 0.09802
#
# Static dielectric constant tensor:
#      x y z
#    x 3.743690 0.000000 -0.047910 
#    y 0.000000 3.165670 0.000000 
#    z -0.047910 0.000000 3.834190 
# 
# 
# High freq. dielectric constant tensor:
#      x y z
#    x 1.791480 0.000000 0.000850 
#    y 0.000000 1.733220 0.000000 
#    z 0.000850 0.000000 1.792080 
# 
# From -- ./inp_files/244902.got.cif
#   From: 2010.06.25/outbox.cif.g09.slc.cpg/sg12_123_cif.got.tgz:244902.got - 2010.06.28 00:19:55.
