data_PCOD8099501
_publ_section_title
;
Structure prediction by ZEFSAII (Michael W. Deem and Ramdas Pophale) SiO2 
 PCOD8099501
Probable space group: C 2/M
;
_chemical_formula_sum "Si O2"
_cell_formula_units_Z 64
_cell_length_a 14.440995
_cell_length_b 9.062683
_cell_length_c 32.548372
_cell_angle_alpha 90.000000
_cell_angle_beta 48.131193
_cell_angle_gamma 90.000000
_cell_volume 3172.122586
_symmetry_space_group_name_H-M "C 2/M"
_symmetry_group_IT_number 12
_symmetry_cell_setting 'monoclinic'
loop_
_space_group_symop_operation_xyz
x,y,z
-x,y,-z
-x,-y,-z
x,-y,z
1/2+x,1/2+y,z
1/2-x,1/2+y,-z
1/2-x,1/2-y,-z
1/2+x,1/2-y,z
loop_
_atom_site_type_symbol
_atom_site_label
_atom_site_fract_x
_atom_site_fract_y
_atom_site_fract_z
Si Si1 0.640988 0.174115 0.057091
Si Si2 0.883523 0.672553 0.561402
Si Si3 0.347690 0.170132 0.851215
Si Si4 0.110466 0.826492 0.867626
Si Si5 0.400391 0.828997 0.650850
Si Si6 0.994753 0.166050 0.743690
Si Si7 0.364558 0.827111 0.364606
Si Si8 0.753358 0.166730 0.758657
O O1 0.662054 0.211952 0.098485
O O2 0.512625 0.245659 0.079676
O O3 0.639549 0.000000 0.049110
O O4 0.750000 0.250000 0.000000
O O5 0.857341 0.500000 0.563327
O O6 0.911688 0.713703 0.600095
O O7 0.764198 0.761215 0.580548
O O8 0.000000 0.724782 0.500000
O O9 0.216345 0.210415 0.869454
O O10 0.461124 0.260236 0.797197
O O11 0.379431 0.000000 0.834676
O O12 0.145612 0.760357 0.812635
O O13 0.086815 0.000000 0.870175
O O14 0.531280 0.786656 0.632790
O O15 0.286894 0.738588 0.704873
O O16 0.370361 0.000000 0.666676
O O17 0.874396 0.171260 0.750907
O O18 0.104932 0.253859 0.688524
O O19 0.041106 0.000000 0.737671
O O20 0.352038 0.000000 0.361524
O O21 0.705385 0.000000 0.766351
#
# Coordination Sequence:
#
# PCOD8099501 Si02
#       8
#     8   8   8   8   8   8   8   8
#     4  11  24  41  58  80 110 145 187 230 269 317
#     4  10  22  39  56  76 105 142 185 228 269 318
#     4   9  20  38  59  82 112 147 180 219 271 325
#     4  10  20  37  60  84 111 145 181 221 271 324
#     4   9  19  36  56  79 109 144 178 217 270 326
#     4   9  17  31  55  85 113 140 176 220 267 322
#     4  10  20  35  56  81 110 142 177 220 270 323
#     4   9  17  31  54  85 114 140 175 220 268 321
#
# _framework density 20.175764999999998
#
# number of rings (size 3 to 8) (size 9 to 14) (size 15 to 20)
#    0.000    2.375    0.000    1.875    0.000    7.750 
#    0.000    2.500    0.000    0.000    0.000    0.000 
#    0.000    0.000    0.000    0.000    0.000    0.000 
#
# Total GULP energy -396929.213256 kJ/mol
# GULP energy per Si atom -12404.037914 kJ/mol
# Density = 2.012984 g / cm^3
# Si number density = 20.175765 Si / 1000 Ang^3
#
#
#
# Elastic Constant Matrix: (Units=GPa)
#
#
# Indices 1 2 3 4 5 6 
#
# 1 41.7535 17.0704 17.8803 0.0004 -4.5890 0.0004
# 2 17.0704 83.3235 35.7858 0.0007 -6.0659 0.0007
# 3 17.8803 35.7858 109.0104 0.0004 -11.3946 0.0004
# 4 0.0004 0.0007 0.0004 39.0830 0.0001 -7.0057
# 5 -4.5890 -6.0659 -11.3946 0.0001 35.0909 0.0001
# 6 0.0004 0.0007 0.0004 -7.0057 0.0001 26.6665
#
#
#
# Elastic Compliance Matrix: (Units=1/GPa)
#
#
# Indices 1 2 3 4 5 6 
#
# 1 0.027097 -0.004179 -0.002875 0.000000 0.001888 0.000000
# 2 -0.004179 0.014647 -0.004053 0.000000 0.000669 0.000000
# 3 -0.002875 -0.004053 0.011245 0.000000 0.002575 0.000000
# 4 0.000000 0.000000 0.000000 0.026851 0.000000 0.007054
# 5 0.001888 0.000669 0.002575 0.000000 0.029696 0.000000
# 6 0.000000 0.000000 0.000000 0.007054 0.000000 0.039353
#
#
# Mechanical properties :
#
#
# Convention : Reuss Voigt Hill
#
# Bulk Modulus (GPa) = 32.49459 41.72894 37.11177
# Shear Modulus (GPa) = 27.56911 31.05814 29.31362
#
# Velocity S-wave (km/s) = 3.70056 3.92775 3.81584
# Velocity P-wave (km/s) = 5.86511 6.42629 6.15210
#
# Compressibility (1/GPa) = 0.03077435
#
# Stress axis : x y z
#
# Youngs Moduli (GPa) = 36.90386 68.27367 88.93111
#
# Poissons Ratio (x) = 0.28532 0.25571
# Poissons Ratio (y) = 0.15422 0.36042
# Poissons Ratio (z) = 0.10611 0.27670
#
# Static dielectric constant tensor:
#      x y z
#    x 3.634400 0.000000 -0.048190 
#    y 0.000000 3.700070 0.000000 
#    z -0.048190 0.000000 3.683450 
# 
# 
# High freq. dielectric constant tensor:
#      x y z
#    x 1.787290 0.000000 -0.005760 
#    y 0.000000 1.791000 0.000000 
#    z -0.005760 0.000000 1.784930 
# 
# From -- ./inp_files/359940.got.cif
#   From: 2010.06.25/outbox.cif.g09.slc.cpg/sg12_180_cif.got.tgz:359940.got - 2010.06.28 00:19:55.
