data_PCOD8099422
_publ_section_title
;
Structure prediction by ZEFSAII (Michael W. Deem and Ramdas Pophale) SiO2 
 PCOD8099422
Probable space group: C 2/M
;
_chemical_formula_sum "Si O2"
_cell_formula_units_Z 48
_cell_length_a 20.017356
_cell_length_b 8.836618
_cell_length_c 20.997319
_cell_angle_alpha 90.000000
_cell_angle_beta 135.606185
_cell_angle_gamma 90.000000
_cell_volume 2598.351377
_symmetry_space_group_name_H-M "C 2/M"
_symmetry_group_IT_number 12
_symmetry_cell_setting 'monoclinic'
loop_
_space_group_symop_operation_xyz
x,y,z
-x,y,-z
-x,-y,-z
x,-y,z
1/2+x,1/2+y,z
1/2-x,1/2+y,-z
1/2-x,1/2-y,-z
1/2+x,1/2-y,z
loop_
_atom_site_type_symbol
_atom_site_label
_atom_site_fract_x
_atom_site_fract_y
_atom_site_fract_z
Si Si1 0.744124 0.176493 0.064059
Si Si2 0.241045 0.676228 0.725831
Si Si3 0.603899 0.321760 0.728238
Si Si4 0.598888 0.824194 0.403030
Si Si5 0.743405 0.323719 0.592633
Si Si6 0.392451 0.675101 0.936562
O O1 0.834754 0.225822 0.168271
O O2 0.647457 0.229253 0.032032
O O3 0.740415 0.000000 0.051615
O O4 0.750000 0.250000 0.000000
O O5 0.227438 0.500000 0.701114
O O6 0.145251 0.737141 0.694389
O O7 0.261461 0.768306 0.675979
O O8 0.332774 0.707001 0.832173
O O9 0.608980 0.500000 0.719001
O O10 0.496742 0.271721 0.668734
O O11 0.655512 0.769745 0.503841
O O12 0.660854 0.792135 0.382247
O O13 0.573831 0.000000 0.393702
O O14 0.716587 0.500000 0.573252
O O15 0.387696 0.500000 0.952595
O O16 0.500000 0.730335 0.000000
#
# Coordination Sequence:
#
# PCOD8099422 Si02
#       6
#     8   8   8   8   8   8
#     4  10  21  36  55  79 108 142 179 220 264 313
#     4  10  20  35  56  80 108 141 178 220 264 315
#     4  10  21  37  56  79 108 141 178 220 266 314
#     4  10  21  37  57  81 108 139 177 219 264 315
#     4  10  21  37  56  79 109 141 175 218 265 315
#     4   9  19  36  56  79 108 141 177 219 267 316
#
# _framework density 18.473251000000001
#
# number of rings (size 3 to 8) (size 9 to 14) (size 15 to 20)
#    0.000    2.167    0.000    2.500    0.000    7.000 
#    0.000    8.333    0.000    0.000    0.000    0.000 
#    0.000    0.000    0.000    0.000    0.000    0.000 
#
# Total GULP energy -297715.987550 kJ/mol
# GULP energy per Si atom -12404.832815 kJ/mol
# Density = 1.843120 g / cm^3
# Si number density = 18.473251 Si / 1000 Ang^3
#
#
#
# Elastic Constant Matrix: (Units=GPa)
#
#
# Indices 1 2 3 4 5 6 
#
# 1 110.0696 36.2561 67.6492 0.0000 -3.2431 0.0000
# 2 36.2561 46.9919 26.1493 0.0000 -4.9774 0.0000
# 3 67.6492 26.1493 79.4044 0.0000 0.9363 0.0000
# 4 0.0000 0.0000 0.0000 32.8915 0.0000 -2.6181
# 5 -3.2431 -4.9774 0.9363 0.0000 39.1671 0.0000
# 6 0.0000 0.0000 0.0000 -2.6181 0.0000 37.5322
#
#
#
# Elastic Compliance Matrix: (Units=1/GPa)
#
#
# Indices 1 2 3 4 5 6 
#
# 1 0.021174 -0.007551 -0.015566 0.000000 0.001166 0.000000
# 2 -0.007551 0.029241 -0.003234 0.000000 0.003168 0.000000
# 3 -0.015566 -0.003234 0.026948 0.000000 -0.002344 0.000000
# 4 0.000000 0.000000 0.000000 0.030573 0.000000 0.002133
# 5 0.001166 0.003168 -0.002344 0.000000 0.026087 0.000000
# 6 0.000000 0.000000 0.000000 0.002133 0.000000 0.026793
#
#
# Mechanical properties :
#
#
# Convention : Reuss Voigt Hill
#
# Bulk Modulus (GPa) = 40.54994 55.17501 47.86248
# Shear Modulus (GPa) = 22.54912 29.01226 25.78069
#
# Velocity S-wave (km/s) = 3.49755 3.96725 3.73978
# Velocity P-wave (km/s) = 6.18941 7.13567 6.67932
#
# Compressibility (1/GPa) = 0.02466095
#
# Stress axis : x y z
#
# Youngs Moduli (GPa) = 47.22807 34.19828 37.10809
#
# Poissons Ratio (x) = 0.25823 0.57764
# Poissons Ratio (y) = 0.35661 0.12001
# Poissons Ratio (z) = 0.73517 0.11060
#
# Static dielectric constant tensor:
#      x y z
#    x 3.427570 0.000000 0.006010 
#    y 0.000000 3.509270 0.000000 
#    z 0.006010 0.000000 3.389780 
# 
# 
# High freq. dielectric constant tensor:
#      x y z
#    x 1.720930 0.000000 -0.000460 
#    y 0.000000 1.730590 0.000000 
#    z -0.000460 0.000000 1.715230 
# 
# From -- ./inp_files/229906.got.cif
#   From: 2010.06.25/outbox.cif.g09.slc.cpg/sg12_115_cif.got.tgz:229906.got - 2010.06.28 00:19:55.
