data_PCOD8099533
_publ_section_title
;
Structure prediction by ZEFSAII (Michael W. Deem and Ramdas Pophale) SiO2 
 PCOD8099533
Probable space group: C 2/M
;
_chemical_formula_sum "Si O2"
_cell_formula_units_Z 56
_cell_length_a 21.134217
_cell_length_b 12.723332
_cell_length_c 19.697025
_cell_angle_alpha 90.000000
_cell_angle_beta 29.147069
_cell_angle_gamma 90.000000
_cell_volume 2579.668531
_symmetry_space_group_name_H-M "C 2/M"
_symmetry_group_IT_number 12
_symmetry_cell_setting 'monoclinic'
loop_
_space_group_symop_operation_xyz
x,y,z
-x,y,-z
-x,-y,-z
x,-y,z
1/2+x,1/2+y,z
1/2-x,1/2+y,-z
1/2-x,1/2-y,-z
1/2+x,1/2-y,z
loop_
_atom_site_type_symbol
_atom_site_label
_atom_site_fract_x
_atom_site_fract_y
_atom_site_fract_z
Si Si1 0.817843 0.786473 0.323081
Si Si2 0.453465 0.621266 0.968060
Si Si3 0.459126 0.116473 0.409149
Si Si4 0.027473 0.617123 0.754745
Si Si5 0.209690 0.717858 0.962348
Si Si6 0.812720 0.885253 0.627906
Si Si7 0.427185 0.678911 0.661095
O O1 0.691638 0.853112 0.460174
O O2 0.865717 0.710335 0.339305
O O3 0.793222 0.704028 0.285057
O O4 0.927109 0.867374 0.196134
O O5 0.408192 0.500000 0.012467
O O6 0.500000 0.657235 0.000000
O O7 0.333525 0.689084 0.049542
O O8 0.525198 0.120678 0.272945
O O9 0.539619 0.196616 0.380895
O O10 0.468845 0.000000 0.432053
O O11 0.085132 0.500000 0.715429
O O12 0.910194 0.637467 0.917505
O O13 0.334157 0.659524 0.812716
O O14 0.250000 0.750000 0.000000
O O15 0.861536 0.870188 0.657768
O O16 0.932309 0.876673 0.461538
O O17 0.748884 0.000000 0.680463
#
# Coordination Sequence:
#
# PCOD8099533 Si02
#       7
#     8   8   8   8   8   8   8
#     4  10  20  37  60  82 111 147 191 242 291 340
#     4  10  22  40  61  87 119 159 202 246 300 360
#     4  10  20  35  56  81 113 148 188 234 286 348
#     4  10  21  36  56  82 113 149 188 234 290 350
#     4  11  22  38  60  86 123 158 199 248 299 359
#     4  10  21  38  60  86 116 151 197 245 293 349
#     4  10  20  36  57  82 118 154 189 242 291 349
#
# _framework density 21.708216
#
# number of rings (size 3 to 8) (size 9 to 14) (size 15 to 20)
#    0.000    1.857    1.429    3.000    0.000    2.286 
#    0.000    6.429    0.000    4.714    0.000    0.000 
#    0.000    0.000    0.000    0.000    0.000    0.000 
#
# Total GULP energy -346980.586011 kJ/mol
# GULP energy per Si atom -12392.163786 kJ/mol
# Density = 2.165881 g / cm^3
# Si number density = 21.708216 Si / 1000 Ang^3
#
#
#
# Elastic Constant Matrix: (Units=GPa)
#
#
# Indices 1 2 3 4 5 6 
#
# 1 71.0480 11.7497 -1.8460 0.0001 5.8841 0.0000
# 2 11.7497 104.1825 1.5298 0.0000 8.0731 0.0000
# 3 -1.8460 1.5298 87.6146 0.0001 9.2485 -0.0001
# 4 0.0001 0.0000 0.0001 7.8319 -0.0001 8.8788
# 5 5.8841 8.0731 9.2485 -0.0001 23.9847 0.0000
# 6 0.0000 0.0000 -0.0001 8.8788 0.0000 27.4088
#
#
#
# Elastic Compliance Matrix: (Units=1/GPa)
#
#
# Indices 1 2 3 4 5 6 
#
# 1 0.014603 -0.001395 0.000689 0.000000 -0.003379 0.000000
# 2 -0.001395 0.009992 0.000120 0.000000 -0.003067 0.000000
# 3 0.000689 0.000120 0.011934 0.000000 -0.004811 0.000000
# 4 0.000000 0.000000 0.000000 0.201786 0.000001 -0.065366
# 5 -0.003379 -0.003067 -0.004811 0.000001 0.045410 0.000000
# 6 0.000000 0.000000 0.000000 -0.065366 0.000000 0.057659
#
#
# Mechanical properties :
#
#
# Convention : Reuss Voigt Hill
#
# Bulk Modulus (GPa) = 28.28396 31.74579 30.01488
# Shear Modulus (GPa) = 14.11063 28.60586 21.35825
#
# Velocity S-wave (km/s) = 2.55230 3.63401 3.14009
# Velocity P-wave (km/s) = 4.66295 5.68011 5.19648
#
# Compressibility (1/GPa) = 0.03535572
#
# Stress axis : x y z
#
# Youngs Moduli (GPa) = 68.47708 100.08195 83.79503
#
# Poissons Ratio (x) = 0.13964 -0.05771
# Poissons Ratio (y) = 0.09555 -0.01005
# Poissons Ratio (z) = -0.04716 -0.01200
#
# Static dielectric constant tensor:
#      x y z
#    x 3.799910 0.000000 -0.098870 
#    y 0.000000 3.932190 0.000000 
#    z -0.098870 0.000000 4.019380 
# 
# 
# High freq. dielectric constant tensor:
#      x y z
#    x 1.839730 0.000000 -0.004120 
#    y 0.000000 1.851320 0.000000 
#    z -0.004120 0.000000 1.848990 
# 
# From -- ./inp_files/325130.got.cif
#   From: 2010.06.25/outbox.cif.g09.slc.cpg/sg12_163_cif.got.tgz:325130.got - 2010.06.28 00:19:55.
