data_PCOD8099140
_publ_section_title
;
Structure prediction by ZEFSAII (Michael W. Deem and Ramdas Pophale) SiO2 
 PCOD8099140
Probable space group: C 2/M
;
_chemical_formula_sum "Si O2"
_cell_formula_units_Z 56
_cell_length_a 16.906769
_cell_length_b 14.770560
_cell_length_c 12.822632
_cell_angle_alpha 90.000000
_cell_angle_beta 69.821783
_cell_angle_gamma 90.000000
_cell_volume 3005.567740
_symmetry_space_group_name_H-M "C 2/M"
_symmetry_group_IT_number 12
_symmetry_cell_setting 'monoclinic'
loop_
_space_group_symop_operation_xyz
x,y,z
-x,y,-z
-x,-y,-z
x,-y,z
1/2+x,1/2+y,z
1/2-x,1/2+y,-z
1/2-x,1/2-y,-z
1/2+x,1/2-y,z
loop_
_atom_site_type_symbol
_atom_site_label
_atom_site_fract_x
_atom_site_fract_y
_atom_site_fract_z
Si Si1 0.061861 0.733555 0.693036
Si Si2 0.427964 0.895095 0.116328
Si Si3 0.318454 0.802958 0.533802
Si Si4 0.753798 0.894899 0.890922
Si Si5 0.374251 0.258393 0.725438
Si Si6 0.727792 0.897578 0.136896
Si Si7 0.178939 0.100348 0.701331
O O1 0.053457 0.667166 0.793641
O O2 0.104590 0.675491 0.579694
O O3 0.114656 0.823360 0.694953
O O4 0.972874 0.771755 0.696550
O O5 0.338315 0.867655 0.108609
O O6 0.429278 0.000000 0.149928
O O7 0.500000 0.874803 0.000000
O O8 0.250000 0.750000 0.500000
O O9 0.353383 0.742163 0.612449
O O10 0.270445 0.890691 0.602339
O O11 0.824772 0.842304 0.796135
O O12 0.771772 0.000000 0.865262
O O13 0.761220 0.867627 0.008729
O O14 0.349137 0.165136 0.793262
O O15 0.805767 0.888798 0.181555
O O16 0.692244 0.000000 0.148264
O O17 0.143328 0.000000 0.692549
#
# Coordination Sequence:
#
# PCOD8099140 Si02
#       7
#     8   8   8   8   8   8   8
#     4  11  22  35  55  81 112 142 176 222 273 328
#     4  10  21  37  57  82 111 143 182 227 271 315
#     4   9  19  37  56  75 101 137 182 223 261 311
#     4  10  20  35  55  79 108 143 183 222 264 319
#     4  11  21  34  55  80 110 142 174 220 274 323
#     4   9  18  34  55  77 103 139 182 223 263 312
#     4   9  19  36  57  79 107 144 183 223 268 320
#
# _framework density 18.632086999999999
#
# number of rings (size 3 to 8) (size 9 to 14) (size 15 to 20)
#    0.000    2.143    0.000    4.286    0.000    4.000 
#    0.000    4.286    0.000   11.571    0.000    0.000 
#    0.000    0.000    0.000    0.000    0.000    0.000 
#
# Total GULP energy -347145.334838 kJ/mol
# GULP energy per Si atom -12398.047673 kJ/mol
# Density = 1.858968 g / cm^3
# Si number density = 18.632087 Si / 1000 Ang^3
#
#
#
# Elastic Constant Matrix: (Units=GPa)
#
#
# Indices 1 2 3 4 5 6 
#
# 1 127.2087 44.2512 62.3820 0.0000 -2.5573 0.0000
# 2 44.2512 78.2481 47.2472 0.0000 0.9065 0.0000
# 3 62.3820 47.2472 131.4023 0.0000 6.0341 0.0000
# 4 0.0000 0.0000 0.0000 20.2026 0.0000 0.7420
# 5 -2.5573 0.9065 6.0341 0.0000 31.7908 0.0000
# 6 0.0000 0.0000 0.0000 0.7420 0.0000 20.6387
#
#
#
# Elastic Compliance Matrix: (Units=1/GPa)
#
#
# Indices 1 2 3 4 5 6 
#
# 1 0.011231 -0.003964 -0.003988 0.000000 0.001773 0.000000
# 2 -0.003964 0.017737 -0.004497 0.000000 0.000029 0.000000
# 3 -0.003988 -0.004497 0.011227 0.000000 -0.002324 0.000000
# 4 0.000000 0.000000 0.000000 0.049564 0.000000 -0.001782
# 5 0.001773 0.000029 -0.002324 0.000000 0.032039 0.000000
# 6 0.000000 0.000000 0.000000 -0.001782 0.000000 0.048517
#
#
# Mechanical properties :
#
#
# Convention : Reuss Voigt Hill
#
# Bulk Modulus (GPa) = 65.37204 71.62446 68.49825
# Shear Modulus (GPa) = 24.96113 26.72500 25.84307
#
# Velocity S-wave (km/s) = 3.66414 3.79139 3.72831
# Velocity P-wave (km/s) = 7.28445 7.59547 7.44158
#
# Compressibility (1/GPa) = 0.01529706
#
# Stress axis : x y z
#
# Youngs Moduli (GPa) = 89.03556 56.38075 89.07016
#
# Poissons Ratio (x) = 0.22350 0.35522
# Poissons Ratio (y) = 0.35295 0.40053
# Poissons Ratio (z) = 0.35508 0.25353
#
# Static dielectric constant tensor:
#      x y z
#    x 3.395780 0.000000 0.028570 
#    y 0.000000 3.373660 0.000000 
#    z 0.028570 0.000000 3.808970 
# 
# 
# High freq. dielectric constant tensor:
#      x y z
#    x 1.720290 0.000000 0.010910 
#    y 0.000000 1.715910 0.000000 
#    z 0.010910 0.000000 1.735540 
# 
# From -- ./inp_files/155964.got.cif
#   From: 2010.06.25/outbox.cif.g09.slc.cpg/sg12_78_cif.got.tgz:155964.got - 2010.06.28 00:19:55.
