data_PCOD8099544
_publ_section_title
;
Structure prediction by ZEFSAII (Michael W. Deem and Ramdas Pophale) SiO2 
 PCOD8099544
Probable space group: C 2/M
;
_chemical_formula_sum "Si O2"
_cell_formula_units_Z 36
_cell_length_a 22.098971
_cell_length_b 15.913145
_cell_length_c 7.579349
_cell_angle_alpha 90.000000
_cell_angle_beta 136.175336
_cell_angle_gamma 90.000000
_cell_volume 1845.656102
_symmetry_space_group_name_H-M "C 2/M"
_symmetry_group_IT_number 12
_symmetry_cell_setting 'monoclinic'
loop_
_space_group_symop_operation_xyz
x,y,z
-x,y,-z
-x,-y,-z
x,-y,z
1/2+x,1/2+y,z
1/2-x,1/2+y,-z
1/2-x,1/2-y,-z
1/2+x,1/2-y,z
loop_
_atom_site_type_symbol
_atom_site_label
_atom_site_fract_x
_atom_site_fract_y
_atom_site_fract_z
Si Si1 0.500000 0.299841 0.000000
Si Si2 0.552594 0.784390 0.448067
Si Si3 0.695025 0.331233 0.834033
Si Si4 0.822611 0.099145 0.575318
Si Si5 0.791323 0.405057 0.335350
O O1 0.508365 0.239978 0.845441
O O2 0.414029 0.356430 0.809225
O O3 0.500000 0.826869 0.500000
O O4 0.594159 0.698037 0.614794
O O5 0.626371 0.847428 0.534712
O O6 0.720084 0.369533 0.696901
O O7 0.750000 0.250000 0.000000
O O8 0.715443 0.400233 0.026161
O O9 0.751318 0.124504 0.571367
O O10 0.840016 0.000000 0.607985
O O11 0.825330 0.500000 0.419673
#
# Coordination Sequence:
#
# PCOD8099544 Si02
#       5
#     4   8   8   8   8
#     4  10  21  36  55  78 108 140 174 218 265 314
#     4  10  21  35  53  78 106 140 180 218 259 310
#     4   9  19  34  55  78 103 137 176 216 260 309
#     4  10  20  35  56  82 109 137 172 216 267 317
#     4  10  21  36  55  79 107 140 177 218 263 311
#
# _framework density 19.505258999999999
#
# number of rings (size 3 to 8) (size 9 to 14) (size 15 to 20)
#    0.000    2.222    0.000    2.333    0.000   12.000 
#    0.000    0.556    0.000   10.667    0.000    0.000 
#    0.000    0.000    0.000    0.000    0.000    0.000 
#
# Total GULP energy -223124.954258 kJ/mol
# GULP energy per Si atom -12395.830792 kJ/mol
# Density = 1.946086 g / cm^3
# Si number density = 19.505259 Si / 1000 Ang^3
#
#
#
# Elastic Constant Matrix: (Units=GPa)
#
#
# Indices 1 2 3 4 5 6 
#
# 1 120.3762 51.8893 46.6075 0.0000 -25.4359 0.0000
# 2 51.8893 74.5427 38.1483 0.0000 -10.6957 0.0000
# 3 46.6075 38.1483 129.5345 0.0000 -24.8333 0.0000
# 4 0.0000 0.0000 0.0000 28.4250 0.0000 -3.7569
# 5 -25.4359 -10.6957 -24.8333 0.0000 31.0147 0.0000
# 6 0.0000 0.0000 0.0000 -3.7569 0.0000 27.9406
#
#
#
# Elastic Compliance Matrix: (Units=1/GPa)
#
#
# Indices 1 2 3 4 5 6 
#
# 1 0.013778 -0.007897 -0.001167 0.000000 0.007642 0.000000
# 2 -0.007897 0.020432 -0.003623 0.000000 -0.002331 0.000000
# 3 -0.001167 -0.003623 0.010376 0.000000 0.006102 0.000000
# 4 0.000000 0.000000 0.000000 0.035817 0.000000 0.004816
# 5 0.007642 -0.002331 0.006102 0.000000 0.042592 0.000000
# 6 0.000000 0.000000 0.000000 0.004816 0.000000 0.036438
#
#
# Mechanical properties :
#
#
# Convention : Reuss Voigt Hill
#
# Bulk Modulus (GPa) = 52.04747 66.41597 59.23172
# Shear Modulus (GPa) = 26.14914 29.99661 28.07287
#
# Velocity S-wave (km/s) = 3.66542 3.92583 3.79786
# Velocity P-wave (km/s) = 6.68248 7.39417 7.04731
#
# Compressibility (1/GPa) = 0.01921323
#
# Stress axis : x y z
#
# Youngs Moduli (GPa) = 72.57952 48.94300 96.37198
#
# Poissons Ratio (x) = 0.38652 0.11242
# Poissons Ratio (y) = 0.57319 0.34912
# Poissons Ratio (z) = 0.08467 0.17730
#
# Static dielectric constant tensor:
#      x y z
#    x 3.411370 0.000000 -0.183220 
#    y 0.000000 3.549130 0.000000 
#    z -0.183220 0.000000 4.113660 
# 
# 
# High freq. dielectric constant tensor:
#      x y z
#    x 1.750560 0.000000 -0.014140 
#    y 0.000000 1.752810 0.000000 
#    z -0.014140 0.000000 1.777090 
# 
# From -- ./inp_files/10787.got.cif
#   From: 2010.06.25/outbox.cif.g09.slc.cpg/sg12_6_cif.got.tgz:10787.got - 2010.06.28 00:19:55.
