data_PCOD8099159
_publ_section_title
;
Structure prediction by ZEFSAII (Michael W. Deem and Ramdas Pophale) SiO2 
 PCOD8099159
Probable space group: C 2/M
;
_chemical_formula_sum "Si O2"
_cell_formula_units_Z 56
_cell_length_a 24.478437
_cell_length_b 14.269408
_cell_length_c 8.636077
_cell_angle_alpha 90.000000
_cell_angle_beta 112.055489
_cell_angle_gamma 90.000000
_cell_volume 2795.772545
_symmetry_space_group_name_H-M "C 2/M"
_symmetry_group_IT_number 12
_symmetry_cell_setting 'monoclinic'
loop_
_space_group_symop_operation_xyz
x,y,z
-x,y,-z
-x,-y,-z
x,-y,z
1/2+x,1/2+y,z
1/2-x,1/2+y,-z
1/2-x,1/2-y,-z
1/2+x,1/2-y,z
loop_
_atom_site_type_symbol
_atom_site_label
_atom_site_fract_x
_atom_site_fract_y
_atom_site_fract_z
Si Si1 0.492853 0.290620 0.311933
Si Si2 0.759449 0.852761 0.952970
Si Si3 0.619046 0.604913 0.760146
Si Si4 0.530201 0.104736 0.867369
Si Si5 0.206258 0.222494 0.318501
Si Si6 0.336171 0.897189 0.925701
Si Si7 0.890775 0.110510 0.604582
O O1 0.500000 0.301922 0.500000
O O2 0.428000 0.329911 0.199617
O O3 0.499929 0.181825 0.274155
O O4 0.543259 0.353801 0.286282
O O5 0.761880 0.848762 0.768552
O O6 0.750000 0.750000 0.000000
O O7 0.819885 0.893619 0.084185
O O8 0.704017 0.909252 0.962183
O O9 0.593257 0.500000 0.732845
O O10 0.628323 0.636131 0.591555
O O11 0.520645 0.000000 0.788234
O O12 0.500000 0.112542 0.000000
O O13 0.598757 0.129799 0.951457
O O14 0.250000 0.250000 0.500000
O O15 0.187097 0.319400 0.217054
O O16 0.150792 0.167254 0.324874
O O17 0.336670 0.000000 0.843982
O O18 0.885955 0.000000 0.632481
#
# Coordination Sequence:
#
# PCOD8099159 Si02
#       7
#     8   8   8   8   8   8   8
#     4  10  20  35  58  85 114 147 186 232 280 334
#     4  10  20  35  55  79 109 146 189 229 272 333
#     4  10  20  36  58  83 114 153 192 229 276 337
#     4  10  21  38  59  81 108 145 187 232 283 337
#     4  11  23  37  57  85 117 148 185 236 290 337
#     4  10  21  39  60  80 109 152 195 234 282 341
#     4  10  21  37  57  84 118 152 186 230 285 338
#
# _framework density 20.030241
#
# number of rings (size 3 to 8) (size 9 to 14) (size 15 to 20)
#    0.000    1.857    0.000    5.143    0.000    6.000 
#    0.000    0.000    0.000    7.714    0.000    0.000 
#    0.000    0.000    0.000    0.000    0.000    0.000 
#
# Total GULP energy -347093.374322 kJ/mol
# GULP energy per Si atom -12396.191940 kJ/mol
# Density = 1.998465 g / cm^3
# Si number density = 20.030241 Si / 1000 Ang^3
#
#
#
# Elastic Constant Matrix: (Units=GPa)
#
#
# Indices 1 2 3 4 5 6 
#
# 1 151.0038 41.9869 50.3466 0.0000 -1.5518 0.0000
# 2 41.9869 119.6638 28.0662 0.0000 -7.3171 0.0000
# 3 50.3466 28.0662 64.6550 0.0000 -3.1424 0.0000
# 4 0.0000 0.0000 0.0000 34.4967 0.0000 2.2370
# 5 -1.5518 -7.3171 -3.1424 0.0000 26.2476 0.0000
# 6 0.0000 0.0000 0.0000 2.2370 0.0000 40.7235
#
#
#
# Elastic Compliance Matrix: (Units=1/GPa)
#
#
# Indices 1 2 3 4 5 6 
#
# 1 0.009270 -0.001776 -0.006483 0.000000 -0.000723 0.000000
# 2 -0.001776 0.009763 -0.002744 0.000000 0.002288 0.000000
# 3 -0.006483 -0.002744 0.021777 0.000000 0.001459 0.000000
# 4 0.000000 0.000000 0.000000 0.029092 0.000000 -0.001598
# 5 -0.000723 0.002288 0.001459 0.000000 0.038869 0.000000
# 6 0.000000 0.000000 0.000000 -0.001598 0.000000 0.024644
#
#
# Mechanical properties :
#
#
# Convention : Reuss Voigt Hill
#
# Bulk Modulus (GPa) = 53.17829 64.01357 58.59593
# Shear Modulus (GPa) = 30.92362 34.62175 32.77269
#
# Velocity S-wave (km/s) = 3.93344 4.16200 4.04934
# Velocity P-wave (km/s) = 6.87284 7.42457 7.15402
#
# Compressibility (1/GPa) = 0.01880467
#
# Stress axis : x y z
#
# Youngs Moduli (GPa) = 107.87141 102.42236 45.92056
#
# Poissons Ratio (x) = 0.18195 0.29769
# Poissons Ratio (y) = 0.19163 0.12599
# Poissons Ratio (z) = 0.69930 0.28102
#
# Static dielectric constant tensor:
#      x y z
#    x 4.424950 0.000000 -0.325930 
#    y 0.000000 4.019530 0.000000 
#    z -0.325930 0.000000 3.535510 
# 
# 
# High freq. dielectric constant tensor:
#      x y z
#    x 1.799890 0.000000 0.001050 
#    y 0.000000 1.796200 0.000000 
#    z 0.001050 0.000000 1.753390 
# 
# From -- ./inp_files/96946.got.cif
#   From: 2010.06.25/outbox.cif.g09.slc.cpg/sg12_49_cif.got.tgz:96946.got - 2010.06.28 00:19:55.
