data_PCOD8099917
_publ_section_title
;
Structure prediction by ZEFSAII (Michael W. Deem and Ramdas Pophale) SiO2 
 PCOD8099917
Probable space group: C 2/M
;
_chemical_formula_sum "Si O2"
_cell_formula_units_Z 56
_cell_length_a 19.409247
_cell_length_b 8.765356
_cell_length_c 18.694041
_cell_angle_alpha 90.000000
_cell_angle_beta 114.779132
_cell_angle_gamma 90.000000
_cell_volume 2887.579128
_symmetry_space_group_name_H-M "C 2/M"
_symmetry_group_IT_number 12
_symmetry_cell_setting 'monoclinic'
loop_
_space_group_symop_operation_xyz
x,y,z
-x,y,-z
-x,-y,-z
x,-y,z
1/2+x,1/2+y,z
1/2-x,1/2+y,-z
1/2-x,1/2-y,-z
1/2+x,1/2-y,z
loop_
_atom_site_type_symbol
_atom_site_label
_atom_site_fract_x
_atom_site_fract_y
_atom_site_fract_z
Si Si1 0.668811 0.820702 0.478442
Si Si2 0.791454 0.321057 0.353343
Si Si3 0.125553 0.819747 0.322844
Si Si4 0.017606 0.323130 0.807344
Si Si5 0.777771 0.679995 0.938451
Si Si6 0.931968 0.177155 0.024373
Si Si7 0.337342 0.821969 0.219085
O O1 0.750000 0.750000 0.500000
O O2 0.652224 0.782741 0.555138
O O3 0.610330 0.745260 0.396753
O O4 0.669856 0.000000 0.465129
O O5 0.780903 0.500000 0.342892
O O6 0.706116 0.254887 0.328146
O O7 0.829759 0.261105 0.297233
O O8 0.059702 0.766124 0.241386
O O9 0.125095 0.000000 0.326865
O O10 0.998286 0.500000 0.807437
O O11 0.054480 0.263692 0.895932
O O12 0.076637 0.294389 0.768624
O O13 0.785606 0.500000 0.950094
O O14 0.719368 0.719800 0.851084
O O15 0.750000 0.750000 0.000000
O O16 0.858643 0.752744 0.953738
O O17 0.919045 0.000000 0.035734
O O18 0.000000 0.204648 0.000000
O O19 0.315282 0.000000 0.201275
#
# Coordination Sequence:
#
# PCOD8099917 Si02
#       7
#     8   8   8   8   8   8   8
#     4   9  16  31  55  83 113 147 187 234 283 340
#     4   8  17  34  58  84 109 144 190 233 280 340
#     4  10  20  35  57  83 114 152 190 236 287 344
#     4  11  23  38  58  84 116 151 188 239 290 340
#     4  12  24  40  62  87 115 153 195 239 287 343
#     4  11  25  43  63  85 115 155 193 237 292 348
#     4  10  21  39  60  83 113 151 193 236 285 345
#
# _framework density 19.393405999999999
#
# number of rings (size 3 to 8) (size 9 to 14) (size 15 to 20)
#    0.000    1.857    1.429    3.857    2.000    1.714 
#    0.000    4.286    0.000    4.286    0.000    0.000 
#    0.000    0.000    0.000    0.000    0.000    0.000 
#
# Total GULP energy -347141.903124 kJ/mol
# GULP energy per Si atom -12397.925112 kJ/mol
# Density = 1.934927 g / cm^3
# Si number density = 19.393406 Si / 1000 Ang^3
#
#
#
# Elastic Constant Matrix: (Units=GPa)
#
#
# Indices 1 2 3 4 5 6 
#
# 1 71.0715 35.9161 18.6171 0.0000 -11.2237 0.0000
# 2 35.9161 85.1179 19.5939 0.0000 -7.7603 0.0000
# 3 18.6171 19.5939 63.7576 0.0000 -20.7589 0.0000
# 4 0.0000 0.0000 0.0000 36.7153 0.0000 5.0904
# 5 -11.2237 -7.7603 -20.7589 0.0000 34.7158 0.0000
# 6 0.0000 0.0000 0.0000 5.0904 0.0000 23.0408
#
#
#
# Elastic Compliance Matrix: (Units=1/GPa)
#
#
# Indices 1 2 3 4 5 6 
#
# 1 0.018748 -0.007103 -0.002279 0.000000 0.003111 0.000000
# 2 -0.007103 0.015345 -0.002822 0.000000 -0.000554 0.000000
# 3 -0.002279 -0.002822 0.020827 0.000000 0.011086 0.000000
# 4 0.000000 0.000000 0.000000 0.028097 0.000000 -0.006207
# 5 0.003111 -0.000554 0.011086 0.000000 0.036316 0.000000
# 6 0.000000 0.000000 0.000000 -0.006207 0.000000 0.044773
#
#
# Mechanical properties :
#
#
# Convention : Reuss Voigt Hill
#
# Bulk Modulus (GPa) = 32.77357 40.91125 36.84241
# Shear Modulus (GPa) = 25.16577 28.61571 26.89074
#
# Velocity S-wave (km/s) = 3.60619 3.84544 3.72774
# Velocity P-wave (km/s) = 5.85453 6.39201 6.12916
#
# Compressibility (1/GPa) = 0.03051240
#
# Stress axis : x y z
#
# Youngs Moduli (GPa) = 53.33951 65.16981 48.01558
#
# Poissons Ratio (x) = 0.46287 0.10941
# Poissons Ratio (y) = 0.37885 0.13550
# Poissons Ratio (z) = 0.12154 0.18391
#
# Static dielectric constant tensor:
#      x y z
#    x 3.623740 0.000000 -0.213080 
#    y 0.000000 3.551490 0.000000 
#    z -0.213080 0.000000 4.172090 
# 
# 
# High freq. dielectric constant tensor:
#      x y z
#    x 1.739920 0.000000 -0.005780 
#    y 0.000000 1.752920 0.000000 
#    z -0.005780 0.000000 1.766840 
# 
# From -- ./inp_files/281670.got.cif
#   From: 2010.06.25/outbox.cif.g09.slc.cpg/sg12_141_cif.got.tgz:281670.got - 2010.06.28 00:19:55.
