data_PCOD8099124
_publ_section_title
;
Structure prediction by ZEFSAII (Michael W. Deem and Ramdas Pophale) SiO2 
 PCOD8099124
Probable space group: C 2/M
;
_chemical_formula_sum "Si O2"
_cell_formula_units_Z 48
_cell_length_a 12.008148
_cell_length_b 13.618255
_cell_length_c 28.866480
_cell_angle_alpha 90.000000
_cell_angle_beta 28.598101
_cell_angle_gamma 90.000000
_cell_volume 2259.544827
_symmetry_space_group_name_H-M "C 2/M"
_symmetry_group_IT_number 12
_symmetry_cell_setting 'monoclinic'
loop_
_space_group_symop_operation_xyz
x,y,z
-x,y,-z
-x,-y,-z
x,-y,z
1/2+x,1/2+y,z
1/2-x,1/2+y,-z
1/2-x,1/2-y,-z
1/2+x,1/2-y,z
loop_
_atom_site_type_symbol
_atom_site_label
_atom_site_fract_x
_atom_site_fract_y
_atom_site_fract_z
Si Si1 0.445178 0.721462 0.892680
Si Si2 0.415091 0.794148 0.756415
Si Si3 0.159016 0.612304 0.752850
Si Si4 0.941588 0.113117 0.805873
Si Si5 0.847686 0.822278 0.400703
Si Si6 0.907209 0.608301 0.594909
O O1 0.660358 0.662577 0.837987
O O2 0.533601 0.821362 0.836722
O O3 0.340943 0.647086 0.892297
O O4 0.250000 0.750000 0.000000
O O5 0.559241 0.861141 0.738623
O O6 0.345698 0.684947 0.801149
O O7 0.571303 0.780367 0.652624
O O8 0.096809 0.500000 0.786205
O O9 0.437117 0.626830 0.651805
O O10 0.224348 0.130607 0.703192
O O11 0.874554 0.000000 0.819891
O O12 0.742632 0.890014 0.397877
O O13 0.623424 0.813474 0.517666
O O14 0.013547 0.500000 0.562465
#
# Coordination Sequence:
#
# PCOD8099124 Si02
#       6
#     8   8   8   8   8   8
#     4  10  22  39  55  75 104 136 174 219 266 316
#     4   9  20  36  52  78 108 135 170 217 262 309
#     4  10  20  35  55  79 107 141 177 215 260 311
#     4   9  19  35  55  79 106 135 170 214 261 305
#     4   9  16  30  52  77 106 139 172 209 253 303
#     4   9  15  27  51  81 107 136 174 214 253 303
#
# _framework density 21.243214999999999
#
# number of rings (size 3 to 8) (size 9 to 14) (size 15 to 20)
#    0.000    2.667    0.000    2.000    0.000    8.667 
#    0.000   24.167    0.000    0.000    0.000   24.500 
#    0.000    0.000    0.000    0.000    0.000    0.000 
#
# Total GULP energy -297330.809584 kJ/mol
# GULP energy per Si atom -12388.783733 kJ/mol
# Density = 2.119486 g / cm^3
# Si number density = 21.243215 Si / 1000 Ang^3
#
#
#
# Elastic Constant Matrix: (Units=GPa)
#
#
# Indices 1 2 3 4 5 6 
#
# 1 42.8010 -5.9379 -5.2403 -0.0294 -16.4158 0.0015
# 2 -5.9379 47.7304 -20.2353 -0.0224 -5.5140 -0.0158
# 3 -5.2403 -20.2353 78.9244 -0.0494 5.4728 -0.0214
# 4 -0.0294 -0.0224 -0.0494 19.4614 -0.0191 -0.6047
# 5 -16.4158 -5.5140 5.4728 -0.0191 28.1371 -0.0129
# 6 0.0015 -0.0158 -0.0214 -0.6047 -0.0129 17.6971
#
#
#
# Elastic Compliance Matrix: (Units=1/GPa)
#
#
# Indices 1 2 3 4 5 6 
#
# 1 0.032315 0.007443 0.002682 0.000084 0.019791 0.000024
# 2 0.007443 0.025562 0.006487 0.000066 0.008090 0.000038
# 3 0.002682 0.006487 0.014511 0.000049 0.000014 0.000025
# 4 0.000084 0.000066 0.000049 0.051439 0.000088 0.001758
# 5 0.019791 0.008090 0.000014 0.000088 0.048669 0.000044
# 6 0.000024 0.000038 0.000025 0.001758 0.000044 0.056567
#
#
# Mechanical properties :
#
#
# Convention : Reuss Voigt Hill
#
# Bulk Modulus (GPa) = 9.46857 11.84765 10.65811
# Shear Modulus (GPa) = 21.64103 26.45040 24.04571
#
# Velocity S-wave (km/s) = 3.19521 3.53246 3.36806
# Velocity P-wave (km/s) = 4.25199 4.71454 4.48923
#
# Compressibility (1/GPa) = 0.10561262
#
# Stress axis : x y z
#
# Youngs Moduli (GPa) = 30.94497 39.12077 68.91455
#
# Poissons Ratio (x) = -0.29119 -0.18481
# Poissons Ratio (y) = -0.23034 -0.44705
# Poissons Ratio (z) = -0.08299 -0.25378
#
# Static dielectric constant tensor:
#      x y z
#    x 3.766550 0.000030 0.014070 
#    y 0.000030 3.555930 -0.000040 
#    z 0.014070 -0.000040 3.941950 
# 
# 
# High freq. dielectric constant tensor:
#      x y z
#    x 1.829330 0.000000 -0.000220 
#    y 0.000000 1.801030 0.000000 
#    z -0.000220 0.000000 1.826610 
# 
# From -- ./inp_files/374030.got.cif
#   From: 2010.06.25/outbox.cif.g09.slc.cpg/sg12_188_cif.got.tgz:374030.got - 2010.06.28 00:19:55.
