data_PCOD8099285
_publ_section_title
;
Structure prediction by ZEFSAII (Michael W. Deem and Ramdas Pophale) SiO2 
 PCOD8099285
Probable space group: C 2/M
;
_chemical_formula_sum "Si O2"
_cell_formula_units_Z 56
_cell_length_a 23.217055
_cell_length_b 11.320096
_cell_length_c 11.465755
_cell_angle_alpha 90.000000
_cell_angle_beta 108.151007
_cell_angle_gamma 90.000000
_cell_volume 2863.470065
_symmetry_space_group_name_H-M "C 2/M"
_symmetry_group_IT_number 12
_symmetry_cell_setting 'monoclinic'
loop_
_space_group_symop_operation_xyz
x,y,z
-x,y,-z
-x,-y,-z
x,-y,z
1/2+x,1/2+y,z
1/2-x,1/2+y,-z
1/2-x,1/2-y,-z
1/2+x,1/2-y,z
loop_
_atom_site_type_symbol
_atom_site_label
_atom_site_fract_x
_atom_site_fract_y
_atom_site_fract_z
Si Si1 0.394181 0.715331 0.161447
Si Si2 0.010465 0.628138 0.886043
Si Si3 0.002052 0.133273 0.373240
Si Si4 0.844292 0.865359 0.885961
Si Si5 0.294516 0.133782 0.221814
Si Si6 0.708536 0.136550 0.506854
Si Si7 0.098494 0.721887 0.290290
O O1 0.437935 0.823299 0.163230
O O2 0.435045 0.633660 0.271436
O O3 0.335227 0.766767 0.187039
O O4 0.376554 0.649525 0.031164
O O5 0.034413 0.500000 0.935818
O O6 0.946310 0.619531 0.780681
O O7 0.000000 0.702260 0.000000
O O8 0.000000 0.195392 0.500000
O O9 0.056163 0.186164 0.331131
O O10 0.022480 0.000000 0.403876
O O11 0.773847 0.833812 0.856413
O O12 0.870768 0.783764 0.801446
O O13 0.852186 0.000000 0.849447
O O14 0.304272 0.143969 0.365280
O O15 0.310395 0.000000 0.190256
O O16 0.750000 0.250000 0.500000
O O17 0.646125 0.156147 0.401109
O O18 0.732966 0.000000 0.493704
#
# Coordination Sequence:
#
# PCOD8099285 Si02
#       7
#     8   8   8   8   8   8   8
#     4  11  21  38  60  85 117 159 201 250 307 375
#     4  10  20  35  55  83 114 148 190 242 296 353
#     4  10  22  38  59  87 121 160 204 257 308 363
#     4  11  22  37  59  87 121 160 205 257 308 369
#     4  10  22  40  61  86 120 160 203 254 312 371
#     4  11  23  41  65  93 126 164 209 257 306 369
#     4  11  21  38  61  88 119 160 200 251 304 372
#
# _framework density 19.556691000000001
#
# number of rings (size 3 to 8) (size 9 to 14) (size 15 to 20)
#    0.000    1.429    2.857    3.000    0.000    0.571 
#    0.000    3.571    0.000    6.857    0.000    0.000 
#    0.000    0.000    0.000    0.000    0.000    0.000 
#
# Total GULP energy -346908.792993 kJ/mol
# GULP energy per Si atom -12389.599750 kJ/mol
# Density = 1.951218 g / cm^3
# Si number density = 19.556691 Si / 1000 Ang^3
#
#
#
# Elastic Constant Matrix: (Units=GPa)
#
#
# Indices 1 2 3 4 5 6 
#
# 1 89.7067 33.7417 30.1531 0.0000 8.9199 0.0000
# 2 33.7417 80.8240 11.7346 0.0000 -1.7147 0.0000
# 3 30.1531 11.7346 125.8424 0.0000 18.4376 0.0000
# 4 0.0000 0.0000 0.0000 20.8992 0.0000 4.6397
# 5 8.9199 -1.7147 18.4376 0.0000 27.9852 0.0000
# 6 0.0000 0.0000 0.0000 4.6397 0.0000 -9.5493
#
#
#
# Elastic Compliance Matrix: (Units=1/GPa)
#
#
# Indices 1 2 3 4 5 6 
#
# 1 0.014466 -0.005756 -0.002437 0.000000 -0.003358 0.000000
# 2 -0.005756 0.014907 -0.000458 0.000000 0.003050 0.000000
# 3 -0.002437 -0.000458 0.009368 0.000000 -0.005423 0.000000
# 4 0.000000 0.000000 0.000000 0.043190 0.000000 0.020985
# 5 -0.003358 0.003050 -0.005423 0.000000 0.040563 0.000000
# 6 0.000000 0.000000 0.000000 0.020985 0.000000 -0.094524
#
#
# Mechanical properties :
#
#
# Convention : Reuss Voigt Hill
#
# Bulk Modulus (GPa) = 46.64724 49.73688 48.19206
# Shear Modulus (GPa) = 95.38628 22.58325 58.98477
#
# Velocity S-wave (km/s) = 6.99143 3.40186 5.49785
# Velocity P-wave (km/s) = 9.43809 6.39668 8.06211
#
# Compressibility (1/GPa) = 0.02143750
#
# Stress axis : x y z
#
# Youngs Moduli (GPa) = 69.12865 67.08332 106.75006
#
# Poissons Ratio (x) = 0.38616 0.26020
# Poissons Ratio (y) = 0.39793 0.04884
# Poissons Ratio (z) = 0.16850 0.03069
#
# Static dielectric constant tensor:
#      x y z
#    x 3.546330 0.000000 0.089170 
#    y 0.000000 3.549560 0.000000 
#    z 0.089170 0.000000 3.955030 
# 
# 
# High freq. dielectric constant tensor:
#      x y z
#    x 1.761670 0.000000 0.006050 
#    y 0.000000 1.757190 0.000000 
#    z 0.006050 0.000000 1.782020 
# 
# From -- ./inp_files/165619.got.cif
#   From: 2010.06.25/outbox.cif.g09.slc.cpg/sg12_83_cif.got.tgz:165619.got - 2010.06.28 00:19:55.
