data_PCOD8099954
_publ_section_title
;
Structure prediction by ZEFSAII (Michael W. Deem and Ramdas Pophale) SiO2 
 PCOD8099954
Probable space group: C 2/M
;
_chemical_formula_sum "Si O2"
_cell_formula_units_Z 56
_cell_length_a 28.678455
_cell_length_b 9.101407
_cell_length_c 11.299788
_cell_angle_alpha 90.000000
_cell_angle_beta 76.252419
_cell_angle_gamma 90.000000
_cell_volume 2864.911873
_symmetry_space_group_name_H-M "C 2/M"
_symmetry_group_IT_number 12
_symmetry_cell_setting 'monoclinic'
loop_
_space_group_symop_operation_xyz
x,y,z
-x,y,-z
-x,-y,-z
x,-y,z
1/2+x,1/2+y,z
1/2-x,1/2+y,-z
1/2-x,1/2-y,-z
1/2+x,1/2-y,z
loop_
_atom_site_type_symbol
_atom_site_label
_atom_site_fract_x
_atom_site_fract_y
_atom_site_fract_z
Si Si1 0.238286 0.172268 0.129487
Si Si2 0.563156 0.830925 0.199942
Si Si3 0.870813 0.169678 0.423185
Si Si4 0.685392 0.332996 0.769014
Si Si5 0.453573 0.169138 0.252043
Si Si6 0.637711 0.330602 0.302925
Si Si7 0.083980 0.831071 0.946478
O O1 0.273059 0.225710 0.212714
O O2 0.184245 0.211773 0.198963
O O3 0.245306 0.000000 0.108180
O O4 0.250000 0.250000 0.000000
O O5 0.507493 0.812133 0.266657
O O6 0.593490 0.770881 0.291875
O O7 0.576120 0.000000 0.168373
O O8 0.576768 0.738382 0.077715
O O9 0.829096 0.213936 0.355663
O O10 0.918736 0.262908 0.371628
O O11 0.851224 0.199578 0.565923
O O12 0.884691 0.000000 0.393097
O O13 0.704448 0.500000 0.761653
O O14 0.639712 0.314705 0.881342
O O15 0.449174 0.249706 0.128881
O O16 0.439920 0.000000 0.240701
O O17 0.623614 0.500000 0.291026
O O18 0.068031 0.000000 0.959108
#
# Coordination Sequence:
#
# PCOD8099954 Si02
#       7
#     8   8   8   8   8   8   8
#     4  11  23  38  58  85 114 144 180 223 274 330
#     4  11  23  36  53  81 115 149 185 230 283 330
#     4   9  20  40  61  81 108 145 189 230 271 326
#     4   9  19  36  58  83 111 142 178 226 277 324
#     4  10  21  36  55  82 115 146 181 230 282 331
#     4  10  23  41  58  79 110 147 189 233 272 323
#     4  10  20  35  57  84 113 147 188 229 272 329
#
# _framework density 19.546849000000002
#
# number of rings (size 3 to 8) (size 9 to 14) (size 15 to 20)
#    0.000    2.000    0.000    3.857    0.000   13.143 
#    0.000    2.857    0.000    0.000    0.000    0.000 
#    0.000    0.000    0.000    0.000    0.000    0.000 
#
# Total GULP energy -347328.639960 kJ/mol
# GULP energy per Si atom -12404.594284 kJ/mol
# Density = 1.950236 g / cm^3
# Si number density = 19.546849 Si / 1000 Ang^3
#
#
#
# Elastic Constant Matrix: (Units=GPa)
#
#
# Indices 1 2 3 4 5 6 
#
# 1 111.4644 63.1857 37.3779 0.0000 14.0710 0.0000
# 2 63.1857 116.2720 47.6007 0.0000 4.5879 0.0000
# 3 37.3779 47.6007 106.2684 0.0000 11.0017 0.0000
# 4 0.0000 0.0000 0.0000 25.3029 0.0000 5.4603
# 5 14.0710 4.5879 11.0017 0.0000 15.9900 0.0000
# 6 0.0000 0.0000 0.0000 5.4603 0.0000 37.3213
#
#
#
# Elastic Compliance Matrix: (Units=1/GPa)
#
#
# Indices 1 2 3 4 5 6 
#
# 1 0.014628 -0.007192 -0.000866 0.000000 -0.010213 0.000000
# 2 -0.007192 0.014068 -0.004317 0.000000 0.005262 0.000000
# 3 -0.000866 -0.004317 0.012319 0.000000 -0.006475 0.000000
# 4 0.000000 0.000000 0.000000 0.040810 0.000000 -0.005971
# 5 -0.010213 0.005262 -0.006475 0.000000 0.074471 0.000000
# 6 0.000000 0.000000 0.000000 -0.005971 0.000000 0.027668
#
#
# Mechanical properties :
#
#
# Convention : Reuss Voigt Hill
#
# Bulk Modulus (GPa) = 61.48072 70.03703 65.75888
# Shear Modulus (GPa) = 23.34973 28.11221 25.73097
#
# Velocity S-wave (km/s) = 3.45998 3.79647 3.63212
# Velocity P-wave (km/s) = 6.89081 7.42467 7.16271
#
# Compressibility (1/GPa) = 0.01626526
#
# Stress axis : x y z
#
# Youngs Moduli (GPa) = 68.36231 71.08191 81.17631
#
# Poissons Ratio (x) = 0.51119 0.07034
# Poissons Ratio (y) = 0.49163 0.35043
# Poissons Ratio (z) = 0.05924 0.30685
#
# Static dielectric constant tensor:
#      x y z
#    x 3.569730 0.000000 0.061710 
#    y 0.000000 3.664020 0.000000 
#    z 0.061710 0.000000 3.500470 
# 
# 
# High freq. dielectric constant tensor:
#      x y z
#    x 1.762100 0.000000 0.005320 
#    y 0.000000 1.768480 0.000000 
#    z 0.005320 0.000000 1.760800 
# 
# From -- ./inp_files/180711.got.cif
#   From: 2010.06.25/outbox.cif.g09.slc.cpg/sg12_91_cif.got.tgz:180711.got - 2010.06.28 00:19:55.
