data_PCOD8099417
_publ_section_title
;
Structure prediction by ZEFSAII (Michael W. Deem and Ramdas Pophale) SiO2 
 PCOD8099417
Probable space group: C 2/M
;
_chemical_formula_sum "Si O2"
_cell_formula_units_Z 56
_cell_length_a 18.910461
_cell_length_b 8.910572
_cell_length_c 19.561208
_cell_angle_alpha 90.000000
_cell_angle_beta 121.606713
_cell_angle_gamma 90.000000
_cell_volume 2807.194112
_symmetry_space_group_name_H-M "C 2/M"
_symmetry_group_IT_number 12
_symmetry_cell_setting 'monoclinic'
loop_
_space_group_symop_operation_xyz
x,y,z
-x,y,-z
-x,-y,-z
x,-y,z
1/2+x,1/2+y,z
1/2-x,1/2+y,-z
1/2-x,1/2-y,-z
1/2+x,1/2-y,z
loop_
_atom_site_type_symbol
_atom_site_label
_atom_site_fract_x
_atom_site_fract_y
_atom_site_fract_z
Si Si1 0.488284 0.670709 0.676097
Si Si2 0.736540 0.323872 0.066598
Si Si3 0.160308 0.323185 0.750313
Si Si4 0.573142 0.170642 0.983696
Si Si5 0.532962 0.670216 0.174300
Si Si6 0.298577 0.174997 0.729612
Si Si7 0.319187 0.825028 0.580941
O O1 0.489606 0.500000 0.650026
O O2 0.570090 0.754306 0.691332
O O3 0.485230 0.677069 0.755552
O O4 0.407398 0.752890 0.605340
O O5 0.727524 0.500000 0.051991
O O6 0.808844 0.283905 0.157233
O O7 0.750000 0.250000 0.000000
O O8 0.651851 0.256707 0.054930
O O9 0.156278 0.500000 0.737155
O O10 0.220664 0.255244 0.724098
O O11 0.545555 0.249479 0.899746
O O12 0.597695 0.000000 0.979230
O O13 0.500000 0.182476 0.000000
O O14 0.541361 0.500000 0.152166
O O15 0.616767 0.757535 0.196813
O O16 0.295295 0.205583 0.647226
O O17 0.296939 0.000000 0.746767
O O18 0.250000 0.750000 0.500000
O O19 0.324281 0.000000 0.567315
#
# Coordination Sequence:
#
# PCOD8099417 Si02
#       7
#     8   8   8   8   8   8   8
#     4  10  21  37  59  85 113 147 185 226 275 332
#     4  11  24  39  56  79 110 150 194 241 291 340
#     4  11  23  38  57  83 115 150 191 238 285 335
#     4  11  23  36  52  76 107 144 187 237 289 337
#     4  10  20  35  56  80 107 143 188 235 282 335
#     4  10  21  37  59  86 116 151 188 229 280 336
#     4  10  21  39  64  92 120 149 183 224 272 330
#
# _framework density 19.948744000000001
#
# number of rings (size 3 to 8) (size 9 to 14) (size 15 to 20)
#    0.000    1.571    0.000    4.714    0.000   11.429 
#    0.000    0.714    0.000    4.286    0.000    0.000 
#    0.000    0.000    0.000    0.000    0.000    0.000 
#
# Total GULP energy -347329.765499 kJ/mol
# GULP energy per Si atom -12404.634482 kJ/mol
# Density = 1.990334 g / cm^3
# Si number density = 19.948744 Si / 1000 Ang^3
#
#
#
# Elastic Constant Matrix: (Units=GPa)
#
#
# Indices 1 2 3 4 5 6 
#
# 1 117.1006 59.4088 26.4758 0.0000 24.8815 0.0000
# 2 59.4088 139.5008 50.3810 0.0000 15.4190 0.0000
# 3 26.4758 50.3810 71.5029 0.0000 23.9395 0.0000
# 4 0.0000 0.0000 0.0000 34.2851 0.0000 6.0329
# 5 24.8815 15.4190 23.9395 0.0000 30.1761 0.0000
# 6 0.0000 0.0000 0.0000 6.0329 0.0000 40.3792
#
#
#
# Elastic Compliance Matrix: (Units=1/GPa)
#
#
# Indices 1 2 3 4 5 6 
#
# 1 0.012674 -0.005098 0.002078 0.000000 -0.009493 0.000000
# 2 -0.005098 0.011675 -0.007828 0.000000 0.004448 0.000000
# 3 0.002078 -0.007828 0.024464 0.000000 -0.017122 0.000000
# 4 0.000000 0.000000 0.000000 0.029955 0.000000 -0.004475
# 5 -0.009493 0.004448 -0.017122 0.000000 0.052277 0.000000
# 6 0.000000 0.000000 0.000000 -0.004475 0.000000 0.025434
#
#
# Mechanical properties :
#
#
# Convention : Reuss Voigt Hill
#
# Bulk Modulus (GPa) = 36.87832 66.73730 51.80781
# Shear Modulus (GPa) = 26.70763 33.75731 30.23247
#
# Velocity S-wave (km/s) = 3.66295 4.11810 3.89718
# Velocity P-wave (km/s) = 6.03459 7.49258 6.80275
#
# Compressibility (1/GPa) = 0.02711620
#
# Stress axis : x y z
#
# Youngs Moduli (GPa) = 78.90436 85.65312 40.87678
#
# Poissons Ratio (x) = 0.43670 -0.08495
# Poissons Ratio (y) = 0.40229 0.31997
# Poissons Ratio (z) = -0.16397 0.67047
#
# Static dielectric constant tensor:
#      x y z
#    x 3.850170 0.000000 0.374500 
#    y 0.000000 3.912400 0.000000 
#    z 0.374500 0.000000 3.760660 
# 
# 
# High freq. dielectric constant tensor:
#      x y z
#    x 1.784190 0.000000 0.011820 
#    y 0.000000 1.797280 0.000000 
#    z 0.011820 0.000000 1.766200 
# 
# From -- ./inp_files/275681.got.cif
#   From: 2010.06.25/outbox.cif.g09.slc.cpg/sg12_138_cif.got.tgz:275681.got - 2010.06.28 00:19:55.
