data_PCOD8099602
_publ_section_title
;
Structure prediction by ZEFSAII (Michael W. Deem and Ramdas Pophale) SiO2 
 PCOD8099602
Probable space group: C 2/M
;
_chemical_formula_sum "Si O2"
_cell_formula_units_Z 56
_cell_length_a 17.495218
_cell_length_b 19.928745
_cell_length_c 11.189476
_cell_angle_alpha 90.000000
_cell_angle_beta 129.012846
_cell_angle_gamma 90.000000
_cell_volume 3031.326978
_symmetry_space_group_name_H-M "C 2/M"
_symmetry_group_IT_number 12
_symmetry_cell_setting 'monoclinic'
loop_
_space_group_symop_operation_xyz
x,y,z
-x,y,-z
-x,-y,-z
x,-y,z
1/2+x,1/2+y,z
1/2-x,1/2+y,-z
1/2-x,1/2-y,-z
1/2+x,1/2-y,z
loop_
_atom_site_type_symbol
_atom_site_label
_atom_site_fract_x
_atom_site_fract_y
_atom_site_fract_z
Si Si1 0.600219 0.173374 0.660891
Si Si2 0.313264 0.668061 0.463836
Si Si3 0.280889 0.699006 0.686181
Si Si4 0.583966 0.640639 0.998682
Si Si5 0.330943 0.577335 0.270161
Si Si6 0.466616 0.688092 0.304590
Si Si7 0.729175 0.075656 0.928871
O O1 0.500000 0.148886 0.500000
O O2 0.678334 0.171184 0.632199
O O3 0.594589 0.246696 0.716237
O O4 0.638545 0.122531 0.800697
O O5 0.309184 0.651578 0.600907
O O6 0.229071 0.722996 0.357534
O O7 0.291622 0.603156 0.360339
O O8 0.421792 0.697731 0.539910
O O9 0.364373 0.696847 0.868836
O O10 0.535516 0.679894 0.840306
O O11 0.500000 0.605586 0.000000
O O12 0.667061 0.588457 0.037347
O O13 0.363592 0.500000 0.313323
O O14 0.424998 0.620771 0.323902
O O15 0.245815 0.586551 0.087054
O O16 0.697795 0.000000 0.869643
#
# Coordination Sequence:
#
# PCOD8099602 Si02
#       7
#     8   8   8   8   8   8   8
#     4  11  20  36  60  85 111 147 192 242 284 326
#     4  11  20  34  54  80 120 147 180 236 279 333
#     4  10  21  34  53  83 115 145 184 233 283 329
#     4  10  20  35  56  82 115 146 184 227 289 343
#     4  10  21  37  57  83 116 153 188 225 279 345
#     4  11  20  34  58  86 114 147 190 233 279 339
#     4   9  22  38  56  82 112 150 196 233 277 337
#
# _framework density 18.473756999999999
#
# number of rings (size 3 to 8) (size 9 to 14) (size 15 to 20)
#    0.000    1.714    4.286    0.429    2.000    3.429 
#    0.000    2.857    0.000    0.000    0.000    2.000 
#    0.000    0.000    0.000    0.000    0.000    0.000 
#
# Total GULP energy -347092.904901 kJ/mol
# GULP energy per Si atom -12396.175175 kJ/mol
# Density = 1.843171 g / cm^3
# Si number density = 18.473757 Si / 1000 Ang^3
#
#
#
# Elastic Constant Matrix: (Units=GPa)
#
#
# Indices 1 2 3 4 5 6 
#
# 1 79.5355 40.5043 36.7073 0.0000 -14.4061 0.0000
# 2 40.5043 114.3004 55.5003 0.0000 -10.3604 0.0000
# 3 36.7073 55.5003 111.6308 0.0000 -14.7664 0.0000
# 4 0.0000 0.0000 0.0000 25.7661 0.0000 -4.8674
# 5 -14.4061 -10.3604 -14.7664 0.0000 33.3107 0.0000
# 6 0.0000 0.0000 0.0000 -4.8674 0.0000 16.5057
#
#
#
# Elastic Compliance Matrix: (Units=1/GPa)
#
#
# Indices 1 2 3 4 5 6 
#
# 1 0.016867 -0.004164 -0.002849 0.000000 0.004736 0.000000
# 2 -0.004164 0.012600 -0.004902 0.000000 -0.000055 0.000000
# 3 -0.002849 -0.004902 0.012713 0.000000 0.002879 0.000000
# 4 0.000000 0.000000 0.000000 0.041100 0.000000 0.012120
# 5 0.004736 -0.000055 0.002879 0.000000 0.033327 0.000000
# 6 0.000000 0.000000 0.000000 0.012120 0.000000 0.064159
#
#
# Mechanical properties :
#
#
# Convention : Reuss Voigt Hill
#
# Bulk Modulus (GPa) = 54.50236 63.43229 58.96733
# Shear Modulus (GPa) = 23.72879 26.63349 25.18114
#
# Velocity S-wave (km/s) = 3.58782 3.80108 3.69599
# Velocity P-wave (km/s) = 6.83593 7.32634 7.08538
#
# Compressibility (1/GPa) = 0.01834783
#
# Stress axis : x y z
#
# Youngs Moduli (GPa) = 59.28904 79.36535 78.65815
#
# Poissons Ratio (x) = 0.33048 0.22413
# Poissons Ratio (y) = 0.24688 0.38562
# Poissons Ratio (z) = 0.16894 0.38909
#
# Static dielectric constant tensor:
#      x y z
#    x 3.509020 0.000000 -0.208290 
#    y 0.000000 3.166710 0.000000 
#    z -0.208290 0.000000 3.681960 
# 
# 
# High freq. dielectric constant tensor:
#      x y z
#    x 1.709460 0.000000 -0.016210 
#    y 0.000000 1.686030 0.000000 
#    z -0.016210 0.000000 1.735960 
# 
# From -- ./inp_files/159289.got.cif
#   From: 2010.06.25/outbox.cif.g09.slc.cpg/sg12_80_cif.got.tgz:159289.got - 2010.06.28 00:19:55.
