data_PCOD8099269
_publ_section_title
;
Structure prediction by ZEFSAII (Michael W. Deem and Ramdas Pophale) SiO2 
 PCOD8099269
Probable space group: C 2/M
;
_chemical_formula_sum "Si O2"
_cell_formula_units_Z 64
_cell_length_a 9.590151
_cell_length_b 27.859371
_cell_length_c 15.478069
_cell_angle_alpha 90.000000
_cell_angle_beta 123.856310
_cell_angle_gamma 90.000000
_cell_volume 3434.159017
_symmetry_space_group_name_H-M "C 2/M"
_symmetry_group_IT_number 12
_symmetry_cell_setting 'monoclinic'
loop_
_space_group_symop_operation_xyz
x,y,z
-x,y,-z
-x,-y,-z
x,-y,z
1/2+x,1/2+y,z
1/2-x,1/2+y,-z
1/2-x,1/2-y,-z
1/2+x,1/2-y,z
loop_
_atom_site_type_symbol
_atom_site_label
_atom_site_fract_x
_atom_site_fract_y
_atom_site_fract_z
Si Si1 0.524098 0.632913 0.873583
Si Si2 0.385471 0.555148 0.541516
Si Si3 0.501594 0.055014 0.101005
Si Si4 0.774492 0.634433 0.106020
Si Si5 0.652586 0.140226 0.490084
Si Si6 0.039571 0.298224 0.707794
Si Si7 0.151386 0.797412 0.309938
Si Si8 0.625681 0.445669 0.781179
O O1 0.350444 0.618292 0.860385
O O2 0.489359 0.672486 0.789120
O O3 0.600347 0.585499 0.857730
O O4 0.663108 0.653812 0.987614
O O5 0.500000 0.567777 0.500000
O O6 0.324646 0.500000 0.516897
O O7 0.225304 0.589321 0.485415
O O8 0.486593 0.566690 0.663045
O O9 0.382933 0.088461 0.117104
O O10 0.692246 0.062611 0.199442
O O11 0.441869 0.000000 0.092512
O O12 0.500000 0.069798 0.000000
O O13 0.892269 0.677663 0.180323
O O14 0.500000 0.128235 0.500000
O O15 0.588696 0.165533 0.381691
O O16 0.789539 0.173650 0.584918
O O17 0.191442 0.284763 0.696471
O O18 0.936444 0.251058 0.692492
O O19 0.611688 0.500000 0.809229
#
# Coordination Sequence:
#
# PCOD8099269 Si02
#       8
#     8   8   8   8   8   8   8   8
#     4  10  20  38  60  81 115 155 190 235 284 335
#     4  10  22  38  57  87 120 152 190 234 284 340
#     4  10  20  35  55  82 115 150 189 234 279 330
#     4  10  22  37  56  85 118 150 190 236 283 338
#     4  10  21  39  62  84 115 149 188 236 287 340
#     4  10  23  38  58  85 113 146 189 237 289 341
#     4  10  21  40  59  83 112 145 191 240 287 339
#     4  10  20  36  57  82 114 152 194 233 281 341
#
# _framework density 18.636296000000002
#
# number of rings (size 3 to 8) (size 9 to 14) (size 15 to 20)
#    0.000    2.000    2.500    0.375    1.750    3.250 
#    0.000    1.250    0.000    0.000    0.000    0.000 
#    0.000    0.000    0.000    0.000    0.000    0.000 
#
# Total GULP energy -396867.751708 kJ/mol
# GULP energy per Si atom -12402.117241 kJ/mol
# Density = 1.859388 g / cm^3
# Si number density = 18.636296 Si / 1000 Ang^3
#
#
#
# Elastic Constant Matrix: (Units=GPa)
#
#
# Indices 1 2 3 4 5 6 
#
# 1 74.7313 70.1693 41.4401 0.0000 5.2027 0.0000
# 2 70.1693 119.3607 58.9254 0.0000 7.1971 0.0000
# 3 41.4401 58.9254 109.5866 0.0000 8.8471 0.0000
# 4 0.0000 0.0000 0.0000 22.2945 0.0000 10.0308
# 5 5.2027 7.1971 8.8471 0.0000 24.0965 0.0000
# 6 0.0000 0.0000 0.0000 10.0308 0.0000 80.3067
#
#
#
# Elastic Compliance Matrix: (Units=1/GPa)
#
#
# Indices 1 2 3 4 5 6 
#
# 1 0.030400 -0.016585 -0.002523 0.000000 -0.000684 0.000000
# 2 -0.016585 0.020487 -0.004678 0.000000 -0.000821 0.000000
# 3 -0.002523 -0.004678 0.012818 0.000000 -0.002764 0.000000
# 4 0.000000 0.000000 0.000000 0.047525 0.000000 -0.005936
# 5 -0.000684 -0.000821 -0.002764 0.000000 0.042907 0.000000
# 6 0.000000 0.000000 0.000000 -0.005936 0.000000 0.013194
#
#
# Mechanical properties :
#
#
# Convention : Reuss Voigt Hill
#
# Bulk Modulus (GPa) = 61.98367 71.63868 66.81117
# Shear Modulus (GPa) = 22.69832 34.21579 28.45706
#
# Velocity S-wave (km/s) = 3.49372 4.28948 3.91189
# Velocity P-wave (km/s) = 7.04320 7.94082 7.50544
#
# Compressibility (1/GPa) = 0.01613328
#
# Stress axis : x y z
#
# Youngs Moduli (GPa) = 32.89432 48.81193 78.01669
#
# Poissons Ratio (x) = 0.80954 0.19682
# Poissons Ratio (y) = 0.54555 0.36496
# Poissons Ratio (z) = 0.08299 0.22834
#
# Static dielectric constant tensor:
#      x y z
#    x 3.446030 0.000000 0.199170 
#    y 0.000000 3.260670 0.000000 
#    z 0.199170 0.000000 3.828710 
# 
# 
# High freq. dielectric constant tensor:
#      x y z
#    x 1.720370 0.000000 0.007690 
#    y 0.000000 1.715630 0.000000 
#    z 0.007690 0.000000 1.739430 
# 
# From -- ./inp_files/200933.got.cif
#   From: 2010.06.25/outbox.cif.g09.slc.cpg/sg12_101_cif.got.tgz:200933.got - 2010.06.28 00:19:55.
