data_PCOD8099687
_publ_section_title
;
Structure prediction by ZEFSAII (Michael W. Deem and Ramdas Pophale) SiO2 
 PCOD8099687
Probable space group: C 2/M
;
_chemical_formula_sum "Si O2"
_cell_formula_units_Z 64
_cell_length_a 32.483047
_cell_length_b 13.358743
_cell_length_c 9.940645
_cell_angle_alpha 90.000000
_cell_angle_beta 47.514155
_cell_angle_gamma 90.000000
_cell_volume 3181.017774
_symmetry_space_group_name_H-M "C 2/M"
_symmetry_group_IT_number 12
_symmetry_cell_setting 'monoclinic'
loop_
_space_group_symop_operation_xyz
x,y,z
-x,y,-z
-x,-y,-z
x,-y,z
1/2+x,1/2+y,z
1/2-x,1/2+y,-z
1/2-x,1/2-y,-z
1/2+x,1/2-y,z
loop_
_atom_site_type_symbol
_atom_site_label
_atom_site_fract_x
_atom_site_fract_y
_atom_site_fract_z
Si Si1 0.878722 0.890526 0.947087
Si Si2 0.870805 0.386673 0.385183
Si Si3 0.503768 0.386130 0.644798
Si Si4 0.946958 0.785693 0.213193
Si Si5 0.710408 0.884629 0.198508
Si Si6 0.285473 0.880378 0.346612
Si Si7 0.161556 0.886742 0.669759
Si Si8 0.805706 0.271166 0.034133
O O1 0.942995 0.880521 0.844998
O O2 0.868424 0.000000 0.902248
O O3 0.842777 0.879581 0.160697
O O4 0.859892 0.800362 0.890593
O O5 0.884810 0.500000 0.316889
O O6 0.930741 0.331178 0.248628
O O7 0.845306 0.376515 0.590386
O O8 0.825749 0.342648 0.378070
O O9 0.500000 0.344151 0.500000
O O10 0.526787 0.500000 0.590827
O O11 0.542516 0.320558 0.656612
O O12 0.890218 0.837095 0.290293
O O13 0.000000 0.808247 0.000000
O O14 0.754889 0.806685 0.158201
O O15 0.732789 0.000000 0.151854
O O16 0.697223 0.852407 0.076262
O O17 0.222114 0.839012 0.502433
O O18 0.312016 0.836118 0.153674
O O19 0.284766 0.000000 0.344836
O O20 0.160600 0.000000 0.621289
#
# Coordination Sequence:
#
# PCOD8099687 Si02
#       8
#     8   8   8   8   8   8   8   8
#     4  10  20  35  56  84 115 152 192 235 294 354
#     4  10  23  42  62  84 119 161 199 244 291 345
#     4  10  23  41  59  84 120 154 190 243 301 355
#     4  12  23  37  63  90 117 155 199 246 293 352
#     4  10  22  39  56  82 119 157 192 239 298 351
#     4  10  21  38  61  90 122 154 196 244 293 344
#     4  10  20  35  59  91 123 154 190 238 295 359
#     4  11  21  34  60  87 116 152 195 244 288 352
#
# _framework density 20.119347000000001
#
# number of rings (size 3 to 8) (size 9 to 14) (size 15 to 20)
#    0.000    1.625    1.250    3.375    1.750    4.250 
#    0.000    0.000    0.000    0.375    0.000    0.000 
#    0.000    0.000    0.000    0.000    0.000    0.000 
#
# Total GULP energy -396683.064362 kJ/mol
# GULP energy per Si atom -12396.345761 kJ/mol
# Density = 2.007355 g / cm^3
# Si number density = 20.119347 Si / 1000 Ang^3
#
#
#
# Elastic Constant Matrix: (Units=GPa)
#
#
# Indices 1 2 3 4 5 6 
#
# 1 107.0512 56.7217 45.5348 0.0000 -3.4824 0.0000
# 2 56.7217 60.2472 29.7438 0.0000 6.8242 0.0000
# 3 45.5348 29.7438 72.2270 0.0000 9.1852 0.0000
# 4 0.0000 0.0000 0.0000 23.1105 0.0000 -4.2119
# 5 -3.4824 6.8242 9.1852 0.0000 25.1543 0.0000
# 6 0.0000 0.0000 0.0000 -4.2119 0.0000 36.5941
#
#
#
# Elastic Compliance Matrix: (Units=1/GPa)
#
#
# Indices 1 2 3 4 5 6 
#
# 1 0.023488 -0.019311 -0.008322 0.000000 0.011529 0.000000
# 2 -0.019311 0.036880 -0.001469 0.000000 -0.012143 0.000000
# 3 -0.008322 -0.001469 0.020756 0.000000 -0.008333 0.000000
# 4 0.000000 0.000000 0.000000 0.044197 0.000000 0.005087
# 5 0.011529 -0.012143 -0.008333 0.000000 0.047688 0.000000
# 6 0.000000 0.000000 0.000000 0.005087 0.000000 0.027912
#
#
# Mechanical properties :
#
#
# Convention : Reuss Voigt Hill
#
# Bulk Modulus (GPa) = 43.62806 55.94732 49.78769
# Shear Modulus (GPa) = 18.74305 24.14013 21.44159
#
# Velocity S-wave (km/s) = 3.05551 3.46764 3.26808
# Velocity P-wave (km/s) = 5.84636 6.62577 6.24823
#
# Compressibility (1/GPa) = 0.02292103
#
# Stress axis : x y z
#
# Youngs Moduli (GPa) = 42.57445 27.11489 48.17891
#
# Poissons Ratio (x) = 0.52363 0.40092
# Poissons Ratio (y) = 0.82217 0.07076
# Poissons Ratio (z) = 0.35428 0.03982
#
# Static dielectric constant tensor:
#      x y z
#    x 3.606590 0.000000 -0.028480 
#    y 0.000000 3.879020 0.000000 
#    z -0.028480 0.000000 3.485000 
# 
# 
# High freq. dielectric constant tensor:
#      x y z
#    x 1.781420 0.000000 0.003010 
#    y 0.000000 1.796530 0.000000 
#    z 0.003010 0.000000 1.773710 
# 
# From -- ./inp_files/111953.got.cif
#   From: 2010.06.25/outbox.cif.g09.slc.cpg/sg12_56_cif.got.tgz:111953.got - 2010.06.28 00:19:55.
