data_PCOD8099372
_publ_section_title
;
Structure prediction by ZEFSAII (Michael W. Deem and Ramdas Pophale) SiO2 
 PCOD8099372
Probable space group: C 2/M
;
_chemical_formula_sum "Si O2"
_cell_formula_units_Z 64
_cell_length_a 11.257577
_cell_length_b 29.794973
_cell_length_c 17.379587
_cell_angle_alpha 90.000000
_cell_angle_beta 32.567700
_cell_angle_gamma 90.000000
_cell_volume 3137.966802
_symmetry_space_group_name_H-M "C 2/M"
_symmetry_group_IT_number 12
_symmetry_cell_setting 'monoclinic'
loop_
_space_group_symop_operation_xyz
x,y,z
-x,y,-z
-x,-y,-z
x,-y,z
1/2+x,1/2+y,z
1/2-x,1/2+y,-z
1/2-x,1/2-y,-z
1/2+x,1/2-y,z
loop_
_atom_site_type_symbol
_atom_site_label
_atom_site_fract_x
_atom_site_fract_y
_atom_site_fract_z
Si Si1 0.222539 0.051904 0.419357
Si Si2 0.293461 0.053353 0.557233
Si Si3 0.168646 0.092363 0.166391
Si Si4 0.767009 0.211424 0.152678
Si Si5 0.334507 0.304509 0.849335
Si Si6 0.552082 0.085965 0.845737
Si Si7 0.498688 0.185819 0.837729
Si Si8 0.729475 0.769597 0.334044
O O1 0.295743 0.069923 0.465245
O O2 0.421120 0.059769 0.249686
O O3 0.000000 0.073349 0.500000
O O4 0.177414 0.000000 0.455523
O O5 0.500000 0.068138 0.500000
O O6 0.079882 0.076492 0.712395
O O7 0.270019 0.000000 0.573758
O O8 0.198094 0.145678 0.165651
O O9 0.267936 0.069221 0.189256
O O10 0.308099 0.078066 0.014438
O O11 0.778429 0.266083 0.140045
O O12 0.574977 0.187322 0.210448
O O13 0.708781 0.198144 0.271512
O O14 0.000000 0.190707 0.000000
O O15 0.593603 0.293193 0.707714
O O16 0.221144 0.300671 0.994894
O O17 0.595775 0.138122 0.806370
O O18 0.694068 0.221386 0.739282
O O19 0.500000 0.763978 0.500000
#
# Coordination Sequence:
#
# PCOD8099372 Si02
#       8
#     8   8   8   8   8   8   8   8
#     4  10  20  39  64  91 124 159 196 238 293 362
#     4  10  22  43  67  91 123 164 200 234 298 374
#     4  10  21  37  61  89 123 155 200 253 297 353
#     4  11  18  35  60  73 103 159 199 238 292 356
#     4  10  20  35  56  79 107 151 199 239 295 358
#     4  10  21  37  59  93 120 153 202 252 299 350
#     4  10  20  36  55  80 109 151 201 241 296 359
#     4  11  22  35  51  78 109 145 197 253 295 342
#
# _framework density 20.395371999999998
#
# number of rings (size 3 to 8) (size 9 to 14) (size 15 to 20)
#    0.000    1.750    3.750    1.500    1.750    3.500 
#    6.750    1.875    0.000    2.250    0.000    0.000 
#    0.000    0.000    0.000    0.000    0.000    0.000 
#
# Total GULP energy -396463.077931 kJ/mol
# GULP energy per Si atom -12389.471185 kJ/mol
# Density = 2.034895 g / cm^3
# Si number density = 20.395372 Si / 1000 Ang^3
#
#
#
# Elastic Constant Matrix: (Units=GPa)
#
#
# Indices 1 2 3 4 5 6 
#
# 1 131.3013 10.4482 64.7218 0.0000 4.3072 0.0000
# 2 10.4482 20.1873 18.3074 0.0000 -0.8654 0.0000
# 3 64.7218 18.3074 136.2010 -0.0004 -4.5671 0.0000
# 4 0.0000 0.0000 -0.0004 43.2398 0.0001 -9.1243
# 5 4.3072 -0.8654 -4.5671 0.0001 31.1197 0.0000
# 6 0.0000 0.0000 0.0000 -9.1243 0.0000 16.0921
#
#
#
# Elastic Compliance Matrix: (Units=1/GPa)
#
#
# Indices 1 2 3 4 5 6 
#
# 1 0.010100 -0.001026 -0.004733 0.000000 -0.002121 0.000000
# 2 -0.001026 0.056524 -0.007087 0.000000 0.000674 0.000000
# 3 -0.004733 -0.007087 0.010611 0.000000 0.002015 0.000000
# 4 0.000000 0.000000 0.000000 0.026270 0.000000 0.014895
# 5 -0.002121 0.000674 0.002015 0.000000 0.032742 0.000000
# 6 0.000000 0.000000 0.000000 0.014895 0.000000 0.070588
#
#
# Mechanical properties :
#
#
# Convention : Reuss Voigt Hill
#
# Bulk Modulus (GPa) = 19.40154 52.73825 36.06990
# Shear Modulus (GPa) = 20.02336 31.03779 25.53057
#
# Velocity S-wave (km/s) = 3.13670 3.90526 3.54189
# Velocity P-wave (km/s) = 4.75940 6.80065 5.86945
#
# Compressibility (1/GPa) = 0.05154229
#
# Stress axis : x y z
#
# Youngs Moduli (GPa) = 99.00788 17.69173 94.23961
#
# Poissons Ratio (x) = 0.01816 0.44601
# Poissons Ratio (y) = 0.10162 0.66790
# Poissons Ratio (z) = 0.46858 0.12539
#
# Static dielectric constant tensor:
#      x y z
#    x 3.903870 0.000000 0.182350 
#    y 0.000000 3.367140 0.000000 
#    z 0.182350 0.000000 3.672650 
# 
# 
# High freq. dielectric constant tensor:
#      x y z
#    x 1.805940 0.000000 0.006920 
#    y 0.000000 1.763150 0.000000 
#    z 0.006920 0.000000 1.790510 
# 
# From -- ./inp_files/266267.got.cif
#   From: 2010.06.25/outbox.cif.g09.slc.cpg/sg12_134_cif.got.tgz:266267.got - 2010.06.28 00:19:55.
