data_PCOD8099297
_publ_section_title
;
Structure prediction by ZEFSAII (Michael W. Deem and Ramdas Pophale) SiO2 
 PCOD8099297
Probable space group: C 2/M
;
_chemical_formula_sum "Si O2"
_cell_formula_units_Z 64
_cell_length_a 32.216226
_cell_length_b 8.704108
_cell_length_c 14.985237
_cell_angle_alpha 90.000000
_cell_angle_beta 132.500941
_cell_angle_gamma 90.000000
_cell_volume 3098.039128
_symmetry_space_group_name_H-M "C 2/M"
_symmetry_group_IT_number 12
_symmetry_cell_setting 'monoclinic'
loop_
_space_group_symop_operation_xyz
x,y,z
-x,y,-z
-x,-y,-z
x,-y,z
1/2+x,1/2+y,z
1/2-x,1/2+y,-z
1/2-x,1/2-y,-z
1/2+x,1/2-y,z
loop_
_atom_site_type_symbol
_atom_site_label
_atom_site_fract_x
_atom_site_fract_y
_atom_site_fract_z
Si Si1 0.777095 0.819195 0.452705
Si Si2 0.899019 0.180917 0.665419
Si Si3 0.370993 0.318960 0.987780
Si Si4 0.563480 0.683199 0.091575
Si Si5 0.246938 0.681684 0.214986
Si Si6 0.862175 0.676797 0.322613
Si Si7 0.959949 0.819874 0.580807
Si Si8 0.075413 0.675721 0.765349
O O1 0.750000 0.750000 0.500000
O O2 0.840832 0.756390 0.539979
O O3 0.745792 0.766459 0.317202
O O4 0.775418 0.000000 0.459803
O O5 0.909075 0.251715 0.778117
O O6 0.948421 0.221986 0.667954
O O7 0.895157 0.000000 0.671162
O O8 0.361455 0.500000 0.968234
O O9 0.402024 0.255828 0.943874
O O10 0.310949 0.237014 0.913195
O O11 0.409637 0.280721 0.128522
O O12 0.563287 0.500000 0.090033
O O13 0.500000 0.746283 0.000000
O O14 0.253225 0.500000 0.213995
O O15 0.299461 0.758679 0.241956
O O16 0.864638 0.500000 0.356558
O O17 0.906685 0.771845 0.444934
O O18 0.876761 0.694433 0.239694
O O19 0.016429 0.730294 0.635866
O O20 0.969694 0.000000 0.580941
O O21 0.070093 0.500000 0.788792
#
# Coordination Sequence:
#
# PCOD8099297 Si02
#       8
#     8   8   8   8   8   8   8   8
#     4  10  20  35  55  83 117 157 201 245 297 355
#     4   9  17  32  54  83 120 156 193 238 294 355
#     4  11  23  40  64  92 121 162 211 256 309 370
#     4   9  17  31  55  87 121 157 200 248 297 354
#     4  11  23  41  63  88 124 163 204 258 312 366
#     4  11  24  42  64  90 123 162 206 256 313 372
#     4  11  21  38  65  95 126 160 202 253 309 371
#     4  11  25  43  62  88 123 163 205 257 315 370
#
# _framework density 20.658228999999999
#
# number of rings (size 3 to 8) (size 9 to 14) (size 15 to 20)
#    0.000    1.625    1.250    3.750    0.000    8.000 
#    0.000    0.000    0.000    9.000    0.000    0.000 
#    0.000    0.000    0.000    0.000    0.000    0.000 
#
# Total GULP energy -396855.288467 kJ/mol
# GULP energy per Si atom -12401.727765 kJ/mol
# Density = 2.061121 g / cm^3
# Si number density = 20.658229 Si / 1000 Ang^3
#
#
#
# Elastic Constant Matrix: (Units=GPa)
#
#
# Indices 1 2 3 4 5 6 
#
# 1 115.1924 41.0333 26.3349 0.0000 11.3878 0.0000
# 2 41.0333 58.8467 15.0226 0.0000 -3.8462 0.0000
# 3 26.3349 15.0226 84.6041 0.0000 6.1175 0.0000
# 4 0.0000 0.0000 0.0000 30.9638 0.0000 0.5534
# 5 11.3878 -3.8462 6.1175 0.0000 38.6232 0.0000
# 6 0.0000 0.0000 0.0000 0.5534 0.0000 28.3600
#
#
#
# Elastic Compliance Matrix: (Units=1/GPa)
#
#
# Indices 1 2 3 4 5 6 
#
# 1 0.012625 -0.008542 -0.002106 0.000000 -0.004239 0.000000
# 2 -0.008542 0.023785 -0.001940 0.000000 0.005194 0.000000
# 3 -0.002106 -0.001940 0.012937 0.000000 -0.001621 0.000000
# 4 0.000000 0.000000 0.000000 0.032307 0.000000 -0.000630
# 5 -0.004239 0.005194 -0.001621 0.000000 0.027915 0.000000
# 6 0.000000 0.000000 0.000000 -0.000630 0.000000 0.035273
#
#
# Mechanical properties :
#
#
# Convention : Reuss Voigt Hill
#
# Bulk Modulus (GPa) = 41.37519 47.04720 44.21119
# Shear Modulus (GPa) = 28.07796 31.33957 29.70877
#
# Velocity S-wave (km/s) = 3.69069 3.89916 3.79635
# Velocity P-wave (km/s) = 6.18332 6.56466 6.37684
#
# Compressibility (1/GPa) = 0.02416907
#
# Stress axis : x y z
#
# Youngs Moduli (GPa) = 79.20947 42.04398 77.29723
#
# Poissons Ratio (x) = 0.35916 0.16282
# Poissons Ratio (y) = 0.67665 0.14994
# Poissons Ratio (z) = 0.16684 0.08156
#
# Static dielectric constant tensor:
#      x y z
#    x 3.937810 0.000000 0.019790 
#    y 0.000000 3.495300 0.000000 
#    z 0.019790 0.000000 3.841390 
# 
# 
# High freq. dielectric constant tensor:
#      x y z
#    x 1.822270 0.000000 0.000560 
#    y 0.000000 1.786080 0.000000 
#    z 0.000560 0.000000 1.814050 
# 
# From -- ./inp_files/250028.got.cif
#   From: 2010.06.25/outbox.cif.g09.slc.cpg/sg12_126_cif.got.tgz:250028.got - 2010.06.28 00:19:55.
