data_PCOD8099626
_publ_section_title
;
Structure prediction by ZEFSAII (Michael W. Deem and Ramdas Pophale) SiO2 
 PCOD8099626
Probable space group: C 2/M
;
_chemical_formula_sum "Si O2"
_cell_formula_units_Z 56
_cell_length_a 21.578426
_cell_length_b 13.082608
_cell_length_c 11.617859
_cell_angle_alpha 90.000000
_cell_angle_beta 63.107565
_cell_angle_gamma 90.000000
_cell_volume 2925.065153
_symmetry_space_group_name_H-M "C 2/M"
_symmetry_group_IT_number 12
_symmetry_cell_setting 'monoclinic'
loop_
_space_group_symop_operation_xyz
x,y,z
-x,y,-z
-x,-y,-z
x,-y,z
1/2+x,1/2+y,z
1/2-x,1/2+y,-z
1/2-x,1/2-y,-z
1/2+x,1/2-y,z
loop_
_atom_site_type_symbol
_atom_site_label
_atom_site_fract_x
_atom_site_fract_y
_atom_site_fract_z
Si Si1 0.313696 0.616606 0.289291
Si Si2 0.932631 0.617954 0.119196
Si Si3 0.970980 0.885332 0.651890
Si Si4 0.654145 0.883240 0.397388
Si Si5 0.320091 0.227729 0.085274
Si Si6 0.911043 0.751221 0.355015
Si Si7 0.837486 0.235320 0.808354
O O1 0.339835 0.500000 0.258024
O O2 0.231772 0.620655 0.382526
O O3 0.332570 0.671625 0.153023
O O4 0.350285 0.671249 0.366955
O O5 0.944428 0.500000 0.131026
O O6 0.864197 0.634754 0.099788
O O7 0.923573 0.665821 0.250728
O O8 0.000000 0.666235 0.000000
O O9 0.891427 0.848518 0.718186
O O10 0.000000 0.882444 0.500000
O O11 0.017696 0.813224 0.692144
O O12 0.973347 0.000000 0.699579
O O13 0.607395 0.807259 0.512047
O O14 0.651590 0.842697 0.268021
O O15 0.626039 0.000000 0.422533
O O16 0.239811 0.193343 0.152372
O O17 0.348074 0.248863 0.934544
#
# Coordination Sequence:
#
# PCOD8099626 Si02
#       7
#     8   8   8   8   8   8   8
#     4   9  19  35  57  84 112 144 184 234 286 336
#     4  10  21  37  57  83 114 146 186 236 284 336
#     4  11  23  38  56  81 114 151 189 231 281 337
#     4  10  20  35  56  83 113 146 187 233 283 339
#     4   9  20  36  61  84 113 151 191 231 288 337
#     4  11  20  37  58  80 111 148 187 232 283 338
#     4  10  20  39  57  83 117 152 189 238 280 337
#
# _framework density 19.144871999999999
#
# number of rings (size 3 to 8) (size 9 to 14) (size 15 to 20)
#    0.000    2.000    1.429    2.143    0.000    1.714 
#    0.000    5.000    0.000    4.714    0.000    0.000 
#    0.000    0.000    0.000    0.000    0.000    0.000 
#
# Total GULP energy -347256.554469 kJ/mol
# GULP energy per Si atom -12402.019802 kJ/mol
# Density = 1.910130 g / cm^3
# Si number density = 19.144872 Si / 1000 Ang^3
#
#
#
# Elastic Constant Matrix: (Units=GPa)
#
#
# Indices 1 2 3 4 5 6 
#
# 1 86.1555 47.5482 32.8562 0.0000 -3.9009 0.0000
# 2 47.5482 106.6281 37.8207 0.0000 -6.3276 0.0000
# 3 32.8562 37.8207 89.1034 0.0000 -5.3379 0.0000
# 4 0.0000 0.0000 0.0000 14.0041 0.0000 -6.7720
# 5 -3.9009 -6.3276 -5.3379 0.0000 28.1528 0.0000
# 6 0.0000 0.0000 0.0000 -6.7720 0.0000 26.9808
#
#
#
# Elastic Compliance Matrix: (Units=1/GPa)
#
#
# Indices 1 2 3 4 5 6 
#
# 1 0.016242 -0.006014 -0.003421 0.000000 0.000250 0.000000
# 2 -0.006014 0.013340 -0.003353 0.000000 0.001529 0.000000
# 3 -0.003421 -0.003353 0.013993 0.000000 0.001425 0.000000
# 4 0.000000 0.000000 0.000000 0.081272 0.000000 0.020399
# 5 0.000250 0.001529 0.001425 0.000000 0.036169 0.000000
# 6 0.000000 0.000000 0.000000 0.020399 0.000000 0.042183
#
#
# Mechanical properties :
#
#
# Convention : Reuss Voigt Hill
#
# Bulk Modulus (GPa) = 55.56133 57.59302 56.57718
# Shear Modulus (GPa) = 21.29676 24.73833 23.01755
#
# Velocity S-wave (km/s) = 3.33889 3.59857 3.47116
# Velocity P-wave (km/s) = 6.62938 6.88581 6.75881
#
# Compressibility (1/GPa) = 0.01799813
#
# Stress axis : x y z
#
# Youngs Moduli (GPa) = 61.56753 74.95976 71.46354
#
# Poissons Ratio (x) = 0.45084 0.24450
# Poissons Ratio (y) = 0.37030 0.23962
# Poissons Ratio (z) = 0.21064 0.25135
#
# Static dielectric constant tensor:
#      x y z
#    x 3.611050 0.000000 -0.041080 
#    y 0.000000 3.494840 0.000000 
#    z -0.041080 0.000000 3.479730 
# 
# 
# High freq. dielectric constant tensor:
#      x y z
#    x 1.749750 0.000000 -0.000450 
#    y 0.000000 1.740680 0.000000 
#    z -0.000450 0.000000 1.747240 
# 
# From -- ./inp_files/165610.got.cif
#   From: 2010.06.25/outbox.cif.g09.slc.cpg/sg12_83_cif.got.tgz:165610.got - 2010.06.28 00:19:55.
