data_PCOD8099175
_publ_section_title
;
Structure prediction by ZEFSAII (Michael W. Deem and Ramdas Pophale) SiO2 
 PCOD8099175
Probable space group: C 2/M
;
_chemical_formula_sum "Si O2"
_cell_formula_units_Z 60
_cell_length_a 9.309293
_cell_length_b 24.644671
_cell_length_c 17.904812
_cell_angle_alpha 90.000000
_cell_angle_beta 131.008491
_cell_angle_gamma 90.000000
_cell_volume 3099.798018
_symmetry_space_group_name_H-M "C 2/M"
_symmetry_group_IT_number 12
_symmetry_cell_setting 'monoclinic'
loop_
_space_group_symop_operation_xyz
x,y,z
-x,y,-z
-x,-y,-z
x,-y,z
1/2+x,1/2+y,z
1/2-x,1/2+y,-z
1/2-x,1/2-y,-z
1/2+x,1/2-y,z
loop_
_atom_site_type_symbol
_atom_site_label
_atom_site_fract_x
_atom_site_fract_y
_atom_site_fract_z
Si Si1 0.286139 0.753757 0.426784
Si Si2 0.976586 0.168936 0.256379
Si Si3 0.580829 0.063046 0.801142
Si Si4 0.466819 0.406783 0.854209
Si Si5 0.500000 0.333475 0.000000
Si Si6 0.360462 0.059456 0.012007
Si Si7 0.165633 0.262969 0.890239
Si Si8 0.170474 0.336796 0.274114
O O1 0.500000 0.773841 0.500000
O O2 0.250000 0.750000 0.500000
O O3 0.251430 0.696867 0.372159
O O4 0.158722 0.800513 0.348958
O O5 0.852818 0.207573 0.161103
O O6 0.843776 0.147279 0.278196
O O7 0.061900 0.120036 0.236423
O O8 0.769913 0.066792 0.814311
O O9 0.633132 0.083943 0.902250
O O10 0.421282 0.107456 0.722996
O O11 0.509999 0.000000 0.771920
O O12 0.558816 0.367063 0.947487
O O13 0.644987 0.447645 0.907568
O O14 0.327941 0.298589 0.906189
O O15 0.449781 0.000000 0.051773
O O16 0.500000 0.091042 0.000000
O O17 0.973441 0.298617 0.822168
O O18 0.250000 0.250000 0.000000
#
# Coordination Sequence:
#
# PCOD8099175 Si02
#       8
#     8   8   8   8   4   8   8   8
#     4  11  24  44  69  97 126 156 196 250 314 384
#     4  11  25  36  60  93 124 161 203 248 310 375
#     4  11  23  39  59  84 120 166 215 263 304 353
#     4  12  21  35  54  82 119 160 213 252 295 357
#     4  12  20  32  47  76 114 172 197 238 280 344
#     4  10  20  35  55  79 114 163 214 260 301 347
#     4  11  21  34  52  82 130 165 197 239 297 365
#     4  11  23  40  61  92 123 161 210 250 305 372
#
# _framework density 19.356100999999999
#
# number of rings (size 3 to 8) (size 9 to 14) (size 15 to 20)
#    0.000    0.933    5.333    2.000    3.733    1.067 
#    1.200    0.667    0.000    0.400    0.000    0.933 
#    0.000    0.000    0.000    0.000    0.000    0.000 
#
# Total GULP energy -371697.925873 kJ/mol
# GULP energy per Si atom -12389.930862 kJ/mol
# Density = 1.931205 g / cm^3
# Si number density = 19.356101 Si / 1000 Ang^3
#
#
#
# Elastic Constant Matrix: (Units=GPa)
#
#
# Indices 1 2 3 4 5 6 
#
# 1 141.1392 28.5001 37.1627 0.0000 -0.3594 0.0000
# 2 28.5001 65.5594 21.5809 0.0000 0.6111 0.0000
# 3 37.1627 21.5809 93.5731 0.0000 -2.7335 0.0000
# 4 0.0000 0.0000 0.0000 18.4183 0.0000 1.4309
# 5 -0.3594 0.6111 -2.7335 0.0000 37.1664 0.0000
# 6 0.0000 0.0000 0.0000 1.4309 0.0000 26.8973
#
#
#
# Elastic Compliance Matrix: (Units=1/GPa)
#
#
# Indices 1 2 3 4 5 6 
#
# 1 0.008346 -0.002744 -0.002684 0.000000 -0.000072 0.000000
# 2 -0.002744 0.017420 -0.002943 0.000000 -0.000529 0.000000
# 3 -0.002684 -0.002943 0.012459 0.000000 0.000939 0.000000
# 4 0.000000 0.000000 0.000000 0.054519 0.000000 -0.002900
# 5 -0.000072 -0.000529 0.000939 0.000000 0.026983 0.000000
# 6 0.000000 0.000000 0.000000 -0.002900 0.000000 0.037333
#
#
# Mechanical properties :
#
#
# Convention : Reuss Voigt Hill
#
# Bulk Modulus (GPa) = 46.54923 52.75101 49.65012
# Shear Modulus (GPa) = 27.63000 30.69827 29.16413
#
# Velocity S-wave (km/s) = 3.78227 3.98675 3.88585
# Velocity P-wave (km/s) = 6.57078 6.96450 6.77050
#
# Compressibility (1/GPa) = 0.02148263
#
# Stress axis : x y z
#
# Youngs Moduli (GPa) = 119.82136 57.40526 80.26373
#
# Poissons Ratio (x) = 0.15752 0.21541
# Poissons Ratio (y) = 0.32879 0.23624
# Poissons Ratio (z) = 0.32157 0.16896
#
# Static dielectric constant tensor:
#      x y z
#    x 3.767610 0.000000 0.035360 
#    y 0.000000 3.529160 0.000000 
#    z 0.035360 0.000000 3.372930 
# 
# 
# High freq. dielectric constant tensor:
#      x y z
#    x 1.774700 0.000000 0.002940 
#    y 0.000000 1.741990 0.000000 
#    z 0.002940 0.000000 1.721180 
# 
# From -- ./inp_files/259731.got.cif
#   From: 2010.06.25/outbox.cif.g09.slc.cpg/sg12_130_cif.got.tgz:259731.got - 2010.06.28 00:19:55.
