data_PCOD8099782
_publ_section_title
;
Structure prediction by ZEFSAII (Michael W. Deem and Ramdas Pophale) SiO2 
 PCOD8099782
Probable space group: C 2/M
;
_chemical_formula_sum "Si O2"
_cell_formula_units_Z 64
_cell_length_a 26.184766
_cell_length_b 21.447472
_cell_length_c 11.567080
_cell_angle_alpha 90.000000
_cell_angle_beta 30.467822
_cell_angle_gamma 90.000000
_cell_volume 3293.844449
_symmetry_space_group_name_H-M "C 2/M"
_symmetry_group_IT_number 12
_symmetry_cell_setting 'monoclinic'
loop_
_space_group_symop_operation_xyz
x,y,z
-x,y,-z
-x,-y,-z
x,-y,z
1/2+x,1/2+y,z
1/2-x,1/2+y,-z
1/2-x,1/2-y,-z
1/2+x,1/2-y,z
loop_
_atom_site_type_symbol
_atom_site_label
_atom_site_fract_x
_atom_site_fract_y
_atom_site_fract_z
Si Si1 0.967325 0.570988 0.190651
Si Si2 0.209385 0.656972 0.054886
Si Si3 0.325852 0.929131 0.091211
Si Si4 0.286210 0.336755 0.534433
Si Si5 0.098922 0.218164 0.239045
Si Si6 0.973750 0.218671 0.275423
Si Si7 0.846528 0.661171 0.578871
Si Si8 0.828800 0.790324 0.217273
O O1 0.930925 0.500000 0.243718
O O2 0.875444 0.608061 0.429532
O O3 0.056811 0.574998 0.108708
O O4 0.000000 0.597884 0.000000
O O5 0.162852 0.719240 0.089116
O O6 0.156359 0.639725 0.281136
O O7 0.194141 0.601642 0.994145
O O8 0.329713 0.668355 0.835143
O O9 0.267825 0.897556 0.311306
O O10 0.288335 0.000000 0.156692
O O11 0.384176 0.328292 0.423422
O O12 0.215056 0.277223 0.671587
O O13 0.315694 0.342784 0.342632
O O14 0.000000 0.238112 0.500000
O O15 0.052549 0.189074 0.213413
O O16 0.929456 0.284684 0.402683
O O17 0.051687 0.224233 0.017873
O O18 0.732653 0.684477 0.774869
#
# Coordination Sequence:
#
# PCOD8099782 Si02
#       8
#     8   8   8   8   8   8   8   8
#     4  10  22  39  59  82 111 153 197 234 282 346
#     4  11  23  35  56  88 116 153 197 233 289 351
#     4  11  24  41  60  82 117 159 199 242 284 345
#     4  10  21  36  58  84 118 151 193 239 296 352
#     4  11  20  34  57  84 118 153 184 237 296 350
#     4  11  20  33  55  87 118 146 185 236 300 352
#     4  11  21  34  58  87 120 155 187 238 293 347
#     4  10  20  35  56  90 119 148 184 242 303 354
#
# _framework density 19.430181999999999
#
# number of rings (size 3 to 8) (size 9 to 14) (size 15 to 20)
#    0.000    1.375    2.500    4.125    3.500    2.500 
#    0.000    1.250    0.000    5.625    0.000    0.000 
#    0.000    0.000    0.000    0.000    0.000    0.000 
#
# Total GULP energy -396529.744365 kJ/mol
# GULP energy per Si atom -12391.554511 kJ/mol
# Density = 1.938596 g / cm^3
# Si number density = 19.430182 Si / 1000 Ang^3
#
#
#
# Elastic Constant Matrix: (Units=GPa)
#
#
# Indices 1 2 3 4 5 6 
#
# 1 59.4634 44.7510 9.0671 0.0000 21.7068 0.0000
# 2 44.7510 74.7577 30.7624 0.0000 -2.5735 0.0000
# 3 9.0671 30.7624 86.6373 0.0000 -1.0477 0.0000
# 4 0.0000 0.0000 0.0000 20.6657 0.0000 8.6344
# 5 21.7068 -2.5735 -1.0477 0.0000 30.4922 0.0000
# 6 0.0000 0.0000 0.0000 8.6344 0.0000 26.7259
#
#
#
# Elastic Compliance Matrix: (Units=1/GPa)
#
#
# Indices 1 2 3 4 5 6 
#
# 1 0.072908 -0.049357 0.009221 0.000000 -0.055751 0.000000
# 2 -0.049357 0.049119 -0.011805 0.000000 0.038877 0.000000
# 3 0.009221 -0.011805 0.014684 0.000000 -0.007056 0.000000
# 4 0.000000 0.000000 0.000000 0.055940 0.000000 -0.018073
# 5 -0.055751 0.038877 -0.007056 0.000000 0.075522 0.000000
# 6 0.000000 0.000000 0.000000 -0.018073 0.000000 0.043256
#
#
# Mechanical properties :
#
#
# Convention : Reuss Voigt Hill
#
# Bulk Modulus (GPa) = 30.46226 43.33550 36.89888
# Shear Modulus (GPa) = 11.73010 24.66194 18.19602
#
# Velocity S-wave (km/s) = 2.45971 3.56653 3.06352
# Velocity P-wave (km/s) = 4.87634 6.26991 5.61652
#
# Compressibility (1/GPa) = 0.03282750
#
# Stress axis : x y z
#
# Youngs Moduli (GPa) = 13.71588 20.35887 68.10314
#
# Poissons Ratio (x) = 1.00486 -0.62797
# Poissons Ratio (y) = 0.67698 0.80395
# Poissons Ratio (z) = -0.12647 0.24033
#
# Static dielectric constant tensor:
#      x y z
#    x 3.987480 0.000000 0.323680 
#    y 0.000000 3.167870 0.000000 
#    z 0.323680 0.000000 4.120510 
# 
# 
# High freq. dielectric constant tensor:
#      x y z
#    x 1.779990 0.000000 0.001480 
#    y 0.000000 1.702010 0.000000 
#    z 0.001480 0.000000 1.769230 
# 
# From -- ./inp_files/184692.got.cif
#   From: 2010.06.25/outbox.cif.g09.slc.cpg/sg12_93_cif.got.tgz:184692.got - 2010.06.28 00:19:55.
