data_PCOD8099574
_publ_section_title
;
Structure prediction by ZEFSAII (Michael W. Deem and Ramdas Pophale) SiO2 
 PCOD8099574
Probable space group: C 2/M
;
_chemical_formula_sum "Si O2"
_cell_formula_units_Z 56
_cell_length_a 18.228677
_cell_length_b 8.961292
_cell_length_c 19.939513
_cell_angle_alpha 90.000000
_cell_angle_beta 62.602465
_cell_angle_gamma 90.000000
_cell_volume 2891.829453
_symmetry_space_group_name_H-M "C 2/M"
_symmetry_group_IT_number 12
_symmetry_cell_setting 'monoclinic'
loop_
_space_group_symop_operation_xyz
x,y,z
-x,y,-z
-x,-y,-z
x,-y,z
1/2+x,1/2+y,z
1/2-x,1/2+y,-z
1/2-x,1/2-y,-z
1/2+x,1/2-y,z
loop_
_atom_site_type_symbol
_atom_site_label
_atom_site_fract_x
_atom_site_fract_y
_atom_site_fract_z
Si Si1 0.632872 0.674167 0.088782
Si Si2 0.339221 0.823673 0.651428
Si Si3 0.510679 0.823109 0.641021
Si Si4 0.810244 0.325845 0.209941
Si Si5 0.785326 0.174255 0.085603
Si Si6 0.520842 0.825773 0.788795
Si Si7 0.327708 0.176509 0.502046
O O1 0.637999 0.500000 0.102594
O O2 0.694181 0.758598 0.113523
O O3 0.540889 0.734093 0.138076
O O4 0.656957 0.708916 0.002136
O O5 0.427973 0.766056 0.639697
O O6 0.270902 0.742975 0.723830
O O7 0.329656 0.775967 0.578572
O O8 0.329917 0.000000 0.665202
O O9 0.512840 0.765622 0.716424
O O10 0.589661 0.760075 0.567826
O O11 0.514180 0.000000 0.637987
O O12 0.796559 0.500000 0.204676
O O13 0.828621 0.250698 0.130716
O O14 0.886699 0.292415 0.226302
O O15 0.775110 0.000000 0.103452
O O16 0.498909 0.000000 0.803495
O O17 0.250000 0.250000 0.500000
O O18 0.321256 0.000000 0.496406
#
# Coordination Sequence:
#
# PCOD8099574 Si02
#       7
#     8   8   8   8   8   8   8
#     4  10  21  37  59  85 111 142 184 233 279 328
#     4  10  20  35  58  83 106 142 190 234 278 330
#     4   9  18  35  57  79 106 143 186 227 270 325
#     4  11  23  37  55  82 115 149 186 230 278 330
#     4  10  21  38  59  82 111 147 185 227 278 334
#     4  10  21  36  55  79 111 151 188 227 279 333
#     4  10  20  35  56  82 112 144 181 226 276 332
#
# _framework density 19.364903000000002
#
# number of rings (size 3 to 8) (size 9 to 14) (size 15 to 20)
#    0.000    2.000    0.000    3.429    0.000    8.000 
#    0.000    4.286    0.000    1.714    0.000    0.000 
#    0.000    0.000    0.000    0.000    0.000    0.000 
#
# Total GULP energy -347340.047998 kJ/mol
# GULP energy per Si atom -12405.001714 kJ/mol
# Density = 1.932083 g / cm^3
# Si number density = 19.364903 Si / 1000 Ang^3
#
#
#
# Elastic Constant Matrix: (Units=GPa)
#
#
# Indices 1 2 3 4 5 6 
#
# 1 146.4019 44.0036 68.1156 0.0000 11.3195 0.0000
# 2 44.0036 55.4371 41.4177 0.0000 7.0446 0.0002
# 3 68.1156 41.4177 116.9181 0.0000 5.3979 0.0000
# 4 0.0000 0.0000 0.0000 27.0359 0.0000 -1.2915
# 5 11.3195 7.0446 5.3979 0.0000 38.6622 0.0000
# 6 0.0000 0.0002 0.0000 -1.2915 0.0000 34.0458
#
#
#
# Elastic Compliance Matrix: (Units=1/GPa)
#
#
# Indices 1 2 3 4 5 6 
#
# 1 0.010397 -0.004872 -0.004259 0.000000 -0.001562 0.000000
# 2 -0.004872 0.027234 -0.006689 0.000000 -0.002602 0.000000
# 3 -0.004259 -0.006689 0.013376 0.000000 0.000598 0.000000
# 4 0.000000 0.000000 0.000000 0.037055 0.000000 0.001406
# 5 -0.001562 -0.002602 0.000598 0.000000 0.026713 0.000000
# 6 0.000000 0.000000 0.000000 0.001406 0.000000 0.029425
#
#
# Mechanical properties :
#
#
# Convention : Reuss Voigt Hill
#
# Bulk Modulus (GPa) = 51.63521 69.53677 60.58599
# Shear Modulus (GPa) = 27.42770 30.96347 29.19559
#
# Velocity S-wave (km/s) = 3.76754 4.00302 3.88707
# Velocity P-wave (km/s) = 6.75633 7.57312 7.17636
#
# Compressibility (1/GPa) = 0.01936663
#
# Stress axis : x y z
#
# Youngs Moduli (GPa) = 96.17724 36.71904 74.75906
#
# Poissons Ratio (x) = 0.17891 0.31843
# Poissons Ratio (y) = 0.46861 0.50004
# Poissons Ratio (z) = 0.40965 0.24560
#
# Static dielectric constant tensor:
#      x y z
#    x 3.616900 0.000000 0.083700 
#    y 0.000000 3.381370 0.000000 
#    z 0.083700 0.000000 3.693510 
# 
# 
# High freq. dielectric constant tensor:
#      x y z
#    x 1.762970 0.000000 0.002230 
#    y 0.000000 1.738200 0.000000 
#    z 0.002230 0.000000 1.768290 
# 
# From -- ./inp_files/275148.got.cif
#   From: 2010.06.25/outbox.cif.g09.slc.cpg/sg12_138_cif.got.tgz:275148.got - 2010.06.28 00:19:55.
