data_PCOD8099538
_publ_section_title
;
Structure prediction by ZEFSAII (Michael W. Deem and Ramdas Pophale) SiO2 
 PCOD8099538
Probable space group: C 2/M
;
_chemical_formula_sum "Si O2"
_cell_formula_units_Z 56
_cell_length_a 30.100055
_cell_length_b 9.399367
_cell_length_c 10.946532
_cell_angle_alpha 90.000000
_cell_angle_beta 113.538408
_cell_angle_gamma 90.000000
_cell_volume 2839.314703
_symmetry_space_group_name_H-M "C 2/M"
_symmetry_group_IT_number 12
_symmetry_cell_setting 'monoclinic'
loop_
_space_group_symop_operation_xyz
x,y,z
-x,y,-z
-x,-y,-z
x,-y,z
1/2+x,1/2+y,z
1/2-x,1/2+y,-z
1/2-x,1/2-y,-z
1/2+x,1/2-y,z
loop_
_atom_site_type_symbol
_atom_site_label
_atom_site_fract_x
_atom_site_fract_y
_atom_site_fract_z
Si Si1 0.870642 0.160061 0.951602
Si Si2 0.202486 0.159922 0.934627
Si Si3 0.792826 0.157006 0.659595
Si Si4 0.812417 0.662061 0.454405
Si Si5 0.372100 0.661862 0.348909
Si Si6 0.034606 0.333633 0.927304
Si Si7 0.462123 0.833552 0.350115
O O1 0.837771 0.160732 0.797557
O O2 0.888206 0.000000 0.003393
O O3 0.838996 0.225745 0.025577
O O4 0.915880 0.259749 0.982970
O O5 0.179600 0.162739 0.775702
O O6 0.215170 0.000000 0.990939
O O7 0.250000 0.250000 0.000000
O O8 0.801535 0.286909 0.578753
O O9 0.740429 0.177634 0.670786
O O10 0.791433 0.000000 0.593537
O O11 0.830620 0.500000 0.473688
O O12 0.857904 0.753451 0.455292
O O13 0.388882 0.500000 0.395144
O O14 0.414181 0.740580 0.319892
O O15 0.042615 0.500000 0.947134
O O16 0.018396 0.297511 0.767513
O O17 0.000000 0.280894 0.000000
O O18 0.500000 0.793712 0.500000
O O19 0.448815 0.000000 0.343949
#
# Coordination Sequence:
#
# PCOD8099538 Si02
#       7
#     8   8   8   8   8   8   8
#     4  10  20  37  58  83 116 151 191 239 294 353
#     4  10  21  35  55  85 120 155 192 236 287 349
#     4   9  19  35  55  81 117 156 196 242 290 350
#     4  10  20  35  56  81 116 159 199 240 290 352
#     4  11  22  37  58  85 118 152 194 245 296 356
#     4  10  22  40  61  86 116 151 198 255 308 365
#     4  10  22  41  63  86 116 156 201 253 312 371
#
# _framework density 19.723068000000001
#
# number of rings (size 3 to 8) (size 9 to 14) (size 15 to 20)
#    0.000    2.000    1.429    1.714    0.000    5.714 
#    0.000    1.429    0.000    0.000    0.000    0.000 
#    0.000    0.000    0.000    0.000    0.000    0.000 
#
# Total GULP energy -346921.398571 kJ/mol
# GULP energy per Si atom -12390.049949 kJ/mol
# Density = 1.967818 g / cm^3
# Si number density = 19.723068 Si / 1000 Ang^3
#
#
#
# Elastic Constant Matrix: (Units=GPa)
#
#
# Indices 1 2 3 4 5 6 
#
# 1 104.0672 55.1054 29.0044 0.0000 -17.7922 0.0000
# 2 55.1054 84.1424 30.8072 0.0000 -5.1874 0.0000
# 3 29.0044 30.8072 72.5812 0.0000 -2.7236 0.0000
# 4 0.0000 0.0000 0.0000 19.2890 0.0000 -0.9784
# 5 -17.7922 -5.1874 -2.7236 0.0000 30.7936 0.0000
# 6 0.0000 0.0000 0.0000 -0.9784 0.0000 35.5838
#
#
#
# Elastic Compliance Matrix: (Units=1/GPa)
#
#
# Indices 1 2 3 4 5 6 
#
# 1 0.016662 -0.009591 -0.002295 0.000000 0.007809 0.000000
# 2 -0.009591 0.019697 -0.004627 0.000000 -0.002632 0.000000
# 3 -0.002295 -0.004627 0.016635 0.000000 -0.000634 0.000000
# 4 0.000000 0.000000 0.000000 0.051915 0.000000 0.001427
# 5 0.007809 -0.002632 -0.000634 0.000000 0.036486 0.000000
# 6 0.000000 0.000000 0.000000 0.001427 0.000000 0.028142
#
#
# Mechanical properties :
#
#
# Convention : Reuss Voigt Hill
#
# Bulk Modulus (GPa) = 50.07500 54.51388 52.29444
# Shear Modulus (GPa) = 23.89846 26.85822 25.37834
#
# Velocity S-wave (km/s) = 3.48473 3.69422 3.59100
# Velocity P-wave (km/s) = 6.45254 6.77466 6.61556
#
# Compressibility (1/GPa) = 0.01997004
#
# Stress axis : x y z
#
# Youngs Moduli (GPa) = 60.01639 50.76843 60.11532
#
# Poissons Ratio (x) = 0.48690 0.13794
# Poissons Ratio (y) = 0.57559 0.27814
# Poissons Ratio (z) = 0.13772 0.23489
#
# Static dielectric constant tensor:
#      x y z
#    x 3.490010 0.000000 -0.155850 
#    y 0.000000 3.715050 0.000000 
#    z -0.155850 0.000000 3.598090 
# 
# 
# High freq. dielectric constant tensor:
#      x y z
#    x 1.765670 0.000000 -0.005380 
#    y 0.000000 1.771560 0.000000 
#    z -0.005380 0.000000 1.761510 
# 
# From -- ./inp_files/180725.got.cif
#   From: 2010.06.25/outbox.cif.g09.slc.cpg/sg12_91_cif.got.tgz:180725.got - 2010.06.28 00:19:55.
