data_PCOD8099392
_publ_section_title
;
Structure prediction by ZEFSAII (Michael W. Deem and Ramdas Pophale) SiO2 
 PCOD8099392
Probable space group: C 2/M
;
_chemical_formula_sum "Si O2"
_cell_formula_units_Z 56
_cell_length_a 20.296327
_cell_length_b 9.316175
_cell_length_c 16.088384
_cell_angle_alpha 90.000000
_cell_angle_beta 103.227619
_cell_angle_gamma 90.000000
_cell_volume 2961.348447
_symmetry_space_group_name_H-M "C 2/M"
_symmetry_group_IT_number 12
_symmetry_cell_setting 'monoclinic'
loop_
_space_group_symop_operation_xyz
x,y,z
-x,y,-z
-x,-y,-z
x,-y,z
1/2+x,1/2+y,z
1/2-x,1/2+y,-z
1/2-x,1/2-y,-z
1/2+x,1/2-y,z
loop_
_atom_site_type_symbol
_atom_site_label
_atom_site_fract_x
_atom_site_fract_y
_atom_site_fract_z
Si Si1 0.598709 0.334626 0.318747
Si Si2 0.503381 0.830781 0.404947
Si Si3 0.276309 0.670671 0.745212
Si Si4 0.888949 0.669414 0.090297
Si Si5 0.019403 0.159238 0.127498
Si Si6 0.655007 0.662792 0.070009
Si Si7 0.371504 0.830024 0.272731
O O1 0.601994 0.500000 0.347802
O O2 0.570488 0.241437 0.386665
O O3 0.673629 0.276237 0.313940
O O4 0.549830 0.312629 0.226806
O O5 0.500000 0.789338 0.500000
O O6 0.435605 0.767435 0.341453
O O7 0.509808 0.000000 0.393148
O O8 0.284674 0.500000 0.752801
O O9 0.299136 0.728663 0.842593
O O10 0.199199 0.719781 0.704762
O O11 0.883770 0.500000 0.079646
O O12 0.870799 0.723212 0.177591
O O13 0.964867 0.719378 0.092223
O O14 0.836508 0.741228 0.010339
O O15 0.076767 0.168350 0.074412
O O16 0.986117 0.000000 0.115164
O O17 0.677332 0.500000 0.055929
O O18 0.376246 0.000000 0.276401
#
# Coordination Sequence:
#
# PCOD8099392 Si02
#       7
#     8   8   8   8   8   8   8
#     4   9  17  32  56  79  97 127 170 213 251 289
#     4  10  20  35  56  80 105 133 162 197 251 313
#     4   8  16  33  54  72  97 137 177 205 242 298
#     4  11  20  28  44  71 101 133 169 208 249 289
#     4   9  17  30  47  68  96 130 168 207 250 295
#     4   9  18  31  47  68  95 132 173 210 245 288
#     4   9  18  33  51  73 101 134 170 206 247 303
#
# _framework density 18.910304
#
# number of rings (size 3 to 8) (size 9 to 14) (size 15 to 20)
#    0.000    2.714    1.429    2.571    0.000    3.143 
#    0.000    2.857    0.000    4.286    0.000    0.000 
#    0.000    0.000    0.000    0.000    0.000    0.000 
#
# Total GULP energy -347083.589658 kJ/mol
# GULP energy per Si atom -12395.842488 kJ/mol
# Density = 1.886726 g / cm^3
# Si number density = 18.910304 Si / 1000 Ang^3
#
#
#
# Elastic Constant Matrix: (Units=GPa)
#
#
# Indices 1 2 3 4 5 6 
#
# 1 100.2578 19.2743 50.8162 0.0000 -0.3903 0.0000
# 2 19.2743 43.8890 36.4646 0.0000 -6.7184 0.0000
# 3 50.8162 36.4646 104.1922 0.0000 -20.4691 0.0000
# 4 0.0000 0.0000 0.0000 24.4219 0.0000 -5.6025
# 5 -0.3903 -6.7184 -20.4691 0.0000 16.1359 0.0000
# 6 0.0000 0.0000 0.0000 -5.6025 0.0000 17.5581
#
#
#
# Elastic Compliance Matrix: (Units=1/GPa)
#
#
# Indices 1 2 3 4 5 6 
#
# 1 0.014741 -0.000539 -0.009290 0.000000 -0.011653 0.000000
# 2 -0.000539 0.032163 -0.011142 0.000000 -0.000755 0.000000
# 3 -0.009290 -0.011142 0.022739 0.000000 0.023982 0.000000
# 4 0.000000 0.000000 0.000000 0.044181 0.000000 0.014097
# 5 -0.011653 -0.000755 0.023982 0.000000 0.091800 0.000000
# 6 0.000000 0.000000 0.000000 0.014097 0.000000 0.061452
#
#
# Mechanical properties :
#
#
# Convention : Reuss Voigt Hill
#
# Bulk Modulus (GPa) = 36.09884 51.27212 43.68548
# Shear Modulus (GPa) = 15.71083 21.07542 18.39313
#
# Velocity S-wave (km/s) = 2.88550 3.34203 3.12212
# Velocity P-wave (km/s) = 5.49840 6.48570 6.01235
#
# Compressibility (1/GPa) = 0.02770172
#
# Stress axis : x y z
#
# Youngs Moduli (GPa) = 67.83643 31.09189 43.97657
#
# Poissons Ratio (x) = 0.01676 0.40855
# Poissons Ratio (y) = 0.03656 0.48997
# Poissons Ratio (z) = 0.63022 0.34642
#
# Static dielectric constant tensor:
#      x y z
#    x 3.567140 0.000000 -0.018250 
#    y 0.000000 3.120420 0.000000 
#    z -0.018250 0.000000 3.410820 
# 
# 
# High freq. dielectric constant tensor:
#      x y z
#    x 1.735450 0.000000 -0.004450 
#    y 0.000000 1.695320 0.000000 
#    z -0.004450 0.000000 1.723340 
# 
# From -- ./inp_files/280231.got.cif
#   From: 2010.06.25/outbox.cif.g09.slc.cpg/sg12_141_cif.got.tgz:280231.got - 2010.06.28 00:19:55.
