data_PCOD8099913
_publ_section_title
;
Structure prediction by ZEFSAII (Michael W. Deem and Ramdas Pophale) SiO2 
 PCOD8099913
Probable space group: C 2/M
;
_chemical_formula_sum "Si O2"
_cell_formula_units_Z 56
_cell_length_a 23.687478
_cell_length_b 9.505756
_cell_length_c 13.772806
_cell_angle_alpha 90.000000
_cell_angle_beta 71.052976
_cell_angle_gamma 90.000000
_cell_volume 2933.161929
_symmetry_space_group_name_H-M "C 2/M"
_symmetry_group_IT_number 12
_symmetry_cell_setting 'monoclinic'
loop_
_space_group_symop_operation_xyz
x,y,z
-x,y,-z
-x,-y,-z
x,-y,z
1/2+x,1/2+y,z
1/2-x,1/2+y,-z
1/2-x,1/2-y,-z
1/2+x,1/2-y,z
loop_
_atom_site_type_symbol
_atom_site_label
_atom_site_fract_x
_atom_site_fract_y
_atom_site_fract_z
Si Si1 0.566396 0.843481 0.499383
Si Si2 0.650122 0.339143 0.327964
Si Si3 0.063763 0.659656 0.003029
Si Si4 0.407994 0.657157 0.830620
Si Si5 0.538148 0.339084 0.693212
Si Si6 0.237259 0.336810 0.605293
Si Si7 0.385321 0.159686 0.224913
O O1 0.500000 0.855078 0.500000
O O2 0.605225 0.774453 0.394750
O O3 0.570997 0.744734 0.589772
O O4 0.590839 0.000000 0.510609
O O5 0.630120 0.500000 0.362601
O O6 0.647871 0.316405 0.211714
O O7 0.714510 0.307870 0.337475
O O8 0.052495 0.500000 0.043172
O O9 0.115286 0.667962 0.891829
O O10 0.091218 0.739381 0.079468
O O11 0.000000 0.720784 0.000000
O O12 0.405487 0.500000 0.875379
O O13 0.466933 0.674373 0.730588
O O14 0.559295 0.500000 0.675590
O O15 0.561539 0.265806 0.777559
O O16 0.236303 0.500000 0.575950
O O17 0.250000 0.250000 0.500000
O O18 0.175777 0.289676 0.690493
O O19 0.400440 0.000000 0.248872
#
# Coordination Sequence:
#
# PCOD8099913 Si02
#       7
#     8   8   8   8   8   8   8
#     4  11  22  33  50  79 112 145 181 226 280 338
#     4  10  21  39  58  79 111 152 190 231 283 337
#     4  10  20  35  57  83 114 150 187 229 282 340
#     4  10  21  35  54  81 113 145 183 230 281 335
#     4  11  21  33  53  81 112 147 183 227 281 338
#     4  10  22  40  62  83 111 149 191 235 279 332
#     4  10  21  38  58  83 113 147 189 236 282 332
#
# _framework density 19.092025
#
# number of rings (size 3 to 8) (size 9 to 14) (size 15 to 20)
#    0.000    1.714    2.857    1.714    0.000    6.000 
#    0.000    0.714    0.000    0.000    0.000    0.000 
#    0.000    0.000    0.000    0.000    0.000    0.000 
#
# Total GULP energy -347092.237646 kJ/mol
# GULP energy per Si atom -12396.151345 kJ/mol
# Density = 1.904857 g / cm^3
# Si number density = 19.092025 Si / 1000 Ang^3
#
#
#
# Elastic Constant Matrix: (Units=GPa)
#
#
# Indices 1 2 3 4 5 6 
#
# 1 99.2544 41.1772 37.1268 0.0000 19.0036 0.0000
# 2 41.1772 106.4279 48.0362 0.0000 16.0385 0.0000
# 3 37.1268 48.0362 100.5759 0.0000 11.8789 0.0000
# 4 0.0000 0.0000 0.0000 37.7245 0.0000 -1.5914
# 5 19.0036 16.0385 11.8789 0.0000 32.5055 0.0000
# 6 0.0000 0.0000 0.0000 -1.5914 0.0000 56.6537
#
#
#
# Elastic Compliance Matrix: (Units=1/GPa)
#
#
# Indices 1 2 3 4 5 6 
#
# 1 0.013447 -0.003121 -0.002850 0.000000 -0.005280 0.000000
# 2 -0.003121 0.013219 -0.004815 0.000000 -0.002939 0.000000
# 3 -0.002850 -0.004815 0.013395 0.000000 -0.000854 0.000000
# 4 0.000000 0.000000 0.000000 0.026539 0.000000 0.000745
# 5 -0.005280 -0.002939 -0.000854 0.000000 0.035613 0.000000
# 6 0.000000 0.000000 0.000000 0.000745 0.000000 0.017672
#
#
# Mechanical properties :
#
#
# Convention : Reuss Voigt Hill
#
# Bulk Modulus (GPa) = 54.08001 62.10427 58.09214
# Shear Modulus (GPa) = 33.87100 37.37128 35.62114
#
# Velocity S-wave (km/s) = 4.21657 4.42908 4.32413
# Velocity P-wave (km/s) = 7.21757 7.66520 7.44475
#
# Compressibility (1/GPa) = 0.01849112
#
# Stress axis : x y z
#
# Youngs Moduli (GPa) = 74.36797 75.64658 74.65462
#
# Poissons Ratio (x) = 0.23607 0.21274
# Poissons Ratio (y) = 0.23208 0.35944
# Poissons Ratio (z) = 0.21192 0.36421
#
# Static dielectric constant tensor:
#      x y z
#    x 3.501850 0.000000 0.037730 
#    y 0.000000 3.594500 0.000000 
#    z 0.037730 0.000000 3.563880 
# 
# 
# High freq. dielectric constant tensor:
#      x y z
#    x 1.731850 0.000000 0.014630 
#    y 0.000000 1.745570 0.000000 
#    z 0.014630 0.000000 1.733280 
# 
# From -- ./inp_files/237810.got.cif
#   From: 2010.06.25/outbox.cif.g09.slc.cpg/sg12_119_cif.got.tgz:237810.got - 2010.06.28 00:19:55.
