data_PCOD8099619
_publ_section_title
;
Structure prediction by ZEFSAII (Michael W. Deem and Ramdas Pophale) SiO2 
 PCOD8099619
Probable space group: C 2/M
;
_chemical_formula_sum "Si O2"
_cell_formula_units_Z 56
_cell_length_a 28.823236
_cell_length_b 8.972945
_cell_length_c 19.645679
_cell_angle_alpha 90.000000
_cell_angle_beta 34.067742
_cell_angle_gamma 90.000000
_cell_volume 2846.208606
_symmetry_space_group_name_H-M "C 2/M"
_symmetry_group_IT_number 12
_symmetry_cell_setting 'monoclinic'
loop_
_space_group_symop_operation_xyz
x,y,z
-x,y,-z
-x,-y,-z
x,-y,z
1/2+x,1/2+y,z
1/2-x,1/2+y,-z
1/2-x,1/2-y,-z
1/2+x,1/2-y,z
loop_
_atom_site_type_symbol
_atom_site_label
_atom_site_fract_x
_atom_site_fract_y
_atom_site_fract_z
Si Si1 0.891283 0.174055 0.947965
Si Si2 0.512395 0.175921 0.699892
Si Si3 0.534889 0.826672 0.388151
Si Si4 0.196933 0.323996 0.504850
Si Si5 0.213921 0.327718 0.211512
Si Si6 0.069338 0.331068 0.966888
Si Si7 0.252283 0.330229 0.694184
O O1 0.934345 0.255675 0.833272
O O2 0.901739 0.000000 0.924081
O O3 0.794547 0.222559 0.070386
O O4 0.936011 0.221587 0.962929
O O5 0.508924 0.239002 0.626337
O O6 0.599560 0.219577 0.629255
O O7 0.499886 0.000000 0.714526
O O8 0.500000 0.750786 0.500000
O O9 0.633643 0.799897 0.262581
O O10 0.512957 0.000000 0.418204
O O11 0.208991 0.500000 0.495312
O O12 0.250000 0.250000 0.500000
O O13 0.228039 0.269634 0.394437
O O14 0.223078 0.500000 0.221981
O O15 0.202148 0.233959 0.294777
O O16 0.052296 0.500000 0.012734
O O17 0.154725 0.320745 0.823258
O O18 0.000000 0.274290 0.000000
O O19 0.281354 0.500000 0.646674
#
# Coordination Sequence:
#
# PCOD8099619 Si02
#       7
#     8   8   8   8   8   8   8
#     4  10  21  35  53  82 118 150 183 232 286 333
#     4  10  22  39  59  82 111 150 193 235 279 338
#     4   9  17  33  60  87 109 144 195 237 274 331
#     4  11  24  40  58  80 110 148 188 234 286 338
#     4   9  18  35  58  84 115 149 187 231 279 330
#     4   9  19  35  56  79 106 144 188 232 274 329
#     4  10  20  35  56  83 112 144 184 229 279 334
#
# _framework density 19.675295999999999
#
# number of rings (size 3 to 8) (size 9 to 14) (size 15 to 20)
#    0.000    2.286    0.000    2.143    2.000    5.429 
#    0.000    0.714    0.000    1.714    0.000    0.000 
#    0.000    0.000    0.000    0.000    0.000    0.000 
#
# Total GULP energy -347182.971176 kJ/mol
# GULP energy per Si atom -12399.391828 kJ/mol
# Density = 1.963051 g / cm^3
# Si number density = 19.675296 Si / 1000 Ang^3
#
#
#
# Elastic Constant Matrix: (Units=GPa)
#
#
# Indices 1 2 3 4 5 6 
#
# 1 124.3283 40.9690 60.9976 0.0106 -4.2169 -0.0022
# 2 40.9690 52.8882 35.6009 0.0078 1.2831 -0.0058
# 3 60.9976 35.6009 110.4623 0.0102 17.2451 -0.0053
# 4 0.0106 0.0078 0.0102 33.9075 -0.0007 4.6096
# 5 -4.2169 1.2831 17.2451 -0.0007 20.8243 0.0003
# 6 -0.0022 -0.0058 -0.0053 4.6096 0.0003 24.8690
#
#
#
# Elastic Compliance Matrix: (Units=1/GPa)
#
#
# Indices 1 2 3 4 5 6 
#
# 1 0.013860 -0.006198 -0.007067 0.000000 0.009041 -0.000002
# 2 -0.006198 0.027521 -0.005726 -0.000003 0.001791 0.000005
# 3 -0.007067 -0.005726 0.017192 -0.000002 -0.015315 0.000002
# 4 0.000000 -0.000003 -0.000002 0.030254 0.000003 -0.005608
# 5 0.009041 0.001791 -0.015315 0.000003 0.062424 -0.000003
# 6 -0.000002 0.000005 0.000002 -0.005608 -0.000003 0.041250
#
#
# Mechanical properties :
#
#
# Convention : Reuss Voigt Hill
#
# Bulk Modulus (GPa) = 48.57164 62.53487 55.55325
# Shear Modulus (GPa) = 21.06617 25.92758 23.49687
#
# Velocity S-wave (km/s) = 3.27569 3.63405 3.45952
# Velocity P-wave (km/s) = 6.24877 7.03284 6.65237
#
# Compressibility (1/GPa) = 0.02058814
#
# Stress axis : x y z
#
# Youngs Moduli (GPa) = 72.15211 36.33649 58.16691
#
# Poissons Ratio (x) = 0.22523 0.41107
# Poissons Ratio (y) = 0.44723 0.33309
# Poissons Ratio (z) = 0.50991 0.20808
#
# Static dielectric constant tensor:
#      x y z
#    x 3.744910 -0.000010 -0.071630 
#    y -0.000010 3.490190 0.000020 
#    z -0.071630 0.000020 3.660110 
# 
# 
# High freq. dielectric constant tensor:
#      x y z
#    x 1.770830 0.000000 -0.005570 
#    y 0.000000 1.749310 0.000000 
#    z -0.005570 0.000000 1.773010 
# 
# From -- ./inp_files/292401.got.cif
#   From: 2010.06.25/outbox.cif.g09.slc.cpg/sg12_147_cif.got.tgz:292401.got - 2010.06.28 00:19:55.
