data_PCOD8099376
_publ_section_title
;
Structure prediction by ZEFSAII (Michael W. Deem and Ramdas Pophale) SiO2 
 PCOD8099376
Probable space group: C 2/M
;
_chemical_formula_sum "Si O2"
_cell_formula_units_Z 56
_cell_length_a 14.552818
_cell_length_b 14.171442
_cell_length_c 19.873119
_cell_angle_alpha 90.000000
_cell_angle_beta 47.528865
_cell_angle_gamma 90.000000
_cell_volume 3023.141287
_symmetry_space_group_name_H-M "C 2/M"
_symmetry_group_IT_number 12
_symmetry_cell_setting 'monoclinic'
loop_
_space_group_symop_operation_xyz
x,y,z
-x,y,-z
-x,-y,-z
x,-y,z
1/2+x,1/2+y,z
1/2-x,1/2+y,-z
1/2-x,1/2-y,-z
1/2+x,1/2-y,z
loop_
_atom_site_type_symbol
_atom_site_label
_atom_site_fract_x
_atom_site_fract_y
_atom_site_fract_z
Si Si1 0.032545 0.111103 0.586535
Si Si2 0.491729 0.392639 0.251962
Si Si3 0.677412 0.891296 0.111674
Si Si4 0.302144 0.611366 0.615027
Si Si5 0.129373 0.230798 0.913597
Si Si6 0.264293 0.103387 0.064297
Si Si7 0.420616 0.217855 0.211649
O O1 0.042367 0.148958 0.657575
O O2 0.155530 0.136520 0.482397
O O3 0.908717 0.151214 0.612138
O O4 0.014771 0.000000 0.597950
O O5 0.444619 0.500000 0.265160
O O6 0.639041 0.385503 0.168767
O O7 0.423642 0.326904 0.232137
O O8 0.755871 0.842249 0.133141
O O9 0.551820 0.834129 0.157802
O O10 0.647791 0.000000 0.146073
O O11 0.762079 0.885682 0.002501
O O12 0.282444 0.500000 0.633318
O O13 0.174482 0.662465 0.694233
O O14 0.139348 0.318162 0.960029
O O15 0.126643 0.276990 0.841265
O O16 0.000000 0.180277 0.000000
O O17 0.323178 0.000000 0.048512
#
# Coordination Sequence:
#
# PCOD8099376 Si02
#       7
#     8   8   8   8   8   8   8
#     4   8  16  34  57  81 112 138 175 237 288 330
#     4  10  20  35  56  79 108 146 188 230 278 328
#     4  11  24  41  57  82 120 155 190 238 286 335
#     4   9  18  33  56  87 112 138 178 231 290 342
#     4  12  23  37  58  82 117 152 196 235 283 336
#     4  10  20  37  59  81 110 146 186 236 285 329
#     4  12  23  35  59  84 114 153 193 234 277 343
#
# _framework density 18.523779000000001
#
# number of rings (size 3 to 8) (size 9 to 14) (size 15 to 20)
#    0.000    1.714    2.857    3.429    0.000    4.000 
#    0.000    0.000    0.000    0.000    0.000    2.000 
#    0.000    0.000    0.000    0.000    0.000    0.000 
#
# Total GULP energy -347095.435366 kJ/mol
# GULP energy per Si atom -12396.265549 kJ/mol
# Density = 1.848162 g / cm^3
# Si number density = 18.523779 Si / 1000 Ang^3
#
#
#
# Elastic Constant Matrix: (Units=GPa)
#
#
# Indices 1 2 3 4 5 6 
#
# 1 82.1572 44.1286 28.3590 0.0000 -3.8411 0.0000
# 2 44.1286 99.2705 26.3496 0.0000 -0.4304 0.0000
# 3 28.3590 26.3496 97.0001 0.0000 -8.7399 0.0000
# 4 0.0000 0.0000 0.0000 20.7791 0.0000 -1.9198
# 5 -3.8411 -0.4304 -8.7399 0.0000 17.5651 0.0000
# 6 0.0000 0.0000 0.0000 -1.9198 0.0000 15.9786
#
#
#
# Elastic Compliance Matrix: (Units=1/GPa)
#
#
# Indices 1 2 3 4 5 6 
#
# 1 0.016889 -0.006722 -0.002925 0.000000 0.002073 0.000000
# 2 -0.006722 0.013559 -0.001906 0.000000 -0.002086 0.000000
# 3 -0.002925 -0.001906 0.012166 0.000000 0.005367 0.000000
# 4 0.000000 0.000000 0.000000 0.048665 0.000000 0.005847
# 5 0.002073 -0.002086 0.005367 0.000000 0.060004 0.000000
# 6 0.000000 0.000000 0.000000 0.005847 0.000000 0.063286
#
#
# Mechanical properties :
#
#
# Convention : Reuss Voigt Hill
#
# Bulk Modulus (GPa) = 51.26236 52.90025 52.08130
# Shear Modulus (GPa) = 20.47695 22.83726 21.65711
#
# Velocity S-wave (km/s) = 3.32843 3.51502 3.42300
# Velocity P-wave (km/s) = 6.51959 6.71520 6.61812
#
# Compressibility (1/GPa) = 0.01950749
#
# Stress axis : x y z
#
# Youngs Moduli (GPa) = 59.21003 73.75418 82.19887
#
# Poissons Ratio (x) = 0.49580 0.24042
# Poissons Ratio (y) = 0.39803 0.15665
# Poissons Ratio (z) = 0.17318 0.14056
#
# Static dielectric constant tensor:
#      x y z
#    x 3.281170 0.000000 0.190580 
#    y 0.000000 3.413890 0.000000 
#    z 0.190580 0.000000 3.619390 
# 
# 
# High freq. dielectric constant tensor:
#      x y z
#    x 1.700540 0.000000 0.005410 
#    y 0.000000 1.707850 0.000000 
#    z 0.005410 0.000000 1.723760 
# 
# From -- ./inp_files/270182.got.cif
#   From: 2010.06.25/outbox.cif.g09.slc.cpg/sg12_136_cif.got.tgz:270182.got - 2010.06.28 00:19:55.
