data_PCOD8099540
_publ_section_title
;
Structure prediction by ZEFSAII (Michael W. Deem and Ramdas Pophale) SiO2 
 PCOD8099540
Probable space group: C 2/M
;
_chemical_formula_sum "Si O2"
_cell_formula_units_Z 64
_cell_length_a 24.579839
_cell_length_b 9.340689
_cell_length_c 28.167067
_cell_angle_alpha 90.000000
_cell_angle_beta 148.009112
_cell_angle_gamma 90.000000
_cell_volume 3426.089704
_symmetry_space_group_name_H-M "C 2/M"
_symmetry_group_IT_number 12
_symmetry_cell_setting 'monoclinic'
loop_
_space_group_symop_operation_xyz
x,y,z
-x,y,-z
-x,-y,-z
x,-y,z
1/2+x,1/2+y,z
1/2-x,1/2+y,-z
1/2-x,1/2-y,-z
1/2+x,1/2-y,z
loop_
_atom_site_type_symbol
_atom_site_label
_atom_site_fract_x
_atom_site_fract_y
_atom_site_fract_z
Si Si1 0.430607 0.332397 0.405032
Si Si2 0.283142 0.666486 0.630810
Si Si3 0.009192 0.330434 0.059836
Si Si4 0.635852 0.165574 0.869377
Si Si5 0.201442 0.667963 0.263475
Si Si6 0.058957 0.336192 0.430280
Si Si7 0.421810 0.167651 0.663823
Si Si8 0.666744 0.832250 0.000486
O O1 0.500000 0.277099 0.500000
O O2 0.445268 0.500000 0.408555
O O3 0.312790 0.290624 0.326142
O O4 0.467055 0.256130 0.384101
O O5 0.313242 0.500000 0.654985
O O6 0.323731 0.744825 0.707745
O O7 0.161254 0.687777 0.536701
O O8 0.333835 0.738479 0.622613
O O9 0.000711 0.500000 0.051545
O O10 0.118612 0.285655 0.162786
O O11 0.916871 0.271452 0.024286
O O12 0.000000 0.265311 0.000000
O O13 0.530060 0.209460 0.766854
O O14 0.626329 0.203548 0.917884
O O15 0.661758 0.000000 0.880886
O O16 0.725586 0.254562 0.910353
O O17 0.193735 0.500000 0.270208
O O18 0.023279 0.500000 0.404894
O O19 0.077573 0.286651 0.390420
O O20 0.396820 0.000000 0.652151
O O21 0.684615 0.000000 0.020711
#
# Coordination Sequence:
#
# PCOD8099540 Si02
#       8
#     8   8   8   8   8   8   8   8
#     4  10  20  35  56  82 107 138 183 225 263 313
#     4  11  22  35  54  81 109 139 180 225 270 319
#     4   9  18  33  54  80 107 137 177 221 264 314
#     4   9  18  33  53  76 102 136 173 210 258 318
#     4  10  20  36  58  80 107 145 183 222 269 319
#     4  10  22  37  54  78 109 145 178 219 273 321
#     4  10  21  37  55  77 108 144 180 216 267 329
#     4   9  17  31  53  78 102 131 171 215 261 307
#
# _framework density 18.680188999999999
#
# number of rings (size 3 to 8) (size 9 to 14) (size 15 to 20)
#    0.000    2.250    1.250    1.500    0.000    5.250 
#    0.000    4.375    0.000    1.500    0.000    0.000 
#    0.000    0.000    0.000    0.000    0.000    0.000 
#
# Total GULP energy -396915.129287 kJ/mol
# GULP energy per Si atom -12403.597790 kJ/mol
# Density = 1.863767 g / cm^3
# Si number density = 18.680189 Si / 1000 Ang^3
#
#
#
# Elastic Constant Matrix: (Units=GPa)
#
#
# Indices 1 2 3 4 5 6 
#
# 1 144.5251 49.0110 47.5089 0.0000 6.2671 0.0000
# 2 49.0110 48.9192 23.2170 -0.0002 4.9839 -0.0006
# 3 47.5089 23.2170 58.1565 0.0000 0.1753 0.0000
# 4 0.0000 -0.0002 0.0000 20.6977 0.0000 4.0516
# 5 6.2671 4.9839 0.1753 0.0000 32.3162 0.0000
# 6 0.0000 -0.0006 0.0000 4.0516 0.0000 34.4565
#
#
#
# Elastic Compliance Matrix: (Units=1/GPa)
#
#
# Indices 1 2 3 4 5 6 
#
# 1 0.012082 -0.009042 -0.006258 0.000000 -0.000915 0.000000
# 2 -0.009042 0.032471 -0.005567 0.000000 -0.003224 0.000001
# 3 -0.006258 -0.005567 0.024524 0.000000 0.001939 0.000000
# 4 0.000000 0.000000 0.000000 0.049453 0.000000 -0.005815
# 5 -0.000915 -0.003224 0.001939 0.000000 0.031608 0.000000
# 6 0.000000 0.000001 0.000000 -0.005815 0.000000 0.029706
#
#
# Mechanical properties :
#
#
# Convention : Reuss Voigt Hill
#
# Bulk Modulus (GPa) = 36.57106 54.56386 45.56746
# Shear Modulus (GPa) = 21.67397 26.28499 23.97948
#
# Velocity S-wave (km/s) = 3.40996 3.75521 3.58674
# Velocity P-wave (km/s) = 5.92653 6.93362 6.44976
#
# Compressibility (1/GPa) = 0.02734402
#
# Stress axis : x y z
#
# Youngs Moduli (GPa) = 82.76670 30.79665 40.77702
#
# Poissons Ratio (x) = 0.27845 0.25517
# Poissons Ratio (y) = 0.74835 0.22700
# Poissons Ratio (z) = 0.51793 0.17144
#
# Static dielectric constant tensor:
#      x y z
#    x 3.492030 0.000000 -0.016870 
#    y 0.000000 3.217690 0.000000 
#    z -0.016870 0.000000 3.478660 
# 
# 
# High freq. dielectric constant tensor:
#      x y z
#    x 1.731370 0.000000 0.003140 
#    y 0.000000 1.704200 0.000000 
#    z 0.003140 0.000000 1.728730 
# 
# From -- ./inp_files/382455.got.cif
#   From: 2010.06.25/outbox.cif.g09.slc.cpg/sg12_192_cif.got.tgz:382455.got - 2010.06.28 00:19:55.
