data_PCOD8099308
_publ_section_title
;
Structure prediction by ZEFSAII (Michael W. Deem and Ramdas Pophale) SiO2 
 PCOD8099308
Probable space group: C 2/M
;
_chemical_formula_sum "Si O2"
_cell_formula_units_Z 48
_cell_length_a 13.483532
_cell_length_b 13.457304
_cell_length_c 14.705888
_cell_angle_alpha 90.000000
_cell_angle_beta 72.315982
_cell_angle_gamma 90.000000
_cell_volume 2542.320128
_symmetry_space_group_name_H-M "C 2/M"
_symmetry_group_IT_number 12
_symmetry_cell_setting 'monoclinic'
loop_
_space_group_symop_operation_xyz
x,y,z
-x,y,-z
-x,-y,-z
x,-y,z
1/2+x,1/2+y,z
1/2-x,1/2+y,-z
1/2-x,1/2-y,-z
1/2+x,1/2-y,z
loop_
_atom_site_type_symbol
_atom_site_label
_atom_site_fract_x
_atom_site_fract_y
_atom_site_fract_z
Si Si1 0.630527 0.189179 0.232533
Si Si2 0.747132 0.612806 0.437926
Si Si3 0.274498 0.393561 0.057243
Si Si4 0.298661 0.187024 0.105089
Si Si5 0.415978 0.885426 0.240765
Si Si6 0.619952 0.200360 0.445395
O O1 0.685574 0.100988 0.160233
O O2 0.687152 0.292847 0.186754
O O3 0.508690 0.189353 0.241379
O O4 0.644946 0.171858 0.335213
O O5 0.706413 0.500000 0.443973
O O6 0.820975 0.639958 0.333189
O O7 0.647711 0.685130 0.460588
O O8 0.810251 0.627129 0.513611
O O9 0.335190 0.500000 0.043293
O O10 0.344524 0.294902 0.056661
O O11 0.218861 0.385077 0.974806
O O12 0.381866 0.135876 0.147178
O O13 0.450303 0.000000 0.242012
O O14 0.500000 0.181569 0.500000
#
# Coordination Sequence:
#
# PCOD8099308 Si02
#       6
#     8   8   8   8   8   8
#     4  10  20  35  55  85 113 144 178 230 275 327
#     4  10  22  36  55  83 109 146 190 228 270 324
#     4   9  18  36  58  80 109 147 183 225 277 327
#     4   9  20  36  54  83 114 143 177 229 280 323
#     4  11  20  34  58  85 110 142 186 230 273 325
#     4  11  21  38  58  79 116 150 180 228 276 324
#
# _framework density 18.880393000000002
#
# number of rings (size 3 to 8) (size 9 to 14) (size 15 to 20)
#    1.000    1.000    3.333    1.000    0.000    2.667 
#    0.000    1.667    0.000    4.000    0.000    0.000 
#    0.000    0.000    0.000    0.000    0.000    0.000 
#
# Total GULP energy -297374.436901 kJ/mol
# GULP energy per Si atom -12390.601538 kJ/mol
# Density = 1.883742 g / cm^3
# Si number density = 18.880393 Si / 1000 Ang^3
#
#
#
# Elastic Constant Matrix: (Units=GPa)
#
#
# Indices 1 2 3 4 5 6 
#
# 1 46.6368 4.9002 21.0433 0.0000 16.3439 0.0000
# 2 4.9002 67.1989 13.8658 0.0000 -2.0385 0.0000
# 3 21.0433 13.8658 121.4116 0.0000 28.6860 0.0000
# 4 0.0000 0.0000 0.0000 6.0726 0.0000 4.2249
# 5 16.3439 -2.0385 28.6860 0.0000 25.5447 0.0000
# 6 0.0000 0.0000 0.0000 4.2249 0.0000 14.6155
#
#
#
# Elastic Compliance Matrix: (Units=1/GPa)
#
#
# Indices 1 2 3 4 5 6 
#
# 1 0.028099 -0.002506 -0.000393 0.000000 -0.017736 0.000000
# 2 -0.002506 0.015822 -0.002790 0.000000 0.005999 0.000000
# 3 -0.000393 -0.002790 0.011728 0.000000 -0.013141 0.000000
# 4 0.000000 0.000000 0.000000 0.206127 0.000000 -0.059584
# 5 -0.017736 0.005999 -0.013141 0.000000 0.065731 0.000000
# 6 0.000000 0.000000 0.000000 -0.059584 0.000000 0.085644
#
#
# Mechanical properties :
#
#
# Convention : Reuss Voigt Hill
#
# Bulk Modulus (GPa) = 22.58859 34.98509 28.78684
# Shear Modulus (GPa) = 11.38211 22.27577 16.82894
#
# Velocity S-wave (km/s) = 2.45797 3.43860 2.98878
# Velocity P-wave (km/s) = 4.47722 5.85964 5.21445
#
# Compressibility (1/GPa) = 0.04427013
#
# Stress axis : x y z
#
# Youngs Moduli (GPa) = 35.58873 63.20483 85.26479
#
# Poissons Ratio (x) = 0.15838 0.03355
# Poissons Ratio (y) = 0.08918 0.23788
# Poissons Ratio (z) = 0.01400 0.17634
#
# Static dielectric constant tensor:
#      x y z
#    x 3.106360 0.000000 0.080430 
#    y 0.000000 3.272690 0.000000 
#    z 0.080430 0.000000 3.600270 
# 
# 
# High freq. dielectric constant tensor:
#      x y z
#    x 1.699970 0.000000 0.015560 
#    y 0.000000 1.722740 0.000000 
#    z 0.015560 0.000000 1.751580 
# 
# From -- ./inp_files/204395.got.cif
#   From: 2010.06.25/outbox.cif.g09.slc.cpg/sg12_103_cif.got.tgz:204395.got - 2010.06.28 00:19:55.
