data_PCOD8099331
_publ_section_title
;
Structure prediction by ZEFSAII (Michael W. Deem and Ramdas Pophale) SiO2 
 PCOD8099331
Probable space group: C 2/M
;
_chemical_formula_sum "Si O2"
_cell_formula_units_Z 56
_cell_length_a 14.622370
_cell_length_b 13.479448
_cell_length_c 17.480766
_cell_angle_alpha 90.000000
_cell_angle_beta 71.163150
_cell_angle_gamma 90.000000
_cell_volume 3260.950811
_symmetry_space_group_name_H-M "C 2/M"
_symmetry_group_IT_number 12
_symmetry_cell_setting 'monoclinic'
loop_
_space_group_symop_operation_xyz
x,y,z
-x,y,-z
-x,-y,-z
x,-y,z
1/2+x,1/2+y,z
1/2-x,1/2+y,-z
1/2-x,1/2-y,-z
1/2+x,1/2-y,z
loop_
_atom_site_type_symbol
_atom_site_label
_atom_site_fract_x
_atom_site_fract_y
_atom_site_fract_z
Si Si1 0.249866 0.385072 0.401304
Si Si2 0.873769 0.117562 0.769479
Si Si3 0.931289 0.774923 0.327998
Si Si4 0.867703 0.882589 0.102689
Si Si5 0.917667 0.116304 0.925457
Si Si6 0.273873 0.735813 0.254794
Si Si7 0.070348 0.614228 0.548854
O O1 0.253403 0.500000 0.379125
O O2 0.357016 0.346369 0.394795
O O3 0.213681 0.328177 0.333982
O O4 0.179829 0.365366 0.491800
O O5 0.863348 0.145646 0.862066
O O6 0.783381 0.163542 0.748660
O O7 0.972956 0.162781 0.712158
O O8 0.874068 0.000000 0.755766
O O9 0.879404 0.739725 0.262934
O O10 0.955210 0.677646 0.370064
O O11 0.786030 0.827498 0.174009
O O12 0.972316 0.844441 0.103779
O O13 0.853445 0.000000 0.117638
O O14 0.857342 0.848564 0.016429
O O15 0.928804 0.000000 0.929944
O O16 0.054187 0.500000 0.575500
O O17 0.000000 0.646453 0.500000
#
# Coordination Sequence:
#
# PCOD8099331 Si02
#       7
#     8   8   8   8   8   8   8
#     4   9  18  34  55  77 102 140 176 215 266 317
#     4  11  21  36  53  78 111 145 182 222 272 319
#     4  10  21  35  56  79 107 140 181 221 267 318
#     4   9  15  29  52  82 109 136 178 224 265 309
#     4   8  15  28  52  77 106 142 177 220 264 311
#     4  10  21  30  54  83 107 142 174 224 270 322
#     4  10  20  35  56  77 105 140 176 219 270 321
#
# _framework density 17.172906000000001
#
# number of rings (size 3 to 8) (size 9 to 14) (size 15 to 20)
#    0.857    1.571    1.429    3.000    0.000    1.143 
#    0.000    0.714    0.000    1.714    0.000    3.000 
#    0.000    0.000    0.000    0.000    0.000    0.000 
#
# Total GULP energy -346959.047549 kJ/mol
# GULP energy per Si atom -12391.394555 kJ/mol
# Density = 1.713382 g / cm^3
# Si number density = 17.172906 Si / 1000 Ang^3
#
#
#
# Elastic Constant Matrix: (Units=GPa)
#
#
# Indices 1 2 3 4 5 6 
#
# 1 63.1717 42.9982 20.3042 0.0000 2.5896 0.0000
# 2 42.9982 90.2433 52.0534 0.0000 9.6429 0.0000
# 3 20.3042 52.0534 68.0437 0.0000 6.5231 0.0000
# 4 0.0000 0.0000 0.0000 28.5221 0.0000 0.7986
# 5 2.5896 9.6429 6.5231 0.0000 19.5116 0.0000
# 6 0.0000 0.0000 0.0000 0.7986 0.0000 26.6195
#
#
#
# Elastic Compliance Matrix: (Units=1/GPa)
#
#
# Indices 1 2 3 4 5 6 
#
# 1 0.023833 -0.013207 0.002758 0.000000 0.002442 0.000000
# 2 -0.013207 0.027613 -0.016574 0.000000 -0.006353 0.000000
# 3 0.002758 -0.016574 0.026657 0.000000 -0.001087 0.000000
# 4 0.000000 0.000000 0.000000 0.035090 0.000000 -0.001053
# 5 0.002442 -0.006353 -0.001087 0.000000 0.054431 0.000000
# 6 0.000000 0.000000 0.000000 -0.001053 0.000000 0.037598
#
#
# Mechanical properties :
#
#
# Convention : Reuss Voigt Hill
#
# Bulk Modulus (GPa) = 41.57000 50.24117 45.90558
# Shear Modulus (GPa) = 18.70651 22.00415 20.35533
#
# Velocity S-wave (km/s) = 3.30404 3.58345 3.44658
# Velocity P-wave (km/s) = 6.23016 6.81477 6.52901
#
# Compressibility (1/GPa) = 0.02405581
#
# Stress axis : x y z
#
# Youngs Moduli (GPa) = 41.95839 36.21500 37.51412
#
# Poissons Ratio (x) = 0.47831 -0.10346
# Poissons Ratio (y) = 0.55416 0.62175
# Poissons Ratio (z) = -0.11571 0.60022
#
# Static dielectric constant tensor:
#      x y z
#    x 3.009630 0.000000 0.042960 
#    y 0.000000 2.941160 0.000000 
#    z 0.042960 0.000000 3.377030 
# 
# 
# High freq. dielectric constant tensor:
#      x y z
#    x 1.644100 0.000000 -0.001340 
#    y 0.000000 1.642660 0.000000 
#    z -0.001340 0.000000 1.668070 
# 
# From -- ./inp_files/268654.got.cif
#   From: 2010.06.25/outbox.cif.g09.slc.cpg/sg12_135_cif.got.tgz:268654.got - 2010.06.28 00:19:55.
