data_PCOD8099151
_publ_section_title
;
Structure prediction by ZEFSAII (Michael W. Deem and Ramdas Pophale) SiO2 
 PCOD8099151
Probable space group: C 2/M
;
_chemical_formula_sum "Si O2"
_cell_formula_units_Z 56
_cell_length_a 14.899773
_cell_length_b 8.862823
_cell_length_c 23.085063
_cell_angle_alpha 90.000000
_cell_angle_beta 72.747900
_cell_angle_gamma 90.000000
_cell_volume 2911.322324
_symmetry_space_group_name_H-M "C 2/M"
_symmetry_group_IT_number 12
_symmetry_cell_setting 'monoclinic'
loop_
_space_group_symop_operation_xyz
x,y,z
-x,y,-z
-x,-y,-z
x,-y,z
1/2+x,1/2+y,z
1/2-x,1/2+y,-z
1/2-x,1/2-y,-z
1/2+x,1/2-y,z
loop_
_atom_site_type_symbol
_atom_site_label
_atom_site_fract_x
_atom_site_fract_y
_atom_site_fract_z
Si Si1 0.380166 0.324493 0.930731
Si Si2 0.489395 0.823920 0.434917
Si Si3 0.171720 0.170280 0.727513
Si Si4 0.825356 0.821270 0.634733
Si Si5 0.827960 0.170624 0.400426
Si Si6 0.939151 0.677517 0.150193
Si Si7 0.168528 0.324673 0.944136
O O1 0.404221 0.500000 0.924536
O O2 0.455512 0.236062 0.878176
O O3 0.279083 0.288351 0.922125
O O4 0.383911 0.269337 0.996242
O O5 0.500000 0.785512 0.500000
O O6 0.567791 0.734239 0.383638
O O7 0.388177 0.766524 0.433884
O O8 0.499988 0.000000 0.419934
O O9 0.270977 0.261034 0.702872
O O10 0.123361 0.169372 0.672830
O O11 0.101622 0.251021 0.784205
O O12 0.192293 0.000000 0.744683
O O13 0.774473 0.750066 0.587218
O O14 0.821123 0.000000 0.633262
O O15 0.814293 0.000000 0.426204
O O16 0.941222 0.500000 0.157557
O O17 0.874152 0.726334 0.108745
O O18 0.149588 0.500000 0.960693
#
# Coordination Sequence:
#
# PCOD8099151 Si02
#       7
#     8   8   8   8   8   8   8
#     4  10  20  35  55  79 109 144 181 230 284 331
#     4  11  23  38  60  90 119 150 192 235 278 336
#     4   9  20  39  59  81 112 147 189 236 280 334
#     4  10  20  38  61  84 114 152 187 229 285 337
#     4   9  20  39  60  83 114 151 187 233 283 332
#     4  11  21  35  56  81 108 145 187 228 277 336
#     4   9  20  37  54  77 110 144 181 226 278 337
#
# _framework density 19.235244999999999
#
# number of rings (size 3 to 8) (size 9 to 14) (size 15 to 20)
#    0.857    1.286    0.000    3.429    0.000    5.143 
#    2.571    0.000    0.000    0.000    0.000    0.000 
#    0.000    0.000    0.000    0.000    0.000    0.000 
#
# Total GULP energy -347162.032022 kJ/mol
# GULP energy per Si atom -12398.644001 kJ/mol
# Density = 1.919146 g / cm^3
# Si number density = 19.235245 Si / 1000 Ang^3
#
#
#
# Elastic Constant Matrix: (Units=GPa)
#
#
# Indices 1 2 3 4 5 6 
#
# 1 43.2016 13.3755 -4.8760 0.0000 -3.8104 0.0000
# 2 13.3755 106.2680 25.3289 0.0000 -9.5318 0.0000
# 3 -4.8760 25.3289 42.8087 0.0000 -8.0465 0.0000
# 4 0.0000 0.0000 0.0000 29.7255 0.0000 -0.5465
# 5 -3.8104 -9.5318 -8.0465 0.0000 24.3210 0.0000
# 6 0.0000 0.0000 0.0000 -0.5465 0.0000 33.1113
#
#
#
# Elastic Compliance Matrix: (Units=1/GPa)
#
#
# Indices 1 2 3 4 5 6 
#
# 1 0.025586 -0.004328 0.006302 0.000000 0.004397 0.000000
# 2 -0.004328 0.011808 -0.007184 0.000000 0.001573 0.000000
# 3 0.006302 -0.007184 0.029840 0.000000 0.008044 0.000000
# 4 0.000000 0.000000 0.000000 0.033651 0.000000 0.000555
# 5 0.004397 0.001573 0.008044 0.000000 0.045084 0.000000
# 6 0.000000 0.000000 0.000000 0.000555 0.000000 0.030210
#
#
# Mechanical properties :
#
#
# Convention : Reuss Voigt Hill
#
# Bulk Modulus (GPa) = 17.60128 28.88166 23.24147
# Shear Modulus (GPa) = 24.32632 27.99488 26.16060
#
# Velocity S-wave (km/s) = 3.56008 3.81910 3.69187
# Velocity P-wave (km/s) = 5.10581 5.87324 5.50292
#
# Compressibility (1/GPa) = 0.05681404
#
# Stress axis : x y z
#
# Youngs Moduli (GPa) = 39.08331 84.68609 33.51198
#
# Poissons Ratio (x) = 0.36652 -0.21118
# Poissons Ratio (y) = 0.16915 0.24075
# Poissons Ratio (z) = -0.24629 0.60838
#
# Static dielectric constant tensor:
#      x y z
#    x 3.429080 0.000000 -0.043610 
#    y 0.000000 3.544500 0.000000 
#    z -0.043610 0.000000 3.326390 
# 
# 
# High freq. dielectric constant tensor:
#      x y z
#    x 1.740550 0.000000 -0.009220 
#    y 0.000000 1.763090 0.000000 
#    z -0.009220 0.000000 1.734020 
# 
# From -- ./inp_files/337890.got.cif
#   From: 2010.06.25/outbox.cif.g09.slc.cpg/sg12_169_cif.got.tgz:337890.got - 2010.06.28 00:19:55.
