data_PCOD8099063
_publ_section_title
;
Structure prediction by ZEFSAII (Michael W. Deem and Ramdas Pophale) SiO2 
 PCOD8099063
Probable space group: C 2/M
;
_chemical_formula_sum "Si O2"
_cell_formula_units_Z 56
_cell_length_a 14.922669
_cell_length_b 9.411976
_cell_length_c 28.788428
_cell_angle_alpha 90.000000
_cell_angle_beta 131.002719
_cell_angle_gamma 90.000000
_cell_volume 3051.456717
_symmetry_space_group_name_H-M "C 2/M"
_symmetry_group_IT_number 12
_symmetry_cell_setting 'monoclinic'
loop_
_space_group_symop_operation_xyz
x,y,z
-x,y,-z
-x,-y,-z
x,-y,z
1/2+x,1/2+y,z
1/2-x,1/2+y,-z
1/2-x,1/2-y,-z
1/2+x,1/2-y,z
loop_
_atom_site_type_symbol
_atom_site_label
_atom_site_fract_x
_atom_site_fract_y
_atom_site_fract_z
Si Si1 0.256831 0.829859 0.141354
Si Si2 0.031275 0.830714 0.122096
Si Si3 0.989457 0.167514 0.212201
Si Si4 0.800411 0.834632 0.647821
Si Si5 0.151133 0.836356 0.439774
Si Si6 0.616762 0.654901 0.009148
Si Si7 0.937099 0.165064 0.431557
O O1 0.160198 0.782929 0.147073
O O2 0.378321 0.751741 0.195641
O O3 0.215194 0.771223 0.075860
O O4 0.273355 0.000000 0.146583
O O5 0.014938 0.776874 0.168814
O O6 0.023751 0.000000 0.116309
O O7 0.924157 0.766340 0.052729
O O8 0.102629 0.208424 0.281279
O O9 0.963151 0.000000 0.204901
O O10 0.851789 0.792520 0.615004
O O11 0.682003 0.749712 0.618808
O O12 0.769141 0.000000 0.639867
O O13 0.250000 0.750000 0.500000
O O14 0.022246 0.803937 0.417018
O O15 0.184732 0.000000 0.458016
O O16 0.667309 0.500000 0.013116
O O17 0.500000 0.635242 0.000000
O O18 0.000000 0.220050 0.500000
O O19 0.904869 0.000000 0.425709
#
# Coordination Sequence:
#
# PCOD8099063 Si02
#       7
#     8   8   8   8   8   8   8
#     4   9  17  31  52  75  97 128 174 216 248 290
#     4   8  15  30  51  71  98 135 170 206 250 300
#     4  10  21  35  49  71 104 138 168 201 248 302
#     4  10  22  37  52  74 105 137 168 200 242 303
#     4  10  20  35  55  78 103 129 158 198 248 294
#     4   7  11  23  46  73  95 122 166 214 251 287
#     4  10  20  35  56  80 102 126 161 206 250 290
#
# _framework density 18.351890000000001
#
# number of rings (size 3 to 8) (size 9 to 14) (size 15 to 20)
#    0.000    2.857    1.429    1.714    0.000    3.143 
#    0.000    0.714    0.000    3.857    0.000    0.000 
#    0.000    0.000    0.000    0.000    0.000    0.000 
#
# Total GULP energy -347009.159512 kJ/mol
# GULP energy per Si atom -12393.184268 kJ/mol
# Density = 1.831012 g / cm^3
# Si number density = 18.351890 Si / 1000 Ang^3
#
#
#
# Elastic Constant Matrix: (Units=GPa)
#
#
# Indices 1 2 3 4 5 6 
#
# 1 79.7742 25.8010 32.2538 0.0000 1.2890 0.0000
# 2 25.8010 31.2423 30.1301 0.0000 9.0063 0.0000
# 3 32.2538 30.1301 100.8051 0.0000 4.0700 0.0000
# 4 0.0000 0.0000 0.0000 18.9377 0.0000 4.6253
# 5 1.2890 9.0063 4.0700 0.0000 34.2852 0.0000
# 6 0.0000 0.0000 0.0000 4.6253 0.0000 23.0750
#
#
#
# Elastic Compliance Matrix: (Units=1/GPa)
#
#
# Indices 1 2 3 4 5 6 
#
# 1 0.017642 -0.013938 -0.001607 0.000000 0.003189 0.000000
# 2 -0.013938 0.059892 -0.012889 0.000000 -0.013679 0.000000
# 3 -0.001607 -0.012889 0.014216 0.000000 0.001759 0.000000
# 4 0.000000 0.000000 0.000000 0.055523 0.000000 -0.011129
# 5 0.003189 -0.013679 0.001759 0.000000 0.032432 0.000000
# 6 0.000000 0.000000 0.000000 -0.011129 0.000000 0.045568
#
#
# Mechanical properties :
#
#
# Convention : Reuss Voigt Hill
#
# Bulk Modulus (GPa) = 28.66982 43.13238 35.90110
# Shear Modulus (GPa) = 17.02016 23.50205 20.26111
#
# Velocity S-wave (km/s) = 3.04868 3.58248 3.32631
# Velocity P-wave (km/s) = 5.29611 6.37700 5.86153
#
# Compressibility (1/GPa) = 0.03487988
#
# Stress axis : x y z
#
# Youngs Moduli (GPa) = 56.68383 16.69660 70.34321
#
# Poissons Ratio (x) = 0.23272 0.11307
# Poissons Ratio (y) = 0.79008 0.90669
# Poissons Ratio (z) = 0.09111 0.21521
#
# Static dielectric constant tensor:
#      x y z
#    x 3.390350 0.000000 -0.165180 
#    y 0.000000 3.011230 0.000000 
#    z -0.165180 0.000000 3.582200 
# 
# 
# High freq. dielectric constant tensor:
#      x y z
#    x 1.712270 0.000000 -0.004470 
#    y 0.000000 1.672930 0.000000 
#    z -0.004470 0.000000 1.718370 
# 
# From -- ./inp_files/338145.got.cif
#   From: 2010.06.25/outbox.cif.g09.slc.cpg/sg12_170_cif.got.tgz:338145.got - 2010.06.28 00:19:55.
