data_PCOD8099186
_publ_section_title
;
Structure prediction by ZEFSAII (Michael W. Deem and Ramdas Pophale) SiO2 
 PCOD8099186
Probable space group: C 2/M
;
_chemical_formula_sum "Si O2"
_cell_formula_units_Z 32
_cell_length_a 28.453929
_cell_length_b 8.612448
_cell_length_c 22.421940
_cell_angle_alpha 90.000000
_cell_angle_beta 161.485206
_cell_angle_gamma 90.000000
_cell_volume 1744.831467
_symmetry_space_group_name_H-M "C 2/M"
_symmetry_group_IT_number 12
_symmetry_cell_setting 'monoclinic'
loop_
_space_group_symop_operation_xyz
x,y,z
-x,y,-z
-x,-y,-z
x,-y,z
1/2+x,1/2+y,z
1/2-x,1/2+y,-z
1/2-x,1/2-y,-z
1/2+x,1/2-y,z
loop_
_atom_site_type_symbol
_atom_site_label
_atom_site_fract_x
_atom_site_fract_y
_atom_site_fract_z
Si Si1 0.449232 0.317260 0.001375
Si Si2 0.192644 0.316874 0.992469
Si Si3 0.842835 0.317203 0.286038
Si Si4 0.407850 0.315726 0.706346
O O1 0.468544 0.500000 0.019710
O O2 0.552674 0.256451 0.179520
O O3 0.500000 0.238889 0.000000
O O4 0.279018 0.274318 0.810511
O O5 0.180255 0.500000 0.973444
O O6 0.030074 0.247677 0.807957
O O7 0.250000 0.250000 0.000000
O O8 0.307790 0.270579 0.182705
O O9 0.841691 0.500000 0.270752
O O10 0.000000 0.260356 0.500000
O O11 0.408060 0.500000 0.702742
O O12 0.250000 0.250000 0.500000
#
# Coordination Sequence:
#
# PCOD8099186 Si02
#       4
#     8   8   8   8
#     4   8  15  29  49  73 100 132 171 211 251 304
#     4  11  22  37  56  78 108 144 184 230 277 324
#     4   9  18  33  53  77 106 139 176 218 266 322
#     4  10  20  35  55  80 109 141 179 222 270 323
#
# _framework density 18.339880000000001
#
# number of rings (size 3 to 8) (size 9 to 14) (size 15 to 20)
#    0.000    2.500    0.000    4.500    0.000    2.500 
#    0.000    5.000    0.000   18.750    0.000    0.000 
#    0.000    0.000    0.000    0.000    0.000    0.000 
#
# Total GULP energy -198382.457791 kJ/mol
# GULP energy per Si atom -12398.903612 kJ/mol
# Density = 1.829814 g / cm^3
# Si number density = 18.339880 Si / 1000 Ang^3
#
#
#
# Elastic Constant Matrix: (Units=GPa)
#
#
# Indices 1 2 3 4 5 6 
#
# 1 174.4724 40.1552 80.3832 0.0000 10.0714 0.0000
# 2 40.1552 82.7525 41.6154 0.0000 4.1830 0.0000
# 3 80.3832 41.6154 178.4407 0.0000 14.7956 0.0000
# 4 0.0000 0.0000 0.0000 30.1432 0.0001 -0.5518
# 5 10.0714 4.1830 14.7956 0.0001 13.8503 0.0000
# 6 0.0000 0.0000 0.0000 -0.5518 0.0000 24.0905
#
#
#
# Elastic Compliance Matrix: (Units=1/GPa)
#
#
# Indices 1 2 3 4 5 6 
#
# 1 0.007623 -0.002215 -0.002758 0.000000 -0.001929 0.000000
# 2 -0.002215 0.014341 -0.002327 0.000000 -0.000234 0.000000
# 3 -0.002758 -0.002327 0.007861 0.000000 -0.005689 0.000000
# 4 0.000000 0.000000 0.000000 0.033189 0.000000 0.000760
# 5 -0.001929 -0.000234 -0.005689 0.000000 0.079752 0.000000
# 6 0.000000 0.000000 0.000000 0.000760 0.000000 0.041528
#
#
# Mechanical properties :
#
#
# Convention : Reuss Voigt Hill
#
# Bulk Modulus (GPa) = 65.67933 84.44147 75.06040
# Shear Modulus (GPa) = 24.51363 31.85091 28.18227
#
# Velocity S-wave (km/s) = 3.65996 4.17190 3.92429
# Velocity P-wave (km/s) = 7.33147 8.32759 7.84536
#
# Compressibility (1/GPa) = 0.01522549
#
# Stress axis : x y z
#
# Youngs Moduli (GPa) = 131.17989 69.72886 127.21259
#
# Poissons Ratio (x) = 0.15444 0.35080
# Poissons Ratio (y) = 0.29054 0.29608
# Poissons Ratio (z) = 0.36174 0.16229
#
# Static dielectric constant tensor:
#      x y z
#    x 3.653840 0.000000 -0.123620 
#    y 0.000000 3.218070 0.000000 
#    z -0.123620 0.000000 3.245360 
# 
# 
# High freq. dielectric constant tensor:
#      x y z
#    x 1.718660 0.000000 0.002340 
#    y 0.000000 1.694130 0.000000 
#    z 0.002340 0.000000 1.715900 
# 
# From -- ./inp_files/81656.got.cif
#   From: 2010.06.25/outbox.cif.g09.slc.cpg/sg12_41_cif.got.tgz:81656.got - 2010.06.28 00:19:55.
