data_PCOD8099725
_publ_section_title
;
Structure prediction by ZEFSAII (Michael W. Deem and Ramdas Pophale) SiO2 
 PCOD8099725
Probable space group: C 2/M
;
_chemical_formula_sum "Si O2"
_cell_formula_units_Z 56
_cell_length_a 28.268466
_cell_length_b 9.035185
_cell_length_c 19.535848
_cell_angle_alpha 90.000000
_cell_angle_beta 143.187683
_cell_angle_gamma 90.000000
_cell_volume 2989.787083
_symmetry_space_group_name_H-M "C 2/M"
_symmetry_group_IT_number 12
_symmetry_cell_setting 'monoclinic'
loop_
_space_group_symop_operation_xyz
x,y,z
-x,y,-z
-x,-y,-z
x,-y,z
1/2+x,1/2+y,z
1/2-x,1/2+y,-z
1/2-x,1/2-y,-z
1/2+x,1/2-y,z
loop_
_atom_site_type_symbol
_atom_site_label
_atom_site_fract_x
_atom_site_fract_y
_atom_site_fract_z
Si Si1 0.195816 0.672140 0.231021
Si Si2 0.638579 0.330696 0.745528
Si Si3 0.003961 0.325709 0.666816
Si Si4 0.874827 0.829934 0.429516
Si Si5 0.818037 0.327952 0.940720
Si Si6 0.467662 0.324993 0.163154
Si Si7 0.053120 0.825354 0.124036
O O1 0.177874 0.500000 0.217528
O O2 0.286836 0.705433 0.354253
O O3 0.176950 0.724744 0.132113
O O4 0.141004 0.759661 0.220567
O O5 0.617101 0.500000 0.738756
O O6 0.588236 0.222258 0.734286
O O7 0.619151 0.299758 0.644055
O O8 0.730227 0.299436 0.867196
O O9 0.003202 0.500000 0.675979
O O10 0.989154 0.248153 0.722382
O O11 0.934370 0.279399 0.535495
O O12 0.897263 0.000000 0.471390
O O13 0.840448 0.500000 0.973130
O O14 0.877619 0.231017 0.054606
O O15 0.467633 0.500000 0.171700
O O16 0.514937 0.272827 0.150760
O O17 0.059928 0.000000 0.128265
O O18 0.000000 0.764158 0.000000
#
# Coordination Sequence:
#
# PCOD8099725 Si02
#       7
#     8   8   8   8   8   8   8
#     4   9  18  33  58  88 113 141 178 225 275 323
#     4   9  19  37  61  84 110 146 184 224 274 329
#     4  12  25  38  54  80 112 147 189 233 274 321
#     4   9  19  38  61  84 111 145 186 225 270 329
#     4   9  18  34  56  85 114 141 180 226 271 325
#     4  11  23  38  56  78 112 153 185 221 276 333
#     4  10  20  35  56  85 114 142 181 225 273 329
#
# _framework density 18.730429999999998
#
# number of rings (size 3 to 8) (size 9 to 14) (size 15 to 20)
#    0.000    2.143    1.429    3.857    0.000    5.429 
#    0.000    3.571    0.000    0.000    0.000    0.000 
#    0.000    0.000    0.000    0.000    0.000    0.000 
#
# Total GULP energy -347288.393028 kJ/mol
# GULP energy per Si atom -12403.156894 kJ/mol
# Density = 1.868780 g / cm^3
# Si number density = 18.730430 Si / 1000 Ang^3
#
#
#
# Elastic Constant Matrix: (Units=GPa)
#
#
# Indices 1 2 3 4 5 6 
#
# 1 105.3063 39.9006 26.4485 0.0000 3.9976 0.0000
# 2 39.9006 69.8706 21.6433 0.0000 -1.4720 0.0000
# 3 26.4485 21.6433 37.4083 0.0000 -0.6373 0.0000
# 4 0.0000 0.0000 0.0000 33.0066 0.0000 2.5559
# 5 3.9976 -1.4720 -0.6373 0.0000 23.8832 0.0000
# 6 0.0000 0.0000 0.0000 2.5559 0.0000 29.2152
#
#
#
# Elastic Compliance Matrix: (Units=1/GPa)
#
#
# Indices 1 2 3 4 5 6 
#
# 1 0.013326 -0.005769 -0.006131 0.000000 -0.002750 0.000000
# 2 -0.005769 0.019950 -0.007430 0.000000 0.001997 0.000000
# 3 -0.006131 -0.007430 0.035391 0.000000 0.001513 0.000000
# 4 0.000000 0.000000 0.000000 0.030504 0.000000 -0.002669
# 5 -0.002750 0.001997 0.001513 0.000000 0.042494 0.000000
# 6 0.000000 0.000000 0.000000 -0.002669 0.000000 0.034462
#
#
# Mechanical properties :
#
#
# Convention : Reuss Voigt Hill
#
# Bulk Modulus (GPa) = 33.32432 43.17443 38.24937
# Shear Modulus (GPa) = 22.24302 25.52719 23.88511
#
# Velocity S-wave (km/s) = 3.44980 3.69572 3.57487
# Velocity P-wave (km/s) = 5.80503 6.42741 6.12413
#
# Compressibility (1/GPa) = 0.03000812
#
# Stress axis : x y z
#
# Youngs Moduli (GPa) = 75.04027 50.12503 28.25559
#
# Poissons Ratio (x) = 0.28916 0.17324
# Poissons Ratio (y) = 0.43290 0.20993
# Poissons Ratio (z) = 0.46008 0.37242
#
# Static dielectric constant tensor:
#      x y z
#    x 3.470530 0.000000 0.051910 
#    y 0.000000 3.260460 0.000000 
#    z 0.051910 0.000000 3.357280 
# 
# 
# High freq. dielectric constant tensor:
#      x y z
#    x 1.728160 0.000000 0.008600 
#    y 0.000000 1.719810 0.000000 
#    z 0.008600 0.000000 1.721690 
# 
# From -- ./inp_files/292454.got.cif
#   From: 2010.06.25/outbox.cif.g09.slc.cpg/sg12_147_cif.got.tgz:292454.got - 2010.06.28 00:19:55.
