data_PCOD8099094
_publ_section_title
;
Structure prediction by ZEFSAII (Michael W. Deem and Ramdas Pophale) SiO2 
 PCOD8099094
Probable space group: C 2/M
;
_chemical_formula_sum "Si O2"
_cell_formula_units_Z 48
_cell_length_a 19.519029
_cell_length_b 8.913630
_cell_length_c 20.876859
_cell_angle_alpha 90.000000
_cell_angle_beta 134.328221
_cell_angle_gamma 90.000000
_cell_volume 2598.338496
_symmetry_space_group_name_H-M "C 2/M"
_symmetry_group_IT_number 12
_symmetry_cell_setting 'monoclinic'
loop_
_space_group_symop_operation_xyz
x,y,z
-x,y,-z
-x,-y,-z
x,-y,z
1/2+x,1/2+y,z
1/2-x,1/2+y,-z
1/2-x,1/2-y,-z
1/2+x,1/2-y,z
loop_
_atom_site_type_symbol
_atom_site_label
_atom_site_fract_x
_atom_site_fract_y
_atom_site_fract_z
Si Si1 0.243205 0.673156 0.764757
Si Si2 0.599797 0.174471 0.895986
Si Si3 0.759753 0.825513 0.103765
Si Si4 0.608878 0.325439 0.582071
Si Si5 0.737589 0.175291 0.423746
Si Si6 0.100187 0.826373 0.239450
O O1 0.229796 0.500000 0.774310
O O2 0.262988 0.769756 0.840368
O O3 0.147672 0.730049 0.667021
O O4 0.334109 0.700158 0.779198
O O5 0.649469 0.235696 0.864220
O O6 0.502467 0.261606 0.845358
O O7 0.578246 0.000000 0.872720
O O8 0.666428 0.207160 0.000418
O O9 0.786092 0.000000 0.121360
O O10 0.500000 0.276093 0.500000
O O11 0.617210 0.500000 0.605475
O O12 0.668622 0.288362 0.557162
O O13 0.750000 0.250000 0.500000
O O14 0.643147 0.241306 0.328709
O O15 0.722227 0.000000 0.423055
O O16 0.091879 0.000000 0.252059
#
# Coordination Sequence:
#
# PCOD8099094 Si02
#       6
#     8   8   8   8   8   8
#     4  10  21  36  55  80 110 143 180 222 266 316
#     4  10  21  37  57  81 108 140 180 224 269 319
#     4  10  21  37  57  80 109 143 178 220 269 322
#     4   9  19  36  56  77 103 138 179 221 266 315
#     4  10  20  35  55  78 107 141 178 223 271 321
#     4  10  21  37  56  79 109 144 181 223 271 320
#
# _framework density 18.473344999999998
#
# number of rings (size 3 to 8) (size 9 to 14) (size 15 to 20)
#    0.000    2.167    0.000    2.500    0.000    7.000 
#    0.000    8.333    0.000    0.000    0.000    0.000 
#    0.000    0.000    0.000    0.000    0.000    0.000 
#
# Total GULP energy -297731.165404 kJ/mol
# GULP energy per Si atom -12405.465225 kJ/mol
# Density = 1.843130 g / cm^3
# Si number density = 18.473345 Si / 1000 Ang^3
#
#
#
# Elastic Constant Matrix: (Units=GPa)
#
#
# Indices 1 2 3 4 5 6 
#
# 1 76.5270 50.1362 64.8872 0.0000 2.1636 0.0000
# 2 50.1362 94.0047 58.8046 0.0000 -3.2687 0.0000
# 3 64.8872 58.8046 103.8669 0.0000 -1.1661 0.0000
# 4 0.0000 0.0000 0.0000 38.3092 0.0000 -2.0422
# 5 2.1636 -3.2687 -1.1661 0.0000 38.9840 0.0000
# 6 0.0000 0.0000 0.0000 -2.0422 0.0000 34.5970
#
#
#
# Elastic Compliance Matrix: (Units=1/GPa)
#
#
# Indices 1 2 3 4 5 6 
#
# 1 0.030559 -0.006862 -0.015236 0.000000 -0.002727 0.000000
# 2 -0.006862 0.018059 -0.005918 0.000000 0.001718 0.000000
# 3 -0.015236 -0.005918 0.022508 0.000000 0.001023 0.000000
# 4 0.000000 0.000000 0.000000 0.026186 0.000000 0.001546
# 5 -0.002727 0.001718 0.001023 0.000000 0.025978 0.000000
# 6 0.000000 0.000000 0.000000 0.001546 0.000000 0.028996
#
#
# Mechanical properties :
#
#
# Convention : Reuss Voigt Hill
#
# Bulk Modulus (GPa) = 66.25442 69.11717 67.68579
# Shear Modulus (GPa) = 23.43575 29.08275 26.25925
#
# Velocity S-wave (km/s) = 3.56564 3.97206 3.77432
# Velocity P-wave (km/s) = 7.27286 7.65063 7.46413
#
# Compressibility (1/GPa) = 0.01509333
#
# Stress axis : x y z
#
# Youngs Moduli (GPa) = 32.72389 55.37263 44.42830
#
# Poissons Ratio (x) = 0.37996 0.67692
# Poissons Ratio (y) = 0.22455 0.26294
# Poissons Ratio (z) = 0.49859 0.32772
#
# Static dielectric constant tensor:
#      x y z
#    x 3.336270 0.000000 -0.040920 
#    y 0.000000 3.556930 0.000000 
#    z -0.040920 0.000000 3.176190 
# 
# 
# High freq. dielectric constant tensor:
#      x y z
#    x 1.715420 0.000000 0.000230 
#    y 0.000000 1.732130 0.000000 
#    z 0.000230 0.000000 1.719650 
# 
# From -- ./inp_files/248782.got.cif
#   From: 2010.06.25/outbox.cif.g09.slc.cpg/sg12_125_cif.got.tgz:248782.got - 2010.06.28 00:19:55.
