data_PCOD8099252
_publ_section_title
;
Structure prediction by ZEFSAII (Michael W. Deem and Ramdas Pophale) SiO2 
 PCOD8099252
Probable space group: C 2/M
;
_chemical_formula_sum "Si O2"
_cell_formula_units_Z 64
_cell_length_a 25.266886
_cell_length_b 8.838994
_cell_length_c 30.166247
_cell_angle_alpha 90.000000
_cell_angle_beta 151.533331
_cell_angle_gamma 90.000000
_cell_volume 3211.242536
_symmetry_space_group_name_H-M "C 2/M"
_symmetry_group_IT_number 12
_symmetry_cell_setting 'monoclinic'
loop_
_space_group_symop_operation_xyz
x,y,z
-x,y,-z
-x,-y,-z
x,-y,z
1/2+x,1/2+y,z
1/2-x,1/2+y,-z
1/2-x,1/2-y,-z
1/2+x,1/2-y,z
loop_
_atom_site_type_symbol
_atom_site_label
_atom_site_fract_x
_atom_site_fract_y
_atom_site_fract_z
Si Si1 0.834255 0.171946 0.270999
Si Si2 0.807979 0.178628 0.677676
Si Si3 0.765313 0.320971 0.963490
Si Si4 0.504443 0.676194 0.882825
Si Si5 0.917513 0.328542 0.901685
Si Si6 0.668869 0.320078 0.404250
Si Si7 0.079211 0.179688 0.758484
Si Si8 0.118590 0.320903 0.602621
O O1 0.703505 0.179776 0.166263
O O2 0.892330 0.239130 0.269822
O O3 0.865994 0.274186 0.335591
O O4 0.872592 0.000000 0.308489
O O5 0.931639 0.219837 0.785957
O O6 0.794013 0.238095 0.617151
O O7 0.713286 0.250024 0.639969
O O8 0.793915 0.000000 0.668045
O O9 0.758237 0.500000 0.962384
O O10 0.668677 0.258139 0.859915
O O11 0.750000 0.250000 0.000000
O O12 0.884648 0.274360 0.032371
O O13 0.535796 0.500000 0.905569
O O14 0.426959 0.714821 0.867545
O O15 0.946261 0.500000 0.907729
O O16 0.000000 0.270625 0.000000
O O17 0.674698 0.500000 0.412014
O O18 0.750000 0.250000 0.500000
O O19 0.543513 0.262167 0.319834
O O20 0.085824 0.000000 0.763703
O O21 0.122899 0.500000 0.603067
O O22 0.000000 0.257389 0.500000
#
# Coordination Sequence:
#
# PCOD8099252 Si02
#       8
#     8   8   8   8   8   8   8   8
#     4  10  20  36  58  84 115 152 194 239 286 340
#     4   9  19  37  58  81 115 153 189 232 293 357
#     4  11  22  39  62  87 117 155 199 242 288 346
#     4  11  21  36  59  86 116 152 192 237 291 346
#     4  10  20  35  55  81 115 156 196 233 285 347
#     4  10  21  39  61  84 110 147 191 236 288 345
#     4   9  20  39  60  82 116 158 192 229 291 355
#     4  10  21  37  58  83 112 153 195 237 293 352
#
# _framework density 19.929978999999999
#
# number of rings (size 3 to 8) (size 9 to 14) (size 15 to 20)
#    0.000    2.000    1.250    2.250    1.750    4.500 
#    0.000    6.875    0.000    0.000    0.000    0.000 
#    0.000    0.000    0.000    0.000    0.000    0.000 
#
# Total GULP energy -396830.190547 kJ/mol
# GULP energy per Si atom -12400.943455 kJ/mol
# Density = 1.988462 g / cm^3
# Si number density = 19.929979 Si / 1000 Ang^3
#
#
#
# Elastic Constant Matrix: (Units=GPa)
#
#
# Indices 1 2 3 4 5 6 
#
# 1 154.2648 19.2060 74.0639 0.0001 -8.3787 0.0000
# 2 19.2060 29.2780 28.2053 0.0005 -0.2636 0.0001
# 3 74.0639 28.2053 157.1710 -0.0003 -8.7719 -0.0004
# 4 0.0001 0.0005 -0.0003 26.7682 -0.0001 -4.4266
# 5 -8.3787 -0.2636 -8.7719 -0.0001 38.3281 0.0000
# 6 0.0000 0.0001 -0.0004 -4.4266 0.0000 27.9079
#
#
#
# Elastic Compliance Matrix: (Units=1/GPa)
#
#
# Indices 1 2 3 4 5 6 
#
# 1 0.008520 -0.002137 -0.003574 0.000000 0.001030 0.000000
# 2 -0.002137 0.041908 -0.006608 -0.000001 -0.001691 0.000000
# 3 -0.003574 -0.006608 0.009305 0.000000 0.001303 0.000000
# 4 0.000000 -0.000001 0.000000 0.038364 0.000000 0.006085
# 5 0.001030 -0.001691 0.001303 0.000000 0.026602 0.000000
# 6 0.000000 0.000000 0.000000 0.006085 0.000000 0.036797
#
#
# Mechanical properties :
#
#
# Convention : Reuss Voigt Hill
#
# Bulk Modulus (GPa) = 28.49372 64.85157 46.67265
# Shear Modulus (GPa) = 25.27380 33.21675 29.24527
#
# Velocity S-wave (km/s) = 3.56494 4.08692 3.83482
# Velocity P-wave (km/s) = 5.59223 7.40816 6.56331
#
# Compressibility (1/GPa) = 0.03509545
#
# Stress axis : x y z
#
# Youngs Moduli (GPa) = 117.36710 23.86192 107.46576
#
# Poissons Ratio (x) = 0.05099 0.38409
# Poissons Ratio (y) = 0.25079 0.71014
# Poissons Ratio (z) = 0.41948 0.15768
#
# Static dielectric constant tensor:
#      x y z
#    x 3.944820 0.000000 0.143870 
#    y 0.000000 3.273160 0.000000 
#    z 0.143870 0.000000 3.886040 
# 
# 
# High freq. dielectric constant tensor:
#      x y z
#    x 1.791230 0.000000 0.000160 
#    y 0.000000 1.741350 0.000000 
#    z 0.000160 0.000000 1.790100 
# 
# From -- ./inp_files/382465.got.cif
#   From: 2010.06.25/outbox.cif.g09.slc.cpg/sg12_192_cif.got.tgz:382465.got - 2010.06.28 00:19:55.
