data_PCOD8099567
_publ_section_title
;
Structure prediction by ZEFSAII (Michael W. Deem and Ramdas Pophale) SiO2 
 PCOD8099567
Probable space group: C 2/M
;
_chemical_formula_sum "Si O2"
_cell_formula_units_Z 56
_cell_length_a 17.795454
_cell_length_b 8.828323
_cell_length_c 18.579295
_cell_angle_alpha 90.000000
_cell_angle_beta 76.533152
_cell_angle_gamma 90.000000
_cell_volume 2838.626708
_symmetry_space_group_name_H-M "C 2/M"
_symmetry_group_IT_number 12
_symmetry_cell_setting 'monoclinic'
loop_
_space_group_symop_operation_xyz
x,y,z
-x,y,-z
-x,-y,-z
x,-y,z
1/2+x,1/2+y,z
1/2-x,1/2+y,-z
1/2-x,1/2-y,-z
1/2+x,1/2-y,z
loop_
_atom_site_type_symbol
_atom_site_label
_atom_site_fract_x
_atom_site_fract_y
_atom_site_fract_z
Si Si1 0.154571 0.679556 0.709332
Si Si2 0.006883 0.177300 0.291480
Si Si3 0.798955 0.679917 0.144288
Si Si4 0.056876 0.326408 0.423829
Si Si5 0.628910 0.678755 0.143601
Si Si6 0.732184 0.174786 0.428559
Si Si7 0.415264 0.179733 0.997074
O O1 0.158643 0.500000 0.705035
O O2 0.071324 0.731312 0.701605
O O3 0.170308 0.741318 0.786237
O O4 0.220445 0.744497 0.644137
O O5 0.043543 0.216965 0.359782
O O6 0.067148 0.227849 0.217043
O O7 0.989141 0.000000 0.291739
O O8 0.800073 0.500000 0.144515
O O9 0.712519 0.740209 0.149738
O O10 0.854942 0.742695 0.069429
O O11 0.041044 0.500000 0.404459
O O12 0.142662 0.303192 0.432803
O O13 0.000000 0.275938 0.500000
O O14 0.630803 0.500000 0.132019
O O15 0.606516 0.755623 0.074694
O O16 0.750000 0.250000 0.500000
O O17 0.756292 0.000000 0.426343
O O18 0.412738 0.000000 0.993352
O O19 0.500000 0.237720 0.000000
#
# Coordination Sequence:
#
# PCOD8099567 Si02
#       7
#     8   8   8   8   8   8   8
#     4  11  22  39  62  84 114 155 194 237 291 344
#     4  11  23  38  58  85 116 150 193 242 290 345
#     4   9  19  36  57  81 111 149 191 234 284 344
#     4  10  22  40  61  86 116 151 191 234 282 338
#     4  10  21  37  56  81 113 147 186 234 287 341
#     4  11  23  39  61  90 122 154 192 236 282 339
#     4  10  20  35  56  82 111 146 190 234 279 339
#
# _framework density 19.727848000000002
#
# number of rings (size 3 to 8) (size 9 to 14) (size 15 to 20)
#    0.000    1.714    0.000    4.286    0.000    6.286 
#    0.000    2.857    0.000    0.000    0.000    0.000 
#    0.000    0.000    0.000    0.000    0.000    0.000 
#
# Total GULP energy -347343.747830 kJ/mol
# GULP energy per Si atom -12405.133851 kJ/mol
# Density = 1.968295 g / cm^3
# Si number density = 19.727848 Si / 1000 Ang^3
#
#
#
# Elastic Constant Matrix: (Units=GPa)
#
#
# Indices 1 2 3 4 5 6 
#
# 1 91.8391 32.3866 52.4672 0.0000 -4.8317 0.0000
# 2 32.3866 58.6799 46.5736 0.0000 -1.0440 0.0000
# 3 52.4672 46.5736 171.9955 0.0000 -4.1553 0.0000
# 4 0.0000 0.0000 0.0000 31.0039 0.0000 7.8713
# 5 -4.8317 -1.0440 -4.1553 0.0000 46.4895 0.0000
# 6 0.0000 0.0000 0.0000 7.8713 0.0000 11.7352
#
#
#
# Elastic Compliance Matrix: (Units=1/GPa)
#
#
# Indices 1 2 3 4 5 6 
#
# 1 0.014624 -0.005773 -0.002870 0.000000 0.001134 0.000000
# 2 -0.005773 0.023986 -0.004746 0.000000 -0.000486 0.000000
# 3 -0.002870 -0.004746 0.007982 0.000000 0.000309 0.000000
# 4 0.000000 0.000000 0.000000 0.038874 0.000000 -0.026074
# 5 0.001134 -0.000486 0.000309 0.000000 0.021645 0.000000
# 6 0.000000 0.000000 0.000000 -0.026074 0.000000 0.102703
#
#
# Mechanical properties :
#
#
# Convention : Reuss Voigt Hill
#
# Bulk Modulus (GPa) = 50.46946 65.04105 57.75526
# Shear Modulus (GPa) = 20.55958 30.58487 25.57223
#
# Velocity S-wave (km/s) = 3.23175 3.94171 3.60425
# Velocity P-wave (km/s) = 6.28999 7.33190 6.83084
#
# Compressibility (1/GPa) = 0.01981396
#
# Stress axis : x y z
#
# Youngs Moduli (GPa) = 68.38135 41.69152 125.27820
#
# Poissons Ratio (x) = 0.24068 0.35960
# Poissons Ratio (y) = 0.39475 0.59453
# Poissons Ratio (z) = 0.19628 0.19785
#
# Static dielectric constant tensor:
#      x y z
#    x 3.789230 0.000000 -0.062080 
#    y 0.000000 3.463910 0.000000 
#    z -0.062080 0.000000 3.750430 
# 
# 
# High freq. dielectric constant tensor:
#      x y z
#    x 1.788960 0.000000 -0.002630 
#    y 0.000000 1.754420 0.000000 
#    z -0.002630 0.000000 1.788840 
# 
# From -- ./inp_files/275076.got.cif
#   From: 2010.06.25/outbox.cif.g09.slc.cpg/sg12_138_cif.got.tgz:275076.got - 2010.06.28 00:19:55.
