data_PCOD8099484
_publ_section_title
;
Structure prediction by ZEFSAII (Michael W. Deem and Ramdas Pophale) SiO2 
 PCOD8099484
Probable space group: C 2/M
;
_chemical_formula_sum "Si O2"
_cell_formula_units_Z 56
_cell_length_a 14.838363
_cell_length_b 9.442281
_cell_length_c 24.377697
_cell_angle_alpha 90.000000
_cell_angle_beta 61.917878
_cell_angle_gamma 90.000000
_cell_volume 3013.415140
_symmetry_space_group_name_H-M "C 2/M"
_symmetry_group_IT_number 12
_symmetry_cell_setting 'monoclinic'
loop_
_space_group_symop_operation_xyz
x,y,z
-x,y,-z
-x,-y,-z
x,-y,z
1/2+x,1/2+y,z
1/2-x,1/2+y,-z
1/2-x,1/2-y,-z
1/2+x,1/2-y,z
loop_
_atom_site_type_symbol
_atom_site_label
_atom_site_fract_x
_atom_site_fract_y
_atom_site_fract_z
Si Si1 0.030483 0.336131 0.930636
Si Si2 0.159040 0.164032 0.499265
Si Si3 0.062845 0.839573 0.636989
Si Si4 0.787805 0.334932 0.612563
Si Si5 0.366488 0.834625 0.709340
Si Si6 0.229318 0.834022 0.849471
Si Si7 0.818449 0.662325 0.939425
O O1 0.063097 0.500000 0.923916
O O2 0.122778 0.246545 0.880356
O O3 0.937285 0.309260 0.916066
O O4 0.000000 0.282336 0.000000
O O5 0.250000 0.250000 0.500000
O O6 0.066292 0.174297 0.569381
O O7 0.136487 0.240666 0.447618
O O8 0.188862 0.000000 0.480893
O O9 0.170266 0.794584 0.633815
O O10 0.974936 0.740524 0.685602
O O11 0.037070 0.000000 0.661087
O O12 0.807725 0.500000 0.594000
O O13 0.812284 0.295226 0.667881
O O14 0.292151 0.782206 0.778728
O O15 0.388528 0.000000 0.707832
O O16 0.295356 0.793467 0.883846
O O17 0.205624 0.000000 0.853369
O O18 0.790447 0.500000 0.958487
O O19 0.750000 0.750000 0.000000
#
# Coordination Sequence:
#
# PCOD8099484 Si02
#       7
#     8   8   8   8   8   8   8
#     4  10  20  35  56  82 110 139 172 216 269 321
#     4   9  17  31  53  81 110 140 179 227 275 322
#     4   9  19  35  54  77 106 140 178 222 270 319
#     4   9  19  36  55  76 108 145 181 223 272 324
#     4  10  22  38  54  76 108 145 183 223 267 320
#     4  10  22  38  55  79 110 142 180 223 266 319
#     4  10  20  35  56  81 109 138 171 214 265 318
#
# _framework density 18.583566000000001
#
# number of rings (size 3 to 8) (size 9 to 14) (size 15 to 20)
#    0.000    2.429    1.429    1.286    0.000    6.571 
#    0.000    2.857    0.000    0.000    0.000    0.000 
#    0.000    0.000    0.000    0.000    0.000    0.000 
#
# Total GULP energy -347185.220940 kJ/mol
# GULP energy per Si atom -12399.472176 kJ/mol
# Density = 1.854127 g / cm^3
# Si number density = 18.583566 Si / 1000 Ang^3
#
#
#
# Elastic Constant Matrix: (Units=GPa)
#
#
# Indices 1 2 3 4 5 6 
#
# 1 73.8532 23.7273 27.4730 0.0000 2.1532 0.0000
# 2 23.7273 54.7468 35.5813 0.0000 -5.1130 0.0000
# 3 27.4730 35.5813 96.9767 0.0000 0.0966 0.0000
# 4 0.0000 0.0000 0.0000 32.8409 0.0000 -8.6232
# 5 2.1532 -5.1130 0.0966 0.0000 31.8675 0.0000
# 6 0.0000 0.0000 0.0000 -8.6232 0.0000 27.1101
#
#
#
# Elastic Compliance Matrix: (Units=1/GPa)
#
#
# Indices 1 2 3 4 5 6 
#
# 1 0.016356 -0.005601 -0.002577 0.000000 -0.001996 0.000000
# 2 -0.005601 0.026391 -0.008101 0.000000 0.004637 0.000000
# 3 -0.002577 -0.008101 0.014015 0.000000 -0.001168 0.000000
# 4 0.000000 0.000000 0.000000 0.033225 0.000000 0.010568
# 5 -0.001996 0.004637 -0.001168 0.000000 0.032262 0.000000
# 6 0.000000 0.000000 0.000000 0.010568 0.000000 0.040248
#
#
# Mechanical properties :
#
#
# Convention : Reuss Voigt Hill
#
# Bulk Modulus (GPa) = 41.31198 44.34887 42.83042
# Shear Modulus (GPa) = 24.61548 27.61672 26.11610
#
# Velocity S-wave (km/s) = 3.64343 3.85916 3.75284
# Velocity P-wave (km/s) = 6.32282 6.61618 6.47116
#
# Compressibility (1/GPa) = 0.02420606
#
# Stress axis : x y z
#
# Youngs Moduli (GPa) = 61.13792 37.89107 71.35065
#
# Poissons Ratio (x) = 0.21221 0.18386
# Poissons Ratio (y) = 0.34241 0.57802
# Poissons Ratio (z) = 0.15754 0.30696
#
# Static dielectric constant tensor:
#      x y z
#    x 3.365710 0.000000 0.190590 
#    y 0.000000 3.459470 0.000000 
#    z 0.190590 0.000000 3.626430 
# 
# 
# High freq. dielectric constant tensor:
#      x y z
#    x 1.718840 0.000000 0.007560 
#    y 0.000000 1.719030 0.000000 
#    z 0.007560 0.000000 1.719100 
# 
# From -- ./inp_files/338464.got.cif
#   From: 2010.06.25/outbox.cif.g09.slc.cpg/sg12_170_cif.got.tgz:338464.got - 2010.06.28 00:19:55.
