data_PCOD8099844
_publ_section_title
;
Structure prediction by ZEFSAII (Michael W. Deem and Ramdas Pophale) SiO2 
 PCOD8099844
Probable space group: C 2/M
;
_chemical_formula_sum "Si O2"
_cell_formula_units_Z 48
_cell_length_a 17.712904
_cell_length_b 13.776544
_cell_length_c 17.107995
_cell_angle_alpha 90.000000
_cell_angle_beta 35.356280
_cell_angle_gamma 90.000000
_cell_volume 2415.749453
_symmetry_space_group_name_H-M "C 2/M"
_symmetry_group_IT_number 12
_symmetry_cell_setting 'monoclinic'
loop_
_space_group_symop_operation_xyz
x,y,z
-x,y,-z
-x,-y,-z
x,-y,z
1/2+x,1/2+y,z
1/2-x,1/2+y,-z
1/2-x,1/2-y,-z
1/2+x,1/2-y,z
loop_
_atom_site_type_symbol
_atom_site_label
_atom_site_fract_x
_atom_site_fract_y
_atom_site_fract_z
Si Si1 0.921211 0.609459 0.404270
Si Si2 0.806618 0.390796 0.753688
Si Si3 0.535985 0.222777 0.170299
Si Si4 0.770173 0.795736 0.873009
Si Si5 0.226781 0.213498 0.668586
Si Si6 0.149649 0.111257 0.354058
O O1 0.867912 0.500000 0.445618
O O2 0.805306 0.682630 0.524853
O O3 0.036695 0.618721 0.370839
O O4 0.970827 0.638083 0.276425
O O5 0.761061 0.500000 0.813193
O O6 0.742349 0.314464 0.867351
O O7 0.762717 0.366122 0.703265
O O8 0.617872 0.296653 0.155632
O O9 0.427070 0.286799 0.218438
O O10 0.632418 0.170561 0.026308
O O11 0.817733 0.865459 0.763639
O O12 0.263809 0.322343 0.662857
O O13 0.000000 0.133846 0.500000
O O14 0.184914 0.000000 0.341492
#
# Coordination Sequence:
#
# PCOD8099844 Si02
#       6
#     8   8   8   8   8   8
#     4  10  20  35  57  82 110 145 182 221 269 324
#     4   9  18  34  57  81 106 140 181 222 269 323
#     4  10  21  36  55  78 110 148 182 219 271 322
#     4   9  20  40  57  74 109 151 182 219 270 325
#     4  11  20  34  56  83 110 137 177 232 274 312
#     4  10  21  37  58  82 108 143 182 221 270 325
#
# _framework density 19.869610999999999
#
# number of rings (size 3 to 8) (size 9 to 14) (size 15 to 20)
#    0.000    2.167    0.000    4.500    0.000    5.333 
#    0.000    9.167    0.000    1.000    0.000    0.000 
#    0.000    0.000    0.000    0.000    0.000    0.000 
#
# Total GULP energy -297604.625317 kJ/mol
# GULP energy per Si atom -12400.192722 kJ/mol
# Density = 1.982439 g / cm^3
# Si number density = 19.869611 Si / 1000 Ang^3
#
#
#
# Elastic Constant Matrix: (Units=GPa)
#
#
# Indices 1 2 3 4 5 6 
#
# 1 75.8384 33.6536 57.9411 0.0000 -8.8107 0.0000
# 2 33.6536 91.3964 29.2068 0.0001 -0.7520 -0.0001
# 3 57.9411 29.2068 136.1554 0.0003 7.9635 -0.0002
# 4 0.0000 0.0001 0.0003 16.9686 -0.0002 3.2760
# 5 -8.8107 -0.7520 7.9635 -0.0002 29.6245 0.0001
# 6 0.0000 -0.0001 -0.0002 3.2760 0.0001 17.9296
#
#
#
# Elastic Compliance Matrix: (Units=1/GPa)
#
#
# Indices 1 2 3 4 5 6 
#
# 1 0.024228 -0.005762 -0.009639 0.000000 0.009650 0.000000
# 2 -0.005762 0.013145 -0.000292 0.000000 -0.001301 0.000000
# 3 -0.009639 -0.000292 0.011864 0.000000 -0.006063 0.000000
# 4 0.000000 0.000000 0.000000 0.061087 0.000001 -0.011162
# 5 0.009650 -0.001301 -0.006063 0.000001 0.038223 0.000000
# 6 0.000000 0.000000 0.000000 -0.011162 0.000000 0.057813
#
#
# Mechanical properties :
#
#
# Convention : Reuss Voigt Hill
#
# Bulk Modulus (GPa) = 56.01443 60.55481 58.28462
# Shear Modulus (GPa) = 20.51746 25.07714 22.79730
#
# Velocity S-wave (km/s) = 3.21690 3.55644 3.39092
# Velocity P-wave (km/s) = 6.48461 6.88524 6.68793
#
# Compressibility (1/GPa) = 0.01785254
#
# Stress axis : x y z
#
# Youngs Moduli (GPa) = 41.27484 76.07227 84.29174
#
# Poissons Ratio (x) = 0.43829 0.81246
# Poissons Ratio (y) = 0.23781 0.02460
# Poissons Ratio (z) = 0.39784 0.02220
#
# Static dielectric constant tensor:
#      x y z
#    x 3.583810 0.000000 0.088890 
#    y 0.000000 3.466150 0.000000 
#    z 0.088890 0.000000 3.628240 
# 
# 
# High freq. dielectric constant tensor:
#      x y z
#    x 1.772810 0.000000 0.009100 
#    y 0.000000 1.759500 0.000000 
#    z 0.009100 0.000000 1.773010 
# 
# From -- ./inp_files/105055.got.cif
#   From: 2010.06.25/outbox.cif.g09.slc.cpg/sg12_53_cif.got.tgz:105055.got - 2010.06.28 00:19:55.
