data_PCOD8099070
_publ_section_title
;
Structure prediction by ZEFSAII (Michael W. Deem and Ramdas Pophale) SiO2 
 PCOD8099070
Probable space group: C 2/M
;
_chemical_formula_sum "Si O2"
_cell_formula_units_Z 40
_cell_length_a 9.999077
_cell_length_b 10.297022
_cell_length_c 21.028821
_cell_angle_alpha 90.000000
_cell_angle_beta 65.658892
_cell_angle_gamma 90.000000
_cell_volume 1972.678171
_symmetry_space_group_name_H-M "C 2/M"
_symmetry_group_IT_number 12
_symmetry_cell_setting 'monoclinic'
loop_
_space_group_symop_operation_xyz
x,y,z
-x,y,-z
-x,-y,-z
x,-y,z
1/2+x,1/2+y,z
1/2-x,1/2+y,-z
1/2-x,1/2-y,-z
1/2+x,1/2-y,z
loop_
_atom_site_type_symbol
_atom_site_label
_atom_site_fract_x
_atom_site_fract_y
_atom_site_fract_z
Si Si1 0.609020 0.139602 0.055894
Si Si2 0.171399 0.648923 0.469126
Si Si3 0.695917 0.212775 0.904568
Si Si4 0.161923 0.855203 0.249416
Si Si5 0.823355 0.149312 0.305275
O O1 0.472806 0.241470 0.082219
O O2 0.714179 0.156225 0.096556
O O3 0.531750 0.000000 0.078054
O O4 0.700807 0.139269 0.972049
O O5 0.197392 0.500000 0.487344
O O6 0.250000 0.750000 0.500000
O O7 0.234807 0.669703 0.386998
O O8 0.000000 0.681998 0.500000
O O9 0.783025 0.135233 0.833793
O O10 0.257473 0.747415 0.266560
O O11 0.992150 0.813547 0.284547
O O12 0.180311 0.000000 0.276058
O O13 0.809402 0.000000 0.283825
#
# Coordination Sequence:
#
# PCOD8099070 Si02
#       5
#     8   8   8   8   8
#     4  10  20  36  54  75 105 137 179 229 273 319
#     4  10  21  38  60  85 113 145 182 224 269 318
#     4  10  20  35  55  78 104 140 181 224 272 322
#     4  11  22  37  57  81 112 148 184 223 274 328
#     4  10  23  39  56  84 116 144 181 226 268 323
#
# _framework density 20.277002
#
# number of rings (size 3 to 8) (size 9 to 14) (size 15 to 20)
#    0.000    1.800    0.000    4.800    0.000    2.800 
#    0.000   10.000    0.000    0.000    0.000    0.000 
#    0.000    0.000    0.000    0.000    0.000    0.000 
#
# Total GULP energy -247833.296272 kJ/mol
# GULP energy per Si atom -12391.664814 kJ/mol
# Density = 2.023085 g / cm^3
# Si number density = 20.277002 Si / 1000 Ang^3
#
#
#
# Elastic Constant Matrix: (Units=GPa)
#
#
# Indices 1 2 3 4 5 6 
#
# 1 116.7143 59.0952 39.4848 0.0000 1.1420 0.0000
# 2 59.0952 107.5319 32.0881 0.0000 22.5594 0.0000
# 3 39.4848 32.0881 79.4221 0.0000 -10.8879 0.0000
# 4 0.0000 0.0000 0.0000 15.0991 0.0000 2.0341
# 5 1.1420 22.5594 -10.8879 0.0000 36.7507 0.0000
# 6 0.0000 0.0000 0.0000 2.0341 0.0000 33.4523
#
#
#
# Elastic Compliance Matrix: (Units=1/GPa)
#
#
# Indices 1 2 3 4 5 6 
#
# 1 0.013122 -0.006766 -0.003416 0.000000 0.002733 0.000000
# 2 -0.006766 0.017010 -0.005119 0.000000 -0.011748 0.000000
# 3 -0.003416 -0.005119 0.017514 0.000000 0.008437 0.000000
# 4 0.000000 0.000000 0.000000 0.066776 0.000000 -0.004060
# 5 0.002733 -0.011748 0.008437 0.000000 0.036837 0.000000
# 6 0.000000 0.000000 0.000000 -0.004060 0.000000 0.030140
#
#
# Mechanical properties :
#
#
# Convention : Reuss Voigt Hill
#
# Bulk Modulus (GPa) = 58.66786 62.77826 60.72306
# Shear Modulus (GPa) = 22.96926 28.59377 25.78151
#
# Velocity S-wave (km/s) = 3.36932 3.75928 3.56963
# Velocity P-wave (km/s) = 6.64323 7.06190 6.85576
#
# Compressibility (1/GPa) = 0.01704511
#
# Stress axis : x y z
#
# Youngs Moduli (GPa) = 76.20602 58.78884 57.09727
#
# Poissons Ratio (x) = 0.39775 0.19502
# Poissons Ratio (y) = 0.51559 0.29230
# Poissons Ratio (z) = 0.26029 0.30096
#
# Static dielectric constant tensor:
#      x y z
#    x 3.745720 0.000000 -0.180510 
#    y 0.000000 3.760780 0.000000 
#    z -0.180510 0.000000 3.647370 
# 
# 
# High freq. dielectric constant tensor:
#      x y z
#    x 1.803910 0.000000 -0.017250 
#    y 0.000000 1.781910 0.000000 
#    z -0.017250 0.000000 1.790340 
# 
# From -- ./inp_files/254610.got.cif
#   From: 2010.06.25/outbox.cif.g09.slc.cpg/sg12_128_cif.got.tgz:254610.got - 2010.06.28 00:19:55.
