data_PCOD8099019
_publ_section_title
;
Structure prediction by ZEFSAII (Michael W. Deem and Ramdas Pophale) SiO2 
 PCOD8099019
Probable space group: C 2/M
;
_chemical_formula_sum "Si O2"
_cell_formula_units_Z 48
_cell_length_a 20.777606
_cell_length_b 20.324048
_cell_length_c 9.350286
_cell_angle_alpha 90.000000
_cell_angle_beta 141.081259
_cell_angle_gamma 90.000000
_cell_volume 2480.508388
_symmetry_space_group_name_H-M "C 2/M"
_symmetry_group_IT_number 12
_symmetry_cell_setting 'monoclinic'
loop_
_space_group_symop_operation_xyz
x,y,z
-x,y,-z
-x,-y,-z
x,-y,z
1/2+x,1/2+y,z
1/2-x,1/2+y,-z
1/2-x,1/2-y,-z
1/2+x,1/2-y,z
loop_
_atom_site_type_symbol
_atom_site_label
_atom_site_fract_x
_atom_site_fract_y
_atom_site_fract_z
Si Si1 0.770763 0.670450 0.189426
Si Si2 0.400934 0.922577 0.581913
Si Si3 0.145365 0.222486 0.449496
Si Si4 0.536786 0.309808 0.713474
Si Si5 0.916376 0.663922 0.176753
Si Si6 0.849389 0.663787 0.737813
O O1 0.798953 0.607691 0.334286
O O2 0.804227 0.738764 0.325078
O O3 0.822341 0.659523 0.124063
O O4 0.648641 0.668193 0.955511
O O5 0.499513 0.894150 0.666346
O O6 0.392929 0.901844 0.735713
O O7 0.402355 0.000000 0.570343
O O8 0.098369 0.275176 0.255844
O O9 0.227532 0.176076 0.511745
O O10 0.053825 0.172183 0.332260
O O11 0.500000 0.340909 0.500000
O O12 0.524722 0.230763 0.686918
O O13 0.873324 0.661015 0.943976
#
# Coordination Sequence:
#
# PCOD8099019 Si02
#       6
#     8   8   8   8   8   8
#     4  11  22  37  59  86 121 158 194 241 295 355
#     4  11  25  43  59  83 120 163 205 245 288 345
#     4  10  20  35  54  86 122 159 189 235 297 355
#     4  12  20  33  58  89 125 153 187 243 303 359
#     4  12  20  34  58  90 122 155 186 239 300 361
#     4  10  21  35  55  85 122 155 194 239 290 352
#
# _framework density 19.350871999999999
#
# number of rings (size 3 to 8) (size 9 to 14) (size 15 to 20)
#    0.000    1.000    6.667    2.500    0.000    2.667 
#    0.000    0.000    0.000    2.500    0.000    0.000 
#    0.000    0.000    0.000    0.000    0.000    0.000 
#
# Total GULP energy -297397.621834 kJ/mol
# GULP energy per Si atom -12391.567576 kJ/mol
# Density = 1.930683 g / cm^3
# Si number density = 19.350872 Si / 1000 Ang^3
#
#
#
# Elastic Constant Matrix: (Units=GPa)
#
#
# Indices 1 2 3 4 5 6 
#
# 1 129.4163 24.5155 29.7658 0.0000 8.4344 0.0000
# 2 24.5155 69.5007 13.6024 0.0000 12.7567 0.0000
# 3 29.7658 13.6024 85.8948 0.0000 3.2175 0.0000
# 4 0.0000 0.0000 0.0000 11.2090 0.0000 3.7807
# 5 8.4344 12.7567 3.2175 0.0000 40.7096 0.0000
# 6 0.0000 0.0000 0.0000 3.7807 0.0000 19.5462
#
#
#
# Elastic Compliance Matrix: (Units=1/GPa)
#
#
# Indices 1 2 3 4 5 6 
#
# 1 0.008856 -0.002448 -0.002649 0.000000 -0.000858 0.000000
# 2 -0.002448 0.016387 -0.001578 0.000000 -0.004503 0.000000
# 3 -0.002649 -0.001578 0.012809 0.000000 0.000031 0.000000
# 4 0.000000 0.000000 0.000000 0.095440 0.000000 -0.018460
# 5 -0.000858 -0.004503 0.000031 0.000000 0.026151 0.000000
# 6 0.000000 0.000000 0.000000 -0.018460 0.000000 0.054731
#
#
# Mechanical properties :
#
#
# Convention : Reuss Voigt Hill
#
# Bulk Modulus (GPa) = 40.48270 46.73101 43.60686
# Shear Modulus (GPa) = 21.19014 28.75484 24.97249
#
# Velocity S-wave (km/s) = 3.31274 3.85901 3.59626
# Velocity P-wave (km/s) = 5.96641 6.63760 6.31093
#
# Compressibility (1/GPa) = 0.02470191
#
# Stress axis : x y z
#
# Youngs Moduli (GPa) = 112.91859 61.02330 78.07053
#
# Poissons Ratio (x) = 0.14937 0.20682
# Poissons Ratio (y) = 0.27640 0.12321
# Poissons Ratio (z) = 0.29914 0.09630
#
# Static dielectric constant tensor:
#      x y z
#    x 4.220410 0.000000 -0.000620 
#    y 0.000000 3.008590 0.000000 
#    z -0.000620 0.000000 3.617810 
# 
# 
# High freq. dielectric constant tensor:
#      x y z
#    x 1.786460 0.000000 -0.003380 
#    y 0.000000 1.672890 0.000000 
#    z -0.003380 0.000000 1.763620 
# 
# From -- ./inp_files/89716.got.cif
#   From: 2010.06.25/outbox.cif.g09.slc.cpg/sg12_45_cif.got.tgz:89716.got - 2010.06.28 00:19:55.
