data_PCOD8099539
_publ_section_title
;
Structure prediction by ZEFSAII (Michael W. Deem and Ramdas Pophale) SiO2 
 PCOD8099539
Probable space group: C 2/M
;
_chemical_formula_sum "Si O2"
_cell_formula_units_Z 48
_cell_length_a 17.134434
_cell_length_b 23.885303
_cell_length_c 8.856886
_cell_angle_alpha 90.000000
_cell_angle_beta 136.335305
_cell_angle_gamma 90.000000
_cell_volume 2502.681027
_symmetry_space_group_name_H-M "C 2/M"
_symmetry_group_IT_number 12
_symmetry_cell_setting 'monoclinic'
loop_
_space_group_symop_operation_xyz
x,y,z
-x,y,-z
-x,-y,-z
x,-y,z
1/2+x,1/2+y,z
1/2-x,1/2+y,-z
1/2-x,1/2-y,-z
1/2+x,1/2-y,z
loop_
_atom_site_type_symbol
_atom_site_label
_atom_site_fract_x
_atom_site_fract_y
_atom_site_fract_z
Si Si1 0.575984 0.835897 0.460481
Si Si2 0.163120 0.841185 0.136406
Si Si3 0.423748 0.935989 0.751849
Si Si4 0.834446 0.063465 0.624111
Si Si5 0.018292 0.861909 0.351314
Si Si6 0.620523 0.736050 0.329165
O O1 0.500000 0.823788 0.500000
O O2 0.704350 0.829438 0.698577
O O3 0.548739 0.897013 0.354128
O O4 0.552377 0.791108 0.290980
O O5 0.143856 0.898241 0.200870
O O6 0.095801 0.790061 0.127203
O O7 0.104135 0.849593 0.893322
O O8 0.293083 0.928492 0.616612
O O9 0.450174 0.000000 0.740985
O O10 0.500000 0.917749 0.000000
O O11 0.923873 0.080191 0.620195
O O12 0.856489 0.000000 0.704516
O O13 0.104161 0.811935 0.431601
O O14 0.000000 0.866168 0.500000
O O15 0.750000 0.750000 0.500000
#
# Coordination Sequence:
#
# PCOD8099539 Si02
#       6
#     8   8   8   8   8   8
#     4  10  20  35  56  82 106 133 176 219 261 310
#     4   9  20  37  54  75 107 142 173 213 261 310
#     4   9  19  35  54  78 108 141 176 214 256 306
#     4   9  18  35  57  76 100 142 185 211 248 316
#     4  11  22  35  52  79 113 137 165 220 275 303
#     4   9  18  36  55  73 100 137 177 209 248 310
#
# _framework density 19.179431999999998
#
# number of rings (size 3 to 8) (size 9 to 14) (size 15 to 20)
#    0.000    2.500    0.000    3.500    0.000    4.667 
#    0.000    9.167    0.000    0.000    0.000    0.000 
#    0.000    0.000    0.000    0.000    0.000    0.000 
#
# Total GULP energy -297446.159937 kJ/mol
# GULP energy per Si atom -12393.589997 kJ/mol
# Density = 1.913578 g / cm^3
# Si number density = 19.179432 Si / 1000 Ang^3
#
#
#
# Elastic Constant Matrix: (Units=GPa)
#
#
# Indices 1 2 3 4 5 6 
#
# 1 122.1546 42.9673 50.6730 0.0000 -12.5652 0.0000
# 2 42.9673 102.1433 41.7112 0.0000 -3.3330 0.0000
# 3 50.6730 41.7112 117.1870 0.0000 -7.7118 0.0000
# 4 0.0000 0.0000 0.0000 16.6025 0.0000 5.9062
# 5 -12.5652 -3.3330 -7.7118 0.0000 27.4011 0.0000
# 6 0.0000 0.0000 0.0000 5.9062 0.0000 26.6514
#
#
#
# Elastic Compliance Matrix: (Units=1/GPa)
#
#
# Indices 1 2 3 4 5 6 
#
# 1 0.011103 -0.003146 -0.003435 0.000000 0.003742 0.000000
# 2 -0.003146 0.012348 -0.003088 0.000000 -0.000810 0.000000
# 3 -0.003435 -0.003088 0.011197 0.000000 0.001200 0.000000
# 4 0.000000 0.000000 0.000000 0.065387 0.000000 -0.014490
# 5 0.003742 -0.000810 0.001200 0.000000 0.038450 0.000000
# 6 0.000000 0.000000 0.000000 -0.014490 0.000000 0.040733
#
#
# Mechanical properties :
#
#
# Convention : Reuss Voigt Hill
#
# Bulk Modulus (GPa) = 65.31698 68.02087 66.66893
# Shear Modulus (GPa) = 24.55095 27.87323 26.21209
#
# Velocity S-wave (km/s) = 3.58168 3.81634 3.70087
# Velocity P-wave (km/s) = 7.15781 7.41362 7.28684
#
# Compressibility (1/GPa) = 0.01530995
#
# Stress axis : x y z
#
# Youngs Moduli (GPa) = 90.06865 80.98440 89.31021
#
# Poissons Ratio (x) = 0.25474 0.30678
# Poissons Ratio (y) = 0.28332 0.27581
# Poissons Ratio (z) = 0.30939 0.25010
#
# Static dielectric constant tensor:
#      x y z
#    x 3.445030 0.000000 0.154450 
#    y 0.000000 4.012920 0.000000 
#    z 0.154450 0.000000 3.534990 
# 
# 
# High freq. dielectric constant tensor:
#      x y z
#    x 1.735970 0.000000 0.017480 
#    y 0.000000 1.755910 0.000000 
#    z 0.017480 0.000000 1.737060 
# 
# From -- ./inp_files/78899.got.cif
#   From: 2010.06.25/outbox.cif.g09.slc.cpg/sg12_40_cif.got.tgz:78899.got - 2010.06.28 00:19:55.
