data_PCOD8099686
_publ_section_title
;
Structure prediction by ZEFSAII (Michael W. Deem and Ramdas Pophale) SiO2 
 PCOD8099686
Probable space group: C 2/M
;
_chemical_formula_sum "Si O2"
_cell_formula_units_Z 56
_cell_length_a 21.747066
_cell_length_b 9.720319
_cell_length_c 13.592764
_cell_angle_alpha 90.000000
_cell_angle_beta 92.461123
_cell_angle_gamma 90.000000
_cell_volume 2870.702476
_symmetry_space_group_name_H-M "C 2/M"
_symmetry_group_IT_number 12
_symmetry_cell_setting 'monoclinic'
loop_
_space_group_symop_operation_xyz
x,y,z
-x,y,-z
-x,-y,-z
x,-y,z
1/2+x,1/2+y,z
1/2-x,1/2+y,-z
1/2-x,1/2-y,-z
1/2+x,1/2-y,z
loop_
_atom_site_type_symbol
_atom_site_label
_atom_site_fract_x
_atom_site_fract_y
_atom_site_fract_z
Si Si1 0.438196 0.838644 0.546921
Si Si2 0.459662 0.342992 0.094094
Si Si3 0.459625 0.156831 0.772304
Si Si4 0.765352 0.345244 0.243015
Si Si5 0.345469 0.156776 0.059585
Si Si6 0.328510 0.152138 0.841517
Si Si7 0.806144 0.661219 0.459910
O O1 0.500000 0.775258 0.500000
O O2 0.440410 0.801075 0.661396
O O3 0.372914 0.781686 0.500167
O O4 0.437957 0.000000 0.526688
O O5 0.448842 0.500000 0.126868
O O6 0.488395 0.260327 0.187317
O O7 0.396588 0.272114 0.062411
O O8 0.500000 0.336100 0.000000
O O9 0.401574 0.173704 0.839866
O O10 0.484967 0.000000 0.776650
O O11 0.740997 0.500000 0.239020
O O12 0.803032 0.308931 0.148574
O O13 0.704718 0.252195 0.237265
O O14 0.806133 0.318162 0.342140
O O15 0.371681 0.000000 0.068784
O O16 0.308799 0.173861 0.953995
O O17 0.310810 0.000000 0.804167
O O18 0.796965 0.500000 0.487569
O O19 0.750000 0.750000 0.500000
#
# Coordination Sequence:
#
# PCOD8099686 Si02
#       7
#     8   8   8   8   8   8   8
#     4   9  19  35  59  88 114 147 194 246 290 335
#     4  11  23  37  55  83 116 151 186 228 283 341
#     4  10  20  35  59  84 110 149 193 234 276 333
#     4  10  22  36  57  86 114 148 187 233 286 339
#     4  10  21  37  57  83 114 148 190 233 278 335
#     4  10  20  35  56  84 115 150 190 230 275 337
#     4  10  21  39  61  87 116 150 197 243 292 346
#
# _framework density 19.507418999999999
#
# number of rings (size 3 to 8) (size 9 to 14) (size 15 to 20)
#    0.000    2.000    1.429    1.714    2.000    4.000 
#    0.000    0.714    0.000    0.857    0.000    0.000 
#    0.000    0.000    0.000    0.000    0.000    0.000 
#
# Total GULP energy -347140.596441 kJ/mol
# GULP energy per Si atom -12397.878444 kJ/mol
# Density = 1.946302 g / cm^3
# Si number density = 19.507419 Si / 1000 Ang^3
#
#
#
# Elastic Constant Matrix: (Units=GPa)
#
#
# Indices 1 2 3 4 5 6 
#
# 1 90.9243 48.1035 27.9781 0.0000 12.3374 0.0000
# 2 48.1035 93.7821 28.9386 0.0000 13.7479 0.0000
# 3 27.9781 28.9386 89.0414 0.0000 3.6538 0.0000
# 4 0.0000 0.0000 0.0000 26.8345 0.0000 12.8518
# 5 12.3374 13.7479 3.6538 0.0000 32.2270 0.0000
# 6 0.0000 0.0000 0.0000 12.8518 0.0000 90.7407
#
#
#
# Elastic Compliance Matrix: (Units=1/GPa)
#
#
# Indices 1 2 3 4 5 6 
#
# 1 0.015838 -0.006903 -0.002617 0.000000 -0.002822 0.000000
# 2 -0.006903 0.015593 -0.002747 0.000000 -0.003698 0.000000
# 3 -0.002617 -0.002747 0.012917 0.000000 0.000710 0.000000
# 4 0.000000 0.000000 0.000000 0.039977 0.000000 -0.005662
# 5 -0.002822 -0.003698 0.000710 0.000000 0.033607 0.000000
# 6 0.000000 0.000000 0.000000 -0.005662 0.000000 0.011822
#
#
# Mechanical properties :
#
#
# Convention : Reuss Voigt Hill
#
# Bulk Modulus (GPa) = 50.46920 53.75422 52.11171
# Shear Modulus (GPa) = 31.07623 41.20894 36.14259
#
# Velocity S-wave (km/s) = 3.99563 4.60115 4.30904
# Velocity P-wave (km/s) = 6.87130 7.47282 7.17836
#
# Compressibility (1/GPa) = 0.01981406
#
# Stress axis : x y z
#
# Youngs Moduli (GPa) = 63.13817 64.12984 77.41783
#
# Poissons Ratio (x) = 0.44266 0.20264
# Poissons Ratio (y) = 0.43581 0.21269
# Poissons Ratio (z) = 0.16526 0.17618
#
# Static dielectric constant tensor:
#      x y z
#    x -6.023040 0.000000 6.177620 
#    y 0.000000 3.486790 0.000000 
#    z 6.177620 0.000000 -0.381700 
# 
# 
# High freq. dielectric constant tensor:
#      x y z
#    x 1.752640 0.000000 0.003350 
#    y 0.000000 1.741240 0.000000 
#    z 0.003350 0.000000 1.771700 
# 
# From -- ./inp_files/230961.got.cif
#   From: 2010.06.25/outbox.cif.g09.slc.cpg/sg12_116_cif.got.tgz:230961.got - 2010.06.28 00:19:55.
