data_PCOD8099144
_publ_section_title
;
Structure prediction by ZEFSAII (Michael W. Deem and Ramdas Pophale) SiO2 
 PCOD8099144
Probable space group: C 2/M
;
_chemical_formula_sum "Si O2"
_cell_formula_units_Z 56
_cell_length_a 16.196211
_cell_length_b 8.895270
_cell_length_c 22.956496
_cell_angle_alpha 90.000000
_cell_angle_beta 58.717590
_cell_angle_gamma 90.000000
_cell_volume 2826.508791
_symmetry_space_group_name_H-M "C 2/M"
_symmetry_group_IT_number 12
_symmetry_cell_setting 'monoclinic'
loop_
_space_group_symop_operation_xyz
x,y,z
-x,y,-z
-x,-y,-z
x,-y,z
1/2+x,1/2+y,z
1/2-x,1/2+y,-z
1/2-x,1/2-y,-z
1/2+x,1/2-y,z
loop_
_atom_site_type_symbol
_atom_site_label
_atom_site_fract_x
_atom_site_fract_y
_atom_site_fract_z
Si Si1 0.059758 0.322806 0.421184
Si Si2 0.278747 0.678135 0.345200
Si Si3 0.335725 0.174449 0.934315
Si Si4 0.620328 0.821556 0.210979
Si Si5 0.464249 0.678088 0.342843
Si Si6 0.007911 0.828660 0.928444
Si Si7 0.307480 0.677449 0.207412
O O1 0.062183 0.500000 0.408551
O O2 0.168861 0.259477 0.391629
O O3 0.000000 0.279524 0.500000
O O4 0.004552 0.250703 0.386863
O O5 0.272419 0.500000 0.346299
O O6 0.351910 0.726644 0.370657
O O7 0.323064 0.737099 0.267502
O O8 0.345780 0.233700 0.864843
O O9 0.433670 0.209988 0.931003
O O10 0.313276 0.000000 0.942097
O O11 0.250000 0.250000 0.000000
O O12 0.523858 0.735248 0.265130
O O13 0.702998 0.766728 0.224947
O O14 0.601616 0.000000 0.219508
O O15 0.472943 0.500000 0.344873
O O16 0.110433 0.767400 0.867337
O O17 0.987751 0.000000 0.914493
O O18 0.000000 0.821771 0.000000
O O19 0.307067 0.500000 0.205879
#
# Coordination Sequence:
#
# PCOD8099144 Si02
#       7
#     8   8   8   8   8   8   8
#     4  10  21  40  64  86 115 160 205 241 286 358
#     4   9  18  34  57  84 115 153 195 236 291 356
#     4  11  23  37  55  81 114 151 194 248 300 350
#     4  10  20  37  60  83 112 154 199 240 286 350
#     4  11  22  36  59  91 122 152 191 247 304 350
#     4  10  20  35  55  79 108 148 196 238 292 366
#     4   9  16  31  57  79 104 147 192 237 284 344
#
# _framework density 19.812427
#
# number of rings (size 3 to 8) (size 9 to 14) (size 15 to 20)
#    0.000    2.000    1.429    2.571    0.000    5.714 
#    0.000    2.143    0.000    0.000    0.000    0.000 
#    0.000    0.000    0.000    0.000    0.000    0.000 
#
# Total GULP energy -347069.981499 kJ/mol
# GULP energy per Si atom -12395.356482 kJ/mol
# Density = 1.976733 g / cm^3
# Si number density = 19.812427 Si / 1000 Ang^3
#
#
#
# Elastic Constant Matrix: (Units=GPa)
#
#
# Indices 1 2 3 4 5 6 
#
# 1 159.4687 29.0563 73.8456 0.0000 -5.9898 0.0001
# 2 29.0563 33.6532 35.7893 0.0000 4.0086 0.0002
# 3 73.8456 35.7893 145.6885 0.0000 -6.6745 0.0000
# 4 0.0000 0.0000 0.0000 24.9938 0.0000 3.9855
# 5 -5.9898 4.0086 -6.6745 0.0000 32.5487 0.0000
# 6 0.0001 0.0002 0.0000 3.9855 0.0000 32.7155
#
#
#
# Elastic Compliance Matrix: (Units=1/GPa)
#
#
# Indices 1 2 3 4 5 6 
#
# 1 0.008590 -0.004092 -0.003284 0.000000 0.001411 0.000000
# 2 -0.004092 0.043840 -0.009062 0.000000 -0.008011 0.000000
# 3 -0.003284 -0.009062 0.010881 0.000000 0.002743 0.000000
# 4 0.000000 0.000000 0.000000 0.040802 0.000000 -0.004971
# 5 0.001411 -0.008011 0.002743 0.000000 0.032532 0.000000
# 6 0.000000 0.000000 0.000000 -0.004971 0.000000 0.031172
#
#
# Mechanical properties :
#
#
# Convention : Reuss Voigt Hill
#
# Bulk Modulus (GPa) = 32.85899 68.46588 50.66244
# Shear Modulus (GPa) = 23.71474 31.39287 27.55381
#
# Velocity S-wave (km/s) = 3.46347 3.98490 3.73330
# Velocity P-wave (km/s) = 5.71097 7.47025 6.64905
#
# Compressibility (1/GPa) = 0.03043307
#
# Stress axis : x y z
#
# Youngs Moduli (GPa) = 116.40990 22.81029 91.90746
#
# Poissons Ratio (x) = 0.09335 0.30185
# Poissons Ratio (y) = 0.47639 0.83289
# Poissons Ratio (z) = 0.38232 0.20671
#
# Static dielectric constant tensor:
#      x y z
#    x 3.913860 0.000000 -0.042970 
#    y 0.000000 3.313930 0.000000 
#    z -0.042970 0.000000 3.769070 
# 
# 
# High freq. dielectric constant tensor:
#      x y z
#    x 1.786670 0.000000 -0.002800 
#    y 0.000000 1.734480 0.000000 
#    z -0.002800 0.000000 1.782710 
# 
# From -- ./inp_files/313787.got.cif
#   From: 2010.06.25/outbox.cif.g09.slc.cpg/sg12_157_cif.got.tgz:313787.got - 2010.06.28 00:19:55.
