data_PCOD8099300
_publ_section_title
;
Structure prediction by ZEFSAII (Michael W. Deem and Ramdas Pophale) SiO2 
 PCOD8099300
Probable space group: C 2/M
;
_chemical_formula_sum "Si O2"
_cell_formula_units_Z 56
_cell_length_a 22.336214
_cell_length_b 9.153876
_cell_length_c 14.752335
_cell_angle_alpha 90.000000
_cell_angle_beta 69.044545
_cell_angle_gamma 90.000000
_cell_volume 2816.803488
_symmetry_space_group_name_H-M "C 2/M"
_symmetry_group_IT_number 12
_symmetry_cell_setting 'monoclinic'
loop_
_space_group_symop_operation_xyz
x,y,z
-x,y,-z
-x,-y,-z
x,-y,z
1/2+x,1/2+y,z
1/2-x,1/2+y,-z
1/2-x,1/2-y,-z
1/2+x,1/2-y,z
loop_
_atom_site_type_symbol
_atom_site_label
_atom_site_fract_x
_atom_site_fract_y
_atom_site_fract_z
Si Si1 0.194962 0.329617 0.583729
Si Si2 0.955196 0.327216 0.939798
Si Si3 0.915203 0.164520 0.443439
Si Si4 0.304920 0.174388 0.032460
Si Si5 0.738909 0.828021 0.750008
Si Si6 0.379829 0.327180 0.657759
Si Si7 0.970324 0.834731 0.754862
O O1 0.206471 0.500000 0.565295
O O2 0.250000 0.250000 0.500000
O O3 0.127119 0.282974 0.583829
O O4 0.194156 0.284635 0.690115
O O5 0.958514 0.500000 0.935254
O O6 0.988451 0.263873 0.831119
O O7 0.879836 0.276787 0.978491
O O8 0.000000 0.272220 0.000000
O O9 0.920622 0.214705 0.545700
O O10 0.981356 0.167750 0.355520
O O11 0.885358 0.000000 0.456020
O O12 0.290420 0.232371 0.141395
O O13 0.298355 0.000000 0.024513
O O14 0.250000 0.250000 0.000000
O O15 0.808694 0.760523 0.690110
O O16 0.745569 0.000000 0.755987
O O17 0.379456 0.500000 0.667230
O O18 0.408073 0.267853 0.737834
O O19 0.961400 0.000000 0.795679
#
# Coordination Sequence:
#
# PCOD8099300 Si02
#       7
#     8   8   8   8   8   8   8
#     4  11  21  35  56  82 113 152 190 231 278 335
#     4  10  23  41  60  83 118 158 196 242 296 354
#     4  10  20  35  55  84 117 148 187 230 277 338
#     4  10  21  39  62  88 114 148 196 245 294 347
#     4   9  18  32  56  82 107 144 188 226 275 341
#     4   9  16  32  56  83 113 145 181 226 279 338
#     4  10  21  36  60  86 111 147 192 238 280 332
#
# _framework density 19.880690999999999
#
# number of rings (size 3 to 8) (size 9 to 14) (size 15 to 20)
#    0.000    2.143    1.429    1.714    2.000    4.286 
#    0.000    2.143    0.000    1.714    0.000    0.000 
#    0.000    0.000    0.000    0.000    0.000    0.000 
#
# Total GULP energy -346883.151424 kJ/mol
# GULP energy per Si atom -12388.683979 kJ/mol
# Density = 1.983544 g / cm^3
# Si number density = 19.880691 Si / 1000 Ang^3
#
#
#
# Elastic Constant Matrix: (Units=GPa)
#
#
# Indices 1 2 3 4 5 6 
#
# 1 102.3875 25.6782 38.2453 0.0000 22.8638 0.0000
# 2 25.6782 34.1817 26.3310 0.0000 9.7665 0.0000
# 3 38.2453 26.3310 134.0727 0.0000 21.6498 0.0000
# 4 0.0000 0.0000 0.0000 26.0675 0.0000 2.6547
# 5 22.8638 9.7665 21.6498 0.0000 38.7775 0.0000
# 6 0.0000 0.0000 0.0000 2.6547 0.0000 28.6929
#
#
#
# Elastic Compliance Matrix: (Units=1/GPa)
#
#
# Indices 1 2 3 4 5 6 
#
# 1 0.013336 -0.007371 -0.001524 0.000000 -0.005156 0.000000
# 2 -0.007371 0.039600 -0.005238 0.000000 -0.002703 0.000000
# 3 -0.001524 -0.005238 0.009413 0.000000 -0.003037 0.000000
# 4 0.000000 0.000000 0.000000 0.038727 0.000000 -0.003583
# 5 -0.005156 -0.002703 -0.003037 0.000000 0.031205 0.000000
# 6 0.000000 0.000000 0.000000 -0.003583 0.000000 0.035183
#
#
# Mechanical properties :
#
#
# Convention : Reuss Voigt Hill
#
# Bulk Modulus (GPa) = 29.34090 50.12789 39.73440
# Shear Modulus (GPa) = 24.14396 30.73338 27.43867
#
# Velocity S-wave (km/s) = 3.48867 3.93605 3.71909
# Velocity P-wave (km/s) = 5.56940 6.77685 6.20258
#
# Compressibility (1/GPa) = 0.03408211
#
# Stress axis : x y z
#
# Youngs Moduli (GPa) = 74.98442 25.25239 106.24117
#
# Poissons Ratio (x) = 0.18614 0.16191
# Poissons Ratio (y) = 0.55274 0.55649
# Poissons Ratio (z) = 0.11428 0.13227
#
# Static dielectric constant tensor:
#      x y z
#    x 2.529070 0.000000 0.029680 
#    y 0.000000 3.019980 0.000000 
#    z 0.029680 0.000000 3.845900 
# 
# 
# High freq. dielectric constant tensor:
#      x y z
#    x 1.784050 0.000000 0.007610 
#    y 0.000000 1.732040 0.000000 
#    z 0.007610 0.000000 1.791050 
# 
# From -- ./inp_files/237496.got.cif
#   From: 2010.06.25/outbox.cif.g09.slc.cpg/sg12_119_cif.got.tgz:237496.got - 2010.06.28 00:19:55.
