data_PCOD8099238
_publ_section_title
;
Structure prediction by ZEFSAII (Michael W. Deem and Ramdas Pophale) SiO2 
 PCOD8099238
Probable space group: C 2/M
;
_chemical_formula_sum "Si O2"
_cell_formula_units_Z 56
_cell_length_a 8.164590
_cell_length_b 28.720925
_cell_length_c 13.879172
_cell_angle_alpha 90.000000
_cell_angle_beta 69.155316
_cell_angle_gamma 90.000000
_cell_volume 3041.572572
_symmetry_space_group_name_H-M "C 2/M"
_symmetry_group_IT_number 12
_symmetry_cell_setting 'monoclinic'
loop_
_space_group_symop_operation_xyz
x,y,z
-x,y,-z
-x,-y,-z
x,-y,z
1/2+x,1/2+y,z
1/2-x,1/2+y,-z
1/2-x,1/2-y,-z
1/2+x,1/2-y,z
loop_
_atom_site_type_symbol
_atom_site_label
_atom_site_fract_x
_atom_site_fract_y
_atom_site_fract_z
Si Si1 0.650222 0.278276 0.893176
Si Si2 0.669440 0.711139 0.396649
Si Si3 0.098884 0.373548 0.689483
Si Si4 0.835229 0.379487 0.589956
Si Si5 0.894773 0.798869 0.312199
Si Si6 0.485911 0.819404 0.107770
Si Si7 0.793415 0.946891 0.539693
O O1 0.614612 0.303808 0.800068
O O2 0.653679 0.222644 0.873808
O O3 0.836432 0.294390 0.894797
O O4 0.500000 0.292791 0.000000
O O5 0.500000 0.708383 0.500000
O O6 0.804189 0.668914 0.386901
O O7 0.774164 0.758919 0.384870
O O8 0.595370 0.708965 0.302339
O O9 0.076041 0.359489 0.805911
O O10 0.217831 0.419292 0.648627
O O11 0.907497 0.385463 0.684329
O O12 0.667532 0.346580 0.625801
O O13 0.781332 0.426854 0.545915
O O14 0.000000 0.356528 0.500000
O O15 0.500000 0.843783 0.000000
O O16 0.000000 0.942304 0.500000
O O17 0.731416 0.000000 0.560231
#
# Coordination Sequence:
#
# PCOD8099238 Si02
#       7
#     8   8   8   8   8   8   8
#     4  11  22  36  54  76 106 159 201 242 278 319
#     4  12  23  33  49  75 114 158 192 226 274 328
#     4  11  21  36  56  85 112 147 192 233 281 336
#     4  10  20  35  55  81 113 146 184 225 274 336
#     4  12  21  34  51  74 114 153 193 236 272 327
#     4  11  22  37  55  79 114 152 202 242 280 325
#     4  10  22  42  64  88 115 145 181 226 282 347
#
# _framework density 18.411529000000002
#
# number of rings (size 3 to 8) (size 9 to 14) (size 15 to 20)
#    0.000    1.000    2.857    7.286    2.000    2.571 
#    0.000    0.000    0.000    0.429    0.000    0.000 
#    0.000    3.429    0.000    0.000    0.000    0.000 
#
# Total GULP energy -347042.727824 kJ/mol
# GULP energy per Si atom -12394.383137 kJ/mol
# Density = 1.836962 g / cm^3
# Si number density = 18.411529 Si / 1000 Ang^3
#
#
#
# Elastic Constant Matrix: (Units=GPa)
#
#
# Indices 1 2 3 4 5 6 
#
# 1 85.4489 38.1437 24.4286 0.0000 12.6024 0.0000
# 2 38.1437 118.2961 52.4579 0.0000 -0.6297 0.0000
# 3 24.4286 52.4579 111.9122 0.0000 13.7550 0.0000
# 4 0.0000 0.0000 0.0000 14.2267 0.0000 1.4921
# 5 12.6024 -0.6297 13.7550 0.0000 30.2343 0.0000
# 6 0.0000 0.0000 0.0000 1.4921 0.0000 26.5623
#
#
#
# Elastic Compliance Matrix: (Units=1/GPa)
#
#
# Indices 1 2 3 4 5 6 
#
# 1 0.014772 -0.004671 -0.000282 0.000000 -0.006126 0.000000
# 2 -0.004671 0.012352 -0.005340 0.000000 0.004633 0.000000
# 3 -0.000282 -0.005340 0.012181 0.000000 -0.005535 0.000000
# 4 0.000000 0.000000 0.000000 0.070707 0.000000 -0.003972
# 5 -0.006126 0.004633 -0.005535 0.000000 0.038243 0.000000
# 6 0.000000 0.000000 0.000000 -0.003972 0.000000 0.037870
#
#
# Mechanical properties :
#
#
# Convention : Reuss Voigt Hill
#
# Bulk Modulus (GPa) = 53.42126 60.63530 57.02828
# Shear Modulus (GPa) = 23.47965 27.57978 25.52971
#
# Velocity S-wave (km/s) = 3.57496 3.87455 3.72777
# Velocity P-wave (km/s) = 6.79107 7.28155 7.04058
#
# Compressibility (1/GPa) = 0.01871914
#
# Stress axis : x y z
#
# Youngs Moduli (GPa) = 67.69552 80.95874 82.09839
#
# Poissons Ratio (x) = 0.37813 0.02317
# Poissons Ratio (y) = 0.31618 0.43839
# Poissons Ratio (z) = 0.01911 0.43231
#
# Static dielectric constant tensor:
#      x y z
#    x 3.849370 0.000000 0.183900 
#    y 0.000000 3.099750 0.000000 
#    z 0.183900 0.000000 3.561100 
# 
# 
# High freq. dielectric constant tensor:
#      x y z
#    x 1.742430 0.000000 0.004790 
#    y 0.000000 1.664060 0.000000 
#    z 0.004790 0.000000 1.712460 
# 
# From -- ./inp_files/200532.got.cif
#   From: 2010.06.25/outbox.cif.g09.slc.cpg/sg12_101_cif.got.tgz:200532.got - 2010.06.28 00:19:55.
