data_PCOD8099377
_publ_section_title
;
Structure prediction by ZEFSAII (Michael W. Deem and Ramdas Pophale) SiO2 
 PCOD8099377
Probable space group: C 2/M
;
_chemical_formula_sum "Si O2"
_cell_formula_units_Z 64
_cell_length_a 26.456830
_cell_length_b 10.425486
_cell_length_c 14.301148
_cell_angle_alpha 90.000000
_cell_angle_beta 120.253765
_cell_angle_gamma 90.000000
_cell_volume 3407.371005
_symmetry_space_group_name_H-M "C 2/M"
_symmetry_group_IT_number 12
_symmetry_cell_setting 'monoclinic'
loop_
_space_group_symop_operation_xyz
x,y,z
-x,y,-z
-x,-y,-z
x,-y,z
1/2+x,1/2+y,z
1/2-x,1/2+y,-z
1/2-x,1/2-y,-z
1/2+x,1/2-y,z
loop_
_atom_site_type_symbol
_atom_site_label
_atom_site_fract_x
_atom_site_fract_y
_atom_site_fract_z
Si Si1 0.906267 0.142781 0.036013
Si Si2 0.232591 0.148859 0.265260
Si Si3 0.221052 0.147206 0.041378
Si Si4 0.486459 0.358177 0.731815
Si Si5 0.431738 0.141943 0.924312
Si Si6 0.032173 0.354482 0.434048
Si Si7 0.162952 0.352328 0.514951
Si Si8 0.126878 0.235821 0.290957
O O1 0.963896 0.174778 0.147373
O O2 0.910975 0.000000 0.994843
O O3 0.848272 0.148096 0.045819
O O4 0.897604 0.248446 0.948193
O O5 0.231208 0.198340 0.157111
O O6 0.286706 0.212232 0.373389
O O7 0.172087 0.171322 0.262539
O O8 0.244628 0.000000 0.269878
O O9 0.244799 0.000000 0.049075
O O10 0.250000 0.250000 0.000000
O O11 0.497349 0.500000 0.698350
O O12 0.492921 0.247005 0.662090
O O13 0.422655 0.363157 0.720388
O O14 0.409440 0.151667 0.796212
O O15 0.416156 0.000000 0.947506
O O16 0.500000 0.168256 0.000000
O O17 0.019380 0.500000 0.387192
O O18 0.101501 0.333947 0.511304
O O19 0.000000 0.326247 0.500000
O O20 0.177694 0.500000 0.511172
O O21 0.162349 0.287950 0.412725
#
# Coordination Sequence:
#
# PCOD8099377 Si02
#       8
#     8   8   8   8   8   8   8   8
#     4  10  21  38  56  80 111 147 186 229 283 341
#     4  10  20  35  56  79 108 149 192 229 275 339
#     4  10  22  40  60  82 110 145 190 239 287 337
#     4  10  21  34  55  84 112 144 183 229 281 336
#     4  11  22  34  53  85 119 150 184 227 279 336
#     4   9  19  36  57  80 109 146 188 232 282 334
#     4   9  19  34  53  80 112 146 186 233 277 327
#     4  11  19  34  55  81 116 150 183 230 277 341
#
# _framework density 18.782809
#
# number of rings (size 3 to 8) (size 9 to 14) (size 15 to 20)
#    0.000    2.000    2.500    1.125    0.000    3.500 
#    0.000    1.250    0.000    4.500    0.000    0.000 
#    0.000    0.000    0.000    0.000    0.000    0.000 
#
# Total GULP energy -396596.638184 kJ/mol
# GULP energy per Si atom -12393.644943 kJ/mol
# Density = 1.874006 g / cm^3
# Si number density = 18.782809 Si / 1000 Ang^3
#
#
#
# Elastic Constant Matrix: (Units=GPa)
#
#
# Indices 1 2 3 4 5 6 
#
# 1 76.8793 37.7637 54.9668 0.0000 -10.4384 0.0000
# 2 37.7637 100.9694 49.0229 0.0000 -13.1303 0.0000
# 3 54.9668 49.0229 123.9370 0.0000 2.2626 0.0000
# 4 0.0000 0.0000 0.0000 28.4087 0.0000 -4.4554
# 5 -10.4384 -13.1303 2.2626 0.0000 33.8880 0.0000
# 6 0.0000 0.0000 0.0000 -4.4554 0.0000 26.2890
#
#
#
# Elastic Compliance Matrix: (Units=1/GPa)
#
#
# Indices 1 2 3 4 5 6 
#
# 1 0.021298 -0.003171 -0.008299 0.000000 0.005886 0.000000
# 2 -0.003171 0.013670 -0.004085 0.000000 0.004593 0.000000
# 3 -0.008299 -0.004085 0.013457 0.000000 -0.005037 0.000000
# 4 0.000000 0.000000 0.000000 0.036162 0.000000 0.006129
# 5 0.005886 0.004593 -0.005037 0.000000 0.033438 0.000000
# 6 0.000000 0.000000 0.000000 0.006129 0.000000 0.039077
#
#
# Mechanical properties :
#
#
# Convention : Reuss Voigt Hill
#
# Bulk Modulus (GPa) = 57.75055 65.03248 61.39152
# Shear Modulus (GPa) = 25.77547 28.38595 27.08071
#
# Velocity S-wave (km/s) = 3.70846 3.89173 3.80120
# Velocity P-wave (km/s) = 7.01072 7.40896 7.21259
#
# Compressibility (1/GPa) = 0.01731585
#
# Stress axis : x y z
#
# Youngs Moduli (GPa) = 46.95376 73.15034 74.31126
#
# Poissons Ratio (x) = 0.23195 0.61670
# Poissons Ratio (y) = 0.14888 0.30355
# Poissons Ratio (z) = 0.38966 0.29881
#
# Static dielectric constant tensor:
#      x y z
#    x 3.391540 0.000000 0.225380 
#    y 0.000000 3.387250 0.000000 
#    z 0.225380 0.000000 3.671330 
# 
# 
# High freq. dielectric constant tensor:
#      x y z
#    x 1.725260 0.000000 0.015960 
#    y 0.000000 1.721780 0.000000 
#    z 0.015960 0.000000 1.730460 
# 
# From -- ./inp_files/175295.got.cif
#   From: 2010.06.25/outbox.cif.g09.slc.cpg/sg12_88_cif.got.tgz:175295.got - 2010.06.28 00:19:55.
