data_PCOD8099423
_publ_section_title
;
Structure prediction by ZEFSAII (Michael W. Deem and Ramdas Pophale) SiO2 
 PCOD8099423
Probable space group: C 2/M
;
_chemical_formula_sum "Si O2"
_cell_formula_units_Z 48
_cell_length_a 20.586226
_cell_length_b 9.128883
_cell_length_c 26.680348
_cell_angle_alpha 90.000000
_cell_angle_beta 150.070550
_cell_angle_gamma 90.000000
_cell_volume 2501.660214
_symmetry_space_group_name_H-M "C 2/M"
_symmetry_group_IT_number 12
_symmetry_cell_setting 'monoclinic'
loop_
_space_group_symop_operation_xyz
x,y,z
-x,y,-z
-x,-y,-z
x,-y,z
1/2+x,1/2+y,z
1/2-x,1/2+y,-z
1/2-x,1/2-y,-z
1/2+x,1/2-y,z
loop_
_atom_site_type_symbol
_atom_site_label
_atom_site_fract_x
_atom_site_fract_y
_atom_site_fract_z
Si Si1 0.879079 0.172134 0.279527
Si Si2 0.633546 0.672515 0.950015
Si Si3 0.862154 0.170972 0.931235
Si Si4 0.138133 0.172401 0.394191
Si Si5 0.631764 0.674029 0.276620
Si Si6 0.380563 0.168358 0.382981
O O1 0.747460 0.239410 0.170404
O O2 0.911895 0.236425 0.355585
O O3 0.997354 0.213051 0.321970
O O4 0.860357 0.000000 0.271733
O O5 0.646462 0.500000 0.950641
O O6 0.499692 0.732460 0.836884
O O7 0.750000 0.750000 0.000000
O O8 0.636847 0.715803 0.010197
O O9 0.833552 0.000000 0.904416
O O10 0.000000 0.214798 0.000000
O O11 0.250000 0.250000 0.500000
O O12 0.142104 0.233481 0.340159
O O13 0.164331 0.000000 0.413825
O O14 0.633149 0.500000 0.278609
O O15 0.752737 0.731920 0.324943
O O16 0.500000 0.184078 0.500000
O O17 0.359488 0.000000 0.352569
#
# Coordination Sequence:
#
# PCOD8099423 Si02
#       6
#     8   8   8   8   8   8
#     4  11  23  37  56  84 117 148 178 226 288 337
#     4  10  20  35  56  80 108 141 178 224 273 322
#     4  10  21  38  60  83 108 145 192 233 269 324
#     4  10  21  37  57  81 110 145 184 225 271 325
#     4   9  18  35  57  79 105 140 181 222 265 316
#     4  10  20  36  60  84 107 143 188 228 268 324
#
# _framework density 19.187258
#
# number of rings (size 3 to 8) (size 9 to 14) (size 15 to 20)
#    0.000    2.000    0.000    3.500    0.000    8.000 
#    0.000    4.167    0.000    0.000    0.000    0.000 
#    0.000    0.000    0.000    0.000    0.000    0.000 
#
# Total GULP energy -297699.417067 kJ/mol
# GULP energy per Si atom -12404.142378 kJ/mol
# Density = 1.914359 g / cm^3
# Si number density = 19.187258 Si / 1000 Ang^3
#
#
#
# Elastic Constant Matrix: (Units=GPa)
#
#
# Indices 1 2 3 4 5 6 
#
# 1 115.1453 36.8955 28.2357 0.0000 1.1200 -0.0001
# 2 36.8955 44.4852 35.6744 0.0003 2.1257 -0.0001
# 3 28.2357 35.6744 103.8136 -0.0015 3.5328 -0.0004
# 4 0.0000 0.0003 -0.0015 31.5508 -0.0003 0.2882
# 5 1.1200 2.1257 3.5328 -0.0003 39.8088 0.0000
# 6 -0.0001 -0.0001 -0.0004 0.2882 0.0000 31.8341
#
#
#
# Elastic Compliance Matrix: (Units=1/GPa)
#
#
# Indices 1 2 3 4 5 6 
#
# 1 0.011833 -0.009990 0.000208 0.000000 0.000182 0.000000
# 2 -0.009990 0.039485 -0.010822 -0.000001 -0.000867 0.000000
# 3 0.000208 -0.010822 0.013316 0.000001 -0.000610 0.000000
# 4 0.000000 -0.000001 0.000001 0.031698 0.000000 -0.000287
# 5 0.000182 -0.000867 -0.000610 0.000000 0.025215 0.000000
# 6 0.000000 0.000000 0.000000 -0.000287 0.000000 0.031415
#
#
# Mechanical properties :
#
#
# Convention : Reuss Voigt Hill
#
# Bulk Modulus (GPa) = 42.68687 51.67280 47.17983
# Shear Modulus (GPa) = 24.75529 31.48131 28.11830
#
# Velocity S-wave (km/s) = 3.59582 4.05500 3.83230
# Velocity P-wave (km/s) = 6.28775 6.99380 6.65015
#
# Compressibility (1/GPa) = 0.02342641
#
# Stress axis : x y z
#
# Youngs Moduli (GPa) = 84.51078 25.32622 75.10005
#
# Poissons Ratio (x) = 0.25300 -0.01565
# Poissons Ratio (y) = 0.84424 0.81273
# Poissons Ratio (z) = -0.01761 0.27408
#
# Static dielectric constant tensor:
#      x y z
#    x 3.706180 0.000000 0.039360 
#    y 0.000000 3.291100 0.000000 
#    z 0.039360 0.000000 3.622820 
# 
# 
# High freq. dielectric constant tensor:
#      x y z
#    x 1.767170 0.000000 0.000010 
#    y 0.000000 1.719680 0.000000 
#    z 0.000010 0.000000 1.764890 
# 
# From -- ./inp_files/365366.got.cif
#   From: 2010.06.25/outbox.cif.g09.slc.cpg/sg12_183_cif.got.tgz:365366.got - 2010.06.28 00:19:55.
