data_PCOD8099398
_publ_section_title
;
Structure prediction by ZEFSAII (Michael W. Deem and Ramdas Pophale) SiO2 
 PCOD8099398
Probable space group: C 2/M
;
_chemical_formula_sum "Si O2"
_cell_formula_units_Z 48
_cell_length_a 17.646779
_cell_length_b 18.459592
_cell_length_c 15.372250
_cell_angle_alpha 90.000000
_cell_angle_beta 30.396315
_cell_angle_gamma 90.000000
_cell_volume 2533.709773
_symmetry_space_group_name_H-M "C 2/M"
_symmetry_group_IT_number 12
_symmetry_cell_setting 'monoclinic'
loop_
_space_group_symop_operation_xyz
x,y,z
-x,y,-z
-x,-y,-z
x,-y,z
1/2+x,1/2+y,z
1/2-x,1/2+y,-z
1/2-x,1/2-y,-z
1/2+x,1/2-y,z
loop_
_atom_site_type_symbol
_atom_site_label
_atom_site_fract_x
_atom_site_fract_y
_atom_site_fract_z
Si Si1 0.315381 0.328883 0.344309
Si Si2 0.321870 0.581312 0.174117
Si Si3 0.175425 0.084143 0.328840
Si Si4 0.835588 0.165320 0.993459
Si Si5 0.824005 0.333206 0.023272
Si Si6 0.828278 0.338126 0.333038
O O1 0.257014 0.373708 0.319335
O O2 0.487881 0.345252 0.195060
O O3 0.217436 0.354534 0.522755
O O4 0.289741 0.244737 0.347645
O O5 0.259607 0.500000 0.241634
O O6 0.500000 0.583675 0.000000
O O7 0.268299 0.616413 0.137033
O O8 0.236888 0.109065 0.361049
O O9 0.000000 0.099215 0.500000
O O10 0.212909 0.000000 0.278006
O O11 0.252878 0.129756 0.176945
O O12 0.797973 0.247520 0.055860
O O13 0.755207 0.138456 0.985599
O O14 0.997181 0.354279 0.850111
#
# Coordination Sequence:
#
# PCOD8099398 Si02
#       6
#     8   8   8   8   8   8
#     4   9  18  34  55  80 109 140 177 218 260 310
#     4   9  17  30  51  77 104 137 174 210 250 301
#     4  11  24  39  55  77 106 141 180 224 276 333
#     4   9  18  34  55  80 109 140 177 218 260 310
#     4  10  20  35  56  80 106 138 177 222 268 315
#     4  10  20  35  56  80 106 138 177 222 268 315
#
# _framework density 18.944552999999999
#
# number of rings (size 3 to 8) (size 9 to 14) (size 15 to 20)
#    0.000    2.333    0.000    2.500    0.000    6.667 
#    0.000    4.167    0.000    1.000    0.000    0.000 
#    0.000    0.000    0.000    0.000    0.000    0.000 
#
# Total GULP energy -297679.925041 kJ/mol
# GULP energy per Si atom -12403.330210 kJ/mol
# Density = 1.890143 g / cm^3
# Si number density = 18.944553 Si / 1000 Ang^3
#
#
#
# Elastic Constant Matrix: (Units=GPa)
#
#
# Indices 1 2 3 4 5 6 
#
# 1 63.0384 13.5323 29.3856 0.0036 9.6648 -0.0003
# 2 13.5323 54.8012 42.1165 0.0039 12.6502 0.0008
# 3 29.3856 42.1165 105.9596 0.0106 22.1296 -0.0020
# 4 0.0036 0.0039 0.0106 12.7862 -0.0098 -6.9301
# 5 9.6648 12.6502 22.1296 -0.0098 32.8179 0.0032
# 6 -0.0003 0.0008 -0.0020 -6.9301 0.0032 16.7557
#
#
#
# Elastic Compliance Matrix: (Units=1/GPa)
#
#
# Indices 1 2 3 4 5 6 
#
# 1 0.018383 -0.000671 -0.004370 -0.000004 -0.002208 -0.000001
# 2 -0.000671 0.026667 -0.009670 -0.000005 -0.003561 -0.000004
# 3 -0.004370 -0.009670 0.015650 -0.000015 -0.005538 -0.000003
# 4 -0.000004 -0.000005 -0.000015 0.100808 0.000039 0.041694
# 5 -0.002208 -0.003561 -0.005538 0.000039 0.036229 0.000009
# 6 -0.000001 -0.000004 -0.000003 0.041694 0.000009 0.076926
#
#
# Mechanical properties :
#
#
# Convention : Reuss Voigt Hill
#
# Bulk Modulus (GPa) = 31.97135 43.76311 37.86723
# Shear Modulus (GPa) = 15.89774 21.72295 18.81034
#
# Velocity S-wave (km/s) = 2.89999 3.38991 3.15447
# Velocity P-wave (km/s) = 5.30341 6.20264 5.77057
#
# Compressibility (1/GPa) = 0.03127800
#
# Stress axis : x y z
#
# Youngs Moduli (GPa) = 54.39758 37.49953 63.89878
#
# Poissons Ratio (x) = 0.02516 0.27926
# Poissons Ratio (y) = 0.03650 0.61788
# Poissons Ratio (z) = 0.23773 0.36261
#
# Static dielectric constant tensor:
#      x y z
#    x 3.549160 0.000000 0.110370 
#    y 0.000000 3.494460 0.000000 
#    z 0.110370 0.000000 3.411850 
# 
# 
# High freq. dielectric constant tensor:
#      x y z
#    x 1.741470 0.000000 0.014090 
#    y 0.000000 1.730840 0.000000 
#    z 0.014090 0.000000 1.732950 
# 
# From -- ./inp_files/75462.got.cif
#   From: 2010.06.25/outbox.cif.g09.slc.cpg/sg12_38_cif.got.tgz:75462.got - 2010.06.28 00:19:55.
