data_PCOD8099492
_publ_section_title
;
Structure prediction by ZEFSAII (Michael W. Deem and Ramdas Pophale) SiO2 
 PCOD8099492
Probable space group: C 2/M
;
_chemical_formula_sum "Si O2"
_cell_formula_units_Z 48
_cell_length_a 25.538384
_cell_length_b 8.681146
_cell_length_c 11.693803
_cell_angle_alpha 90.000000
_cell_angle_beta 89.410925
_cell_angle_gamma 90.000000
_cell_volume 2592.407638
_symmetry_space_group_name_H-M "C 2/M"
_symmetry_group_IT_number 12
_symmetry_cell_setting 'monoclinic'
loop_
_space_group_symop_operation_xyz
x,y,z
-x,y,-z
-x,-y,-z
x,-y,z
1/2+x,1/2+y,z
1/2-x,1/2+y,-z
1/2-x,1/2-y,-z
1/2+x,1/2-y,z
loop_
_atom_site_type_symbol
_atom_site_label
_atom_site_fract_x
_atom_site_fract_y
_atom_site_fract_z
Si Si1 0.349815 0.322781 0.223199
Si Si2 0.658185 0.317435 0.230369
Si Si3 0.250825 0.822916 0.624124
Si Si4 0.438698 0.316962 0.622323
Si Si5 0.054657 0.182824 0.632900
Si Si6 0.307518 0.819653 0.999438
O O1 0.354579 0.500000 0.182520
O O2 0.306729 0.307433 0.322599
O O3 0.404076 0.257119 0.274328
O O4 0.336692 0.217067 0.116165
O O5 0.656791 0.500000 0.221397
O O6 0.709850 0.269216 0.296486
O O7 0.606866 0.250757 0.295702
O O8 0.658053 0.247888 0.103963
O O9 0.250000 0.750000 0.500000
O O10 0.268561 0.000000 0.616375
O O11 0.435451 0.500000 0.620097
O O12 0.431027 0.252746 0.493644
O O13 0.495783 0.264832 0.668287
O O14 0.058383 0.000000 0.627506
O O15 0.301616 0.000000 0.982744
O O16 0.250000 0.750000 0.000000
#
# Coordination Sequence:
#
# PCOD8099492 Si02
#       6
#     8   8   8   8   8   8
#     4  10  20  35  56  81 109 143 184 229 274 323
#     4  11  21  35  56  82 111 143 182 228 277 330
#     4  11  22  34  52  80 113 144 179 224 276 332
#     4   8  15  29  53  84 113 143 178 221 273 322
#     4   8  14  29  54  83 113 142 178 224 270 319
#     4  12  24  39  57  77 105 146 188 229 277 332
#
# _framework density 18.515605999999998
#
# number of rings (size 3 to 8) (size 9 to 14) (size 15 to 20)
#    0.000    2.000    1.667    4.500    0.000    3.333 
#    0.000    0.833    0.000    7.000    0.000    7.000 
#    0.000    0.000    0.000    0.000    0.000    0.000 
#
# Total GULP energy -297594.880009 kJ/mol
# GULP energy per Si atom -12399.786667 kJ/mol
# Density = 1.847346 g / cm^3
# Si number density = 18.515606 Si / 1000 Ang^3
#
#
#
# Elastic Constant Matrix: (Units=GPa)
#
#
# Indices 1 2 3 4 5 6 
#
# 1 116.8651 23.3107 41.5467 0.0000 12.7759 0.0000
# 2 23.3107 70.6137 28.7540 0.0000 -0.2809 0.0000
# 3 41.5467 28.7540 102.5296 0.0000 10.3199 0.0000
# 4 0.0000 0.0000 0.0000 30.1087 0.0000 1.1532
# 5 12.7759 -0.2809 10.3199 0.0000 33.8979 0.0000
# 6 0.0000 0.0000 0.0000 1.1532 0.0000 17.6967
#
#
#
# Elastic Compliance Matrix: (Units=1/GPa)
#
#
# Indices 1 2 3 4 5 6 
#
# 1 0.010496 -0.002106 -0.003366 0.000000 -0.002949 0.000000
# 2 -0.002106 0.016489 -0.003987 0.000000 0.002144 0.000000
# 3 -0.003366 -0.003987 0.012494 0.000000 -0.002568 0.000000
# 4 0.000000 0.000000 0.000000 0.033296 0.000000 -0.002170
# 5 -0.002949 0.002144 -0.002568 0.000000 0.031411 0.000000
# 6 0.000000 0.000000 0.000000 -0.002170 0.000000 0.056649
#
#
# Mechanical properties :
#
#
# Convention : Reuss Voigt Hill
#
# Bulk Modulus (GPa) = 48.63456 53.02568 50.83012
# Shear Modulus (GPa) = 26.79453 29.43378 28.11416
#
# Velocity S-wave (km/s) = 3.80825 3.99140 3.90090
# Velocity P-wave (km/s) = 6.75728 7.06698 6.91386
#
# Compressibility (1/GPa) = 0.02056151
#
# Stress axis : x y z
#
# Youngs Moduli (GPa) = 95.27582 60.64764 80.04085
#
# Poissons Ratio (x) = 0.12773 0.26939
# Poissons Ratio (y) = 0.20066 0.31909
# Poissons Ratio (z) = 0.32067 0.24178
#
# Static dielectric constant tensor:
#      x y z
#    x 3.722910 0.000000 -0.032520 
#    y 0.000000 3.185760 0.000000 
#    z -0.032520 0.000000 3.631560 
# 
# 
# High freq. dielectric constant tensor:
#      x y z
#    x 1.723600 0.000000 0.000920 
#    y 0.000000 1.692100 0.000000 
#    z 0.000920 0.000000 1.721490 
# 
# From -- ./inp_files/172309.got.cif
#   From: 2010.06.25/outbox.cif.g09.slc.cpg/sg12_87_cif.got.tgz:172309.got - 2010.06.28 00:19:55.
