data_PCOD8099304
_publ_section_title
;
Structure prediction by ZEFSAII (Michael W. Deem and Ramdas Pophale) SiO2 
 PCOD8099304
Probable space group: C 2/M
;
_chemical_formula_sum "Si O2"
_cell_formula_units_Z 48
_cell_length_a 24.269559
_cell_length_b 8.809191
_cell_length_c 11.532821
_cell_angle_alpha 90.000000
_cell_angle_beta 110.764461
_cell_angle_gamma 90.000000
_cell_volume 2305.506377
_symmetry_space_group_name_H-M "C 2/M"
_symmetry_group_IT_number 12
_symmetry_cell_setting 'monoclinic'
loop_
_space_group_symop_operation_xyz
x,y,z
-x,y,-z
-x,-y,-z
x,-y,z
1/2+x,1/2+y,z
1/2-x,1/2+y,-z
1/2-x,1/2-y,-z
1/2+x,1/2-y,z
loop_
_atom_site_type_symbol
_atom_site_label
_atom_site_fract_x
_atom_site_fract_y
_atom_site_fract_z
Si Si1 0.734118 0.820970 0.864416
Si Si2 0.057257 0.320659 0.979116
Si Si3 0.666629 0.180143 0.211221
Si Si4 0.870204 0.173672 0.334863
Si Si5 0.020604 0.826293 0.726071
Si Si6 0.112617 0.820862 0.392707
O O1 0.774233 0.756263 0.791075
O O2 0.667538 0.780459 0.778209
O O3 0.741308 0.000000 0.880653
O O4 0.750000 0.750000 0.000000
O O5 0.055846 0.500000 0.978226
O O6 0.058146 0.262379 0.849707
O O7 0.114558 0.261735 0.088890
O O8 0.000000 0.252883 0.000000
O O9 0.653264 0.233936 0.331394
O O10 0.673936 0.000000 0.215388
O O11 0.940267 0.191436 0.360924
O O12 0.860989 0.219079 0.461819
O O13 0.850498 0.000000 0.298703
O O14 0.954845 0.759417 0.662750
O O15 0.015584 0.000000 0.760632
O O16 0.114719 0.000000 0.370863
#
# Coordination Sequence:
#
# PCOD8099304 Si02
#       6
#     8   8   8   8   8   8
#     4  12  26  45  67  91 120 156 202 252 304 361
#     4  10  20  35  55  84 120 156 194 243 301 357
#     4  11  23  40  63  90 124 163 204 251 303 359
#     4  10  22  41  63  89 123 164 206 249 300 360
#     4  10  20  35  60  91 123 160 203 250 299 356
#     4  10  21  38  61  91 126 162 203 250 302 359
#
# _framework density 20.819721999999999
#
# number of rings (size 3 to 8) (size 9 to 14) (size 15 to 20)
#    0.000    1.500    1.667    3.500    0.000    8.333 
#    0.000    0.000    0.000    3.000    0.000    0.000 
#    0.000    0.000    0.000    0.000    0.000    0.000 
#
# Total GULP energy -297666.284867 kJ/mol
# GULP energy per Si atom -12402.761869 kJ/mol
# Density = 2.077234 g / cm^3
# Si number density = 20.819722 Si / 1000 Ang^3
#
#
#
# Elastic Constant Matrix: (Units=GPa)
#
#
# Indices 1 2 3 4 5 6 
#
# 1 111.4179 32.4570 34.4272 0.0000 -11.3300 0.0000
# 2 32.4570 66.0411 39.4154 0.0000 -3.2684 0.0000
# 3 34.4272 39.4154 112.8203 0.0000 -10.5479 0.0000
# 4 0.0000 0.0000 0.0000 32.3008 0.0000 -2.9519
# 5 -11.3300 -3.2684 -10.5479 0.0000 32.5623 0.0000
# 6 0.0000 0.0000 0.0000 -2.9519 0.0000 28.5962
#
#
#
# Elastic Compliance Matrix: (Units=1/GPa)
#
#
# Indices 1 2 3 4 5 6 
#
# 1 0.011018 -0.004329 -0.001580 0.000000 0.002887 0.000000
# 2 -0.004329 0.020834 -0.006087 0.000000 -0.001387 0.000000
# 3 -0.001580 -0.006087 0.011719 0.000000 0.002635 0.000000
# 4 0.000000 0.000000 0.000000 0.031254 0.000000 0.003226
# 5 0.002887 -0.001387 0.002635 0.000000 0.032430 0.000000
# 6 0.000000 0.000000 0.000000 0.003226 0.000000 0.035303
#
#
# Mechanical properties :
#
#
# Convention : Reuss Voigt Hill
#
# Bulk Modulus (GPa) = 51.07660 55.87541 53.47601
# Shear Modulus (GPa) = 28.88900 30.95717 29.92308
#
# Velocity S-wave (km/s) = 3.72906 3.86024 3.79522
# Velocity P-wave (km/s) = 6.56714 6.83846 6.70417
#
# Compressibility (1/GPa) = 0.01957844
#
# Stress axis : x y z
#
# Youngs Moduli (GPa) = 90.75951 47.99783 85.33294
#
# Poissons Ratio (x) = 0.20780 0.13480
# Poissons Ratio (y) = 0.39293 0.51945
# Poissons Ratio (z) = 0.14337 0.29218
#
# Static dielectric constant tensor:
#      x y z
#    x 3.904430 0.000000 -0.025910 
#    y 0.000000 3.570980 0.000000 
#    z -0.025910 0.000000 3.725910 
# 
# 
# High freq. dielectric constant tensor:
#      x y z
#    x 1.825750 0.000000 -0.005700 
#    y 0.000000 1.800610 0.000000 
#    z -0.005700 0.000000 1.818650 
# 
# From -- ./inp_files/172952.got.cif
#   From: 2010.06.25/outbox.cif.g09.slc.cpg/sg12_87_cif.got.tgz:172952.got - 2010.06.28 00:19:55.
