data_PCOD8099884
_publ_section_title
;
Structure prediction by ZEFSAII (Michael W. Deem and Ramdas Pophale) SiO2 
 PCOD8099884
Probable space group: C 2/M
;
_chemical_formula_sum "Si O2"
_cell_formula_units_Z 56
_cell_length_a 17.852647
_cell_length_b 8.823244
_cell_length_c 18.672868
_cell_angle_alpha 90.000000
_cell_angle_beta 76.081123
_cell_angle_gamma 90.000000
_cell_volume 2854.952605
_symmetry_space_group_name_H-M "C 2/M"
_symmetry_group_IT_number 12
_symmetry_cell_setting 'monoclinic'
loop_
_space_group_symop_operation_xyz
x,y,z
-x,y,-z
-x,-y,-z
x,-y,z
1/2+x,1/2+y,z
1/2-x,1/2+y,-z
1/2-x,1/2-y,-z
1/2+x,1/2-y,z
loop_
_atom_site_type_symbol
_atom_site_label
_atom_site_fract_x
_atom_site_fract_y
_atom_site_fract_z
Si Si1 0.542176 0.676384 0.143619
Si Si2 0.765374 0.680400 0.284783
Si Si3 0.402973 0.679559 0.714095
Si Si4 0.616226 0.820993 0.862179
Si Si5 0.329536 0.323871 0.003973
Si Si6 0.809568 0.678930 0.431641
Si Si7 0.970259 0.824383 0.427278
O O1 0.518344 0.500000 0.150941
O O2 0.571104 0.735238 0.213845
O O3 0.469913 0.776349 0.138226
O O4 0.610001 0.706882 0.072547
O O5 0.763760 0.500000 0.284797
O O6 0.681041 0.747589 0.285318
O O7 0.826075 0.740422 0.212239
O O8 0.790904 0.741014 0.356565
O O9 0.397214 0.500000 0.713495
O O10 0.464383 0.736695 0.641636
O O11 0.638296 0.747415 0.931608
O O12 0.622518 0.000000 0.868835
O O13 0.315885 0.500000 0.019806
O O14 0.250000 0.250000 0.000000
O O15 0.800475 0.500000 0.436956
O O16 0.750000 0.750000 0.500000
O O17 0.895324 0.724290 0.433066
O O18 0.000000 0.799227 0.500000
O O19 0.950322 0.000000 0.417434
#
# Coordination Sequence:
#
# PCOD8099884 Si02
#       7
#     8   8   8   8   8   8   8
#     4  10  21  37  57  81 111 148 187 228 277 333
#     4   9  19  36  57  82 112 148 187 229 280 334
#     4   9  17  33  57  80 106 144 188 229 272 330
#     4  11  22  37  59  85 114 148 187 231 280 334
#     4  11  23  39  59  83 113 149 190 235 283 335
#     4  11  22  37  58  83 114 149 187 232 280 333
#     4  10  20  35  57  83 111 146 187 230 279 334
#
# _framework density 19.615037000000001
#
# number of rings (size 3 to 8) (size 9 to 14) (size 15 to 20)
#    0.000    1.857    0.000    4.286    0.000    7.714 
#    0.000    2.143    0.000    3.429    0.000    0.000 
#    0.000    0.000    0.000    0.000    0.000    0.000 
#
# Total GULP energy -347310.130561 kJ/mol
# GULP energy per Si atom -12403.933234 kJ/mol
# Density = 1.957039 g / cm^3
# Si number density = 19.615037 Si / 1000 Ang^3
#
#
#
# Elastic Constant Matrix: (Units=GPa)
#
#
# Indices 1 2 3 4 5 6 
#
# 1 150.0944 48.5489 67.0848 0.0000 1.1814 0.0000
# 2 48.5489 58.1699 54.0967 0.0000 -4.9918 0.0000
# 3 67.0848 54.0967 169.1629 0.0000 7.8370 0.0000
# 4 0.0000 0.0000 0.0000 23.9630 0.0000 -1.2724
# 5 1.1814 -4.9918 7.8370 0.0000 36.5948 0.0000
# 6 0.0000 0.0000 0.0000 -1.2724 0.0000 33.0390
#
#
#
# Elastic Compliance Matrix: (Units=1/GPa)
#
#
# Indices 1 2 3 4 5 6 
#
# 1 0.009500 -0.006451 -0.001666 0.000000 -0.000830 0.000000
# 2 -0.006451 0.029813 -0.007246 0.000000 0.005827 0.000000
# 3 -0.001666 -0.007246 0.009022 0.000000 -0.002867 0.000000
# 4 0.000000 0.000000 0.000000 0.041817 0.000000 0.001610
# 5 -0.000830 0.005827 -0.002867 0.000000 0.028762 0.000000
# 6 0.000000 0.000000 0.000000 0.001610 0.000000 0.030329
#
#
# Mechanical properties :
#
#
# Convention : Reuss Voigt Hill
#
# Bulk Modulus (GPa) = 56.78477 79.65421 68.21949
# Shear Modulus (GPa) = 26.90507 32.56582 29.73545
#
# Velocity S-wave (km/s) = 3.70760 4.07903 3.89775
# Velocity P-wave (km/s) = 6.88047 7.92979 7.42370
#
# Compressibility (1/GPa) = 0.01761036
#
# Stress axis : x y z
#
# Youngs Moduli (GPa) = 105.26091 33.54217 110.83795
#
# Poissons Ratio (x) = 0.21637 0.18468
# Poissons Ratio (y) = 0.67900 0.80311
# Poissons Ratio (z) = 0.17539 0.24304
#
# Static dielectric constant tensor:
#      x y z
#    x 3.806850 0.000000 0.012260 
#    y 0.000000 5.708330 0.000000 
#    z 0.012260 0.000000 3.847560 
# 
# 
# High freq. dielectric constant tensor:
#      x y z
#    x 1.783140 0.000000 0.000330 
#    y 0.000000 1.736670 0.000000 
#    z 0.000330 0.000000 1.787680 
# 
# From -- ./inp_files/275201.got.cif
#   From: 2010.06.25/outbox.cif.g09.slc.cpg/sg12_138_cif.got.tgz:275201.got - 2010.06.28 00:19:55.
