data_PCOD8099058
_publ_section_title
;
Structure prediction by ZEFSAII (Michael W. Deem and Ramdas Pophale) SiO2 
 PCOD8099058
Probable space group: C 2/M
;
_chemical_formula_sum "Si O2"
_cell_formula_units_Z 56
_cell_length_a 21.163288
_cell_length_b 8.933076
_cell_length_c 30.526869
_cell_angle_alpha 90.000000
_cell_angle_beta 29.851317
_cell_angle_gamma 90.000000
_cell_volume 2872.622478
_symmetry_space_group_name_H-M "C 2/M"
_symmetry_group_IT_number 12
_symmetry_cell_setting 'monoclinic'
loop_
_space_group_symop_operation_xyz
x,y,z
-x,y,-z
-x,-y,-z
x,-y,z
1/2+x,1/2+y,z
1/2-x,1/2+y,-z
1/2-x,1/2-y,-z
1/2+x,1/2-y,z
loop_
_atom_site_type_symbol
_atom_site_label
_atom_site_fract_x
_atom_site_fract_y
_atom_site_fract_z
Si Si1 0.483152 0.175909 0.906872
Si Si2 0.718100 0.177163 0.565670
Si Si3 0.000525 0.835752 0.740739
Si Si4 0.360144 0.336817 0.255660
Si Si5 0.134376 0.662631 0.896639
Si Si6 0.141114 0.175980 0.429320
Si Si7 0.253554 0.324342 0.094801
O O1 0.527230 0.242448 0.834548
O O2 0.604866 0.211010 0.864773
O O3 0.454336 0.000000 0.920831
O O4 0.355461 0.255108 0.000236
O O5 0.750000 0.250000 0.500000
O O6 0.574581 0.233683 0.661211
O O7 0.817153 0.221964 0.545698
O O8 0.715701 0.000000 0.561503
O O9 0.097745 0.864833 0.720682
O O10 0.881371 0.748970 0.832967
O O11 0.962281 0.000000 0.744153
O O12 0.340720 0.500000 0.244440
O O13 0.228348 0.247690 0.338730
O O14 0.204138 0.500000 0.856453
O O15 0.214714 0.788360 0.873335
O O16 0.000000 0.642794 0.000000
O O17 0.000000 0.227837 0.500000
O O18 0.156983 0.000000 0.415097
O O19 0.248571 0.500000 0.090095
#
# Coordination Sequence:
#
# PCOD8099058 Si02
#       7
#     8   8   8   8   8   8   8
#     4  10  20  35  55  77 107 148 186 222 269 330
#     4  10  20  37  61  87 115 148 187 233 285 340
#     4  10  21  38  57  78 109 147 184 225 276 331
#     4  10  21  36  56  82 110 142 181 230 279 319
#     4   8  16  32  51  71  99 140 181 218 267 322
#     4   9  19  38  62  85 112 149 189 228 279 344
#     4  11  21  33  53  80 109 142 183 231 276 322
#
# _framework density 19.494382000000002
#
# number of rings (size 3 to 8) (size 9 to 14) (size 15 to 20)
#    0.000    2.286    0.000    3.857    0.000    6.286 
#    2.571    0.000    0.000    0.000    0.000    0.000 
#    0.000    0.000    0.000    0.000    0.000    0.000 
#
# Total GULP energy -346932.304693 kJ/mol
# GULP energy per Si atom -12390.439453 kJ/mol
# Density = 1.945001 g / cm^3
# Si number density = 19.494382 Si / 1000 Ang^3
#
#
#
# Elastic Constant Matrix: (Units=GPa)
#
#
# Indices 1 2 3 4 5 6 
#
# 1 55.6423 32.8046 41.4946 0.0005 -1.5323 -0.0037
# 2 32.8046 134.6081 69.2941 -0.0022 -1.8828 -0.0074
# 3 41.4946 69.2941 138.8063 -0.0011 -3.8290 0.0009
# 4 0.0005 -0.0022 -0.0011 36.4609 0.0001 -3.7689
# 5 -1.5323 -1.8828 -3.8290 0.0001 29.8790 0.0013
# 6 -0.0037 -0.0074 0.0009 -3.7689 0.0013 24.5603
#
#
#
# Elastic Compliance Matrix: (Units=1/GPa)
#
#
# Indices 1 2 3 4 5 6 
#
# 1 0.023940 -0.002894 -0.005703 0.000000 0.000315 0.000003
# 2 -0.002894 0.010348 -0.004302 0.000001 -0.000048 0.000003
# 3 -0.005703 -0.004302 0.011081 0.000000 0.000856 -0.000003
# 4 0.000000 0.000001 0.000000 0.027869 0.000000 0.004277
# 5 0.000315 -0.000048 0.000856 0.000000 0.033591 -0.000002
# 6 0.000003 0.000003 -0.000003 0.004277 -0.000002 0.041372
#
#
# Mechanical properties :
#
#
# Convention : Reuss Voigt Hill
#
# Bulk Modulus (GPa) = 51.09862 68.47147 59.78504
# Shear Modulus (GPa) = 27.69732 30.54427 29.12079
#
# Velocity S-wave (km/s) = 3.77342 3.96261 3.86917
# Velocity P-wave (km/s) = 6.72709 7.49242 7.12004
#
# Compressibility (1/GPa) = 0.01957000
#
# Stress axis : x y z
#
# Youngs Moduli (GPa) = 41.77136 96.63442 90.24831
#
# Poissons Ratio (x) = 0.27965 0.51470
# Poissons Ratio (y) = 0.12088 0.38827
# Poissons Ratio (z) = 0.23823 0.41574
#
# Static dielectric constant tensor:
#      x y z
#    x 4.028230 0.000000 0.015610 
#    y 0.000000 3.827160 0.000000 
#    z 0.015610 0.000000 3.407940 
# 
# 
# High freq. dielectric constant tensor:
#      x y z
#    x 1.745430 0.000000 -0.000140 
#    y 0.000000 1.769750 0.000000 
#    z -0.000140 0.000000 1.747990 
# 
# From -- ./inp_files/237340.got.cif
#   From: 2010.06.25/outbox.cif.g09.slc.cpg/sg12_119_cif.got.tgz:237340.got - 2010.06.28 00:19:55.
