data_PCOD8099202
_publ_section_title
;
Structure prediction by ZEFSAII (Michael W. Deem and Ramdas Pophale) SiO2 
 PCOD8099202
Probable space group: C 2/M
;
_chemical_formula_sum "Si O2"
_cell_formula_units_Z 48
_cell_length_a 15.123112
_cell_length_b 9.063450
_cell_length_c 28.587827
_cell_angle_alpha 90.000000
_cell_angle_beta 142.976863
_cell_angle_gamma 90.000000
_cell_volume 2359.454003
_symmetry_space_group_name_H-M "C 2/M"
_symmetry_group_IT_number 12
_symmetry_cell_setting 'monoclinic'
loop_
_space_group_symop_operation_xyz
x,y,z
-x,y,-z
-x,-y,-z
x,-y,z
1/2+x,1/2+y,z
1/2-x,1/2+y,-z
1/2-x,1/2-y,-z
1/2+x,1/2-y,z
loop_
_atom_site_type_symbol
_atom_site_label
_atom_site_fract_x
_atom_site_fract_y
_atom_site_fract_z
Si Si1 0.861842 0.174347 0.181043
Si Si2 0.071525 0.662813 0.649277
Si Si3 0.311711 0.171678 0.799245
Si Si4 0.623748 0.837690 0.514870
Si Si5 0.893770 0.336498 0.667437
Si Si6 0.355615 0.175516 0.081607
O O1 0.747925 0.217224 0.174435
O O2 0.811017 0.258182 0.112990
O O3 0.027503 0.229575 0.262099
O O4 0.864978 0.000000 0.173533
O O5 0.112806 0.500000 0.647265
O O6 0.220162 0.756164 0.717774
O O7 0.952262 0.734412 0.563420
O O8 0.001484 0.649985 0.669912
O O9 0.479833 0.219933 0.864385
O O10 0.290057 0.000000 0.783172
O O11 0.500000 0.860933 0.500000
O O12 0.741044 0.727579 0.585616
O O13 0.693024 0.000000 0.532267
O O14 0.868400 0.500000 0.678563
O O15 0.334068 0.000000 0.073326
O O16 0.250000 0.250000 0.000000
#
# Coordination Sequence:
#
# PCOD8099202 Si02
#       6
#     8   8   8   8   8   8
#     4  10  21  40  64  88 117 157 196 239 293 348
#     4   9  19  35  55  79 110 149 193 238 287 341
#     4   9  21  40  62  87 118 155 196 239 290 350
#     4  10  21  34  49  77 113 150 193 239 286 339
#     4  10  20  35  55  80 110 148 193 241 287 339
#     4  11  24  42  63  92 123 154 192 238 291 351
#
# _framework density 20.343689999999999
#
# number of rings (size 3 to 8) (size 9 to 14) (size 15 to 20)
#    0.000    2.167    0.000    2.000    2.333    4.333 
#    0.000    3.333    0.000    0.000    0.000    0.000 
#    0.000    0.000    0.000    0.000    0.000    0.000 
#
# Total GULP energy -297530.873462 kJ/mol
# GULP energy per Si atom -12397.119728 kJ/mol
# Density = 2.029739 g / cm^3
# Si number density = 20.343690 Si / 1000 Ang^3
#
#
#
# Elastic Constant Matrix: (Units=GPa)
#
#
# Indices 1 2 3 4 5 6 
#
# 1 42.6095 20.4325 12.6523 0.0000 2.8164 0.0000
# 2 20.4325 72.2695 23.1778 0.0000 3.4851 0.0000
# 3 12.6523 23.1778 97.6694 0.0000 -3.9973 0.0000
# 4 0.0000 0.0000 0.0000 43.8320 0.0000 -9.5952
# 5 2.8164 3.4851 -3.9973 0.0000 34.6351 0.0000
# 6 0.0000 0.0000 0.0000 -9.5952 0.0000 13.6512
#
#
#
# Elastic Compliance Matrix: (Units=1/GPa)
#
#
# Indices 1 2 3 4 5 6 
#
# 1 0.027562 -0.007078 -0.001963 0.000000 -0.001756 0.000000
# 2 -0.007078 0.016924 -0.003160 0.000000 -0.001492 0.000000
# 3 -0.001963 -0.003160 0.011316 0.000000 0.001784 0.000000
# 4 0.000000 0.000000 0.000000 0.026963 0.000000 0.018952
# 5 -0.001756 -0.001492 0.001784 0.000000 0.029371 0.000000
# 6 0.000000 0.000000 0.000000 0.018952 0.000000 0.086575
#
#
# Mechanical properties :
#
#
# Convention : Reuss Voigt Hill
#
# Bulk Modulus (GPa) = 31.84794 36.11928 33.98361
# Shear Modulus (GPa) = 21.40598 28.84273 25.12436
#
# Velocity S-wave (km/s) = 3.24731 3.76942 3.51806
# Velocity P-wave (km/s) = 5.45426 6.06117 5.76571
#
# Compressibility (1/GPa) = 0.03139920
#
# Stress axis : x y z
#
# Youngs Moduli (GPa) = 36.28182 59.08824 88.37201
#
# Poissons Ratio (x) = 0.41825 0.17343
# Poissons Ratio (y) = 0.25682 0.27928
# Poissons Ratio (z) = 0.07120 0.18674
#
# Static dielectric constant tensor:
#      x y z
#    x 3.674290 0.000000 -0.245710 
#    y 0.000000 4.002340 0.000000 
#    z -0.245710 0.000000 3.114890 
# 
# 
# High freq. dielectric constant tensor:
#      x y z
#    x 1.789390 0.000000 -0.008140 
#    y 0.000000 1.795640 0.000000 
#    z -0.008140 0.000000 1.799150 
# 
# From -- ./inp_files/274065.got.cif
#   From: 2010.06.25/outbox.cif.g09.slc.cpg/sg12_138_cif.got.tgz:274065.got - 2010.06.28 00:19:55.
