data_PCOD8099155
_publ_section_title
;
Structure prediction by ZEFSAII (Michael W. Deem and Ramdas Pophale) SiO2 
 PCOD8099155
Probable space group: C 2/M
;
_chemical_formula_sum "Si O2"
_cell_formula_units_Z 56
_cell_length_a 17.903454
_cell_length_b 8.418491
_cell_length_c 18.612019
_cell_angle_alpha 90.000000
_cell_angle_beta 76.289987
_cell_angle_gamma 90.000000
_cell_volume 2725.278047
_symmetry_space_group_name_H-M "C 2/M"
_symmetry_group_IT_number 12
_symmetry_cell_setting 'monoclinic'
loop_
_space_group_symop_operation_xyz
x,y,z
-x,y,-z
-x,-y,-z
x,-y,z
1/2+x,1/2+y,z
1/2-x,1/2+y,-z
1/2-x,1/2-y,-z
1/2+x,1/2-y,z
loop_
_atom_site_type_symbol
_atom_site_label
_atom_site_fract_x
_atom_site_fract_y
_atom_site_fract_z
Si Si1 0.860991 0.815443 0.359214
Si Si2 0.916052 0.316181 0.493050
Si Si3 0.197268 0.185011 0.366278
Si Si4 0.654467 0.311288 0.217695
Si Si5 0.486662 0.687969 0.216725
Si Si6 0.727509 0.188588 0.927692
Si Si7 0.559008 0.188251 0.927177
O O1 0.894621 0.792624 0.430699
O O2 0.785534 0.710188 0.366696
O O3 0.923307 0.752887 0.287790
O O4 0.841204 0.000000 0.352038
O O5 0.914302 0.500000 0.470554
O O6 0.855764 0.288495 0.570101
O O7 0.000000 0.263492 0.500000
O O8 0.182807 0.247160 0.288927
O O9 0.176348 0.000000 0.379391
O O10 0.654623 0.500000 0.214882
O O11 0.569407 0.243399 0.221829
O O12 0.712382 0.243212 0.144330
O O13 0.489671 0.500000 0.214203
O O14 0.466564 0.751872 0.143792
O O15 0.643468 0.254535 0.926346
O O16 0.728108 0.000000 0.927815
O O17 0.750000 0.250000 0.000000
O O18 0.558927 0.000000 0.926990
O O19 0.500000 0.255161 0.000000
#
# Coordination Sequence:
#
# PCOD8099155 Si02
#       7
#     8   8   8   8   8   8   8
#     4  11  23  39  59  85 117 150 190 238 287 343
#     4  11  24  41  61  87 118 151 190 236 285 339
#     4  11  22  39  63  86 114 153 192 233 285 341
#     4   9  19  36  57  81 109 144 186 230 279 335
#     4  10  21  37  58  83 110 144 188 235 280 333
#     4  10  20  35  55  79 109 144 184 228 274 330
#     4  10  21  36  54  80 114 149 185 229 284 342
#
# _framework density 20.548362000000001
#
# number of rings (size 3 to 8) (size 9 to 14) (size 15 to 20)
#    0.000    1.714    0.000    4.286    0.000    5.429 
#    0.000    2.857    0.000    0.000    0.000    0.000 
#    0.000    0.000    0.000    0.000    0.000    0.000 
#
# Total GULP energy -347349.976560 kJ/mol
# GULP energy per Si atom -12405.356306 kJ/mol
# Density = 2.050159 g / cm^3
# Si number density = 20.548362 Si / 1000 Ang^3
#
#
#
# Elastic Constant Matrix: (Units=GPa)
#
#
# Indices 1 2 3 4 5 6 
#
# 1 176.6816 12.8337 77.6401 0.0000 -4.7045 0.0000
# 2 12.8337 21.4543 8.5121 0.0000 -1.2851 0.0000
# 3 77.6401 8.5121 176.7732 0.0000 -3.4052 0.0000
# 4 0.0000 0.0000 0.0000 3.4185 0.0000 4.7788
# 5 -4.7045 -1.2851 -3.4052 0.0000 49.1367 0.0000
# 6 0.0000 0.0000 0.0000 4.7788 0.0000 11.5845
#
#
#
# Elastic Compliance Matrix: (Units=1/GPa)
#
#
# Indices 1 2 3 4 5 6 
#
# 1 0.007220 -0.003099 -0.003014 0.000000 0.000401 0.000000
# 2 -0.003099 0.048907 -0.000976 0.000000 0.000915 0.000000
# 3 -0.003014 -0.000976 0.007031 0.000000 0.000173 0.000000
# 4 0.000000 0.000000 0.000000 0.691001 0.000000 -0.285051
# 5 0.000401 0.000915 0.000173 0.000000 0.020426 0.000000
# 6 0.000000 0.000000 0.000000 -0.285051 0.000000 0.203911
#
#
# Mechanical properties :
#
#
# Convention : Reuss Voigt Hill
#
# Bulk Modulus (GPa) = 20.41691 63.65343 42.03517
# Shear Modulus (GPa) = 4.95539 31.22283 18.08911
#
# Velocity S-wave (km/s) = 1.55461 3.90228 2.97024
# Velocity P-wave (km/s) = 3.63043 7.16578 5.68016
#
# Compressibility (1/GPa) = 0.04897901
#
# Stress axis : x y z
#
# Youngs Moduli (GPa) = 138.49923 20.44709 142.22371
#
# Poissons Ratio (x) = 0.06337 0.42869
# Poissons Ratio (y) = 0.42923 0.13884
# Poissons Ratio (z) = 0.41747 0.01996
#
# Static dielectric constant tensor:
#      x y z
#    x 4.125240 0.000000 -0.236340 
#    y 0.000000 3.401200 0.000000 
#    z -0.236340 0.000000 4.013470 
# 
# 
# High freq. dielectric constant tensor:
#      x y z
#    x 1.822900 0.000000 -0.002140 
#    y 0.000000 1.780990 0.000000 
#    z -0.002140 0.000000 1.821390 
# 
# From -- ./inp_files/275060.got.cif
#   From: 2010.06.25/outbox.cif.g09.slc.cpg/sg12_138_cif.got.tgz:275060.got - 2010.06.28 00:19:55.
