data_PCOD8099199
_publ_section_title
;
Structure prediction by ZEFSAII (Michael W. Deem and Ramdas Pophale) SiO2 
 PCOD8099199
Probable space group: C 2/M
;
_chemical_formula_sum "Si O2"
_cell_formula_units_Z 40
_cell_length_a 26.377324
_cell_length_b 9.034191
_cell_length_c 9.760992
_cell_angle_alpha 90.000000
_cell_angle_beta 68.195049
_cell_angle_gamma 90.000000
_cell_volume 2159.604509
_symmetry_space_group_name_H-M "C 2/M"
_symmetry_group_IT_number 12
_symmetry_cell_setting 'monoclinic'
loop_
_space_group_symop_operation_xyz
x,y,z
-x,y,-z
-x,-y,-z
x,-y,z
1/2+x,1/2+y,z
1/2-x,1/2+y,-z
1/2-x,1/2-y,-z
1/2+x,1/2-y,z
loop_
_atom_site_type_symbol
_atom_site_label
_atom_site_fract_x
_atom_site_fract_y
_atom_site_fract_z
Si Si1 0.213476 0.828191 0.647537
Si Si2 0.912946 0.328658 0.954637
Si Si3 0.711828 0.826338 0.929768
Si Si4 0.913418 0.170569 0.234450
Si Si5 0.994570 0.674010 0.349193
O O1 0.250000 0.750000 0.500000
O O2 0.228336 0.745604 0.771053
O O3 0.150367 0.806220 0.673458
O O4 0.228938 0.000000 0.645108
O O5 0.919484 0.500000 0.986471
O O6 0.950707 0.283566 0.788866
O O7 0.851245 0.291394 0.972040
O O8 0.931133 0.239820 0.071288
O O9 0.723536 0.000000 0.913410
O O10 0.750000 0.750000 0.000000
O O11 0.943306 0.247514 0.330950
O O12 0.930006 0.000000 0.212982
O O13 0.983480 0.500000 0.357590
O O14 0.000000 0.730756 0.500000
#
# Coordination Sequence:
#
# PCOD8099199 Si02
#       5
#     8   8   8   8   8
#     4  10  21  37  56  80 109 141 179 221 269 324
#     4   9  19  36  56  77 104 142 183 217 256 314
#     4  10  20  35  55  80 110 144 183 225 268 315
#     4  10  21  36  55  80 107 137 175 219 266 314
#     4  10  21  36  54  78 107 140 178 218 262 313
#
# _framework density 18.521909999999998
#
# number of rings (size 3 to 8) (size 9 to 14) (size 15 to 20)
#    0.000    2.200    0.000    2.400    0.000    8.400 
#    0.000    2.000    0.000    0.000    0.000    0.000 
#    0.000    0.000    0.000    0.000    0.000    0.000 
#
# Total GULP energy -248064.260777 kJ/mol
# GULP energy per Si atom -12403.213039 kJ/mol
# Density = 1.847975 g / cm^3
# Si number density = 18.521910 Si / 1000 Ang^3
#
#
#
# Elastic Constant Matrix: (Units=GPa)
#
#
# Indices 1 2 3 4 5 6 
#
# 1 104.2921 64.3252 85.7428 0.0000 23.4347 0.0000
# 2 64.3252 103.1111 76.9595 0.0000 11.3854 0.0000
# 3 85.7428 76.9595 170.7671 0.0000 8.0006 0.0000
# 4 0.0000 0.0000 0.0000 30.0844 0.0000 6.6255
# 5 23.4347 11.3854 8.0006 0.0000 36.2440 0.0000
# 6 0.0000 0.0000 0.0000 6.6255 0.0000 35.1587
#
#
#
# Elastic Compliance Matrix: (Units=1/GPa)
#
#
# Indices 1 2 3 4 5 6 
#
# 1 0.022820 -0.007342 -0.007645 0.000000 -0.010761 0.000000
# 2 -0.007342 0.017345 -0.004141 0.000000 0.000212 0.000000
# 3 -0.007645 -0.004141 0.011386 0.000000 0.003731 0.000000
# 4 0.000000 0.000000 0.000000 0.034679 0.000000 -0.006535
# 5 -0.010761 0.000212 0.003731 0.000000 0.033659 0.000000
# 6 0.000000 0.000000 0.000000 -0.006535 0.000000 0.029674
#
#
# Mechanical properties :
#
#
# Convention : Reuss Voigt Hill
#
# Bulk Modulus (GPa) = 75.20935 92.46948 83.83941
# Shear Modulus (GPa) = 26.00767 30.37359 28.19063
#
# Velocity S-wave (km/s) = 3.75127 4.05393 3.90553
# Velocity P-wave (km/s) = 7.71080 8.48205 8.10561
#
# Compressibility (1/GPa) = 0.01329622
#
# Stress axis : x y z
#
# Youngs Moduli (GPa) = 43.82058 57.65199 87.82777
#
# Poissons Ratio (x) = 0.42327 0.67147
# Poissons Ratio (y) = 0.32172 0.36366
# Poissons Ratio (z) = 0.33502 0.23872
#
# Static dielectric constant tensor:
#      x y z
#    x 3.463560 0.000000 -0.032440 
#    y 0.000000 3.517190 0.000000 
#    z -0.032440 0.000000 3.489140 
# 
# 
# High freq. dielectric constant tensor:
#      x y z
#    x 1.724030 0.000000 -0.001430 
#    y 0.000000 1.726440 0.000000 
#    z -0.001430 0.000000 1.720730 
# 
# From -- ./inp_files/92813.got.cif
#   From: 2010.06.25/outbox.cif.g09.slc.cpg/sg12_47_cif.got.tgz:92813.got - 2010.06.28 00:19:55.
