data_PCOD8099338
_publ_section_title
;
Structure prediction by ZEFSAII (Michael W. Deem and Ramdas Pophale) SiO2 
 PCOD8099338
Probable space group: C 2/M
;
_chemical_formula_sum "Si O2"
_cell_formula_units_Z 56
_cell_length_a 33.433797
_cell_length_b 9.099791
_cell_length_c 14.215891
_cell_angle_alpha 90.000000
_cell_angle_beta 44.193290
_cell_angle_gamma 90.000000
_cell_volume 3014.911278
_symmetry_space_group_name_H-M "C 2/M"
_symmetry_group_IT_number 12
_symmetry_cell_setting 'monoclinic'
loop_
_space_group_symop_operation_xyz
x,y,z
-x,y,-z
-x,-y,-z
x,-y,z
1/2+x,1/2+y,z
1/2-x,1/2+y,-z
1/2-x,1/2-y,-z
1/2+x,1/2-y,z
loop_
_atom_site_type_symbol
_atom_site_label
_atom_site_fract_x
_atom_site_fract_y
_atom_site_fract_z
Si Si1 0.965175 0.167959 0.734901
Si Si2 0.642885 0.673868 0.962542
Si Si3 0.593614 0.330883 0.518259
Si Si4 0.814172 0.670996 0.287927
Si Si5 0.202514 0.333969 0.022342
Si Si6 0.317649 0.329078 0.474590
Si Si7 0.411680 0.164039 0.664727
O O1 0.960504 0.257975 0.645275
O O2 0.029167 0.191535 0.667190
O O3 0.953370 0.000000 0.726992
O O4 0.919872 0.216859 0.890975
O O5 0.652575 0.500000 0.942781
O O6 0.647500 0.740863 0.851190
O O7 0.692292 0.746967 0.942758
O O8 0.606014 0.500000 0.474543
O O9 0.638843 0.273135 0.518623
O O10 0.602401 0.244381 0.407772
O O11 0.829928 0.500000 0.256165
O O12 0.746958 0.698209 0.380658
O O13 0.831030 0.731646 0.361344
O O14 0.222727 0.500000 0.964785
O O15 0.145517 0.335524 0.178650
O O16 0.250000 0.250000 0.000000
O O17 0.327509 0.500000 0.432934
O O18 0.432751 0.000000 0.606959
#
# Coordination Sequence:
#
# PCOD8099338 Si02
#       7
#     8   8   8   8   8   8   8
#     4   9  19  36  55  77 105 142 184 219 257 311
#     4  10  20  35  56  78 104 142 178 216 266 316
#     4  10  20  35  56  79 105 139 182 224 262 311
#     4  10  20  36  57  81 107 137 173 218 270 325
#     4  10  21  35  50  75 109 142 179 220 260 313
#     4   9  20  37  56  80 105 135 174 220 268 317
#     4  10  21  34  50  77 110 143 177 216 266 315
#
# _framework density 18.574344
#
# number of rings (size 3 to 8) (size 9 to 14) (size 15 to 20)
#    0.000    2.286    0.000    2.143    2.000    5.714 
#    0.000    0.714    0.000    4.286    0.000    0.000 
#    0.000    0.000    0.000    0.000    0.000    0.000 
#
# Total GULP energy -347267.259191 kJ/mol
# GULP energy per Si atom -12402.402114 kJ/mol
# Density = 1.853207 g / cm^3
# Si number density = 18.574344 Si / 1000 Ang^3
#
#
#
# Elastic Constant Matrix: (Units=GPa)
#
#
# Indices 1 2 3 4 5 6 
#
# 1 120.3678 47.5631 40.7046 0.0000 15.0867 -0.0002
# 2 47.5631 106.1875 51.5470 0.0000 15.1478 -0.0004
# 3 40.7046 51.5470 87.7559 0.0000 23.9525 0.0000
# 4 0.0000 0.0000 0.0000 32.9365 0.0000 6.8907
# 5 15.0867 15.1478 23.9525 0.0000 19.2524 0.0000
# 6 -0.0002 -0.0004 0.0000 6.8907 0.0000 27.7316
#
#
#
# Elastic Compliance Matrix: (Units=1/GPa)
#
#
# Indices 1 2 3 4 5 6 
#
# 1 0.010744 -0.003304 -0.002202 0.000000 -0.003080 0.000000
# 2 -0.003304 0.014206 -0.006765 0.000000 -0.000171 0.000000
# 3 -0.002202 -0.006765 0.021905 0.000000 -0.020204 0.000000
# 4 0.000000 0.000000 0.000000 0.032026 0.000000 -0.007958
# 5 -0.003080 -0.000171 -0.020204 0.000000 0.079627 0.000000
# 6 0.000000 0.000000 0.000000 -0.007958 0.000000 0.038037
#
#
# Mechanical properties :
#
#
# Convention : Reuss Voigt Hill
#
# Bulk Modulus (GPa) = 44.81769 65.99339 55.40554
# Shear Modulus (GPa) = 21.87940 27.61720 24.74830
#
# Velocity S-wave (km/s) = 3.43583 3.86015 3.65415
# Velocity P-wave (km/s) = 6.31832 7.44809 6.90635
#
# Compressibility (1/GPa) = 0.02231262
#
# Stress axis : x y z
#
# Youngs Moduli (GPa) = 93.07325 70.39452 45.65174
#
# Poissons Ratio (x) = 0.23260 0.10053
# Poissons Ratio (y) = 0.30753 0.30883
# Poissons Ratio (z) = 0.20495 0.47621
#
# Static dielectric constant tensor:
#      x y z
#    x 3.559350 0.000000 -0.148700 
#    y 0.000000 3.612680 0.000000 
#    z -0.148700 0.000000 3.422360 
# 
# 
# High freq. dielectric constant tensor:
#      x y z
#    x 1.713270 0.000000 -0.003060 
#    y 0.000000 1.728940 0.000000 
#    z -0.003060 0.000000 1.719310 
# 
# From -- ./inp_files/187213.got.cif
#   From: 2010.06.25/outbox.cif.g09.slc.cpg/sg12_94_cif.got.tgz:187213.got - 2010.06.28 00:19:55.
