data_PCOD8099552
_publ_section_title
;
Structure prediction by ZEFSAII (Michael W. Deem and Ramdas Pophale) SiO2 
 PCOD8099552
Probable space group: C 2/M
;
_chemical_formula_sum "Si O2"
_cell_formula_units_Z 64
_cell_length_a 25.148823
_cell_length_b 8.760435
_cell_length_c 15.804035
_cell_angle_alpha 90.000000
_cell_angle_beta 70.240492
_cell_angle_gamma 90.000000
_cell_volume 3276.847932
_symmetry_space_group_name_H-M "C 2/M"
_symmetry_group_IT_number 12
_symmetry_cell_setting 'monoclinic'
loop_
_space_group_symop_operation_xyz
x,y,z
-x,y,-z
-x,-y,-z
x,-y,z
1/2+x,1/2+y,z
1/2-x,1/2+y,-z
1/2-x,1/2-y,-z
1/2+x,1/2-y,z
loop_
_atom_site_type_symbol
_atom_site_label
_atom_site_fract_x
_atom_site_fract_y
_atom_site_fract_z
Si Si1 0.021632 0.174716 0.184848
Si Si2 0.476971 0.180863 0.640883
Si Si3 0.782468 0.820069 0.244779
Si Si4 0.214103 0.179458 0.945192
Si Si5 0.285271 0.817446 0.558247
Si Si6 0.908317 0.825081 0.163763
Si Si7 0.905244 0.677846 0.994232
Si Si8 0.412017 0.819650 0.511527
O O1 0.041429 0.231598 0.265343
O O2 0.953705 0.192338 0.214189
O O3 0.040544 0.000000 0.161491
O O4 0.048358 0.281493 0.099781
O O5 0.540289 0.234283 0.580610
O O6 0.431625 0.232174 0.594531
O O7 0.475264 0.000000 0.656791
O O8 0.766279 0.760735 0.158899
O O9 0.741749 0.753615 0.339480
O O10 0.847123 0.771102 0.230751
O O11 0.776442 0.000000 0.249464
O O12 0.149978 0.224523 0.996219
O O13 0.220720 0.000000 0.946093
O O14 0.250000 0.250000 0.000000
O O15 0.250000 0.750000 0.500000
O O16 0.349978 0.755332 0.520957
O O17 0.282819 0.000000 0.554700
O O18 0.928426 0.721849 0.074298
O O19 0.904404 0.000000 0.133711
O O20 0.890959 0.500000 0.997779
O O21 0.409435 0.000000 0.512592
#
# Coordination Sequence:
#
# PCOD8099552 Si02
#       8
#     8   8   8   8   8   8   8   8
#     4  11  22  34  53  81 111 143 180 227 283 337
#     4   9  18  35  56  77 105 146 190 229 275 335
#     4   8  17  34  54  76 107 147 185 220 273 339
#     4  10  20  37  59  83 113 150 188 230 279 335
#     4  10  20  35  56  82 110 143 186 231 278 333
#     4   9  19  36  54  73 107 149 181 220 280 341
#     4  11  22  36  54  79 109 143 185 230 276 329
#     4   8  17  35  56  77 108 146 182 228 284 333
#
# _framework density 19.530964000000001
#
# number of rings (size 3 to 8) (size 9 to 14) (size 15 to 20)
#    0.000    2.500    0.000    3.750    1.750    3.500 
#    0.000    7.500    0.000    0.000    0.000    0.000 
#    0.000    0.000    0.000    0.000    0.000    0.000 
#
# Total GULP energy -396684.699026 kJ/mol
# GULP energy per Si atom -12396.396845 kJ/mol
# Density = 1.948651 g / cm^3
# Si number density = 19.530964 Si / 1000 Ang^3
#
#
#
# Elastic Constant Matrix: (Units=GPa)
#
#
# Indices 1 2 3 4 5 6 
#
# 1 117.3577 19.3210 50.2445 0.0000 7.7942 0.0000
# 2 19.3210 46.8922 21.8571 0.0000 4.6453 0.0000
# 3 50.2445 21.8571 93.6353 0.0000 -0.1746 0.0000
# 4 0.0000 0.0000 0.0000 28.1362 0.0000 6.2638
# 5 7.7942 4.6453 -0.1746 0.0000 29.0349 0.0000
# 6 0.0000 0.0000 0.0000 6.2638 0.0000 25.6318
#
#
#
# Elastic Compliance Matrix: (Units=1/GPa)
#
#
# Indices 1 2 3 4 5 6 
#
# 1 0.011457 -0.001764 -0.005741 0.000000 -0.002828 0.000000
# 2 -0.001764 0.024642 -0.004812 0.000000 -0.003498 0.000000
# 3 -0.005741 -0.004812 0.014888 0.000000 0.002401 0.000000
# 4 0.000000 0.000000 0.000000 0.037586 0.000000 -0.009185
# 5 -0.002828 -0.003498 0.002401 0.000000 0.035775 0.000000
# 6 0.000000 0.000000 0.000000 -0.009185 0.000000 0.041259
#
#
# Mechanical properties :
#
#
# Convention : Reuss Voigt Hill
#
# Bulk Modulus (GPa) = 37.94764 48.97006 43.45885
# Shear Modulus (GPa) = 25.12230 27.65807 26.39019
#
# Velocity S-wave (km/s) = 3.59037 3.76721 3.67985
# Velocity P-wave (km/s) = 6.05469 6.63702 6.35253
#
# Compressibility (1/GPa) = 0.02635210
#
# Stress axis : x y z
#
# Youngs Moduli (GPa) = 87.28043 40.58129 67.16717
#
# Poissons Ratio (x) = 0.07160 0.38563
# Poissons Ratio (y) = 0.15400 0.32320
# Poissons Ratio (z) = 0.50111 0.19527
#
# Static dielectric constant tensor:
#      x y z
#    x 3.758700 0.000000 -0.029940 
#    y 0.000000 3.353720 0.000000 
#    z -0.029940 0.000000 3.672100 
# 
# 
# High freq. dielectric constant tensor:
#      x y z
#    x 1.764360 0.000000 0.002480 
#    y 0.000000 1.732560 0.000000 
#    z 0.002480 0.000000 1.762270 
# 
# From -- ./inp_files/243760.got.cif
#   From: 2010.06.25/outbox.cif.g09.slc.cpg/sg12_122_cif.got.tgz:243760.got - 2010.06.28 00:19:55.
