data_PCOD8099135
_publ_section_title
;
Structure prediction by ZEFSAII (Michael W. Deem and Ramdas Pophale) SiO2 
 PCOD8099135
Probable space group: C 2/M
;
_chemical_formula_sum "Si O2"
_cell_formula_units_Z 64
_cell_length_a 18.237609
_cell_length_b 8.767563
_cell_length_c 30.689033
_cell_angle_alpha 90.000000
_cell_angle_beta 137.685754
_cell_angle_gamma 90.000000
_cell_volume 3303.480755
_symmetry_space_group_name_H-M "C 2/M"
_symmetry_group_IT_number 12
_symmetry_cell_setting 'monoclinic'
loop_
_space_group_symop_operation_xyz
x,y,z
-x,y,-z
-x,-y,-z
x,-y,z
1/2+x,1/2+y,z
1/2-x,1/2+y,-z
1/2-x,1/2-y,-z
1/2+x,1/2-y,z
loop_
_atom_site_type_symbol
_atom_site_label
_atom_site_fract_x
_atom_site_fract_y
_atom_site_fract_z
Si Si1 0.922828 0.679935 0.807084
Si Si2 0.475181 0.818586 0.314262
Si Si3 0.669387 0.680392 0.070255
Si Si4 0.408054 0.818286 0.190573
Si Si5 0.991313 0.819371 0.925500
Si Si6 0.783741 0.680483 0.560213
Si Si7 0.877890 0.179833 0.434936
Si Si8 0.691586 0.819375 0.686385
O O1 0.904809 0.500000 0.796998
O O2 0.807843 0.761870 0.753240
O O3 0.998120 0.738459 0.800619
O O4 0.983475 0.725413 0.877867
O O5 0.433121 0.753981 0.249676
O O6 0.596940 0.757053 0.375315
O O7 0.397851 0.757111 0.318740
O O8 0.474725 0.000000 0.313107
O O9 0.672338 0.500000 0.072846
O O10 0.791365 0.748571 0.123666
O O11 0.607047 0.733998 0.086391
O O12 0.604813 0.729976 0.998365
O O13 0.403810 0.000000 0.189178
O O14 0.986595 0.000000 0.914081
O O15 0.782997 0.500000 0.555674
O O16 0.750000 0.750000 0.500000
O O17 0.699615 0.735118 0.560109
O O18 0.838016 0.260173 0.374008
O O19 0.000000 0.231599 0.500000
O O20 0.869997 0.000000 0.424080
O O21 0.692924 0.000000 0.686422
#
# Coordination Sequence:
#
# PCOD8099135 Si02
#       8
#     8   8   8   8   8   8   8   8
#     4  11  22  34  51  76 107 141 172 209 264 320
#     4   9  18  33  54  77  99 130 175 219 255 296
#     4   8  15  30  54  79 100 131 175 216 255 304
#     4   9  17  31  51  74 102 136 172 209 255 315
#     4   9  17  32  55  79 102 131 172 218 257 302
#     4  10  20  35  55  79 108 141 175 211 252 302
#     4  10  21  37  57  82 113 144 170 205 261 319
#     4  11  22  36  57  80 102 134 179 226 261 297
#
# _framework density 19.373504000000001
#
# number of rings (size 3 to 8) (size 9 to 14) (size 15 to 20)
#    0.000    2.375    0.000    3.750    0.000    5.250 
#    0.000    1.875    0.000    9.750    0.000    0.000 
#    0.000    0.000    0.000    0.000    0.000    0.000 
#
# Total GULP energy -396813.464266 kJ/mol
# GULP energy per Si atom -12400.420758 kJ/mol
# Density = 1.932941 g / cm^3
# Si number density = 19.373504 Si / 1000 Ang^3
#
#
#
# Elastic Constant Matrix: (Units=GPa)
#
#
# Indices 1 2 3 4 5 6 
#
# 1 174.7229 20.8608 94.3825 0.0000 0.2228 0.0000
# 2 20.8608 8.4720 16.1737 0.0000 -6.7091 0.0000
# 3 94.3825 16.1737 167.1197 0.0000 0.8579 0.0000
# 4 0.0000 0.0000 0.0000 30.1037 0.0000 -7.3714
# 5 0.2228 -6.7091 0.8579 0.0000 44.2633 0.0000
# 6 0.0000 0.0000 0.0000 -7.3714 0.0000 20.8054
#
#
#
# Elastic Compliance Matrix: (Units=1/GPa)
#
#
# Indices 1 2 3 4 5 6 
#
# 1 0.010191 -0.020307 -0.003774 0.000000 -0.003056 0.000000
# 2 -0.020307 0.210987 -0.009116 0.000000 0.032259 0.000000
# 3 -0.003774 -0.009116 0.009005 0.000000 -0.001537 0.000000
# 4 0.000000 0.000000 0.000000 0.036374 0.000000 0.012887
# 5 -0.003056 0.032259 -0.001537 0.000000 0.027527 0.000000
# 6 0.000000 0.000000 0.000000 0.012887 0.000000 0.052630
#
#
# Mechanical properties :
#
#
# Convention : Reuss Voigt Hill
#
# Bulk Modulus (GPa) = 6.10545 68.12763 37.11654
# Shear Modulus (GPa) = 10.69048 33.62766 22.15907
#
# Velocity S-wave (km/s) = 2.35161 4.17076 3.38565
# Velocity P-wave (km/s) = 3.24526 7.64430 5.87227
#
# Compressibility (1/GPa) = 0.16378820
#
# Stress axis : x y z
#
# Youngs Moduli (GPa) = 98.12977 4.73962 111.04465
#
# Poissons Ratio (x) = 0.09625 0.41911
# Poissons Ratio (y) = 1.99276 1.01228
# Poissons Ratio (z) = 0.37036 0.04321
#
# Static dielectric constant tensor:
#      x y z
#    x 3.837280 0.000000 0.199150 
#    y 0.000000 3.096850 0.000000 
#    z 0.199150 0.000000 3.896790 
# 
# 
# High freq. dielectric constant tensor:
#      x y z
#    x 1.766750 0.000000 0.001860 
#    y 0.000000 1.710980 0.000000 
#    z 0.001860 0.000000 1.774150 
# 
# From -- ./inp_files/378453.got.cif
#   From: 2010.06.25/outbox.cif.g09.slc.cpg/sg12_190_cif.got.tgz:378453.got - 2010.06.28 00:19:55.
