data_PCOD8099039
_publ_section_title
;
Structure prediction by ZEFSAII (Michael W. Deem and Ramdas Pophale) SiO2 
 PCOD8099039
Probable space group: C 2/M
;
_chemical_formula_sum "Si O2"
_cell_formula_units_Z 48
_cell_length_a 18.250423
_cell_length_b 9.008061
_cell_length_c 20.888147
_cell_angle_alpha 90.000000
_cell_angle_beta 49.041792
_cell_angle_gamma 90.000000
_cell_volume 2593.338451
_symmetry_space_group_name_H-M "C 2/M"
_symmetry_group_IT_number 12
_symmetry_cell_setting 'monoclinic'
loop_
_space_group_symop_operation_xyz
x,y,z
-x,y,-z
-x,-y,-z
x,-y,z
1/2+x,1/2+y,z
1/2-x,1/2+y,-z
1/2-x,1/2-y,-z
1/2+x,1/2-y,z
loop_
_atom_site_type_symbol
_atom_site_label
_atom_site_fract_x
_atom_site_fract_y
_atom_site_fract_z
Si Si1 0.905129 0.830201 0.904104
Si Si2 0.032946 0.674932 0.739799
Si Si3 0.241663 0.324194 0.573170
Si Si4 0.374048 0.171114 0.731178
Si Si5 0.388383 0.170820 0.581499
Si Si6 0.253792 0.670473 0.084708
O O1 0.812999 0.786891 0.913967
O O2 0.999371 0.736684 0.828752
O O3 0.932776 0.000000 0.877093
O O4 0.867177 0.802938 0.999625
O O5 0.025477 0.500000 0.747782
O O6 0.141297 0.728441 0.663185
O O7 0.960372 0.737806 0.726181
O O8 0.244801 0.500000 0.562858
O O9 0.250000 0.250000 0.500000
O O10 0.329655 0.271325 0.566225
O O11 0.371462 0.241836 0.661988
O O12 0.269132 0.193308 0.826420
O O13 0.399631 0.000000 0.705390
O O14 0.500000 0.183693 0.500000
O O15 0.352832 0.000000 0.597063
O O16 0.224652 0.500000 0.083012
#
# Coordination Sequence:
#
# PCOD8099039 Si02
#       6
#     8   8   8   8   8   8
#     4   9  15  23  41  70  99 127 165 211 249 286
#     4   9  18  33  51  71  99 134 167 202 250 302
#     4  11  23  38  56  77 102 132 167 208 254 305
#     4   8  14  28  50  71  95 131 169 202 241 294
#     4  10  20  35  55  77 102 133 169 207 251 305
#     4   8  14  25  41  65  99 135 168 202 245 295
#
# _framework density 18.508960999999999
#
# number of rings (size 3 to 8) (size 9 to 14) (size 15 to 20)
#    0.000    2.833    0.000    3.000    0.000    5.000 
#    0.000    3.333    0.000    1.000    0.000    7.000 
#    0.000    0.000    0.000    0.000    0.000    0.000 
#
# Total GULP energy -297333.348868 kJ/mol
# GULP energy per Si atom -12388.889536 kJ/mol
# Density = 1.846683 g / cm^3
# Si number density = 18.508961 Si / 1000 Ang^3
#
#
#
# Elastic Constant Matrix: (Units=GPa)
#
#
# Indices 1 2 3 4 5 6 
#
# 1 66.0480 22.1528 47.4499 0.0000 0.9580 0.0000
# 2 22.1528 43.0114 42.6780 0.0000 -4.7430 0.0001
# 3 47.4499 42.6780 173.2217 0.0000 -2.0032 0.0000
# 4 0.0000 0.0000 0.0000 28.4196 0.0000 -1.7202
# 5 0.9580 -4.7430 -2.0032 0.0000 26.5212 0.0000
# 6 0.0000 0.0001 0.0000 -1.7202 0.0000 18.5871
#
#
#
# Elastic Compliance Matrix: (Units=1/GPa)
#
#
# Indices 1 2 3 4 5 6 
#
# 1 0.020258 -0.006816 -0.003896 0.000000 -0.002245 0.000000
# 2 -0.006816 0.033725 -0.006375 0.000000 0.005796 0.000000
# 3 -0.003896 -0.006375 0.008407 0.000000 -0.000364 0.000000
# 4 0.000000 0.000000 0.000000 0.035385 0.000000 0.003275
# 5 -0.002245 0.005796 -0.000364 0.000000 0.038796 0.000000
# 6 0.000000 0.000000 0.000000 0.003275 0.000000 0.054104
#
#
# Mechanical properties :
#
#
# Convention : Reuss Voigt Hill
#
# Bulk Modulus (GPa) = 35.44065 56.31585 45.87825
# Shear Modulus (GPa) = 21.34449 26.03895 23.69172
#
# Velocity S-wave (km/s) = 3.39956 3.75484 3.58161
# Velocity P-wave (km/s) = 5.88207 7.02074 6.47648
#
# Compressibility (1/GPa) = 0.02821619
#
# Stress axis : x y z
#
# Youngs Moduli (GPa) = 49.36333 29.65183 118.95415
#
# Poissons Ratio (x) = 0.20209 0.46344
# Poissons Ratio (y) = 0.33644 0.75834
# Poissons Ratio (z) = 0.19232 0.18903
#
# Static dielectric constant tensor:
#      x y z
#    x 3.048000 0.000000 0.032200 
#    y 0.000000 3.277750 0.000000 
#    z 0.032200 0.000000 4.095130 
# 
# 
# High freq. dielectric constant tensor:
#      x y z
#    x 1.660910 0.000000 -0.001430 
#    y 0.000000 1.699380 0.000000 
#    z -0.001430 0.000000 1.752890 
# 
# From -- ./inp_files/313604.got.cif
#   From: 2010.06.25/outbox.cif.g09.slc.cpg/sg12_157_cif.got.tgz:313604.got - 2010.06.28 00:19:55.
