data_PCOD8099818
_publ_section_title
;
Structure prediction by ZEFSAII (Michael W. Deem and Ramdas Pophale) SiO2 
 PCOD8099818
Probable space group: C 2/M
;
_chemical_formula_sum "Si O2"
_cell_formula_units_Z 56
_cell_length_a 9.329077
_cell_length_b 10.384435
_cell_length_c 31.528881
_cell_angle_alpha 90.000000
_cell_angle_beta 64.528135
_cell_angle_gamma 90.000000
_cell_volume 2757.528509
_symmetry_space_group_name_H-M "C 2/M"
_symmetry_group_IT_number 12
_symmetry_cell_setting 'monoclinic'
loop_
_space_group_symop_operation_xyz
x,y,z
-x,y,-z
-x,-y,-z
x,-y,z
1/2+x,1/2+y,z
1/2-x,1/2+y,-z
1/2-x,1/2-y,-z
1/2+x,1/2-y,z
loop_
_atom_site_type_symbol
_atom_site_label
_atom_site_fract_x
_atom_site_fract_y
_atom_site_fract_z
Si Si1 0.885609 0.352587 0.974991
Si Si2 0.652306 0.746077 0.189056
Si Si3 0.914238 0.648682 0.650508
Si Si4 0.514040 0.143530 0.869760
Si Si5 0.685432 0.000000 0.477257
Si Si6 0.163763 0.000000 0.455710
Si Si7 0.190040 0.144838 0.751521
Si Si8 0.239822 0.769626 0.591433
O O1 0.820975 0.500000 0.978108
O O2 0.980805 0.303806 0.921183
O O3 0.750000 0.250000 0.000000
O O4 0.000000 0.346378 0.000000
O O5 0.604545 0.791386 0.148501
O O6 0.729293 0.848376 0.212040
O O7 0.489408 0.695561 0.229867
O O8 0.797807 0.646491 0.164796
O O9 0.964990 0.500000 0.653220
O O10 0.803009 0.709582 0.701795
O O11 0.827338 0.652352 0.616832
O O12 0.062851 0.743162 0.629633
O O13 0.456146 0.000000 0.874875
O O14 0.500000 0.000000 0.500000
O O15 0.703184 0.000000 0.525506
O O16 0.759397 0.867968 0.448602
O O17 0.177055 0.868613 0.427046
O O18 0.000000 0.000000 0.500000
O O19 0.175111 0.000000 0.739457
#
# Coordination Sequence:
#
# PCOD8099818 Si02
#       8
#     8   8   8   8   4   4   8   8
#     4  10  21  37  56  83 118 159 203 250 300 356
#     4  10  20  36  57  87 111 151 196 238 297 356
#     4  11  23  42  62  91 122 159 196 246 294 351
#     4  10  20  35  57  81 117 152 194 249 299 350
#     4  12  24  42  66  94 124 160 196 248 296 346
#     4  12  24  40  62  96 122 156 204 244 286 354
#     4  10  21  37  60  84 118 150 190 240 294 352
#     4  12  23  43  66  90 126 159 200 242 297 350
#
# _framework density 20.308039999999998
#
# number of rings (size 3 to 8) (size 9 to 14) (size 15 to 20)
#    0.000    1.286    1.429    5.143    0.000    0.286 
#    0.000    3.571    6.286    0.000    0.000    0.000 
#    0.000    0.000    0.000    0.000    0.000    0.000 
#
# Total GULP energy -346955.407335 kJ/mol
# GULP energy per Si atom -12391.264548 kJ/mol
# Density = 2.026182 g / cm^3
# Si number density = 20.308040 Si / 1000 Ang^3
#
#
#
# Elastic Constant Matrix: (Units=GPa)
#
#
# Indices 1 2 3 4 5 6 
#
# 1 92.4559 19.4477 16.8518 0.0000 -13.7716 0.0000
# 2 19.4477 91.5506 32.8613 0.0000 -13.7995 0.0000
# 3 16.8518 32.8613 96.9629 0.0000 -12.9337 0.0000
# 4 0.0000 0.0000 0.0000 31.5844 0.0000 -0.3478
# 5 -13.7716 -13.7995 -12.9337 0.0000 43.9039 0.0000
# 6 0.0000 0.0000 0.0000 -0.3478 0.0000 22.6276
#
#
#
# Elastic Compliance Matrix: (Units=1/GPa)
#
#
# Indices 1 2 3 4 5 6 
#
# 1 0.011794 -0.001681 -0.001100 0.000000 0.002847 0.000000
# 2 -0.001681 0.013009 -0.003791 0.000000 0.002445 0.000000
# 3 -0.001100 -0.003791 0.012058 0.000000 0.002016 0.000000
# 4 0.000000 0.000000 0.000000 0.031667 0.000000 0.000487
# 5 0.002847 0.002445 0.002016 0.000000 0.025032 0.000000
# 6 0.000000 0.000000 0.000000 0.000487 0.000000 0.044201
#
#
# Mechanical properties :
#
#
# Convention : Reuss Voigt Hill
#
# Bulk Modulus (GPa) = 42.16366 46.58786 44.37576
# Shear Modulus (GPa) = 31.48387 33.74376 32.61382
#
# Velocity S-wave (km/s) = 3.94168 4.08069 4.01179
# Velocity P-wave (km/s) = 6.44382 6.72258 6.58468
#
# Compressibility (1/GPa) = 0.02371711
#
# Stress axis : x y z
#
# Youngs Moduli (GPa) = 84.78719 76.86873 82.93290
#
# Poissons Ratio (x) = 0.12924 0.09124
# Poissons Ratio (y) = 0.14256 0.31436
# Poissons Ratio (z) = 0.09328 0.29138
#
# Static dielectric constant tensor:
#      x y z
#    x 3.739130 0.000000 -0.086710 
#    y 0.000000 3.528120 0.000000 
#    z -0.086710 0.000000 4.251480 
# 
# 
# High freq. dielectric constant tensor:
#      x y z
#    x 1.800580 0.000000 -0.001430 
#    y 0.000000 1.783690 0.000000 
#    z -0.001430 0.000000 1.810930 
# 
# From -- ./inp_files/372116.got.cif
#   From: 2010.06.25/outbox.cif.g09.slc.cpg/sg12_187_cif.got.tgz:372116.got - 2010.06.28 00:19:55.
