data_PCOD8099210
_publ_section_title
;
Structure prediction by ZEFSAII (Michael W. Deem and Ramdas Pophale) SiO2 
 PCOD8099210
Probable space group: C 2/M
;
_chemical_formula_sum "Si O2"
_cell_formula_units_Z 64
_cell_length_a 13.889213
_cell_length_b 24.620445
_cell_length_c 16.837903
_cell_angle_alpha 90.000000
_cell_angle_beta 35.818901
_cell_angle_gamma 90.000000
_cell_volume 3369.648178
_symmetry_space_group_name_H-M "C 2/M"
_symmetry_group_IT_number 12
_symmetry_cell_setting 'monoclinic'
loop_
_space_group_symop_operation_xyz
x,y,z
-x,y,-z
-x,-y,-z
x,-y,z
1/2+x,1/2+y,z
1/2-x,1/2+y,-z
1/2-x,1/2-y,-z
1/2+x,1/2-y,z
loop_
_atom_site_type_symbol
_atom_site_label
_atom_site_fract_x
_atom_site_fract_y
_atom_site_fract_z
Si Si1 0.852466 0.938674 0.300735
Si Si2 0.178394 0.650977 0.848368
Si Si3 0.630216 0.126909 0.347592
Si Si4 0.296924 0.605075 0.927263
Si Si5 0.142393 0.209995 0.018928
Si Si6 0.562116 0.061852 0.807857
Si Si7 0.208350 0.767400 0.792433
Si Si8 0.906295 0.562575 0.393894
O O1 0.801442 0.900516 0.260589
O O2 0.756950 0.922317 0.446210
O O3 0.047658 0.934606 0.181613
O O4 0.807005 0.000000 0.308301
O O5 0.291474 0.634769 0.846059
O O6 0.163569 0.601005 0.798024
O O7 0.258954 0.703887 0.752174
O O8 0.000000 0.669839 0.000000
O O9 0.500000 0.109309 0.500000
O O10 0.647517 0.192230 0.332810
O O11 0.562026 0.100748 0.311941
O O12 0.319579 0.648691 0.981604
O O13 0.133027 0.570955 0.054000
O O14 0.949551 0.223300 0.158579
O O15 0.250000 0.250000 0.000000
O O16 0.182169 0.216119 0.900587
O O17 0.629051 0.073466 0.674983
O O18 0.599393 0.000000 0.808460
O O19 0.957630 0.500000 0.373000
#
# Coordination Sequence:
#
# PCOD8099210 Si02
#       8
#     8   8   8   8   8   8   8   8
#     4  10  20  35  56  82 112 146 186 226 274 329
#     4  10  20  36  56  79 108 147 182 222 274 335
#     4  10  20  35  55  80 111 148 184 222 270 327
#     4  11  20  34  56  86 111 137 182 238 277 313
#     4  11  19  33  56  78 106 145 177 220 271 325
#     4  10  21  37  57  81 109 143 185 229 276 326
#     4  11  20  34  55  82 108 141 187 220 263 332
#     4   9  19  38  58  77 108 152 188 220 271 338
#
# _framework density 18.993081
#
# number of rings (size 3 to 8) (size 9 to 14) (size 15 to 20)
#    0.000    1.750    3.750    2.250    0.000    4.250 
#    0.000    1.875    0.000    9.000    0.000    0.000 
#    0.000    0.000    0.000    0.000    0.000    0.000 
#
# Total GULP energy -396750.285043 kJ/mol
# GULP energy per Si atom -12398.446408 kJ/mol
# Density = 1.894985 g / cm^3
# Si number density = 18.993081 Si / 1000 Ang^3
#
#
#
# Elastic Constant Matrix: (Units=GPa)
#
#
# Indices 1 2 3 4 5 6 
#
# 1 89.0445 42.3150 14.6621 -0.0019 2.0859 -0.0002
# 2 42.3150 129.0583 18.7322 -0.0040 8.2708 0.0028
# 3 14.6621 18.7322 40.0904 -0.0091 -0.0621 0.0077
# 4 -0.0019 -0.0040 -0.0091 29.7106 0.0049 0.3841
# 5 2.0859 8.2708 -0.0621 0.0049 18.8718 -0.0012
# 6 -0.0002 0.0028 0.0077 0.3841 -0.0012 34.2706
#
#
#
# Elastic Compliance Matrix: (Units=1/GPa)
#
#
# Indices 1 2 3 4 5 6 
#
# 1 0.013657 -0.004043 -0.003105 -0.000001 0.000252 0.000001
# 2 -0.004043 0.009769 -0.003092 0.000001 -0.003845 0.000000
# 3 -0.003105 -0.003092 0.027527 0.000008 0.001789 -0.000006
# 4 -0.000001 0.000001 0.000008 0.033663 -0.000009 -0.000377
# 5 0.000252 -0.003845 0.001789 -0.000009 0.054652 0.000002
# 6 0.000001 0.000000 -0.000006 -0.000377 0.000002 0.029184
#
#
# Mechanical properties :
#
#
# Convention : Reuss Voigt Hill
#
# Bulk Modulus (GPa) = 32.81654 45.51242 39.16448
# Shear Modulus (GPa) = 25.11426 28.73621 26.92523
#
# Velocity S-wave (km/s) = 3.64027 3.89393 3.76923
# Velocity P-wave (km/s) = 5.91476 6.65068 6.29349
#
# Compressibility (1/GPa) = 0.03047244
#
# Stress axis : x y z
#
# Youngs Moduli (GPa) = 73.22167 102.36135 36.32833
#
# Poissons Ratio (x) = 0.41388 0.11281
# Poissons Ratio (y) = 0.29606 0.11232
# Poissons Ratio (z) = 0.22736 0.31649
#
# Static dielectric constant tensor:
#      x y z
#    x 3.637720 0.000000 0.067620 
#    y 0.000000 3.543440 0.000030 
#    z 0.067620 0.000030 3.306720 
# 
# 
# High freq. dielectric constant tensor:
#      x y z
#    x 1.743830 0.000000 0.001830 
#    y 0.000000 1.749210 0.000000 
#    z 0.001830 0.000000 1.704870 
# 
# From -- ./inp_files/184948.got.cif
#   From: 2010.06.25/outbox.cif.g09.slc.cpg/sg12_93_cif.got.tgz:184948.got - 2010.06.28 00:19:55.
