data_PCOD8099471
_publ_section_title
;
Structure prediction by ZEFSAII (Michael W. Deem and Ramdas Pophale) SiO2 
 PCOD8099471
Probable space group: C 2/M
;
_chemical_formula_sum "Si O2"
_cell_formula_units_Z 64
_cell_length_a 14.374441
_cell_length_b 9.014987
_cell_length_c 25.884326
_cell_angle_alpha 90.000000
_cell_angle_beta 88.105017
_cell_angle_gamma 90.000000
_cell_volume 3352.396329
_symmetry_space_group_name_H-M "C 2/M"
_symmetry_group_IT_number 12
_symmetry_cell_setting 'monoclinic'
loop_
_space_group_symop_operation_xyz
x,y,z
-x,y,-z
-x,-y,-z
x,-y,z
1/2+x,1/2+y,z
1/2-x,1/2+y,-z
1/2-x,1/2-y,-z
1/2+x,1/2-y,z
loop_
_atom_site_type_symbol
_atom_site_label
_atom_site_fract_x
_atom_site_fract_y
_atom_site_fract_z
Si Si1 0.728156 0.325648 0.312842
Si Si2 0.906565 0.327714 0.756552
Si Si3 0.269942 0.174786 0.053639
Si Si4 0.881455 0.671299 0.226927
Si Si5 0.606306 0.828375 0.506847
Si Si6 0.617143 0.328959 0.139918
Si Si7 0.759446 0.171858 0.419925
Si Si8 0.404940 0.672532 0.123315
O O1 0.714055 0.500000 0.317516
O O2 0.633885 0.253431 0.292956
O O3 0.811893 0.281943 0.273256
O O4 0.751441 0.262679 0.367977
O O5 0.883561 0.500000 0.753147
O O6 0.859647 0.264985 0.809517
O O7 0.015885 0.294244 0.754178
O O8 0.186684 0.218179 0.093605
O O9 0.365140 0.240234 0.074872
O O10 0.279569 0.000000 0.045810
O O11 0.250000 0.250000 0.000000
O O12 0.870288 0.500000 0.211252
O O13 0.858465 0.767271 0.176761
O O14 0.500000 0.777323 0.500000
O O15 0.664721 0.801882 0.453622
O O16 0.650187 0.729863 0.551298
O O17 0.610584 0.000000 0.523781
O O18 0.628914 0.500000 0.155336
O O19 0.514376 0.294739 0.121188
O O20 0.774665 0.000000 0.407099
O O21 0.381816 0.500000 0.118274
#
# Coordination Sequence:
#
# PCOD8099471 Si02
#       8
#     8   8   8   8   8   8   8   8
#     4  11  22  36  54  77 112 150 178 212 264 319
#     4  10  20  35  56  81 107 137 179 223 259 305
#     4  11  23  38  55  77 106 138 174 216 264 318
#     4   9  20  37  55  77 107 144 179 212 258 316
#     4   9  19  38  61  80 104 142 181 218 267 322
#     4   9  20  38  57  77 106 142 174 210 264 323
#     4  10  21  36  55  82 111 138 178 226 265 308
#     4  10  20  36  58  81 105 136 175 218 263 313
#
# _framework density 19.090823
#
# number of rings (size 3 to 8) (size 9 to 14) (size 15 to 20)
#    0.000    2.125    0.000    2.625    0.000    8.250 
#    0.000    7.500    0.000    0.000    0.000    0.000 
#    0.000    0.000    0.000    0.000    0.000    0.000 
#
# Total GULP energy -396966.569649 kJ/mol
# GULP energy per Si atom -12405.205302 kJ/mol
# Density = 1.904737 g / cm^3
# Si number density = 19.090823 Si / 1000 Ang^3
#
#
#
# Elastic Constant Matrix: (Units=GPa)
#
#
# Indices 1 2 3 4 5 6 
#
# 1 82.5658 34.0296 36.1779 0.0000 12.7747 0.0000
# 2 34.0296 86.1627 48.9694 0.0000 13.0184 0.0000
# 3 36.1779 48.9694 102.7863 0.0000 20.1933 0.0000
# 4 0.0000 0.0000 0.0000 40.4920 0.0000 6.5932
# 5 12.7747 13.0184 20.1933 0.0000 23.1220 0.0000
# 6 0.0000 0.0000 0.0000 6.5932 0.0000 30.9925
#
#
#
# Elastic Compliance Matrix: (Units=1/GPa)
#
#
# Indices 1 2 3 4 5 6 
#
# 1 0.015589 -0.003955 -0.002834 0.000000 -0.003911 0.000000
# 2 -0.003955 0.017073 -0.006377 0.000000 -0.001858 0.000000
# 3 -0.002834 -0.006377 0.015392 0.000000 -0.008287 0.000000
# 4 0.000000 0.000000 0.000000 0.025582 0.000000 -0.005442
# 5 -0.003911 -0.001858 -0.008287 0.000000 0.053693 0.000000
# 6 0.000000 0.000000 0.000000 -0.005442 0.000000 0.033424
#
#
# Mechanical properties :
#
#
# Convention : Reuss Voigt Hill
#
# Bulk Modulus (GPa) = 46.03622 56.65205 51.34413
# Shear Modulus (GPa) = 25.73010 29.07717 27.40363
#
# Velocity S-wave (km/s) = 3.67519 3.90692 3.79282
# Velocity P-wave (km/s) = 6.49430 7.07753 6.79218
#
# Compressibility (1/GPa) = 0.02172203
#
# Stress axis : x y z
#
# Youngs Moduli (GPa) = 64.14978 58.57258 64.96689
#
# Poissons Ratio (x) = 0.23165 0.18413
# Poissons Ratio (y) = 0.25371 0.41427
# Poissons Ratio (z) = 0.18182 0.37350
#
# Static dielectric constant tensor:
#      x y z
#    x 3.635510 0.000000 0.047760 
#    y 0.000000 3.550850 0.000000 
#    z 0.047760 0.000000 3.430490 
# 
# 
# High freq. dielectric constant tensor:
#      x y z
#    x 1.750330 0.000000 0.007640 
#    y 0.000000 1.750190 0.000000 
#    z 0.007640 0.000000 1.739310 
# 
# From -- ./inp_files/338685.got.cif
#   From: 2010.06.25/outbox.cif.g09.slc.cpg/sg12_170_cif.got.tgz:338685.got - 2010.06.28 00:19:55.
