data_PCOD8099646
_publ_section_title
;
Structure prediction by ZEFSAII (Michael W. Deem and Ramdas Pophale) SiO2 
 PCOD8099646
Probable space group: C 2/M
;
_chemical_formula_sum "Si O2"
_cell_formula_units_Z 56
_cell_length_a 9.597794
_cell_length_b 17.876689
_cell_length_c 18.897616
_cell_angle_alpha 90.000000
_cell_angle_beta 59.763336
_cell_angle_gamma 90.000000
_cell_volume 2801.273512
_symmetry_space_group_name_H-M "C 2/M"
_symmetry_group_IT_number 12
_symmetry_cell_setting 'monoclinic'
loop_
_space_group_symop_operation_xyz
x,y,z
-x,y,-z
-x,-y,-z
x,-y,z
1/2+x,1/2+y,z
1/2-x,1/2+y,-z
1/2-x,1/2-y,-z
1/2+x,1/2-y,z
loop_
_atom_site_type_symbol
_atom_site_label
_atom_site_fract_x
_atom_site_fract_y
_atom_site_fract_z
Si Si1 0.581535 0.297822 0.775200
Si Si2 0.116867 0.911911 0.254684
Si Si3 0.923044 0.717165 0.944033
Si Si4 0.950464 0.332115 0.711571
Si Si5 0.992690 0.414422 0.166129
Si Si6 0.590424 0.914871 0.545315
Si Si7 0.539679 0.584733 0.564038
O O1 0.480361 0.372898 0.784219
O O2 0.529347 0.269356 0.865717
O O3 0.537740 0.238560 0.725163
O O4 0.772077 0.313223 0.728958
O O5 0.305116 0.892289 0.203956
O O6 0.050058 0.878287 0.346162
O O7 0.083779 0.000000 0.256586
O O8 0.905195 0.634828 0.914854
O O9 0.750000 0.750000 0.000000
O O10 0.000000 0.709745 0.000000
O O11 0.945820 0.398728 0.770231
O O12 0.058615 0.360132 0.618819
O O13 0.024353 0.500000 0.139327
O O14 0.500000 0.884237 0.500000
O O15 0.772018 0.912331 0.472507
O O16 0.538852 0.000000 0.578371
O O17 0.500000 0.626522 0.500000
O O18 0.472245 0.500000 0.576122
#
# Coordination Sequence:
#
# PCOD8099646 Si02
#       7
#     8   8   8   8   8   8   8
#     4  11  23  40  60  85 115 153 198 237 290 358
#     4  10  20  37  61  89 120 153 195 245 291 343
#     4  11  22  40  63  86 115 150 186 231 292 355
#     4  11  22  38  59  83 118 159 201 243 286 342
#     4  10  21  38  63  92 118 150 192 236 288 348
#     4  10  20  35  56  83 114 152 198 244 292 340
#     4   9  17  30  51  80 113 149 189 235 286 334
#
# _framework density 19.990908000000001
#
# number of rings (size 3 to 8) (size 9 to 14) (size 15 to 20)
#    0.000    1.714    0.000    6.429    0.000    4.857 
#    0.000    4.286    0.000    1.714    0.000    0.000 
#    0.000    0.000    0.000    0.000    0.000    0.000 
#
# Total GULP energy -347195.409909 kJ/mol
# GULP energy per Si atom -12399.836068 kJ/mol
# Density = 1.994541 g / cm^3
# Si number density = 19.990908 Si / 1000 Ang^3
#
#
#
# Elastic Constant Matrix: (Units=GPa)
#
#
# Indices 1 2 3 4 5 6 
#
# 1 101.9422 36.9208 19.7680 0.0000 7.8625 0.0000
# 2 36.9208 83.1493 49.6057 0.0000 0.5462 0.0000
# 3 19.7680 49.6057 104.8448 0.0000 10.5559 0.0000
# 4 0.0000 0.0000 0.0000 24.7237 0.0000 9.8608
# 5 7.8625 0.5462 10.5559 0.0000 39.2471 0.0000
# 6 0.0000 0.0000 0.0000 9.8608 0.0000 15.4138
#
#
#
# Elastic Compliance Matrix: (Units=1/GPa)
#
#
# Indices 1 2 3 4 5 6 
#
# 1 0.011930 -0.005697 0.000698 0.000000 -0.002498 0.000000
# 2 -0.005697 0.019624 -0.008529 0.000000 0.003162 0.000000
# 3 0.000698 -0.008529 0.013818 0.000000 -0.003738 0.000000
# 4 0.000000 0.000000 0.000000 0.054302 0.000000 -0.034739
# 5 -0.002498 0.003162 -0.003738 0.000000 0.026941 0.000000
# 6 0.000000 0.000000 0.000000 -0.034739 0.000000 0.087101
#
#
# Mechanical properties :
#
#
# Convention : Reuss Voigt Hill
#
# Bulk Modulus (GPa) = 54.59944 55.83612 55.21778
# Shear Modulus (GPa) = 20.25289 28.11970 24.18630
#
# Velocity S-wave (km/s) = 3.18638 3.75457 3.48208
# Velocity P-wave (km/s) = 6.39600 6.84011 6.62178
#
# Compressibility (1/GPa) = 0.01831521
#
# Stress axis : x y z
#
# Youngs Moduli (GPa) = 83.82039 50.95872 72.36961
#
# Poissons Ratio (x) = 0.29032 -0.05049
# Poissons Ratio (y) = 0.47754 0.61723
# Poissons Ratio (z) = -0.05848 0.43462
#
# Static dielectric constant tensor:
#      x y z
#    x 3.717550 0.000000 0.070030 
#    y 0.000000 3.723870 0.000000 
#    z 0.070030 0.000000 3.819510 
# 
# 
# High freq. dielectric constant tensor:
#      x y z
#    x 1.792910 0.000000 0.005850 
#    y 0.000000 1.768570 0.000000 
#    z 0.005850 0.000000 1.779770 
# 
# From -- ./inp_files/300664.got.cif
#   From: 2010.06.25/outbox.cif.g09.slc.cpg/sg12_151_cif.got.tgz:300664.got - 2010.06.28 00:19:55.
