data_PCOD8099194
_publ_section_title
;
Structure prediction by ZEFSAII (Michael W. Deem and Ramdas Pophale) SiO2 
 PCOD8099194
Probable space group: C 2/M
;
_chemical_formula_sum "Si O2"
_cell_formula_units_Z 64
_cell_length_a 31.254226
_cell_length_b 9.020654
_cell_length_c 25.187053
_cell_angle_alpha 90.000000
_cell_angle_beta 29.707836
_cell_angle_gamma 90.000000
_cell_volume 3519.132963
_symmetry_space_group_name_H-M "C 2/M"
_symmetry_group_IT_number 12
_symmetry_cell_setting 'monoclinic'
loop_
_space_group_symop_operation_xyz
x,y,z
-x,y,-z
-x,-y,-z
x,-y,z
1/2+x,1/2+y,z
1/2-x,1/2+y,-z
1/2-x,1/2-y,-z
1/2+x,1/2-y,z
loop_
_atom_site_type_symbol
_atom_site_label
_atom_site_fract_x
_atom_site_fract_y
_atom_site_fract_z
Si Si1 0.514416 0.827856 0.230176
Si Si2 0.054271 0.171407 0.291515
Si Si3 0.089234 0.672579 0.929912
Si Si4 0.760846 0.672292 0.724342
Si Si5 0.819328 0.325694 0.462520
Si Si6 0.356921 0.327517 0.528185
Si Si7 0.796767 0.671732 0.807581
Si Si8 0.874888 0.328394 0.989125
O O1 0.563894 0.737259 0.222252
O O2 0.413367 0.787861 0.337442
O O3 0.554451 0.782185 0.130586
O O4 0.527997 0.000000 0.228295
O O5 0.118158 0.250308 0.262959
O O6 0.958841 0.199798 0.416411
O O7 0.078135 0.000000 0.263037
O O8 0.108030 0.500000 0.898987
O O9 0.164017 0.767236 0.821443
O O10 0.083928 0.708024 0.998158
O O11 0.000000 0.723488 0.000000
O O12 0.762650 0.500000 0.707373
O O13 0.825062 0.762426 0.617880
O O14 0.793025 0.701943 0.749063
O O15 0.801958 0.500000 0.483986
O O16 0.750000 0.250000 0.500000
O O17 0.809476 0.258186 0.531745
O O18 0.333353 0.500000 0.549199
O O19 0.801714 0.500000 0.816117
O O20 0.711992 0.736468 0.927382
O O21 0.849902 0.500000 0.011443
#
# Coordination Sequence:
#
# PCOD8099194 Si02
#       8
#     8   8   8   8   8   8   8   8
#     4   9  19  35  54  76 105 140 176 216 260 308
#     4  10  21  36  55  78 103 134 174 218 262 311
#     4   9  18  33  54  79 107 140 176 215 259 308
#     4  10  21  36  54  78 107 139 175 216 263 314
#     4  10  20  35  55  80 110 142 177 217 262 312
#     4  10  21  37  56  78 105 138 177 220 264 311
#     4  10  21  36  54  77 106 138 171 211 261 315
#     4   9  18  34  54  76 103 136 175 215 255 304
#
# _framework density 18.186299000000002
#
# number of rings (size 3 to 8) (size 9 to 14) (size 15 to 20)
#    0.000    2.375    0.000    1.875    0.000    6.250 
#    0.000    5.000    0.000    0.000    0.000    0.000 
#    0.000    0.000    0.000    0.000    0.000    0.000 
#
# Total GULP energy -396940.663962 kJ/mol
# GULP energy per Si atom -12404.395749 kJ/mol
# Density = 1.814491 g / cm^3
# Si number density = 18.186299 Si / 1000 Ang^3
#
#
#
# Elastic Constant Matrix: (Units=GPa)
#
#
# Indices 1 2 3 4 5 6 
#
# 1 107.4944 61.7303 56.2245 -0.0013 -16.7780 0.0019
# 2 61.7303 100.3025 55.5716 0.0451 -5.0165 -0.0084
# 3 56.2245 55.5716 101.3142 0.0180 11.2897 -0.0007
# 4 -0.0013 0.0451 0.0180 30.0695 0.0034 -0.3547
# 5 -16.7780 -5.0165 11.2897 0.0034 29.4350 -0.0083
# 6 0.0019 -0.0084 -0.0007 -0.3547 -0.0083 33.7760
#
#
#
# Elastic Compliance Matrix: (Units=1/GPa)
#
#
# Indices 1 2 3 4 5 6 
#
# 1 0.019909 -0.006617 -0.008940 0.000015 0.013650 0.000001
# 2 -0.006617 0.017499 -0.006099 -0.000023 0.001550 0.000005
# 3 -0.008940 -0.006099 0.019703 -0.000002 -0.013692 -0.000004
# 4 0.000015 -0.000023 -0.000002 0.033260 0.000001 0.000349
# 5 0.013650 0.001550 -0.013692 0.000001 0.047269 0.000011
# 6 0.000001 0.000005 -0.000004 0.000349 0.000011 0.029610
#
#
# Mechanical properties :
#
#
# Convention : Reuss Voigt Hill
#
# Bulk Modulus (GPa) = 72.47077 72.90709 72.68893
# Shear Modulus (GPa) = 23.23823 27.69507 25.46665
#
# Velocity S-wave (km/s) = 3.57849 3.90661 3.74615
# Velocity P-wave (km/s) = 7.55048 7.77977 7.66598
#
# Compressibility (1/GPa) = 0.01379867
#
# Stress axis : x y z
#
# Youngs Moduli (GPa) = 50.22730 57.14695 50.75468
#
# Poissons Ratio (x) = 0.37815 0.45376
# Poissons Ratio (y) = 0.33236 0.30953
# Poissons Ratio (z) = 0.44905 0.34852
#
# Static dielectric constant tensor:
#      x y z
#    x 3.361230 -0.000030 0.035840 
#    y -0.000030 3.470740 0.000020 
#    z 0.035840 0.000020 3.381170 
# 
# 
# High freq. dielectric constant tensor:
#      x y z
#    x 1.705750 0.000000 0.000680 
#    y 0.000000 1.713850 0.000000 
#    z 0.000680 0.000000 1.705210 
# 
# From -- ./inp_files/249213.got.cif
#   From: 2010.06.25/outbox.cif.g09.slc.cpg/sg12_125_cif.got.tgz:249213.got - 2010.06.28 00:19:55.
