data_PCOD8099178
_publ_section_title
;
Structure prediction by ZEFSAII (Michael W. Deem and Ramdas Pophale) SiO2 
 PCOD8099178
Probable space group: C 2/M
;
_chemical_formula_sum "Si O2"
_cell_formula_units_Z 48
_cell_length_a 14.846924
_cell_length_b 8.971678
_cell_length_c 29.291513
_cell_angle_alpha 90.000000
_cell_angle_beta 139.255121
_cell_angle_gamma 90.000000
_cell_volume 2546.597361
_symmetry_space_group_name_H-M "C 2/M"
_symmetry_group_IT_number 12
_symmetry_cell_setting 'monoclinic'
loop_
_space_group_symop_operation_xyz
x,y,z
-x,y,-z
-x,-y,-z
x,-y,z
1/2+x,1/2+y,z
1/2-x,1/2+y,-z
1/2-x,1/2-y,-z
1/2+x,1/2-y,z
loop_
_atom_site_type_symbol
_atom_site_label
_atom_site_fract_x
_atom_site_fract_y
_atom_site_fract_z
Si Si1 0.631188 0.672768 0.820653
Si Si2 0.132349 0.176425 0.925022
Si Si3 0.613604 0.674288 0.580381
Si Si4 0.375585 0.824152 0.320581
Si Si5 0.078376 0.672893 0.319374
Si Si6 0.157936 0.676307 0.176185
O O1 0.600766 0.500000 0.804721
O O2 0.665071 0.718856 0.885257
O O3 0.490339 0.750536 0.750822
O O4 0.759028 0.719286 0.837793
O O5 0.988150 0.245250 0.885186
O O6 0.129733 0.000000 0.931776
O O7 0.250000 0.250000 0.000000
O O8 0.500000 0.721014 0.500000
O O9 0.604695 0.500000 0.589216
O O10 0.584092 0.769512 0.613962
O O11 0.761706 0.717673 0.616089
O O12 0.503261 0.777923 0.337170
O O13 0.237393 0.741024 0.250708
O O14 0.347872 0.000000 0.309753
O O15 0.059248 0.500000 0.303684
O O16 0.139399 0.500000 0.175022
#
# Coordination Sequence:
#
# PCOD8099178 Si02
#       6
#     8   8   8   8   8   8
#     4   9  20  37  57  79 105 138 177 219 264 316
#     4  11  23  38  55  80 112 145 179 218 265 316
#     4  10  21  36  53  76 108 145 181 218 265 320
#     4  10  20  35  55  80 107 136 175 222 268 315
#     4   9  19  35  55  78 105 137 175 220 267 315
#     4  10  20  37  59  81 105 138 178 220 266 315
#
# _framework density 18.848680000000002
#
# number of rings (size 3 to 8) (size 9 to 14) (size 15 to 20)
#    0.000    2.167    0.000    2.500    0.000    7.667 
#    0.000    3.333    0.000    0.000    0.000    0.000 
#    0.000    0.000    0.000    0.000    0.000    0.000 
#
# Total GULP energy -297692.514099 kJ/mol
# GULP energy per Si atom -12403.854754 kJ/mol
# Density = 1.880578 g / cm^3
# Si number density = 18.848680 Si / 1000 Ang^3
#
#
#
# Elastic Constant Matrix: (Units=GPa)
#
#
# Indices 1 2 3 4 5 6 
#
# 1 106.2125 51.3490 86.3066 0.0000 4.8132 0.0000
# 2 51.3490 70.7064 65.3287 0.0000 4.4554 0.0000
# 3 86.3066 65.3287 176.1173 0.0000 8.1096 0.0000
# 4 0.0000 0.0000 0.0000 35.1751 0.0000 -2.4371
# 5 4.8132 4.4554 8.1096 0.0000 21.6972 0.0000
# 6 0.0000 0.0000 0.0000 -2.4371 0.0000 27.9612
#
#
#
# Elastic Compliance Matrix: (Units=1/GPa)
#
#
# Indices 1 2 3 4 5 6 
#
# 1 0.017898 -0.007440 -0.006002 0.000000 -0.000199 0.000000
# 2 -0.007440 0.024656 -0.005436 0.000000 -0.001381 0.000000
# 3 -0.006002 -0.005436 0.010707 0.000000 -0.001554 0.000000
# 4 0.000000 0.000000 0.000000 0.028602 0.000000 0.002493
# 5 -0.000199 -0.001381 -0.001554 0.000000 0.046997 0.000000
# 6 0.000000 0.000000 0.000000 0.002493 0.000000 0.035981
#
#
# Mechanical properties :
#
#
# Convention : Reuss Voigt Hill
#
# Bulk Modulus (GPa) = 64.49595 84.33386 74.41490
# Shear Modulus (GPa) = 24.06538 26.97016 25.51777
#
# Velocity S-wave (km/s) = 3.57706 3.78680 3.68342
# Velocity P-wave (km/s) = 7.16607 7.99747 7.59316
#
# Compressibility (1/GPa) = 0.01550485
#
# Stress axis : x y z
#
# Youngs Moduli (GPa) = 55.87132 40.55812 93.39286
#
# Poissons Ratio (x) = 0.30176 0.56055
# Poissons Ratio (y) = 0.41569 0.50771
# Poissons Ratio (z) = 0.33534 0.22048
#
# Static dielectric constant tensor:
#      x y z
#    x 3.524910 0.000000 -0.123230 
#    y 0.000000 3.472110 0.000000 
#    z -0.123230 0.000000 3.368810 
# 
# 
# High freq. dielectric constant tensor:
#      x y z
#    x 1.743550 0.000000 0.000700 
#    y 0.000000 1.736070 0.000000 
#    z 0.000700 0.000000 1.728940 
# 
# From -- ./inp_files/308270.got.cif
#   From: 2010.06.25/outbox.cif.g09.slc.cpg/sg12_155_cif.got.tgz:308270.got - 2010.06.28 00:19:55.
