data_PCOD8099454
_publ_section_title
;
Structure prediction by ZEFSAII (Michael W. Deem and Ramdas Pophale) SiO2 
 PCOD8099454
Probable space group: C 2/M
;
_chemical_formula_sum "Si O2"
_cell_formula_units_Z 64
_cell_length_a 11.568654
_cell_length_b 15.236374
_cell_length_c 26.696084
_cell_angle_alpha 90.000000
_cell_angle_beta 39.792430
_cell_angle_gamma 90.000000
_cell_volume 3011.601790
_symmetry_space_group_name_H-M "C 2/M"
_symmetry_group_IT_number 12
_symmetry_cell_setting 'monoclinic'
loop_
_space_group_symop_operation_xyz
x,y,z
-x,y,-z
-x,-y,-z
x,-y,z
1/2+x,1/2+y,z
1/2-x,1/2+y,-z
1/2-x,1/2-y,-z
1/2+x,1/2-y,z
loop_
_atom_site_type_symbol
_atom_site_label
_atom_site_fract_x
_atom_site_fract_y
_atom_site_fract_z
Si Si1 0.532811 0.899997 0.833399
Si Si2 0.134044 0.903597 0.528596
Si Si3 0.256306 0.722753 0.248705
Si Si4 0.002110 0.897433 0.762684
Si Si5 0.362477 0.902894 0.791283
Si Si6 0.100125 0.600982 0.919483
Si Si7 0.107792 0.195598 0.632418
Si Si8 0.246820 0.361064 0.618783
O O1 0.669384 0.821485 0.775443
O O2 0.363268 0.890724 0.851770
O O3 0.477432 0.886994 0.910242
O O4 0.616815 0.000000 0.800248
O O5 0.200270 0.840781 0.551392
O O6 0.249031 0.891518 0.440267
O O7 0.920496 0.892871 0.590797
O O8 0.169717 0.000000 0.537281
O O9 0.355532 0.659974 0.254357
O O10 0.261122 0.672264 0.192973
O O11 0.047631 0.734920 0.332708
O O12 0.031281 0.881055 0.693781
O O13 0.802026 0.861737 0.843253
O O14 0.029425 0.000000 0.765218
O O15 0.571740 0.899243 0.704592
O O16 0.286349 0.000000 0.803185
O O17 0.126673 0.500000 0.924407
O O18 0.000000 0.647883 0.000000
O O19 0.249704 0.254448 0.616726
#
# Coordination Sequence:
#
# PCOD8099454 Si02
#       8
#     8   8   8   8   8   8   8   8
#     4  10  20  35  58  84 110 145 189 230 271 330
#     4  11  21  35  54  77 106 140 190 240 281 329
#     4  11  21  35  56  84 117 147 186 234 283 336
#     4  11  22  37  59  87 116 149 190 235 283 334
#     4  10  20  35  56  80 110 149 188 230 283 338
#     4   9  19  37  61  87 115 149 186 230 283 334
#     4  11  21  35  55  79 109 147 188 234 281 335
#     4  10  21  34  52  78 108 145 182 234 287 334
#
# _framework density 21.251149999999999
#
# number of rings (size 3 to 8) (size 9 to 14) (size 15 to 20)
#    0.000    1.625    1.250    5.625    0.000    1.500 
#    0.000    0.625    0.000    0.000    0.000   17.500 
#    0.000    0.000    0.000    0.000    0.000    0.000 
#
# Total GULP energy -396470.718321 kJ/mol
# GULP energy per Si atom -12389.709948 kJ/mol
# Density = 2.120278 g / cm^3
# Si number density = 21.251150 Si / 1000 Ang^3
#
#
#
# Elastic Constant Matrix: (Units=GPa)
#
#
# Indices 1 2 3 4 5 6 
#
# 1 90.4039 34.7950 24.0579 0.0001 23.2732 0.0000
# 2 34.7950 121.9821 8.3769 0.0000 8.6940 0.0000
# 3 24.0579 8.3769 56.1952 0.0007 20.4879 0.0005
# 4 0.0001 0.0000 0.0007 43.5828 0.0004 7.6147
# 5 23.2732 8.6940 20.4879 0.0004 26.0402 -0.0001
# 6 0.0000 0.0000 0.0005 7.6147 -0.0001 40.1346
#
#
#
# Elastic Compliance Matrix: (Units=1/GPa)
#
#
# Indices 1 2 3 4 5 6 
#
# 1 0.015938 -0.003589 -0.002148 0.000000 -0.011356 0.000000
# 2 -0.003589 0.009210 0.000162 0.000000 0.000006 0.000000
# 3 -0.002148 0.000162 0.025255 0.000000 -0.018004 0.000000
# 4 0.000000 0.000000 0.000000 0.023731 0.000000 -0.004503
# 5 -0.011356 0.000006 -0.018004 0.000000 0.062715 0.000001
# 6 0.000000 0.000000 0.000000 -0.004503 0.000001 0.025770
#
#
# Mechanical properties :
#
#
# Convention : Reuss Voigt Hill
#
# Bulk Modulus (GPa) = 25.47678 44.78232 35.12955
# Shear Modulus (GPa) = 26.75871 35.37495 31.06683
#
# Velocity S-wave (km/s) = 3.55232 4.08439 3.82761
# Velocity P-wave (km/s) = 5.37027 6.58496 6.00839
#
# Compressibility (1/GPa) = 0.03925143
#
# Stress axis : x y z
#
# Youngs Moduli (GPa) = 62.74288 108.57438 39.59680
#
# Poissons Ratio (x) = 0.38972 0.08505
# Poissons Ratio (y) = 0.22521 -0.00640
# Poissons Ratio (z) = 0.13477 -0.01754
#
# Static dielectric constant tensor:
#      x y z
#    x 3.936080 0.000000 0.328520 
#    y 0.000000 4.064140 0.000000 
#    z 0.328520 0.000000 3.739370 
# 
# 
# High freq. dielectric constant tensor:
#      x y z
#    x 1.831700 0.000000 0.031720 
#    y 0.000000 1.844180 0.000000 
#    z 0.031720 0.000000 1.790470 
# 
# From -- ./inp_files/358420.got.cif
#   From: 2010.06.25/outbox.cif.g09.slc.cpg/sg12_180_cif.got.tgz:358420.got - 2010.06.28 00:19:55.
