data_PCOD8099580
_publ_section_title
;
Structure prediction by ZEFSAII (Michael W. Deem and Ramdas Pophale) SiO2 
 PCOD8099580
Probable space group: C 2/M
;
_chemical_formula_sum "Si O2"
_cell_formula_units_Z 64
_cell_length_a 14.663405
_cell_length_b 8.487012
_cell_length_c 29.714826
_cell_angle_alpha 90.000000
_cell_angle_beta 60.942708
_cell_angle_gamma 90.000000
_cell_volume 3232.519065
_symmetry_space_group_name_H-M "C 2/M"
_symmetry_group_IT_number 12
_symmetry_cell_setting 'monoclinic'
loop_
_space_group_symop_operation_xyz
x,y,z
-x,y,-z
-x,-y,-z
x,-y,z
1/2+x,1/2+y,z
1/2-x,1/2+y,-z
1/2-x,1/2-y,-z
1/2+x,1/2-y,z
loop_
_atom_site_type_symbol
_atom_site_label
_atom_site_fract_x
_atom_site_fract_y
_atom_site_fract_z
Si Si1 0.745954 0.320108 0.125365
Si Si2 0.148520 0.813896 0.499554
Si Si3 0.099873 0.316850 0.776088
Si Si4 0.175506 0.186136 0.306030
Si Si5 0.077964 0.187613 0.420328
Si Si6 0.832784 0.316782 0.945572
Si Si7 0.553401 0.682518 0.882535
Si Si8 0.926317 0.818424 0.760656
O O1 0.735512 0.500000 0.111262
O O2 0.706759 0.206121 0.095667
O O3 0.865098 0.284580 0.108693
O O4 0.679165 0.289123 0.186121
O O5 0.250000 0.750000 0.500000
O O6 0.142805 0.756566 0.448821
O O7 0.042288 0.753462 0.549101
O O8 0.153762 0.000000 0.500155
O O9 0.108653 0.500000 0.787465
O O10 0.210165 0.246929 0.733004
O O11 0.058516 0.219972 0.828459
O O12 0.018139 0.294160 0.755444
O O13 0.132876 0.260172 0.362826
O O14 0.095790 0.230525 0.285395
O O15 0.185264 0.000000 0.308648
O O16 0.077393 0.000000 0.418651
O O17 0.851913 0.500000 0.949757
O O18 0.939669 0.223874 0.928393
O O19 0.750000 0.250000 0.000000
O O20 0.576961 0.500000 0.884774
O O21 0.961462 0.000000 0.756182
#
# Coordination Sequence:
#
# PCOD8099580 Si02
#       8
#     8   8   8   8   8   8   8   8
#     4  11  22  40  64  91 120 153 194 239 290 347
#     4   9  17  31  54  80 105 143 192 237 285 343
#     4  11  21  35  56  83 112 149 194 236 286 344
#     4   9  18  34  54  78 112 151 190 235 283 342
#     4   8  16  32  52  75 108 150 191 229 282 349
#     4  12  26  45  67  93 122 155 195 243 295 346
#     4  12  24  40  63  90 120 156 196 239 287 345
#     4  10  20  35  56  82 112 148 190 232 284 344
#
# _framework density 19.7988
#
# number of rings (size 3 to 8) (size 9 to 14) (size 15 to 20)
#    0.000    1.750    2.500    3.750    0.000    2.000 
#    0.000    3.750    0.000    3.000    0.000    0.000 
#    0.000    0.000    0.000    0.000    0.000    0.000 
#
# Total GULP energy -396868.043409 kJ/mol
# GULP energy per Si atom -12402.126357 kJ/mol
# Density = 1.975374 g / cm^3
# Si number density = 19.798800 Si / 1000 Ang^3
#
#
#
# Elastic Constant Matrix: (Units=GPa)
#
#
# Indices 1 2 3 4 5 6 
#
# 1 101.7978 10.6649 6.9551 0.0000 -5.4462 0.0000
# 2 10.6649 50.2284 22.5468 -0.0001 -0.8222 -0.0001
# 3 6.9551 22.5468 77.8046 0.0000 -5.2414 0.0000
# 4 0.0000 -0.0001 0.0000 15.3040 0.0000 2.9803
# 5 -5.4462 -0.8222 -5.2414 0.0000 28.0042 0.0000
# 6 0.0000 -0.0001 0.0000 2.9803 0.0000 34.7169
#
#
#
# Elastic Compliance Matrix: (Units=1/GPa)
#
#
# Indices 1 2 3 4 5 6 
#
# 1 0.010151 -0.002039 -0.000190 0.000000 0.001879 0.000000
# 2 -0.002039 0.023305 -0.006635 0.000000 -0.000954 0.000000
# 3 -0.000190 -0.006635 0.014966 0.000000 0.002569 0.000000
# 4 0.000000 0.000000 0.000000 0.066453 0.000000 -0.005705
# 5 0.001879 -0.000954 0.002569 0.000000 0.036527 0.000000
# 6 0.000000 0.000000 0.000000 -0.005705 0.000000 0.029294
#
#
# Mechanical properties :
#
#
# Convention : Reuss Voigt Hill
#
# Bulk Modulus (GPa) = 32.58186 34.46271 33.52229
# Shear Modulus (GPa) = 23.96294 28.24929 26.10612
#
# Velocity S-wave (km/s) = 3.48274 3.78142 3.63515
# Velocity P-wave (km/s) = 5.71532 6.04233 5.88110
#
# Compressibility (1/GPa) = 0.03069192
#
# Stress axis : x y z
#
# Youngs Moduli (GPa) = 98.51709 42.90926 66.81967
#
# Poissons Ratio (x) = 0.08750 0.01269
# Poissons Ratio (y) = 0.20090 0.44338
# Poissons Ratio (z) = 0.01870 0.28472
#
# Static dielectric constant tensor:
#      x y z
#    x 3.790190 0.000000 -0.047360 
#    y 0.000000 3.352830 0.000000 
#    z -0.047360 0.000000 3.843120 
# 
# 
# High freq. dielectric constant tensor:
#      x y z
#    x 1.782940 0.000000 -0.001070 
#    y 0.000000 1.747890 0.000000 
#    z -0.001070 0.000000 1.771580 
# 
# From -- ./inp_files/375011.got.cif
#   From: 2010.06.25/outbox.cif.g09.slc.cpg/sg12_188_cif.got.tgz:375011.got - 2010.06.28 00:19:55.
