data_PCOD8099249
_publ_section_title
;
Structure prediction by ZEFSAII (Michael W. Deem and Ramdas Pophale) SiO2 
 PCOD8099249
Probable space group: C 2/M
;
_chemical_formula_sum "Si O2"
_cell_formula_units_Z 48
_cell_length_a 23.732863
_cell_length_b 8.843223
_cell_length_c 11.710267
_cell_angle_alpha 90.000000
_cell_angle_beta 77.325348
_cell_angle_gamma 90.000000
_cell_volume 2397.802527
_symmetry_space_group_name_H-M "C 2/M"
_symmetry_group_IT_number 12
_symmetry_cell_setting 'monoclinic'
loop_
_space_group_symop_operation_xyz
x,y,z
-x,y,-z
-x,-y,-z
x,-y,z
1/2+x,1/2+y,z
1/2-x,1/2+y,-z
1/2-x,1/2-y,-z
1/2+x,1/2-y,z
loop_
_atom_site_type_symbol
_atom_site_label
_atom_site_fract_x
_atom_site_fract_y
_atom_site_fract_z
Si Si1 0.225818 0.320293 0.771570
Si Si2 0.167931 0.827904 0.003307
Si Si3 0.053544 0.170754 0.908133
Si Si4 0.885097 0.321563 0.314200
Si Si5 0.934839 0.679261 0.527259
Si Si6 0.341141 0.179095 0.748468
O O1 0.229358 0.500000 0.771426
O O2 0.176569 0.260709 0.705726
O O3 0.286376 0.248541 0.704526
O O4 0.214740 0.262083 0.906246
O O5 0.156574 0.746698 0.127124
O O6 0.189380 0.000000 0.013314
O O7 0.108095 0.824141 0.964931
O O8 0.063375 0.268785 0.790891
O O9 0.038937 0.000000 0.876649
O O10 0.000000 0.243050 0.000000
O O11 0.883581 0.500000 0.314122
O O12 0.899202 0.257925 0.433743
O O13 0.938849 0.500000 0.515682
O O14 0.899607 0.727096 0.655975
O O15 0.000000 0.747227 0.500000
O O16 0.334472 0.000000 0.756206
#
# Coordination Sequence:
#
# PCOD8099249 Si02
#       6
#     8   8   8   8   8   8
#     4  10  20  36  57  83 113 142 181 230 277 324
#     4  10  20  35  55  81 115 147 180 224 274 327
#     4   9  19  34  53  79 111 146 178 219 277 328
#     4   9  19  36  58  81 106 141 186 229 266 317
#     4   9  20  38  57  80 111 145 182 228 274 320
#     4  11  22  35  56  83 111 147 186 223 273 328
#
# _framework density 20.018329999999999
#
# number of rings (size 3 to 8) (size 9 to 14) (size 15 to 20)
#    0.000    2.333    0.000    2.000    2.333    2.333 
#    0.000    1.667    0.000    2.500    0.000    0.000 
#    0.000    0.000    0.000    0.000    0.000    0.000 
#
# Total GULP energy -297577.131027 kJ/mol
# GULP energy per Si atom -12399.047126 kJ/mol
# Density = 1.997277 g / cm^3
# Si number density = 20.018330 Si / 1000 Ang^3
#
#
#
# Elastic Constant Matrix: (Units=GPa)
#
#
# Indices 1 2 3 4 5 6 
#
# 1 83.5154 31.9581 67.0844 0.0000 -17.3113 0.0000
# 2 31.9581 59.4064 32.9799 0.0000 -3.8449 0.0000
# 3 67.0844 32.9799 116.3481 0.0000 0.0157 0.0000
# 4 0.0000 0.0000 0.0000 19.9499 0.0000 -4.6547
# 5 -17.3113 -3.8449 0.0157 0.0000 36.9042 0.0000
# 6 0.0000 0.0000 0.0000 -4.6547 0.0000 25.2070
#
#
#
# Elastic Compliance Matrix: (Units=1/GPa)
#
#
# Indices 1 2 3 4 5 6 
#
# 1 0.029232 -0.006555 -0.014998 0.000000 0.013036 0.000000
# 2 -0.006555 0.021608 -0.002345 0.000000 -0.000823 0.000000
# 3 -0.014998 -0.002345 0.017908 0.000000 -0.007287 0.000000
# 4 0.000000 0.000000 0.000000 0.052382 0.000000 0.009673
# 5 0.013036 -0.000823 -0.007287 0.000000 0.033129 0.000000
# 6 0.000000 0.000000 0.000000 0.009673 0.000000 0.041458
#
#
# Mechanical properties :
#
#
# Convention : Reuss Voigt Hill
#
# Bulk Modulus (GPa) = 47.73049 58.14608 52.93828
# Shear Modulus (GPa) = 19.96015 24.89540 22.42777
#
# Velocity S-wave (km/s) = 3.16110 3.53034 3.35081
# Velocity P-wave (km/s) = 6.10070 6.76219 6.43995
#
# Compressibility (1/GPa) = 0.02095097
#
# Stress axis : x y z
#
# Youngs Moduli (GPa) = 34.20940 46.27818 55.84000
#
# Poissons Ratio (x) = 0.30337 0.83749
# Poissons Ratio (y) = 0.22426 0.13096
# Poissons Ratio (z) = 0.51308 0.10853
#
# Static dielectric constant tensor:
#      x y z
#    x 3.991650 0.000000 -0.013530 
#    y 0.000000 3.524040 0.000000 
#    z -0.013530 0.000000 3.707190 
# 
# 
# High freq. dielectric constant tensor:
#      x y z
#    x 1.794270 0.000000 -0.001360 
#    y 0.000000 1.762340 0.000000 
#    z -0.001360 0.000000 1.777330 
# 
# From -- ./inp_files/172944.got.cif
#   From: 2010.06.25/outbox.cif.g09.slc.cpg/sg12_87_cif.got.tgz:172944.got - 2010.06.28 00:19:55.
