data_PCOD8099312
_publ_section_title
;
Structure prediction by ZEFSAII (Michael W. Deem and Ramdas Pophale) SiO2 
 PCOD8099312
Probable space group: C 2/M
;
_chemical_formula_sum "Si O2"
_cell_formula_units_Z 64
_cell_length_a 9.415347
_cell_length_b 19.356964
_cell_length_c 21.682163
_cell_angle_alpha 90.000000
_cell_angle_beta 123.157840
_cell_angle_gamma 90.000000
_cell_volume 3308.173504
_symmetry_space_group_name_H-M "C 2/M"
_symmetry_group_IT_number 12
_symmetry_cell_setting 'monoclinic'
loop_
_space_group_symop_operation_xyz
x,y,z
-x,y,-z
-x,-y,-z
x,-y,z
1/2+x,1/2+y,z
1/2-x,1/2+y,-z
1/2-x,1/2-y,-z
1/2+x,1/2-y,z
loop_
_atom_site_type_symbol
_atom_site_label
_atom_site_fract_x
_atom_site_fract_y
_atom_site_fract_z
Si Si1 0.541101 0.306670 0.438994
Si Si2 0.398623 0.080270 0.314827
Si Si3 0.897722 0.651434 0.537053
Si Si4 0.403600 0.320716 0.755459
Si Si5 0.773753 0.328720 0.071580
Si Si6 0.991008 0.580813 0.796682
Si Si7 0.804669 0.818590 0.275881
Si Si8 0.025385 0.195239 0.911524
O O1 0.500000 0.307665 0.500000
O O2 0.703434 0.356000 0.468908
O O3 0.575909 0.227509 0.427132
O O4 0.386191 0.335205 0.361892
O O5 0.552573 0.097046 0.398063
O O6 0.232351 0.122047 0.297417
O O7 0.450609 0.102123 0.258118
O O8 0.354281 0.000000 0.307630
O O9 0.000000 0.636079 0.500000
O O10 0.309159 0.249380 0.747659
O O11 0.542397 0.309161 0.735846
O O12 0.496258 0.345197 0.840475
O O13 0.914351 0.272836 0.087355
O O14 0.650559 0.296412 0.093809
O O15 0.865192 0.396424 0.120216
O O16 0.663765 0.347572 0.984485
O O17 0.962422 0.500000 0.796708
O O18 0.813193 0.617208 0.770482
#
# Coordination Sequence:
#
# PCOD8099312 Si02
#       8
#     8   8   8   8   8   8   8   8
#     4  10  21  34  57  86 119 149 196 255 301 354
#     4  11  23  40  62  85 123 164 203 250 303 367
#     4  10  20  35  55  85 117 152 195 246 304 357
#     4  12  22  38  61  94 121 153 205 248 306 351
#     4  10  20  37  60  93 122 153 192 247 300 355
#     4  11  24  42  60  86 122 165 206 247 304 358
#     4  12  24  37  65  90 121 161 199 261 299 360
#     4  10  20  35  61  94 121 149 193 245 299 349
#
# _framework density 19.346022000000001
#
# number of rings (size 3 to 8) (size 9 to 14) (size 15 to 20)
#    0.000    1.250    3.750    3.000    3.500    0.750 
#    0.000    2.500    0.000    3.000    0.000    0.000 
#    0.000    0.000    0.000    0.000    0.000    0.000 
#
# Total GULP energy -396855.657205 kJ/mol
# GULP energy per Si atom -12401.739288 kJ/mol
# Density = 1.930199 g / cm^3
# Si number density = 19.346022 Si / 1000 Ang^3
#
#
#
# Elastic Constant Matrix: (Units=GPa)
#
#
# Indices 1 2 3 4 5 6 
#
# 1 107.8956 42.0946 30.6478 0.0000 5.5769 0.0000
# 2 42.0946 81.6551 36.5460 0.0000 6.1767 0.0000
# 3 30.6478 36.5460 141.4261 0.0000 4.9159 0.0000
# 4 0.0000 0.0000 0.0000 33.0095 0.0000 -1.2340
# 5 5.5769 6.1767 4.9159 0.0000 28.9106 0.0000
# 6 0.0000 0.0000 0.0000 -1.2340 0.0000 21.7699
#
#
#
# Elastic Compliance Matrix: (Units=1/GPa)
#
#
# Indices 1 2 3 4 5 6 
#
# 1 0.011777 -0.005512 -0.001096 0.000000 -0.000908 0.000000
# 2 -0.005512 0.016591 -0.003024 0.000000 -0.001967 0.000000
# 3 -0.001096 -0.003024 0.008108 0.000000 -0.000521 0.000000
# 4 0.000000 0.000000 0.000000 0.030359 0.000000 0.001721
# 5 -0.000908 -0.001967 -0.000521 0.000000 0.035273 0.000000
# 6 0.000000 0.000000 0.000000 0.001721 0.000000 0.046033
#
#
# Mechanical properties :
#
#
# Convention : Reuss Voigt Hill
#
# Bulk Modulus (GPa) = 58.10399 61.06149 59.58274
# Shear Modulus (GPa) = 28.87807 31.51723 30.19765
#
# Velocity S-wave (km/s) = 3.86776 4.04063 3.95514
# Velocity P-wave (km/s) = 7.07427 7.30755 7.19186
#
# Compressibility (1/GPa) = 0.01721052
#
# Stress axis : x y z
#
# Youngs Moduli (GPa) = 84.91158 60.27546 123.33469
#
# Poissons Ratio (x) = 0.33223 0.13520
# Poissons Ratio (y) = 0.46803 0.37300
# Poissons Ratio (z) = 0.09308 0.18229
#
# Static dielectric constant tensor:
#      x y z
#    x 3.539680 0.000000 0.050730 
#    y 0.000000 3.187800 0.000000 
#    z 0.050730 0.000000 3.888590 
# 
# 
# High freq. dielectric constant tensor:
#      x y z
#    x 1.761450 0.000000 0.004800 
#    y 0.000000 1.709470 0.000000 
#    z 0.004800 0.000000 1.776740 
# 
# From -- ./inp_files/301774.got.cif
#   From: 2010.06.25/outbox.cif.g09.slc.cpg/sg12_151_cif.got.tgz:301774.got - 2010.06.28 00:19:55.
