data_PCOD8099536
_publ_section_title
;
Structure prediction by ZEFSAII (Michael W. Deem and Ramdas Pophale) SiO2 
 PCOD8099536
Probable space group: C 2/M
;
_chemical_formula_sum "Si O2"
_cell_formula_units_Z 60
_cell_length_a 28.088131
_cell_length_b 15.064696
_cell_length_c 25.225367
_cell_angle_alpha 90.000000
_cell_angle_beta 16.684317
_cell_angle_gamma 90.000000
_cell_volume 3064.441816
_symmetry_space_group_name_H-M "C 2/M"
_symmetry_group_IT_number 12
_symmetry_cell_setting 'monoclinic'
loop_
_space_group_symop_operation_xyz
x,y,z
-x,y,-z
-x,-y,-z
x,-y,z
1/2+x,1/2+y,z
1/2-x,1/2+y,-z
1/2-x,1/2-y,-z
1/2+x,1/2-y,z
loop_
_atom_site_type_symbol
_atom_site_label
_atom_site_fract_x
_atom_site_fract_y
_atom_site_fract_z
Si Si1 0.627849 0.600048 0.063050
Si Si2 0.000000 0.151466 0.500000
Si Si3 0.514737 0.902943 0.648600
Si Si4 0.143265 0.661219 0.620508
Si Si5 0.119660 0.276926 0.020880
Si Si6 0.574733 0.402627 0.619462
Si Si7 0.875659 0.599999 0.083396
Si Si8 0.998473 0.228861 0.613073
O O1 0.566033 0.500000 0.113708
O O2 0.579621 0.670011 0.067145
O O3 0.549113 0.632765 0.202681
O O4 0.821612 0.599775 0.867368
O O5 0.175413 0.098259 0.309012
O O6 0.971515 0.213720 0.480284
O O7 0.615568 0.882218 0.593576
O O8 0.559175 0.829445 0.557359
O O9 0.566689 0.000000 0.571515
O O10 0.250000 0.750000 0.500000
O O11 0.244534 0.590774 0.547253
O O12 0.971283 0.675739 0.833867
O O13 0.078330 0.323549 0.008614
O O14 0.311009 0.289472 0.829772
O O15 0.519756 0.500000 0.657784
O O16 0.597573 0.338013 0.545097
O O17 0.914735 0.500000 0.020873
O O18 0.000000 0.620130 0.000000
#
# Coordination Sequence:
#
# PCOD8099536 Si02
#       8
#     8   4   8   8   8   8   8   8
#     4   9  18  35  57  81 110 149 189 227 279 344
#     4  10  23  42  63  82 116 152 199 256 299 350
#     4  10  20  35  56  81 114 149 186 231 282 343
#     4  12  21  33  53  84 121 154 183 229 283 346
#     4  10  21  37  57  80 113 150 188 238 284 342
#     4  11  22  34  52  82 115 150 187 228 280 342
#     4  10  23  40  61  86 114 152 199 247 299 352
#     4  10  21  39  59  82 107 150 197 239 293 341
#
# _framework density 19.579422999999998
#
# number of rings (size 3 to 8) (size 9 to 14) (size 15 to 20)
#    0.000    1.733    2.667    1.400    1.867    5.867 
#    0.000    0.333    0.000    1.200    0.000    0.000 
#    0.000    0.000    0.000    0.000    0.000    0.000 
#
# Total GULP energy -371689.884801 kJ/mol
# GULP energy per Si atom -12389.662827 kJ/mol
# Density = 1.953486 g / cm^3
# Si number density = 19.579423 Si / 1000 Ang^3
#
#
#
# Elastic Constant Matrix: (Units=GPa)
#
#
# Indices 1 2 3 4 5 6 
#
# 1 128.8842 80.2308 20.8777 -0.0155 3.1645 -0.0093
# 2 80.2308 147.4748 21.1069 -0.0163 9.3396 -0.0228
# 3 20.8777 21.1069 42.5466 -0.0339 5.2394 -0.0282
# 4 -0.0155 -0.0163 -0.0339 12.8999 0.0318 -7.4370
# 5 3.1645 9.3396 5.2394 0.0318 27.4204 0.0169
# 6 -0.0093 -0.0228 -0.0282 -7.4370 0.0169 25.5127
#
#
#
# Elastic Compliance Matrix: (Units=1/GPa)
#
#
# Indices 1 2 3 4 5 6 
#
# 1 0.012092 -0.006231 -0.003003 -0.000009 0.001301 -0.000008
# 2 -0.006231 0.010602 -0.001890 0.000013 -0.002531 0.000011
# 3 -0.003003 -0.001890 0.026414 0.000108 -0.004057 0.000061
# 4 -0.000009 0.000013 0.000108 0.093181 -0.000149 0.027163
# 5 0.001301 -0.002531 -0.004057 -0.000149 0.037956 -0.000075
# 6 -0.000008 0.000011 0.000061 0.027163 -0.000075 0.047114
#
#
# Mechanical properties :
#
#
# Convention : Reuss Voigt Hill
#
# Bulk Modulus (GPa) = 37.22936 62.59295 49.91116
# Shear Modulus (GPa) = 19.33779 26.27927 22.80853
#
# Velocity S-wave (km/s) = 3.14611 3.66756 3.41680
# Velocity P-wave (km/s) = 5.67919 7.06915 6.41194
#
# Compressibility (1/GPa) = 0.02686052
#
# Stress axis : x y z
#
# Youngs Moduli (GPa) = 82.69723 94.32576 37.85818
#
# Poissons Ratio (x) = 0.58776 0.11368
# Poissons Ratio (y) = 0.51530 0.07155
# Poissons Ratio (z) = 0.24831 0.17827
#
# Static dielectric constant tensor:
#      x y z
#    x 3.452570 0.000020 -0.181110 
#    y 0.000020 3.955550 0.000040 
#    z -0.181110 0.000040 3.697340 
# 
# 
# High freq. dielectric constant tensor:
#      x y z
#    x 1.744070 0.000000 -0.016590 
#    y 0.000000 1.770810 0.000010 
#    z -0.016590 0.000010 1.758800 
# 
# From -- ./inp_files/352125.got.cif
#   From: 2010.06.25/outbox.cif.g09.slc.cpg/sg12_177_cif.got.tgz:352125.got - 2010.06.28 00:19:55.
