data_PCOD8099689
_publ_section_title
;
Structure prediction by ZEFSAII (Michael W. Deem and Ramdas Pophale) SiO2 
 PCOD8099689
Probable space group: C 2/M
;
_chemical_formula_sum "Si O2"
_cell_formula_units_Z 48
_cell_length_a 12.514546
_cell_length_b 21.817267
_cell_length_c 13.867344
_cell_angle_alpha 90.000000
_cell_angle_beta 43.077401
_cell_angle_gamma 90.000000
_cell_volume 2585.951415
_symmetry_space_group_name_H-M "C 2/M"
_symmetry_group_IT_number 12
_symmetry_cell_setting 'monoclinic'
loop_
_space_group_symop_operation_xyz
x,y,z
-x,y,-z
-x,-y,-z
x,-y,z
1/2+x,1/2+y,z
1/2-x,1/2+y,-z
1/2-x,1/2-y,-z
1/2+x,1/2-y,z
loop_
_atom_site_type_symbol
_atom_site_label
_atom_site_fract_x
_atom_site_fract_y
_atom_site_fract_z
Si Si1 0.852930 0.182816 0.530919
Si Si2 0.548144 0.749544 0.719557
Si Si3 0.878457 0.630577 0.776625
Si Si4 0.722956 0.571109 0.699355
Si Si5 0.691277 0.068768 0.577008
Si Si6 0.942860 0.151371 0.931467
O O1 0.701044 0.219981 0.668779
O O2 0.891327 0.200476 0.396676
O O3 0.812631 0.110687 0.555797
O O4 0.000000 0.196827 0.500000
O O5 0.442860 0.799886 0.734268
O O6 0.448973 0.713483 0.864962
O O7 0.827352 0.611740 0.702639
O O8 0.013749 0.584990 0.723878
O O9 0.734320 0.626141 0.946429
O O10 0.721888 0.500000 0.732656
O O11 0.795728 0.578722 0.546163
O O12 0.546279 0.596895 0.817601
O O13 0.730469 0.000000 0.581873
O O14 0.000000 0.169493 0.000000
#
# Coordination Sequence:
#
# PCOD8099689 Si02
#       6
#     8   8   8   8   8   8
#     4  10  22  35  59  84 107 147 186 237 280 326
#     4  10  21  38  54  83 116 144 190 227 280 338
#     4  10  21  32  55  82 113 149 180 228 282 333
#     4  10  20  35  56  84 116 149 188 234 282 333
#     4  10  20  37  57  81 111 145 194 238 277 328
#     4  10  21  35  54  83 117 152 183 224 283 340
#
# _framework density 18.561834000000001
#
# number of rings (size 3 to 8) (size 9 to 14) (size 15 to 20)
#    0.000    2.000    1.667    1.500    4.667    5.333 
#    0.000    0.000    0.000    0.000    0.000    1.167 
#    0.000    0.000    0.000    0.000    0.000    0.000 
#
# Total GULP energy -297594.529291 kJ/mol
# GULP energy per Si atom -12399.772054 kJ/mol
# Density = 1.851959 g / cm^3
# Si number density = 18.561834 Si / 1000 Ang^3
#
#
#
# Elastic Constant Matrix: (Units=GPa)
#
#
# Indices 1 2 3 4 5 6 
#
# 1 65.5925 43.4949 27.9529 -0.0003 -17.7128 0.0002
# 2 43.4949 118.6530 42.6399 0.0001 -6.4466 -0.0001
# 3 27.9529 42.6399 98.8170 -0.0009 -15.5871 0.0007
# 4 -0.0003 0.0001 -0.0009 27.3793 0.0005 4.1304
# 5 -17.7128 -6.4466 -15.5871 0.0005 29.2183 -0.0004
# 6 0.0002 -0.0001 0.0007 4.1304 -0.0004 25.5413
#
#
#
# Elastic Compliance Matrix: (Units=1/GPa)
#
#
# Indices 1 2 3 4 5 6 
#
# 1 0.024314 -0.007657 -0.001654 0.000000 0.012168 0.000000
# 2 -0.007657 0.012386 -0.003800 0.000000 -0.003936 0.000000
# 3 -0.001654 -0.003800 0.013034 0.000000 0.005112 0.000000
# 4 0.000000 0.000000 0.000000 0.037437 -0.000001 -0.006054
# 5 0.012168 -0.003936 0.005112 -0.000001 0.043460 0.000001
# 6 0.000000 0.000000 0.000000 -0.006054 0.000001 0.040131
#
#
# Mechanical properties :
#
#
# Convention : Reuss Voigt Hill
#
# Bulk Modulus (GPa) = 42.53232 56.80424 49.66828
# Shear Modulus (GPa) = 24.41139 27.69276 26.05207
#
# Velocity S-wave (km/s) = 3.63042 3.86673 3.75043
# Velocity P-wave (km/s) = 6.36686 7.11369 6.75061
#
# Compressibility (1/GPa) = 0.02351153
#
# Stress axis : x y z
#
# Youngs Moduli (GPa) = 41.12845 80.73322 76.72489
#
# Poissons Ratio (x) = 0.61819 0.12694
# Poissons Ratio (y) = 0.31493 0.29153
# Poissons Ratio (z) = 0.06804 0.30676
#
# Static dielectric constant tensor:
#      x y z
#    x 3.098930 0.000000 -0.229300 
#    y 0.000000 3.495460 0.000000 
#    z -0.229300 0.000000 3.622190 
# 
# 
# High freq. dielectric constant tensor:
#      x y z
#    x 1.691640 0.000000 -0.018520 
#    y 0.000000 1.727730 0.000000 
#    z -0.018520 0.000000 1.726180 
# 
# From -- ./inp_files/50593.got.cif
#   From: 2010.06.25/outbox.cif.g09.slc.cpg/sg12_26_cif.got.tgz:50593.got - 2010.06.28 00:19:55.
