data_PCOD8099506
_publ_section_title
;
Structure prediction by ZEFSAII (Michael W. Deem and Ramdas Pophale) SiO2 
 PCOD8099506
Probable space group: C 2/M
;
_chemical_formula_sum "Si O2"
_cell_formula_units_Z 56
_cell_length_a 15.051545
_cell_length_b 8.885053
_cell_length_c 24.144910
_cell_angle_alpha 90.000000
_cell_angle_beta 62.405393
_cell_angle_gamma 90.000000
_cell_volume 2861.683259
_symmetry_space_group_name_H-M "C 2/M"
_symmetry_group_IT_number 12
_symmetry_cell_setting 'monoclinic'
loop_
_space_group_symop_operation_xyz
x,y,z
-x,y,-z
-x,-y,-z
x,-y,z
1/2+x,1/2+y,z
1/2-x,1/2+y,-z
1/2-x,1/2-y,-z
1/2+x,1/2-y,z
loop_
_atom_site_type_symbol
_atom_site_label
_atom_site_fract_x
_atom_site_fract_y
_atom_site_fract_z
Si Si1 0.901487 0.822715 0.993629
Si Si2 0.175152 0.825333 0.563967
Si Si3 0.080295 0.176702 0.223561
Si Si4 0.140295 0.176005 0.694080
Si Si5 0.997861 0.329938 0.564374
Si Si6 0.177962 0.323175 0.091107
Si Si7 0.666304 0.170001 0.301911
O O1 0.893961 0.749722 0.934880
O O2 0.912336 0.000000 0.982208
O O3 0.796139 0.779432 0.053476
O O4 0.000000 0.764363 0.000000
O O5 0.250000 0.750000 0.500000
O O6 0.182091 0.756199 0.624075
O O7 0.062782 0.792551 0.577492
O O8 0.199912 0.000000 0.556428
O O9 0.143217 0.266243 0.160392
O O10 0.126200 0.208992 0.270426
O O11 0.967005 0.241745 0.256511
O O12 0.085789 0.000000 0.209102
O O13 0.217548 0.209241 0.721038
O O14 0.124920 0.000000 0.687710
O O15 0.040686 0.500000 0.558727
O O16 0.887594 0.318871 0.622685
O O17 0.000000 0.283459 0.500000
O O18 0.164311 0.500000 0.089897
O O19 0.654623 0.000000 0.281616
#
# Coordination Sequence:
#
# PCOD8099506 Si02
#       7
#     8   8   8   8   8   8   8
#     4   9  19  38  63  89 120 158 197 235 280 339
#     4  11  21  36  56  80 110 143 188 237 294 354
#     4  11  22  39  59  82 117 156 196 239 289 343
#     4   9  20  38  58  78 108 150 189 232 286 351
#     4  10  20  35  56  81 110 143 184 236 298 358
#     4  10  21  37  59  89 121 154 195 240 286 335
#     4  10  20  37  59  80 107 146 192 237 287 346
#
# _framework density 19.568902000000001
#
# number of rings (size 3 to 8) (size 9 to 14) (size 15 to 20)
#    0.000    2.000    1.429    2.143    0.000    4.571 
#    0.000   10.000    0.000    0.000    0.000    0.000 
#    0.000    0.000    0.000    0.000    0.000    0.000 
#
# Total GULP energy -347109.227716 kJ/mol
# GULP energy per Si atom -12396.758133 kJ/mol
# Density = 1.952436 g / cm^3
# Si number density = 19.568902 Si / 1000 Ang^3
#
#
#
# Elastic Constant Matrix: (Units=GPa)
#
#
# Indices 1 2 3 4 5 6 
#
# 1 130.8800 22.4052 40.5717 0.0000 -0.6286 0.0000
# 2 22.4052 29.1027 17.2209 0.0000 -2.2738 0.0000
# 3 40.5717 17.2209 104.3441 0.0000 -4.3961 0.0000
# 4 0.0000 0.0000 0.0000 31.3397 0.0000 3.9458
# 5 -0.6286 -2.2738 -4.3961 0.0000 25.4861 0.0000
# 6 0.0000 0.0000 0.0000 3.9458 0.0000 30.4136
#
#
#
# Elastic Compliance Matrix: (Units=1/GPa)
#
#
# Indices 1 2 3 4 5 6 
#
# 1 0.009474 -0.005712 -0.002773 0.000000 -0.000754 0.000000
# 2 -0.005712 0.041662 -0.004537 0.000000 0.002793 0.000000
# 3 -0.002773 -0.004537 0.011474 0.000000 0.001506 0.000000
# 4 0.000000 0.000000 0.000000 0.032438 0.000000 -0.004208
# 5 -0.000754 0.002793 0.001506 0.000000 0.039727 0.000000
# 6 0.000000 0.000000 0.000000 -0.004208 0.000000 0.033426
#
#
# Mechanical properties :
#
#
# Convention : Reuss Voigt Hill
#
# Bulk Modulus (GPa) = 27.34792 47.19136 37.26964
# Shear Modulus (GPa) = 24.22070 29.72313 26.97192
#
# Velocity S-wave (km/s) = 3.52193 3.90153 3.71658
# Velocity P-wave (km/s) = 5.52668 6.66811 6.12405
#
# Compressibility (1/GPa) = 0.03656585
#
# Stress axis : x y z
#
# Youngs Moduli (GPa) = 105.54750 24.00287 87.15274
#
# Poissons Ratio (x) = 0.13711 0.24167
# Poissons Ratio (y) = 0.60290 0.39542
# Poissons Ratio (z) = 0.29268 0.10890
#
# Static dielectric constant tensor:
#      x y z
#    x 3.978070 0.000000 -0.305780 
#    y 0.000000 3.610410 0.000000 
#    z -0.305780 0.000000 3.715310 
# 
# 
# High freq. dielectric constant tensor:
#      x y z
#    x 1.767140 0.000000 -0.004270 
#    y 0.000000 1.743760 0.000000 
#    z -0.004270 0.000000 1.765510 
# 
# From -- ./inp_files/337881.got.cif
#   From: 2010.06.25/outbox.cif.g09.slc.cpg/sg12_169_cif.got.tgz:337881.got - 2010.06.28 00:19:55.
