data_PCOD8099682
_publ_section_title
;
Structure prediction by ZEFSAII (Michael W. Deem and Ramdas Pophale) SiO2 
 PCOD8099682
Probable space group: C 2/M
;
_chemical_formula_sum "Si O2"
_cell_formula_units_Z 48
_cell_length_a 34.226053
_cell_length_b 9.051483
_cell_length_c 7.891404
_cell_angle_alpha 90.000000
_cell_angle_beta 90.870612
_cell_angle_gamma 90.000000
_cell_volume 2444.447405
_symmetry_space_group_name_H-M "C 2/M"
_symmetry_group_IT_number 12
_symmetry_cell_setting 'monoclinic'
loop_
_space_group_symop_operation_xyz
x,y,z
-x,y,-z
-x,-y,-z
x,-y,z
1/2+x,1/2+y,z
1/2-x,1/2+y,-z
1/2-x,1/2-y,-z
1/2+x,1/2-y,z
loop_
_atom_site_type_symbol
_atom_site_label
_atom_site_fract_x
_atom_site_fract_y
_atom_site_fract_z
Si Si1 0.328378 0.166796 0.648092
Si Si2 0.250506 0.672294 0.173782
Si Si3 0.953933 0.830442 0.004227
Si Si4 0.590695 0.174812 0.701861
Si Si5 0.667758 0.671613 0.680900
Si Si6 0.085888 0.333573 0.304709
O O1 0.289996 0.217217 0.743237
O O2 0.335140 0.296364 0.516314
O O3 0.368786 0.168019 0.756352
O O4 0.322853 0.000000 0.570874
O O5 0.253389 0.500000 0.147845
O O6 0.289155 0.731099 0.269518
O O7 0.250000 0.750000 0.000000
O O8 0.940764 0.741997 0.171156
O O9 0.940563 0.000000 0.021686
O O10 0.937648 0.770165 0.824412
O O11 0.000000 0.815115 0.000000
O O12 0.632816 0.237430 0.767058
O O13 0.581811 0.217182 0.503430
O O14 0.591406 0.000000 0.722800
O O15 0.662057 0.500000 0.721825
O O16 0.069304 0.500000 0.288065
#
# Coordination Sequence:
#
# PCOD8099682 Si02
#       6
#     8   8   8   8   8   8
#     4   9  19  37  57  80 111 151 196 239 287 342
#     4  10  22  35  50  79 116 152 195 240 285 338
#     4  11  25  42  62  91 125 157 190 239 302 361
#     4  10  22  41  65  90 119 158 201 246 295 352
#     4  10  20  35  56  84 114 149 194 241 290 343
#     4   9  20  39  63  90 118 155 203 247 293 349
#
# _framework density 19.636340000000001
#
# number of rings (size 3 to 8) (size 9 to 14) (size 15 to 20)
#    0.000    2.167    0.000    3.000    2.333    7.333 
#    0.000    3.333    0.000    0.000    0.000    0.000 
#    0.000    0.000    0.000    0.000    0.000    0.000 
#
# Total GULP energy -297366.961895 kJ/mol
# GULP energy per Si atom -12390.290079 kJ/mol
# Density = 1.959165 g / cm^3
# Si number density = 19.636340 Si / 1000 Ang^3
#
#
#
# Elastic Constant Matrix: (Units=GPa)
#
#
# Indices 1 2 3 4 5 6 
#
# 1 111.4879 50.2849 51.8683 0.0000 -5.9919 0.0000
# 2 50.2849 74.8460 46.8558 0.0000 -2.4844 0.0000
# 3 51.8683 46.8558 93.8399 0.0000 -5.4831 0.0000
# 4 0.0000 0.0000 0.0000 34.3136 0.0000 -3.6075
# 5 -5.9919 -2.4844 -5.4831 0.0000 31.6145 0.0000
# 6 0.0000 0.0000 0.0000 -3.6075 0.0000 29.7516
#
#
#
# Elastic Compliance Matrix: (Units=1/GPa)
#
#
# Indices 1 2 3 4 5 6 
#
# 1 0.014093 -0.006687 -0.004370 0.000000 0.001388 0.000000
# 2 -0.006687 0.022610 -0.007641 0.000000 -0.000816 0.000000
# 3 -0.004370 -0.007641 0.016976 0.000000 0.001516 0.000000
# 4 0.000000 0.000000 0.000000 0.029519 0.000000 0.003579
# 5 0.001388 -0.000816 0.001516 0.000000 0.032093 0.000000
# 6 0.000000 0.000000 0.000000 0.003579 0.000000 0.034046
#
#
# Mechanical properties :
#
#
# Convention : Reuss Voigt Hill
#
# Bulk Modulus (GPa) = 61.41304 64.24353 62.82829
# Shear Modulus (GPa) = 26.02012 27.88028 26.95020
#
# Velocity S-wave (km/s) = 3.64414 3.77215 3.70870
# Velocity P-wave (km/s) = 7.00353 7.19443 7.09962
#
# Compressibility (1/GPa) = 0.01628319
#
# Stress axis : x y z
#
# Youngs Moduli (GPa) = 70.95678 44.22894 58.90781
#
# Poissons Ratio (x) = 0.29574 0.25742
# Poissons Ratio (y) = 0.47446 0.45012
# Poissons Ratio (z) = 0.31007 0.33796
#
# Static dielectric constant tensor:
#      x y z
#    x 3.698220 0.000000 -0.043130 
#    y 0.000000 3.457200 0.000000 
#    z -0.043130 0.000000 3.441640 
# 
# 
# High freq. dielectric constant tensor:
#      x y z
#    x 1.778290 0.000000 -0.004170 
#    y 0.000000 1.766810 0.000000 
#    z -0.004170 0.000000 1.752290 
# 
# From -- ./inp_files/108673.got.cif
#   From: 2010.06.25/outbox.cif.g09.slc.cpg/sg12_55_cif.got.tgz:108673.got - 2010.06.28 00:19:55.
