data_PCOD8099119
_publ_section_title
;
Structure prediction by ZEFSAII (Michael W. Deem and Ramdas Pophale) SiO2 
 PCOD8099119
Probable space group: C 2/M
;
_chemical_formula_sum "Si O2"
_cell_formula_units_Z 40
_cell_length_a 14.271638
_cell_length_b 9.040589
_cell_length_c 26.921544
_cell_angle_alpha 90.000000
_cell_angle_beta 37.493818
_cell_angle_gamma 90.000000
_cell_volume 2114.251097
_symmetry_space_group_name_H-M "C 2/M"
_symmetry_group_IT_number 12
_symmetry_cell_setting 'monoclinic'
loop_
_space_group_symop_operation_xyz
x,y,z
-x,y,-z
-x,-y,-z
x,-y,z
1/2+x,1/2+y,z
1/2-x,1/2+y,-z
1/2-x,1/2-y,-z
1/2+x,1/2-y,z
loop_
_atom_site_type_symbol
_atom_site_label
_atom_site_fract_x
_atom_site_fract_y
_atom_site_fract_z
Si Si1 0.679378 0.325956 0.204909
Si Si2 0.874540 0.671360 0.512548
Si Si3 0.435200 0.171735 0.373469
Si Si4 0.294232 0.171816 0.905016
Si Si5 0.967899 0.670508 0.932407
O O1 0.651930 0.500000 0.214910
O O2 0.580129 0.257332 0.290648
O O3 0.629971 0.255796 0.173277
O O4 0.855358 0.282711 0.141308
O O5 0.831707 0.500000 0.538317
O O6 0.721104 0.766469 0.585117
O O7 0.941402 0.699997 0.429713
O O8 0.000000 0.723961 0.500000
O O9 0.446845 0.000000 0.355205
O O10 0.407039 0.204282 0.903135
O O11 0.279739 0.000000 0.898663
O O12 0.124442 0.234561 0.988178
O O13 0.944081 0.500000 0.957073
#
# Coordination Sequence:
#
# PCOD8099119 Si02
#       5
#     8   8   8   8   8
#     4  11  22  36  54  76 108 145 178 217 266 316
#     4   9  19  38  61  82 107 140 174 211 261 318
#     4  10  21  36  55  82 111 137 174 219 261 313
#     4  10  20  35  55  79 106 138 181 227 267 312
#     4   9  20  37  54  75 106 144 181 218 266 320
#
# _framework density 18.919228
#
# number of rings (size 3 to 8) (size 9 to 14) (size 15 to 20)
#    0.000    2.200    0.000    2.400    0.000    7.600 
#    0.000    4.000    0.000    0.000    0.000    0.000 
#    0.000    0.000    0.000    0.000    0.000    0.000 
#
# Total GULP energy -248105.602681 kJ/mol
# GULP energy per Si atom -12405.280134 kJ/mol
# Density = 1.887617 g / cm^3
# Si number density = 18.919228 Si / 1000 Ang^3
#
#
#
# Elastic Constant Matrix: (Units=GPa)
#
#
# Indices 1 2 3 4 5 6 
#
# 1 92.8118 36.5803 37.8888 0.0000 -4.0325 -0.0001
# 2 36.5803 89.8347 50.4321 0.0000 3.4092 -0.0002
# 3 37.8888 50.4321 100.4350 0.0000 5.4610 0.0000
# 4 0.0000 0.0000 0.0000 41.2072 0.0000 1.7647
# 5 -4.0325 3.4092 5.4610 0.0000 19.5467 0.0000
# 6 -0.0001 -0.0002 0.0000 1.7647 0.0000 27.7208
#
#
#
# Elastic Compliance Matrix: (Units=1/GPa)
#
#
# Indices 1 2 3 4 5 6 
#
# 1 0.013948 -0.003843 -0.003580 0.000000 0.004548 0.000000
# 2 -0.003843 0.016565 -0.006771 0.000000 -0.001790 0.000000
# 3 -0.003580 -0.006771 0.014910 0.000000 -0.003723 0.000000
# 4 0.000000 0.000000 0.000000 0.024334 0.000000 -0.001549
# 5 0.004548 -0.001790 -0.003723 0.000000 0.053450 0.000000
# 6 0.000000 0.000000 0.000000 -0.001549 0.000000 0.036173
#
#
# Mechanical properties :
#
#
# Convention : Reuss Voigt Hill
#
# Bulk Modulus (GPa) = 58.69845 59.20932 58.95389
# Shear Modulus (GPa) = 25.84716 28.24029 27.04373
#
# Velocity S-wave (km/s) = 3.70020 3.86771 3.78488
# Velocity P-wave (km/s) = 7.02485 7.16305 7.09429
#
# Compressibility (1/GPa) = 0.01703623
#
# Stress axis : x y z
#
# Youngs Moduli (GPa) = 71.69554 60.36664 67.07107
#
# Poissons Ratio (x) = 0.23196 0.24009
# Poissons Ratio (y) = 0.27550 0.45415
# Poissons Ratio (z) = 0.25664 0.40875
#
# Static dielectric constant tensor:
#      x y z
#    x 3.533650 0.000000 0.028190 
#    y 0.000000 3.519620 0.000000 
#    z 0.028190 0.000000 3.406130 
# 
# 
# High freq. dielectric constant tensor:
#      x y z
#    x 1.740790 0.000000 0.002950 
#    y 0.000000 1.742620 0.000000 
#    z 0.002950 0.000000 1.732100 
# 
# From -- ./inp_files/211208.got.cif
#   From: 2010.06.25/outbox.cif.g09.slc.cpg/sg12_106_cif.got.tgz:211208.got - 2010.06.28 00:19:55.
