data_PCOD8099885
_publ_section_title
;
Structure prediction by ZEFSAII (Michael W. Deem and Ramdas Pophale) SiO2 
 PCOD8099885
Probable space group: C 2/M
;
_chemical_formula_sum "Si O2"
_cell_formula_units_Z 56
_cell_length_a 25.081644
_cell_length_b 9.220332
_cell_length_c 12.474561
_cell_angle_alpha 90.000000
_cell_angle_beta 104.898099
_cell_angle_gamma 90.000000
_cell_volume 2787.904126
_symmetry_space_group_name_H-M "C 2/M"
_symmetry_group_IT_number 12
_symmetry_cell_setting 'monoclinic'
loop_
_space_group_symop_operation_xyz
x,y,z
-x,y,-z
-x,-y,-z
x,-y,z
1/2+x,1/2+y,z
1/2-x,1/2+y,-z
1/2-x,1/2-y,-z
1/2+x,1/2-y,z
loop_
_atom_site_type_symbol
_atom_site_label
_atom_site_fract_x
_atom_site_fract_y
_atom_site_fract_z
Si Si1 0.059483 0.669174 0.580404
Si Si2 0.604800 0.332701 0.799537
Si Si3 0.939276 0.833789 0.984652
Si Si4 0.198801 0.659418 0.934223
Si Si5 0.281902 0.331037 0.665028
Si Si6 0.333056 0.167864 0.499118
Si Si7 0.654663 0.158390 0.140696
O O1 0.063723 0.500000 0.612256
O O2 0.064760 0.762457 0.690882
O O3 0.109014 0.712295 0.524967
O O4 0.000000 0.706932 0.500000
O O5 0.616077 0.500000 0.776768
O O6 0.576692 0.315896 0.899903
O O7 0.663500 0.248017 0.828102
O O8 0.935480 0.000000 0.946875
O O9 0.902081 0.747033 0.879718
O O10 0.000000 0.770643 0.000000
O O11 0.215547 0.500000 0.895526
O O12 0.162157 0.634748 0.019186
O O13 0.250000 0.750000 0.000000
O O14 0.294619 0.500000 0.681927
O O15 0.323851 0.265226 0.599071
O O16 0.217845 0.300783 0.607371
O O17 0.294910 0.250873 0.783534
O O18 0.333314 0.000000 0.533815
O O19 0.650232 0.000000 0.194664
#
# Coordination Sequence:
#
# PCOD8099885 Si02
#       7
#     8   8   8   8   8   8   8
#     4  10  22  40  60  83 114 153 196 241 292 348
#     4  10  21  37  57  83 114 148 189 236 284 335
#     4   9  19  37  58  81 112 149 188 231 279 332
#     4  10  21  36  55  82 114 148 185 225 277 337
#     4  10  20  35  57  83 111 146 187 236 290 341
#     4   9  20  38  57  80 109 146 189 236 291 344
#     4  10  21  35  53  81 113 144 183 227 274 335
#
# _framework density 20.086773000000001
#
# number of rings (size 3 to 8) (size 9 to 14) (size 15 to 20)
#    0.000    2.286    0.000    1.714    2.000    5.143 
#    0.000    2.857    0.000    0.000    0.000    0.000 
#    0.000    0.000    0.000    0.000    0.000    0.000 
#
# Total GULP energy -347153.444439 kJ/mol
# GULP energy per Si atom -12398.337301 kJ/mol
# Density = 2.004105 g / cm^3
# Si number density = 20.086773 Si / 1000 Ang^3
#
#
#
# Elastic Constant Matrix: (Units=GPa)
#
#
# Indices 1 2 3 4 5 6 
#
# 1 107.6908 43.8135 22.3935 0.0000 26.4342 0.0000
# 2 43.8135 132.6160 50.3752 0.0000 24.1435 0.0000
# 3 22.3935 50.3752 78.1967 0.0000 26.4295 0.0000
# 4 0.0000 0.0000 0.0000 38.4897 0.0000 6.0266
# 5 26.4342 24.1435 26.4295 0.0000 30.8038 0.0000
# 6 0.0000 0.0000 0.0000 6.0266 0.0000 25.9439
#
#
#
# Elastic Compliance Matrix: (Units=1/GPa)
#
#
# Indices 1 2 3 4 5 6 
#
# 1 0.012582 -0.002989 0.001662 0.000000 -0.009880 0.000000
# 2 -0.002989 0.010930 -0.005855 0.000000 -0.000978 0.000000
# 3 0.001662 -0.005855 0.021148 0.000000 -0.014982 0.000000
# 4 0.000000 0.000000 0.000000 0.026962 0.000000 -0.006263
# 5 -0.009880 -0.000978 -0.014982 0.000000 0.054563 0.000000
# 6 0.000000 0.000000 0.000000 -0.006263 0.000000 0.040000
#
#
# Mechanical properties :
#
#
# Convention : Reuss Voigt Hill
#
# Bulk Modulus (GPa) = 33.00818 61.29644 47.15231
# Shear Modulus (GPa) = 26.22658 32.50890 29.36774
#
# Velocity S-wave (km/s) = 3.61732 4.02733 3.82782
# Velocity P-wave (km/s) = 5.82367 7.22550 6.56213
#
# Compressibility (1/GPa) = 0.03029552
#
# Stress axis : x y z
#
# Youngs Moduli (GPa) = 79.48135 91.48943 47.28649
#
# Poissons Ratio (x) = 0.27349 -0.07859
# Poissons Ratio (y) = 0.23760 0.27684
# Poissons Ratio (z) = -0.13210 0.53564
#
# Static dielectric constant tensor:
#      x y z
#    x 3.655170 0.000000 0.058810 
#    y 0.000000 3.925060 0.000000 
#    z 0.058810 0.000000 3.575180 
# 
# 
# High freq. dielectric constant tensor:
#      x y z
#    x 1.775590 0.000000 0.010810 
#    y 0.000000 1.793660 0.000000 
#    z 0.010810 0.000000 1.777740 
# 
# From -- ./inp_files/181105.got.cif
#   From: 2010.06.25/outbox.cif.g09.slc.cpg/sg12_91_cif.got.tgz:181105.got - 2010.06.28 00:19:55.
