data_PCOD8099386
_publ_section_title
;
Structure prediction by ZEFSAII (Michael W. Deem and Ramdas Pophale) SiO2 
 PCOD8099386
Probable space group: C 2/M
;
_chemical_formula_sum "Si O2"
_cell_formula_units_Z 40
_cell_length_a 31.772934
_cell_length_b 10.806886
_cell_length_c 10.481420
_cell_angle_alpha 90.000000
_cell_angle_beta 34.347968
_cell_angle_gamma 90.000000
_cell_volume 2030.600723
_symmetry_space_group_name_H-M "C 2/M"
_symmetry_group_IT_number 12
_symmetry_cell_setting 'monoclinic'
loop_
_space_group_symop_operation_xyz
x,y,z
-x,y,-z
-x,-y,-z
x,-y,z
1/2+x,1/2+y,z
1/2-x,1/2+y,-z
1/2-x,1/2-y,-z
1/2+x,1/2-y,z
loop_
_atom_site_type_symbol
_atom_site_label
_atom_site_fract_x
_atom_site_fract_y
_atom_site_fract_z
Si Si1 0.086184 0.137391 0.288553
Si Si2 0.584655 0.353142 0.789509
Si Si3 0.172206 0.139323 0.815536
Si Si4 0.712316 0.260564 0.306679
Si Si5 0.675879 0.865781 0.156778
O O1 0.122264 0.247308 0.280020
O O2 0.000000 0.165851 0.500000
O O3 0.102266 0.000000 0.307754
O O4 0.113694 0.141543 0.075958
O O5 0.581042 0.500000 0.799865
O O6 0.628695 0.303614 0.803523
O O7 0.630228 0.308312 0.550826
O O8 0.500000 0.299426 0.000000
O O9 0.243806 0.221835 0.674156
O O10 0.199318 0.000000 0.716967
O O11 0.708663 0.143346 0.218763
O O12 0.758600 0.364819 0.113292
O O13 0.635683 0.000000 0.244300
#
# Coordination Sequence:
#
# PCOD8099386 Si02
#       5
#     8   8   8   8   8
#     4   9  19  34  56  84 115 149 185 231 284 339
#     4  10  21  34  54  83 111 142 186 240 284 327
#     4   9  18  34  54  79 109 144 188 232 278 333
#     4  10  20  35  56  79 113 150 190 230 279 341
#     4  10  21  35  56  84 114 150 191 235 281 333
#
# _framework density 19.698602999999999
#
# number of rings (size 3 to 8) (size 9 to 14) (size 15 to 20)
#    0.000    2.400    0.000    1.800    2.800    6.000 
#    0.000    0.000    0.000    3.600    0.000    0.000 
#    0.000    0.000    0.000    0.000    0.000    0.000 
#
# Total GULP energy -247847.421944 kJ/mol
# GULP energy per Si atom -12392.371097 kJ/mol
# Density = 1.965377 g / cm^3
# Si number density = 19.698603 Si / 1000 Ang^3
#
#
#
# Elastic Constant Matrix: (Units=GPa)
#
#
# Indices 1 2 3 4 5 6 
#
# 1 110.1173 48.8505 47.2308 0.0000 0.2075 0.0000
# 2 48.8505 112.0633 24.8946 0.0000 -10.5126 0.0000
# 3 47.2308 24.8946 87.5786 0.0000 -24.8475 0.0000
# 4 0.0000 0.0000 0.0000 12.8746 0.0000 -3.7125
# 5 0.2075 -10.5126 -24.8475 0.0000 31.2698 0.0000
# 6 0.0000 0.0000 0.0000 -3.7125 0.0000 16.1440
#
#
#
# Elastic Compliance Matrix: (Units=1/GPa)
#
#
# Indices 1 2 3 4 5 6 
#
# 1 0.015713 -0.005618 -0.009609 0.000000 -0.009628 0.000000
# 2 -0.005618 0.011579 0.001102 0.000000 0.004806 0.000000
# 3 -0.009609 0.001102 0.021187 0.000000 0.017269 0.000000
# 4 0.000000 0.000000 0.000000 0.083189 0.000000 0.019130
# 5 -0.009628 0.004806 0.017269 0.000000 0.047382 0.000000
# 6 0.000000 0.000000 0.000000 0.019130 0.000000 0.066342
#
#
# Mechanical properties :
#
#
# Convention : Reuss Voigt Hill
#
# Bulk Modulus (GPa) = 49.43516 61.30122 55.36819
# Shear Modulus (GPa) = 17.83277 24.64324 21.23800
#
# Velocity S-wave (km/s) = 3.01205 3.54081 3.28708
# Velocity P-wave (km/s) = 6.10302 6.92124 6.52497
#
# Compressibility (1/GPa) = 0.02022852
#
# Stress axis : x y z
#
# Youngs Moduli (GPa) = 63.64139 86.36597 47.19976
#
# Poissons Ratio (x) = 0.48523 0.45353
# Poissons Ratio (y) = 0.35756 -0.05202
# Poissons Ratio (z) = 0.61151 -0.09518
#
# Static dielectric constant tensor:
#      x y z
#    x 3.739020 0.000000 0.038610 
#    y 0.000000 3.407160 0.000000 
#    z 0.038610 0.000000 3.590500 
# 
# 
# High freq. dielectric constant tensor:
#      x y z
#    x 1.768140 0.000000 0.004990 
#    y 0.000000 1.744280 0.000000 
#    z 0.004990 0.000000 1.767190 
# 
# From -- ./inp_files/71237.got.cif
#   From: 2010.06.25/outbox.cif.g09.slc.cpg/sg12_36_cif.got.tgz:71237.got - 2010.06.28 00:19:55.
