data_PCOD8099215
_publ_section_title
;
Structure prediction by ZEFSAII (Michael W. Deem and Ramdas Pophale) SiO2 
 PCOD8099215
Probable space group: C 2/M
;
_chemical_formula_sum "Si O2"
_cell_formula_units_Z 64
_cell_length_a 30.267263
_cell_length_b 8.955098
_cell_length_c 24.410691
_cell_angle_alpha 90.000000
_cell_angle_beta 29.456304
_cell_angle_gamma 90.000000
_cell_volume 3253.692134
_symmetry_space_group_name_H-M "C 2/M"
_symmetry_group_IT_number 12
_symmetry_cell_setting 'monoclinic'
loop_
_space_group_symop_operation_xyz
x,y,z
-x,y,-z
-x,-y,-z
x,-y,z
1/2+x,1/2+y,z
1/2-x,1/2+y,-z
1/2-x,1/2-y,-z
1/2+x,1/2-y,z
loop_
_atom_site_type_symbol
_atom_site_label
_atom_site_fract_x
_atom_site_fract_y
_atom_site_fract_z
Si Si1 0.019840 0.323223 0.844616
Si Si2 0.506959 0.832464 0.434091
Si Si3 0.688450 0.176597 0.733487
Si Si4 0.381645 0.675298 0.484319
Si Si5 0.508365 0.323997 0.737761
Si Si6 0.142301 0.674698 0.903816
Si Si7 0.288209 0.838032 0.808842
Si Si8 0.168192 0.672862 0.115531
O O1 0.009181 0.500000 0.847952
O O2 0.115261 0.278620 0.767338
O O3 0.016411 0.248135 0.788857
O O4 0.943003 0.261927 0.969563
O O5 0.500000 0.750664 0.500000
O O6 0.460901 0.740620 0.435806
O O7 0.612143 0.842279 0.318781
O O8 0.465140 0.000000 0.478471
O O9 0.784679 0.241309 0.608241
O O10 0.656029 0.242900 0.827579
O O11 0.696290 0.000000 0.730721
O O12 0.381838 0.500000 0.493410
O O13 0.404991 0.711424 0.395059
O O14 0.495772 0.500000 0.759021
O O15 0.423168 0.258484 0.798301
O O16 0.127770 0.500000 0.913356
O O17 0.231972 0.708716 0.840574
O O18 0.297219 0.802298 0.861665
O O19 0.241640 0.000000 0.848537
O O20 0.154933 0.500000 0.113640
O O21 0.250000 0.750000 0.000000
#
# Coordination Sequence:
#
# PCOD8099215 Si02
#       8
#     8   8   8   8   8   8   8   8
#     4  10  21  38  61  85 111 150 194 240 297 352
#     4  10  20  35  55  80 112 148 185 227 279 343
#     4   9  19  38  61  85 113 146 190 244 297 346
#     4  10  21  37  58  83 114 152 193 239 286 338
#     4  11  23  38  56  83 118 153 195 242 285 339
#     4  10  20  35  59  88 114 144 189 240 289 348
#     4  10  21  35  52  79 113 147 179 218 275 335
#     4  11  22  37  57  81 113 152 191 232 281 336
#
# _framework density 19.669962999999999
#
# number of rings (size 3 to 8) (size 9 to 14) (size 15 to 20)
#    0.000    1.875    1.250    2.625    0.000    6.750 
#    0.000    1.250    0.000    1.500    0.000    0.000 
#    0.000    0.000    0.000    0.000    0.000    0.000 
#
# Total GULP energy -396460.443689 kJ/mol
# GULP energy per Si atom -12389.388865 kJ/mol
# Density = 1.962519 g / cm^3
# Si number density = 19.669963 Si / 1000 Ang^3
#
#
#
# Elastic Constant Matrix: (Units=GPa)
#
#
# Indices 1 2 3 4 5 6 
#
# 1 327.0556 -22.2927 -52.5328 -0.0097 74.5751 -0.0037
# 2 -22.2927 56.5320 65.6810 -0.0081 -8.0649 0.0095
# 3 -52.5328 65.6810 202.3353 -0.0073 -15.5357 0.0024
# 4 -0.0097 -0.0081 -0.0073 22.9744 -0.0010 1.9711
# 5 74.5751 -8.0649 -15.5357 -0.0010 59.0421 0.0003
# 6 -0.0037 0.0095 0.0024 1.9711 0.0003 30.2215
#
#
#
# Elastic Compliance Matrix: (Units=1/GPa)
#
#
# Indices 1 2 3 4 5 6 
#
# 1 0.004399 0.000195 0.000668 0.000002 -0.005354 0.000000
# 2 0.000195 0.028537 -0.009117 0.000008 0.001253 -0.000009
# 3 0.000668 -0.009117 0.008078 -0.000001 0.000037 0.000002
# 4 0.000002 0.000008 -0.000001 0.043772 -0.000001 -0.002855
# 5 -0.005354 0.001253 0.000037 -0.000001 0.023880 -0.000001
# 6 0.000000 -0.000009 0.000002 -0.002855 -0.000001 0.033275
#
#
# Mechanical properties :
#
#
# Convention : Reuss Voigt Hill
#
# Bulk Modulus (GPa) = 40.80638 63.07045 51.93842
# Shear Modulus (GPa) = 30.00898 62.11877 46.06388
#
# Velocity S-wave (km/s) = 3.91016 5.62575 4.84450
# Velocity P-wave (km/s) = 6.41688 8.62164 7.59964
#
# Compressibility (1/GPa) = 0.02450597
#
# Stress axis : x y z
#
# Youngs Moduli (GPa) = 227.32895 35.04249 123.79515
#
# Poissons Ratio (x) = -0.00684 -0.08265
# Poissons Ratio (y) = -0.04436 1.12859
# Poissons Ratio (z) = -0.15178 0.31947
#
# Static dielectric constant tensor:
#      x y z
#    x 3.581140 0.000030 0.111840 
#    y 0.000030 3.214270 0.000040 
#    z 0.111840 0.000040 4.207140 
# 
# 
# High freq. dielectric constant tensor:
#      x y z
#    x 1.771300 0.000000 0.012680 
#    y 0.000000 1.742830 0.000000 
#    z 0.012680 0.000000 1.788550 
# 
# From -- ./inp_files/244215.got.cif
#   From: 2010.06.25/outbox.cif.g09.slc.cpg/sg12_123_cif.got.tgz:244215.got - 2010.06.28 00:19:55.
