data_PCOD8099217
_publ_section_title
;
Structure prediction by ZEFSAII (Michael W. Deem and Ramdas Pophale) SiO2 
 PCOD8099217
Probable space group: C 2/M
;
_chemical_formula_sum "Si O2"
_cell_formula_units_Z 56
_cell_length_a 8.745424
_cell_length_b 22.255217
_cell_length_c 21.154802
_cell_angle_alpha 90.000000
_cell_angle_beta 43.906228
_cell_angle_gamma 90.000000
_cell_volume 2855.326007
_symmetry_space_group_name_H-M "C 2/M"
_symmetry_group_IT_number 12
_symmetry_cell_setting 'monoclinic'
loop_
_space_group_symop_operation_xyz
x,y,z
-x,y,-z
-x,-y,-z
x,-y,z
1/2+x,1/2+y,z
1/2-x,1/2+y,-z
1/2-x,1/2-y,-z
1/2+x,1/2-y,z
loop_
_atom_site_type_symbol
_atom_site_label
_atom_site_fract_x
_atom_site_fract_y
_atom_site_fract_z
Si Si1 0.695525 0.065800 0.132257
Si Si2 0.035882 0.843705 0.864206
Si Si3 0.823837 0.184674 0.604709
Si Si4 0.110583 0.256914 0.289012
Si Si5 0.380768 0.360641 0.779484
Si Si6 0.304780 0.567508 0.683983
Si Si7 0.911502 0.622903 0.961007
O O1 0.846795 0.115507 0.118989
O O2 0.457134 0.069982 0.234464
O O3 0.683010 0.074147 0.060094
O O4 0.797683 0.000000 0.113802
O O5 0.172306 0.783329 0.810391
O O6 0.007075 0.879423 0.805988
O O7 0.787033 0.829882 0.963855
O O8 0.835291 0.231420 0.658484
O O9 0.577053 0.191601 0.649930
O O10 0.874559 0.115961 0.610242
O O11 0.000000 0.203855 0.500000
O O12 0.016432 0.201540 0.275937
O O13 0.410776 0.414334 0.720066
O O14 0.120451 0.344976 0.866346
O O15 0.386455 0.500000 0.642128
O O16 0.000000 0.592026 0.000000
#
# Coordination Sequence:
#
# PCOD8099217 Si02
#       7
#     8   8   8   8   8   8   8
#     4  10  20  35  55  80 112 150 196 239 276 325
#     4  11  20  34  55  79 114 149 189 236 274 328
#     4  11  22  38  62  88 112 143 186 237 289 344
#     4  11  21  38  57  84 114 147 184 229 287 344
#     4   9  20  36  55  78 114 153 190 227 277 335
#     4   9  19  37  59  82 113 151 188 230 285 343
#     4   9  20  35  51  79 112 151 191 229 276 327
#
# _framework density 19.612470999999999
#
# number of rings (size 3 to 8) (size 9 to 14) (size 15 to 20)
#    0.000    2.000    2.857    0.857    0.000    2.857 
#    0.000    5.714    0.000    0.000    0.000    1.000 
#    0.000    0.000    0.000    0.000    0.000    0.000 
#
# Total GULP energy -346945.750127 kJ/mol
# GULP energy per Si atom -12390.919647 kJ/mol
# Density = 1.956783 g / cm^3
# Si number density = 19.612471 Si / 1000 Ang^3
#
#
#
# Elastic Constant Matrix: (Units=GPa)
#
#
# Indices 1 2 3 4 5 6 
#
# 1 88.7269 43.1175 17.8986 0.0001 11.9271 -0.0001
# 2 43.1175 101.8005 30.4444 0.0000 11.0791 0.0000
# 3 17.8986 30.4444 73.3985 0.0001 4.7966 0.0000
# 4 0.0001 0.0000 0.0001 17.6983 -0.0001 3.6275
# 5 11.9271 11.0791 4.7966 -0.0001 20.3216 0.0000
# 6 -0.0001 0.0000 0.0000 3.6275 0.0000 20.5107
#
#
#
# Elastic Compliance Matrix: (Units=1/GPa)
#
#
# Indices 1 2 3 4 5 6 
#
# 1 0.014833 -0.005373 -0.001027 0.000000 -0.005534 0.000000
# 2 -0.005373 0.013705 -0.004156 0.000000 -0.003337 0.000000
# 3 -0.001027 -0.004156 0.015653 0.000000 -0.000826 0.000000
# 4 0.000000 0.000000 0.000000 0.058628 0.000000 -0.010369
# 5 -0.005534 -0.003337 -0.000826 0.000000 0.054471 0.000000
# 6 0.000000 0.000000 0.000000 -0.010369 0.000000 0.050589
#
#
# Mechanical properties :
#
#
# Convention : Reuss Voigt Hill
#
# Bulk Modulus (GPa) = 43.33102 49.64966 46.49034
# Shear Modulus (GPa) = 21.12532 23.20380 22.16456
#
# Velocity S-wave (km/s) = 3.28554 3.44338 3.36538
# Velocity P-wave (km/s) = 6.04438 6.41712 6.23354
#
# Compressibility (1/GPa) = 0.02307816
#
# Stress axis : x y z
#
# Youngs Moduli (GPa) = 67.41893 72.96577 63.88729
#
# Poissons Ratio (x) = 0.39205 0.06559
# Poissons Ratio (y) = 0.36224 0.26553
# Poissons Ratio (z) = 0.06922 0.30327
#
# Static dielectric constant tensor:
#      x y z
#    x 3.664600 0.000000 0.073910 
#    y 0.000000 3.392390 0.000000 
#    z 0.073910 0.000000 3.480500 
# 
# 
# High freq. dielectric constant tensor:
#      x y z
#    x 1.772520 0.000000 0.008520 
#    y 0.000000 1.736390 0.000000 
#    z 0.008520 0.000000 1.752040 
# 
# From -- ./inp_files/198994.got.cif
#   From: 2010.06.25/outbox.cif.g09.slc.cpg/sg12_100_cif.got.tgz:198994.got - 2010.06.28 00:19:55.
