data_PCOD8099026
_publ_section_title
;
Structure prediction by ZEFSAII (Michael W. Deem and Ramdas Pophale) SiO2 
 PCOD8099026
Probable space group: C 2/M
;
_chemical_formula_sum "Si O2"
_cell_formula_units_Z 48
_cell_length_a 31.118922
_cell_length_b 8.887556
_cell_length_c 18.228126
_cell_angle_alpha 90.000000
_cell_angle_beta 31.050297
_cell_angle_gamma 90.000000
_cell_volume 2600.291999
_symmetry_space_group_name_H-M "C 2/M"
_symmetry_group_IT_number 12
_symmetry_cell_setting 'monoclinic'
loop_
_space_group_symop_operation_xyz
x,y,z
-x,y,-z
-x,-y,-z
x,-y,z
1/2+x,1/2+y,z
1/2-x,1/2+y,-z
1/2-x,1/2-y,-z
1/2+x,1/2-y,z
loop_
_atom_site_type_symbol
_atom_site_label
_atom_site_fract_x
_atom_site_fract_y
_atom_site_fract_z
Si Si1 0.258966 0.178875 0.407580
Si Si2 0.587566 0.678810 0.590548
Si Si3 0.908927 0.824003 0.101728
Si Si4 0.071843 0.178578 0.090453
Si Si5 0.993026 0.821464 0.590766
Si Si6 0.168408 0.176640 0.088279
O O1 0.250000 0.250000 0.500000
O O2 0.179215 0.236180 0.477574
O O3 0.342568 0.233570 0.246410
O O4 0.260493 0.000000 0.412494
O O5 0.583579 0.500000 0.598770
O O6 0.517579 0.741036 0.749952
O O7 0.565922 0.734997 0.539469
O O8 0.886626 0.000000 0.138237
O O9 0.907019 0.760054 0.021331
O O10 0.000000 0.792471 0.000000
O O11 0.145579 0.227983 0.038533
O O12 0.065256 0.000000 0.096839
O O13 0.000000 0.747328 0.500000
O O14 0.905256 0.769515 0.751270
O O15 0.997694 0.000000 0.578129
O O16 0.180295 0.000000 0.073473
O O17 0.250000 0.250000 0.000000
#
# Coordination Sequence:
#
# PCOD8099026 Si02
#       6
#     8   8   8   8   8   8
#     4  11  22  35  53  77 104 131 163 205 250 298
#     4   8  15  29  48  69  94 127 165 201 240 290
#     4  10  20  35  55  75  98 132 170 206 250 303
#     4   8  15  30  50  70  94 128 167 201 240 296
#     4   8  14  26  46  71  96 124 161 202 241 283
#     4   9  17  29  47  70  97 129 163 201 244 292
#
# _framework density 18.459465999999999
#
# number of rings (size 3 to 8) (size 9 to 14) (size 15 to 20)
#    0.000    3.000    0.000    3.500    0.000    4.333 
#    0.000    2.500    0.000   10.500    0.000    0.000 
#    0.000    0.000    0.000    0.000    0.000    0.000 
#
# Total GULP energy -297435.027654 kJ/mol
# GULP energy per Si atom -12393.126152 kJ/mol
# Density = 1.841745 g / cm^3
# Si number density = 18.459466 Si / 1000 Ang^3
#
#
#
# Elastic Constant Matrix: (Units=GPa)
#
#
# Indices 1 2 3 4 5 6 
#
# 1 185.4058 34.2945 98.6559 -0.0013 7.2190 -0.0001
# 2 34.2945 28.1118 31.2195 -0.0042 -3.3362 0.0025
# 3 98.6559 31.2195 123.2200 -0.0167 4.1097 0.0067
# 4 -0.0013 -0.0042 -0.0167 24.1830 0.0059 -3.2318
# 5 7.2190 -3.3362 4.1097 0.0059 43.1784 -0.0012
# 6 -0.0001 0.0025 0.0067 -3.2318 -0.0012 21.6399
#
#
#
# Elastic Compliance Matrix: (Units=1/GPa)
#
#
# Indices 1 2 3 4 5 6 
#
# 1 0.009872 -0.004846 -0.006630 -0.000004 -0.001394 0.000002
# 2 -0.004846 0.052994 -0.009741 0.000000 0.005832 -0.000003
# 3 -0.006630 -0.009741 0.015930 0.000009 -0.001160 -0.000003
# 4 -0.000004 0.000000 0.000009 0.042193 -0.000006 0.006301
# 5 -0.001394 0.005832 -0.001160 -0.000006 0.023954 0.000000
# 6 0.000002 -0.000003 -0.000003 0.006301 0.000000 0.047152
#
#
# Mechanical properties :
#
#
# Convention : Reuss Voigt Hill
#
# Bulk Modulus (GPa) = 27.50080 73.89749 50.69914
# Shear Modulus (GPa) = 20.27156 29.30477 24.78816
#
# Velocity S-wave (km/s) = 3.31745 3.98869 3.66846
# Velocity P-wave (km/s) = 5.44098 7.83148 6.74301
#
# Compressibility (1/GPa) = 0.03636258
#
# Stress axis : x y z
#
# Youngs Moduli (GPa) = 101.29783 18.86994 62.77303
#
# Poissons Ratio (x) = 0.09144 0.41616
# Poissons Ratio (y) = 0.49088 0.61150
# Poissons Ratio (z) = 0.67157 0.18382
#
# Static dielectric constant tensor:
#      x y z
#    x 2.639340 0.000090 -0.610470 
#    y 0.000090 2.882780 -0.000030 
#    z -0.610470 -0.000030 4.092390 
# 
# 
# High freq. dielectric constant tensor:
#      x y z
#    x 1.738570 0.000000 0.001440 
#    y 0.000000 1.661480 0.000000 
#    z 0.001440 0.000000 1.715790 
# 
# From -- ./inp_files/295362.got.cif
#   From: 2010.06.25/outbox.cif.g09.slc.cpg/sg12_148_cif.got.tgz:295362.got - 2010.06.28 00:19:55.
