data_PCOD8099695
_publ_section_title
;
Structure prediction by ZEFSAII (Michael W. Deem and Ramdas Pophale) SiO2 
 PCOD8099695
Probable space group: C 2/M
;
_chemical_formula_sum "Si O2"
_cell_formula_units_Z 56
_cell_length_a 22.085016
_cell_length_b 8.934799
_cell_length_c 15.151310
_cell_angle_alpha 90.000000
_cell_angle_beta 67.917687
_cell_angle_gamma 90.000000
_cell_volume 2770.422128
_symmetry_space_group_name_H-M "C 2/M"
_symmetry_group_IT_number 12
_symmetry_cell_setting 'monoclinic'
loop_
_space_group_symop_operation_xyz
x,y,z
-x,y,-z
-x,-y,-z
x,-y,z
1/2+x,1/2+y,z
1/2-x,1/2+y,-z
1/2-x,1/2-y,-z
1/2+x,1/2-y,z
loop_
_atom_site_type_symbol
_atom_site_label
_atom_site_fract_x
_atom_site_fract_y
_atom_site_fract_z
Si Si1 0.573475 0.321965 0.938994
Si Si2 0.241340 0.168545 0.596142
Si Si3 0.406014 0.665113 0.265542
Si Si4 0.448294 0.166293 0.406516
Si Si5 0.289655 0.324083 0.740479
Si Si6 0.904526 0.669015 0.614967
Si Si7 0.789414 0.178286 0.060166
O O1 0.573554 0.500000 0.939126
O O2 0.590124 0.256368 0.832681
O O3 0.633055 0.272892 0.973719
O O4 0.500000 0.260929 0.000000
O O5 0.250000 0.250000 0.500000
O O6 0.166532 0.161073 0.660926
O O7 0.276112 0.270829 0.648978
O O8 0.270514 0.000000 0.577165
O O9 0.435586 0.500000 0.238501
O O10 0.448469 0.743215 0.316365
O O11 0.402035 0.224374 0.512734
O O12 0.521559 0.169567 0.397866
O O13 0.424978 0.000000 0.395876
O O14 0.278773 0.500000 0.761123
O O15 0.366101 0.278319 0.704273
O O16 0.245870 0.231555 0.831953
O O17 0.876299 0.500000 0.637684
O O18 0.784057 0.000000 0.054558
O O19 0.750000 0.250000 0.000000
#
# Coordination Sequence:
#
# PCOD8099695 Si02
#       7
#     8   8   8   8   8   8   8
#     4   9  19  39  65  89 117 157 202 253 317 380
#     4  11  22  37  57  87 123 161 201 245 303 364
#     4  10  20  35  56  84 116 152 194 242 300 365
#     4   9  19  35  56  83 116 159 201 244 305 370
#     4  12  24  38  59  88 119 159 208 253 305 367
#     4   9  19  37  57  80 118 162 202 246 304 369
#     4  11  23  43  67  93 126 162 207 264 324 389
#
# _framework density 20.213526999999999
#
# number of rings (size 3 to 8) (size 9 to 14) (size 15 to 20)
#    0.000    1.857    1.429    3.857    0.000    5.714 
#    0.000    2.857    0.000    3.000    0.000    0.000 
#    0.000    0.000    0.000    0.000    0.000    0.000 
#
# Total GULP energy -346877.373621 kJ/mol
# GULP energy per Si atom -12388.477629 kJ/mol
# Density = 2.016752 g / cm^3
# Si number density = 20.213527 Si / 1000 Ang^3
#
#
#
# Elastic Constant Matrix: (Units=GPa)
#
#
# Indices 1 2 3 4 5 6 
#
# 1 99.6866 40.9603 54.9853 0.0000 -5.9133 0.0000
# 2 40.9603 78.2277 35.1993 0.0000 4.1711 0.0000
# 3 54.9853 35.1993 110.4760 0.0000 -3.6363 0.0000
# 4 0.0000 0.0000 0.0000 31.6905 0.0000 4.6003
# 5 -5.9133 4.1711 -3.6363 0.0000 22.1021 0.0000
# 6 0.0000 0.0000 0.0000 4.6003 0.0000 28.0292
#
#
#
# Elastic Compliance Matrix: (Units=1/GPa)
#
#
# Indices 1 2 3 4 5 6 
#
# 1 0.016008 -0.005952 -0.005925 0.000000 0.004431 0.000000
# 2 -0.005952 0.017429 -0.002766 0.000000 -0.005337 0.000000
# 3 -0.005925 -0.002766 0.012917 0.000000 0.001062 0.000000
# 4 0.000000 0.000000 0.000000 0.032325 0.000000 -0.005305
# 5 0.004431 -0.005337 0.001062 0.000000 0.047612 0.000000
# 6 0.000000 0.000000 0.000000 -0.005305 0.000000 0.036548
#
#
# Mechanical properties :
#
#
# Convention : Reuss Voigt Hill
#
# Bulk Modulus (GPa) = 58.59252 61.18669 59.88960
# Shear Modulus (GPa) = 25.27598 26.84736 26.06167
#
# Velocity S-wave (km/s) = 3.54001 3.64838 3.59460
# Velocity P-wave (km/s) = 6.76451 6.93423 6.84989
#
# Compressibility (1/GPa) = 0.01706702
#
# Stress axis : x y z
#
# Youngs Moduli (GPa) = 62.46791 57.37542 77.41645
#
# Poissons Ratio (x) = 0.34151 0.45871
# Poissons Ratio (y) = 0.37182 0.21416
# Poissons Ratio (z) = 0.37013 0.15872
#
# Static dielectric constant tensor:
#      x y z
#    x 3.983860 0.000000 -0.150700 
#    y 0.000000 3.346530 0.000000 
#    z -0.150700 0.000000 3.857620 
# 
# 
# High freq. dielectric constant tensor:
#      x y z
#    x 1.803340 0.000000 -0.005070 
#    y 0.000000 1.765540 0.000000 
#    z -0.005070 0.000000 1.792510 
# 
# From -- ./inp_files/237359.got.cif
#   From: 2010.06.25/outbox.cif.g09.slc.cpg/sg12_119_cif.got.tgz:237359.got - 2010.06.28 00:19:55.
