data_PCOD8099032
_publ_section_title
;
Structure prediction by ZEFSAII (Michael W. Deem and Ramdas Pophale) SiO2 
 PCOD8099032
Probable space group: C 2/M
;
_chemical_formula_sum "Si O2"
_cell_formula_units_Z 60
_cell_length_a 22.388090
_cell_length_b 14.890702
_cell_length_c 11.140783
_cell_angle_alpha 90.000000
_cell_angle_beta 116.836982
_cell_angle_gamma 90.000000
_cell_volume 3314.028213
_symmetry_space_group_name_H-M "C 2/M"
_symmetry_group_IT_number 12
_symmetry_cell_setting 'monoclinic'
loop_
_space_group_symop_operation_xyz
x,y,z
-x,y,-z
-x,-y,-z
x,-y,z
1/2+x,1/2+y,z
1/2-x,1/2+y,-z
1/2-x,1/2-y,-z
1/2+x,1/2-y,z
loop_
_atom_site_type_symbol
_atom_site_label
_atom_site_fract_x
_atom_site_fract_y
_atom_site_fract_z
Si Si1 0.212665 0.605419 0.634987
Si Si2 0.676471 0.399131 0.945082
Si Si3 0.417238 0.743773 0.225828
Si Si4 0.588063 0.896365 0.371951
Si Si5 0.466607 0.748795 0.845665
Si Si6 0.500000 0.179012 0.500000
Si Si7 0.175250 0.396634 0.861054
Si Si8 0.857532 0.895819 0.809426
O O1 0.215100 0.500000 0.660512
O O2 0.163093 0.631228 0.481942
O O3 0.185081 0.643360 0.735801
O O4 0.289212 0.635652 0.679033
O O5 0.658114 0.500000 0.891145
O O6 0.638373 0.334009 0.818960
O O7 0.756088 0.383964 0.003017
O O8 0.653350 0.380038 0.059508
O O9 0.477033 0.713570 0.193638
O O10 0.445424 0.758202 0.385400
O O11 0.383938 0.834726 0.139522
O O12 0.571187 0.835263 0.242496
O O13 0.535828 0.883133 0.433443
O O14 0.585643 0.000000 0.329891
O O15 0.417321 0.665058 0.816670
O O16 0.500000 0.778880 0.000000
O O17 0.151396 0.500000 0.842373
O O18 0.874816 0.000000 0.798394
#
# Coordination Sequence:
#
# PCOD8099032 Si02
#       8
#     8   8   8   8   8   4   8   8
#     4   8  15  31  56  82  99 126 176 225 264 300
#     4   9  18  33  56  80 102 136 175 220 268 306
#     4  11  20  33  53  78 111 139 170 220 257 308
#     4  10  20  35  55  76 105 140 174 219 259 304
#     4  11  23  35  48  78 112 143 181 204 252 322
#     4  10  21  32  51  80 106 140 181 206 257 316
#     4   9  17  31  54  83 105 128 173 221 266 308
#     4   9  18  35  57  77 103 135 178 227 258 297
#
# _framework density 18.104855000000001
#
# number of rings (size 3 to 8) (size 9 to 14) (size 15 to 20)
#    0.000    2.400    2.667    2.200    0.000    3.733 
#    0.000    0.333    0.000    0.800    0.000    0.000 
#    0.000    0.000    0.000    0.000    0.000    0.000 
#
# Total GULP energy -371897.373781 kJ/mol
# GULP energy per Si atom -12396.579126 kJ/mol
# Density = 1.806365 g / cm^3
# Si number density = 18.104855 Si / 1000 Ang^3
#
#
#
# Elastic Constant Matrix: (Units=GPa)
#
#
# Indices 1 2 3 4 5 6 
#
# 1 77.4619 42.2915 26.8734 0.0000 19.8094 0.0000
# 2 42.2915 101.2530 56.7528 0.0000 22.2879 0.0000
# 3 26.8734 56.7528 97.4321 0.0000 28.2467 0.0000
# 4 0.0000 0.0000 0.0000 25.3358 0.0000 6.4031
# 5 19.8094 22.2879 28.2467 0.0000 27.2270 0.0000
# 6 0.0000 0.0000 0.0000 6.4031 0.0000 31.8098
#
#
#
# Elastic Compliance Matrix: (Units=1/GPa)
#
#
# Indices 1 2 3 4 5 6 
#
# 1 0.018339 -0.006339 0.001427 0.000000 -0.009635 0.000000
# 2 -0.006339 0.017250 -0.007927 0.000000 -0.001285 0.000000
# 3 0.001427 -0.007927 0.018459 0.000000 -0.013700 0.000000
# 4 0.000000 0.000000 0.000000 0.041585 0.000000 -0.008371
# 5 -0.009635 -0.001285 -0.013700 0.000000 0.059003 0.000000
# 6 0.000000 0.000000 0.000000 -0.008371 0.000000 0.033122
#
#
# Mechanical properties :
#
#
# Convention : Reuss Voigt Hill
#
# Bulk Modulus (GPa) = 35.24779 58.66471 46.95625
# Shear Modulus (GPa) = 22.43237 26.88980 24.66109
#
# Velocity S-wave (km/s) = 3.52380 3.85804 3.69470
# Velocity P-wave (km/s) = 6.00559 7.23319 6.64779
#
# Compressibility (1/GPa) = 0.02837057
#
# Stress axis : x y z
#
# Youngs Moduli (GPa) = 54.52789 57.97135 54.17444
#
# Poissons Ratio (x) = 0.36750 -0.07733
# Poissons Ratio (y) = 0.34567 0.42944
# Poissons Ratio (z) = -0.07784 0.45953
#
# Static dielectric constant tensor:
#      x y z
#    x 3.316700 0.000000 0.381340 
#    y 0.000000 3.181820 0.000000 
#    z 0.381340 0.000000 3.414030 
# 
# 
# High freq. dielectric constant tensor:
#      x y z
#    x 1.693500 0.000000 0.033890 
#    y 0.000000 1.688290 0.000000 
#    z 0.033890 0.000000 1.690900 
# 
# From -- ./inp_files/176192.got.cif
#   From: 2010.06.25/outbox.cif.g09.slc.cpg/sg12_89_cif.got.tgz:176192.got - 2010.06.28 00:19:55.
