data_PCOD8099859
_publ_section_title
;
Structure prediction by ZEFSAII (Michael W. Deem and Ramdas Pophale) SiO2 
 PCOD8099859
Probable space group: C 2/M
;
_chemical_formula_sum "Si O2"
_cell_formula_units_Z 64
_cell_length_a 14.822008
_cell_length_b 9.202005
_cell_length_c 30.644249
_cell_angle_alpha 90.000000
_cell_angle_beta 52.260790
_cell_angle_gamma 90.000000
_cell_volume 3305.276658
_symmetry_space_group_name_H-M "C 2/M"
_symmetry_group_IT_number 12
_symmetry_cell_setting 'monoclinic'
loop_
_space_group_symop_operation_xyz
x,y,z
-x,y,-z
-x,-y,-z
x,-y,z
1/2+x,1/2+y,z
1/2-x,1/2+y,-z
1/2-x,1/2-y,-z
1/2+x,1/2-y,z
loop_
_atom_site_type_symbol
_atom_site_label
_atom_site_fract_x
_atom_site_fract_y
_atom_site_fract_z
Si Si1 0.422525 0.164268 0.442560
Si Si2 0.195773 0.836291 0.452544
Si Si3 0.055155 0.170214 0.865212
Si Si4 0.823995 0.832194 0.344867
Si Si5 0.600425 0.168534 0.938952
Si Si6 0.201510 0.167639 0.055441
Si Si7 0.045765 0.829076 0.333393
Si Si8 0.726016 0.669348 0.739135
O O1 0.305784 0.162846 0.450570
O O2 0.404378 0.245975 0.493988
O O3 0.517991 0.251040 0.387404
O O4 0.465484 0.000000 0.438373
O O5 0.226366 0.760920 0.397711
O O6 0.153114 0.000000 0.456424
O O7 0.105907 0.247837 0.892206
O O8 0.126912 0.215463 0.801670
O O9 0.925439 0.221336 0.895574
O O10 0.062402 0.000000 0.871628
O O11 0.821168 0.793398 0.294853
O O12 0.949440 0.793583 0.325919
O O13 0.796097 0.000000 0.362338
O O14 0.721915 0.197636 0.925070
O O15 0.577801 0.000000 0.935897
O O16 0.500000 0.229065 0.000000
O O17 0.203070 0.000000 0.041984
O O18 0.250000 0.250000 0.000000
O O19 0.164061 0.764439 0.280931
O O20 0.056858 0.000000 0.338484
O O21 0.758101 0.500000 0.733724
#
# Coordination Sequence:
#
# PCOD8099859 Si02
#       8
#     8   8   8   8   8   8   8   8
#     4   9  16  28  49  77 110 147 182 223 280 340
#     4   9  16  27  48  79 111 141 180 231 280 331
#     4  10  22  38  57  82 111 148 188 228 270 324
#     4   9  19  36  57  78 106 146 186 226 278 340
#     4  10  20  35  57  86 117 147 179 221 272 323
#     4  10  20  35  57  84 115 148 181 219 268 324
#     4  10  20  35  57  83 108 142 187 233 282 331
#     4  10  22  40  57  77 109 146 188 230 274 328
#
# _framework density 19.362977999999998
#
# number of rings (size 3 to 8) (size 9 to 14) (size 15 to 20)
#    0.000    2.375    1.250    1.125    0.000    6.250 
#    0.000    3.125    0.000    3.750    0.000    0.000 
#    0.000    0.000    0.000    0.000    0.000    0.000 
#
# Total GULP energy -396896.878723 kJ/mol
# GULP energy per Si atom -12403.027460 kJ/mol
# Density = 1.931891 g / cm^3
# Si number density = 19.362978 Si / 1000 Ang^3
#
#
#
# Elastic Constant Matrix: (Units=GPa)
#
#
# Indices 1 2 3 4 5 6 
#
# 1 72.7157 34.2706 51.5528 0.0000 4.3643 0.0000
# 2 34.2706 83.5891 59.7299 0.0000 6.2933 0.0000
# 3 51.5528 59.7299 151.2838 0.0000 11.5397 0.0000
# 4 0.0000 0.0000 0.0000 34.3018 0.0000 0.6492
# 5 4.3643 6.2933 11.5397 0.0000 30.1127 0.0000
# 6 0.0000 0.0000 0.0000 0.6492 0.0000 26.0974
#
#
#
# Elastic Compliance Matrix: (Units=1/GPa)
#
#
# Indices 1 2 3 4 5 6 
#
# 1 0.019260 -0.004466 -0.004798 0.000000 -0.000019 0.000000
# 2 -0.004466 0.017729 -0.005403 0.000000 -0.000988 0.000000
# 3 -0.004798 -0.005403 0.010547 0.000000 -0.002217 0.000000
# 4 0.000000 0.000000 0.000000 0.029167 0.000000 -0.000726
# 5 -0.000019 -0.000988 -0.002217 0.000000 0.034268 0.000000
# 6 0.000000 0.000000 0.000000 -0.000726 0.000000 0.038336
#
#
# Mechanical properties :
#
#
# Convention : Reuss Voigt Hill
#
# Bulk Modulus (GPa) = 54.93787 66.52168 60.72978
# Shear Modulus (GPa) = 27.06959 28.90473 27.98716
#
# Velocity S-wave (km/s) = 3.74305 3.86785 3.80596
# Velocity P-wave (km/s) = 6.86402 7.37405 7.12360
#
# Compressibility (1/GPa) = 0.01820238
#
# Stress axis : x y z
#
# Youngs Moduli (GPa) = 51.92057 56.40400 94.80963
#
# Poissons Ratio (x) = 0.25191 0.45494
# Poissons Ratio (y) = 0.23189 0.51222
# Poissons Ratio (z) = 0.24914 0.30473
#
# Static dielectric constant tensor:
#      x y z
#    x 3.474510 0.000000 -0.104600 
#    y 0.000000 3.575230 0.000000 
#    z -0.104600 0.000000 3.579330 
# 
# 
# High freq. dielectric constant tensor:
#      x y z
#    x 1.750480 0.000000 -0.003180 
#    y 0.000000 1.752960 0.000000 
#    z -0.003180 0.000000 1.751040 
# 
# From -- ./inp_files/375474.got.cif
#   From: 2010.06.25/outbox.cif.g09.slc.cpg/sg12_188_cif.got.tgz:375474.got - 2010.06.28 00:19:55.
