data_PCOD8099345
_publ_section_title
;
Structure prediction by ZEFSAII (Michael W. Deem and Ramdas Pophale) SiO2 
 PCOD8099345
Probable space group: C 2/M
;
_chemical_formula_sum "Si O2"
_cell_formula_units_Z 56
_cell_length_a 18.253870
_cell_length_b 9.179084
_cell_length_c 29.073787
_cell_angle_alpha 90.000000
_cell_angle_beta 37.956252
_cell_angle_gamma 90.000000
_cell_volume 2996.215956
_symmetry_space_group_name_H-M "C 2/M"
_symmetry_group_IT_number 12
_symmetry_cell_setting 'monoclinic'
loop_
_space_group_symop_operation_xyz
x,y,z
-x,y,-z
-x,-y,-z
x,-y,z
1/2+x,1/2+y,z
1/2-x,1/2+y,-z
1/2-x,1/2-y,-z
1/2+x,1/2-y,z
loop_
_atom_site_type_symbol
_atom_site_label
_atom_site_fract_x
_atom_site_fract_y
_atom_site_fract_z
Si Si1 0.026693 0.669844 0.713457
Si Si2 0.298451 0.170904 0.291372
Si Si3 0.075514 0.667056 0.008370
Si Si4 0.483261 0.329059 0.141299
Si Si5 0.844229 0.169496 0.861676
Si Si6 0.445393 0.168090 0.576358
Si Si7 0.126537 0.670124 0.567317
O O1 0.998205 0.500000 0.727498
O O2 0.134421 0.708777 0.694465
O O3 0.062438 0.726346 0.645354
O O4 0.905946 0.749247 0.788556
O O5 0.362764 0.250930 0.217277
O O6 0.165351 0.227823 0.360725
O O7 0.297632 0.000000 0.281627
O O8 0.077335 0.500000 0.025008
O O9 0.016857 0.769537 0.075069
O O10 0.208873 0.723079 0.932659
O O11 0.000000 0.683340 0.000000
O O12 0.458661 0.500000 0.150386
O O13 0.590221 0.291451 0.123192
O O14 0.851406 0.000000 0.846863
O O15 0.500000 0.203428 0.500000
O O16 0.543631 0.207528 0.565432
O O17 0.404880 0.000000 0.600068
O O18 0.154011 0.500000 0.557638
O O19 0.250000 0.750000 0.500000
#
# Coordination Sequence:
#
# PCOD8099345 Si02
#       7
#     8   8   8   8   8   8   8
#     4   9  19  35  54  77 104 134 172 218 262 307
#     4  10  20  35  56  79 104 136 174 217 264 313
#     4  10  21  36  53  77 110 141 173 217 263 309
#     4  10  20  35  56  79 104 137 177 217 259 312
#     4   9  19  35  55  78 103 136 176 215 259 312
#     4  10  21  36  54  78 109 142 175 216 265 314
#     4  10  21  36  54  78 107 139 176 217 260 308
#
# _framework density 18.690241
#
# number of rings (size 3 to 8) (size 9 to 14) (size 15 to 20)
#    0.000    2.286    0.000    2.143    0.000    4.571 
#    0.000    2.857    0.000    0.000    0.000    0.000 
#    0.000    0.000    0.000    0.000    0.000    0.000 
#
# Total GULP energy -347334.675859 kJ/mol
# GULP energy per Si atom -12404.809852 kJ/mol
# Density = 1.864770 g / cm^3
# Si number density = 18.690241 Si / 1000 Ang^3
#
#
#
# Elastic Constant Matrix: (Units=GPa)
#
#
# Indices 1 2 3 4 5 6 
#
# 1 90.2400 47.9983 75.8390 0.0005 1.9342 0.0008
# 2 47.9983 76.7836 71.3291 0.0014 -1.6429 0.0019
# 3 75.8390 71.3291 162.5828 0.0000 5.0462 -0.0001
# 4 0.0005 0.0014 0.0000 41.1920 0.0000 -2.5433
# 5 1.9342 -1.6429 5.0462 0.0000 33.5079 0.0004
# 6 0.0008 0.0019 -0.0001 -2.5433 0.0004 22.7603
#
#
#
# Elastic Compliance Matrix: (Units=1/GPa)
#
#
# Indices 1 2 3 4 5 6 
#
# 1 0.019970 -0.006507 -0.006445 0.000000 -0.000501 0.000000
# 2 -0.006507 0.024321 -0.007720 -0.000001 0.002731 -0.000002
# 3 -0.006445 -0.007720 0.012603 0.000000 -0.001904 0.000001
# 4 0.000000 -0.000001 0.000000 0.024445 0.000000 0.002732
# 5 -0.000501 0.002731 -0.001904 0.000000 0.030293 -0.000001
# 6 0.000000 -0.000002 0.000001 0.002732 -0.000001 0.044241
#
#
# Mechanical properties :
#
#
# Convention : Reuss Voigt Hill
#
# Bulk Modulus (GPa) = 64.30635 79.99323 72.14979
# Shear Modulus (GPa) = 24.70359 28.45472 26.57916
#
# Velocity S-wave (km/s) = 3.63951 3.90608 3.77515
# Velocity P-wave (km/s) = 7.22098 7.95208 7.59533
#
# Compressibility (1/GPa) = 0.01555056
#
# Stress axis : x y z
#
# Youngs Moduli (GPa) = 50.07603 41.11686 79.34692
#
# Poissons Ratio (x) = 0.26755 0.51137
# Poissons Ratio (y) = 0.32584 0.61253
# Poissons Ratio (z) = 0.32273 0.31741
#
# Static dielectric constant tensor:
#      x y z
#    x 3.442450 0.000000 0.058770 
#    y 0.000000 3.395880 0.000000 
#    z 0.058770 0.000000 3.589720 
# 
# 
# High freq. dielectric constant tensor:
#      x y z
#    x 1.723930 0.000000 0.000600 
#    y 0.000000 1.723850 0.000000 
#    z 0.000600 0.000000 1.737670 
# 
# From -- ./inp_files/275328.got.cif
#   From: 2010.06.25/outbox.cif.g09.slc.cpg/sg12_138_cif.got.tgz:275328.got - 2010.06.28 00:19:55.
