data_PCOD8099908
_publ_section_title
;
Structure prediction by ZEFSAII (Michael W. Deem and Ramdas Pophale) SiO2 
 PCOD8099908
Probable space group: C 2/M
;
_chemical_formula_sum "Si O2"
_cell_formula_units_Z 56
_cell_length_a 8.685407
_cell_length_b 17.773319
_cell_length_c 28.301309
_cell_angle_alpha 90.000000
_cell_angle_beta 141.126006
_cell_angle_gamma 90.000000
_cell_volume 2741.920883
_symmetry_space_group_name_H-M "C 2/M"
_symmetry_group_IT_number 12
_symmetry_cell_setting 'monoclinic'
loop_
_space_group_symop_operation_xyz
x,y,z
-x,y,-z
-x,-y,-z
x,-y,z
1/2+x,1/2+y,z
1/2-x,1/2+y,-z
1/2-x,1/2-y,-z
1/2+x,1/2-y,z
loop_
_atom_site_type_symbol
_atom_site_label
_atom_site_fract_x
_atom_site_fract_y
_atom_site_fract_z
Si Si1 0.365912 0.842878 0.422545
Si Si2 0.335372 0.913367 0.005572
Si Si3 0.334093 0.658074 0.860623
Si Si4 0.522308 0.820714 0.138556
Si Si5 0.774378 0.315917 0.576409
Si Si6 0.003724 0.085608 0.732463
Si Si7 0.616370 0.087207 0.719174
O O1 0.500000 0.880110 0.500000
O O2 0.217899 0.769134 0.403092
O O3 0.570944 0.818759 0.434314
O O4 0.176199 0.901990 0.355009
O O5 0.054578 0.897259 0.926463
O O6 0.363973 0.000000 0.027546
O O7 0.500000 0.894014 0.000000
O O8 0.427450 0.861902 0.069664
O O9 0.434409 0.733883 0.861676
O O10 0.185072 0.676247 0.871755
O O11 0.159265 0.615181 0.782332
O O12 0.769116 0.858439 0.216891
O O13 0.500000 0.343532 0.500000
O O14 0.883862 0.369647 0.642604
O O15 0.860526 0.102880 0.746814
O O16 0.098368 0.000000 0.753958
O O17 0.548136 0.000000 0.702875
#
# Coordination Sequence:
#
# PCOD8099908 Si02
#       7
#     8   8   8   8   8   8   8
#     4  10  20  35  57  83 113 151 194 241 291 346
#     4  11  24  43  66  91 123 159 192 235 292 347
#     4  12  25  41  63  90 120 155 198 244 289 343
#     4  12  25  41  63  90 120 155 198 244 289 343
#     4  10  20  35  57  83 113 151 194 241 291 346
#     4  10  22  40  60  85 119 156 194 240 296 352
#     4  10  22  40  60  85 119 156 194 240 296 352
#
# _framework density 20.423639000000001
#
# number of rings (size 3 to 8) (size 9 to 14) (size 15 to 20)
#    0.000    1.286    0.000    6.857    0.000   10.286 
#    0.000    0.000    0.000    0.000    0.000    0.000 
#    0.000    0.000    0.000    0.000    0.000    0.000 
#
# Total GULP energy -347377.244839 kJ/mol
# GULP energy per Si atom -12406.330173 kJ/mol
# Density = 2.037715 g / cm^3
# Si number density = 20.423639 Si / 1000 Ang^3
#
#
#
# Elastic Constant Matrix: (Units=GPa)
#
#
# Indices 1 2 3 4 5 6 
#
# 1 78.7147 1.5001 15.8785 0.0000 3.9433 0.0001
# 2 1.5001 44.1796 15.7160 -0.0003 -0.2814 -0.0001
# 3 15.8785 15.7160 98.9883 0.0002 -7.8167 0.0007
# 4 0.0000 -0.0003 0.0002 26.9700 0.0001 -4.6050
# 5 3.9433 -0.2814 -7.8167 0.0001 29.3758 0.0003
# 6 0.0001 -0.0001 0.0007 -4.6050 0.0003 22.6966
#
#
#
# Elastic Compliance Matrix: (Units=1/GPa)
#
#
# Indices 1 2 3 4 5 6 
#
# 1 0.013299 0.000381 -0.002385 0.000000 -0.002416 0.000000
# 2 0.000381 0.024019 -0.003943 0.000000 -0.000870 0.000000
# 3 -0.002385 -0.003943 0.011372 0.000000 0.003308 0.000000
# 4 0.000000 0.000000 0.000000 0.038409 0.000000 0.007793
# 5 -0.002416 -0.000870 0.003308 0.000000 0.035238 -0.000001
# 6 0.000000 0.000000 0.000000 0.007793 -0.000001 0.045641
#
#
# Mechanical properties :
#
#
# Convention : Reuss Voigt Hill
#
# Bulk Modulus (GPa) = 27.17622 32.00798 29.59210
# Shear Modulus (GPa) = 26.02320 28.39435 27.20878
#
# Velocity S-wave (km/s) = 3.57343 3.73268 3.65392
# Velocity P-wave (km/s) = 5.51008 5.85519 5.68525
#
# Compressibility (1/GPa) = 0.03679688
#
# Stress axis : x y z
#
# Youngs Moduli (GPa) = 75.19422 41.63345 87.93504
#
# Poissons Ratio (x) = -0.01588 0.20969
# Poissons Ratio (y) = -0.02867 0.34676
# Poissons Ratio (z) = 0.17931 0.16417
#
# Static dielectric constant tensor:
#      x y z
#    x 3.794720 0.000000 -0.030240 
#    y 0.000000 3.694700 0.000000 
#    z -0.030240 0.000000 3.917860 
# 
# 
# High freq. dielectric constant tensor:
#      x y z
#    x 1.804740 0.000000 -0.004040 
#    y 0.000000 1.801530 0.000000 
#    z -0.004040 0.000000 1.814730 
# 
# From -- ./inp_files/257147.got.cif
#   From: 2010.06.25/outbox.cif.g09.slc.cpg/sg12_129_cif.got.tgz:257147.got - 2010.06.28 00:19:55.
