data_PCOD8099487
_publ_section_title
;
Structure prediction by ZEFSAII (Michael W. Deem and Ramdas Pophale) SiO2 
 PCOD8099487
Probable space group: C 2/M
;
_chemical_formula_sum "Si O2"
_cell_formula_units_Z 40
_cell_length_a 18.111900
_cell_length_b 8.795646
_cell_length_c 12.769140
_cell_angle_alpha 90.000000
_cell_angle_beta 97.476673
_cell_angle_gamma 90.000000
_cell_volume 2016.903919
_symmetry_space_group_name_H-M "C 2/M"
_symmetry_group_IT_number 12
_symmetry_cell_setting 'monoclinic'
loop_
_space_group_symop_operation_xyz
x,y,z
-x,y,-z
-x,-y,-z
x,-y,z
1/2+x,1/2+y,z
1/2-x,1/2+y,-z
1/2-x,1/2-y,-z
1/2+x,1/2-y,z
loop_
_atom_site_type_symbol
_atom_site_label
_atom_site_fract_x
_atom_site_fract_y
_atom_site_fract_z
Si Si1 0.851265 0.319290 0.201003
Si Si2 0.584181 0.324270 0.982395
Si Si3 0.669561 0.668141 0.370529
Si Si4 0.308553 0.821809 0.834200
Si Si5 0.654595 0.168223 0.569162
O O1 0.856601 0.500000 0.187401
O O2 0.907710 0.231841 0.135468
O O3 0.767087 0.269968 0.160747
O O4 0.874551 0.271189 0.323834
O O5 0.607909 0.500000 0.997402
O O6 0.500000 0.298439 0.000000
O O7 0.636156 0.218910 0.062428
O O8 0.639068 0.500000 0.339103
O O9 0.652888 0.776355 0.268782
O O10 0.627839 0.727469 0.467643
O O11 0.756657 0.662977 0.408891
O O12 0.291270 0.000000 0.831396
O O13 0.623212 0.000000 0.542031
#
# Coordination Sequence:
#
# PCOD8099487 Si02
#       5
#     8   8   8   8   8
#     4  10  20  35  56  81 109 139 175 217 259 309
#     4  11  24  40  56  75 103 138 176 219 267 317
#     4   9  16  27  46  74 107 138 170 210 256 306
#     4  11  21  34  55  80 108 140 176 217 260 309
#     4   8  15  27  45  73 106 137 168 206 254 306
#
# _framework density 19.832377999999999
#
# number of rings (size 3 to 8) (size 9 to 14) (size 15 to 20)
#    0.000    2.200    0.000    5.400    0.000    7.200 
#    0.000    0.000    0.000    1.200    0.000    8.400 
#    0.000    0.000    0.000    0.000    0.000    0.000 
#
# Total GULP energy -247975.810607 kJ/mol
# GULP energy per Si atom -12398.790530 kJ/mol
# Density = 1.978724 g / cm^3
# Si number density = 19.832378 Si / 1000 Ang^3
#
#
#
# Elastic Constant Matrix: (Units=GPa)
#
#
# Indices 1 2 3 4 5 6 
#
# 1 46.7625 23.1484 36.3761 0.0000 -21.7894 0.0000
# 2 23.1484 83.4674 33.7453 0.0000 -14.8750 0.0000
# 3 36.3761 33.7453 118.2946 0.0000 -43.2977 0.0000
# 4 0.0000 0.0000 0.0000 39.4809 0.0000 -5.5857
# 5 -21.7894 -14.8750 -43.2977 0.0000 20.9804 0.0000
# 6 0.0000 0.0000 0.0000 -5.5857 0.0000 14.8196
#
#
#
# Elastic Compliance Matrix: (Units=1/GPa)
#
#
# Indices 1 2 3 4 5 6 
#
# 1 0.048631 -0.005764 0.015043 0.000000 0.077464 0.000000
# 2 -0.005764 0.014457 -0.003233 0.000000 -0.002408 0.000000
# 3 0.015043 -0.003233 0.039360 0.000000 0.094558 0.000000
# 4 0.000000 0.000000 0.000000 0.026755 0.000000 0.010084
# 5 0.077464 -0.002408 0.094558 0.000000 0.321548 0.000000
# 6 0.000000 0.000000 0.000000 0.010084 0.000000 0.071279
#
#
# Mechanical properties :
#
#
# Convention : Reuss Voigt Hill
#
# Bulk Modulus (GPa) = 8.73056 48.34046 28.53551
# Shear Modulus (GPa) = 9.12212 25.40652 17.26432
#
# Velocity S-wave (km/s) = 2.14700 3.58308 2.95364
# Velocity P-wave (km/s) = 3.24929 6.44557 5.10408
#
# Compressibility (1/GPa) = 0.11454022
#
# Stress axis : x y z
#
# Youngs Moduli (GPa) = 20.56297 69.16980 25.40670
#
# Poissons Ratio (x) = 0.39867 -0.38220
# Poissons Ratio (y) = 0.11852 0.08215
# Poissons Ratio (z) = -0.30933 0.22365
#
# Static dielectric constant tensor:
#      x y z
#    x 3.103950 0.000000 -0.363300 
#    y 0.000000 3.765760 0.000000 
#    z -0.363300 0.000000 3.984160 
# 
# 
# High freq. dielectric constant tensor:
#      x y z
#    x 1.715430 0.000000 -0.024070 
#    y 0.000000 1.783010 0.000000 
#    z -0.024070 0.000000 1.790550 
# 
# From -- ./inp_files/151844.got.cif
#   From: 2010.06.25/outbox.cif.g09.slc.cpg/sg12_76_cif.got.tgz:151844.got - 2010.06.28 00:19:55.
