data_PCOD8099681
_publ_section_title
;
Structure prediction by ZEFSAII (Michael W. Deem and Ramdas Pophale) SiO2 
 PCOD8099681
Probable space group: C 2/M
;
_chemical_formula_sum "Si O2"
_cell_formula_units_Z 56
_cell_length_a 20.525270
_cell_length_b 8.647836
_cell_length_c 17.458834
_cell_angle_alpha 90.000000
_cell_angle_beta 71.426685
_cell_angle_gamma 90.000000
_cell_volume 2937.526594
_symmetry_space_group_name_H-M "C 2/M"
_symmetry_group_IT_number 12
_symmetry_cell_setting 'monoclinic'
loop_
_space_group_symop_operation_xyz
x,y,z
-x,y,-z
-x,-y,-z
x,-y,z
1/2+x,1/2+y,z
1/2-x,1/2+y,-z
1/2-x,1/2-y,-z
1/2+x,1/2-y,z
loop_
_atom_site_type_symbol
_atom_site_label
_atom_site_fract_x
_atom_site_fract_y
_atom_site_fract_z
Si Si1 0.056525 0.681431 0.075157
Si Si2 0.315467 0.819554 0.246584
Si Si3 0.338273 0.682622 0.669207
Si Si4 0.933504 0.818981 0.770567
Si Si5 0.925019 0.319991 0.506282
Si Si6 0.573181 0.177895 0.669813
Si Si7 0.087300 0.181109 0.907933
O O1 0.064572 0.500000 0.059156
O O2 0.088966 0.730680 0.143876
O O3 0.976100 0.725597 0.105116
O O4 0.096818 0.770692 0.992819
O O5 0.239072 0.756699 0.290640
O O6 0.359450 0.786102 0.306082
O O7 0.344385 0.724674 0.163692
O O8 0.315806 0.000000 0.225158
O O9 0.339799 0.500000 0.667661
O O10 0.385535 0.745822 0.720589
O O11 0.366198 0.740052 0.577749
O O12 0.012412 0.787435 0.720668
O O13 0.923017 0.000000 0.787765
O O14 0.923415 0.500000 0.526019
O O15 0.908217 0.283895 0.424545
O O16 0.000000 0.251936 0.500000
O O17 0.549217 0.000000 0.687989
O O18 0.071687 0.000000 0.908059
#
# Coordination Sequence:
#
# PCOD8099681 Si02
#       7
#     8   8   8   8   8   8   8
#     4  11  21  35  58  86 115 151 190 230 283 340
#     4  10  21  39  58  81 116 156 194 228 285 349
#     4  10  23  39  57  82 116 155 190 237 290 341
#     4  11  21  35  56  85 115 145 192 243 285 330
#     4  10  20  35  56  84 114 147 193 242 287 339
#     4  10  20  35  58  82 110 150 193 237 284 341
#     4  11  21  35  57  88 119 147 187 237 283 328
#
# _framework density 19.063658
#
# number of rings (size 3 to 8) (size 9 to 14) (size 15 to 20)
#    0.000    1.571    2.857    3.857    0.000    2.571 
#    0.000    0.714    0.000    0.000    0.000    0.000 
#    0.000    0.000    0.000    0.000    0.000    0.000 
#
# Total GULP energy -347339.029244 kJ/mol
# GULP energy per Si atom -12404.965330 kJ/mol
# Density = 1.902027 g / cm^3
# Si number density = 19.063658 Si / 1000 Ang^3
#
#
#
# Elastic Constant Matrix: (Units=GPa)
#
#
# Indices 1 2 3 4 5 6 
#
# 1 93.6345 19.8724 59.9392 0.0000 -0.9886 0.0000
# 2 19.8724 55.4625 27.1936 0.0000 0.5179 0.0000
# 3 59.9392 27.1936 143.6620 0.0000 -1.3313 0.0000
# 4 0.0000 0.0000 0.0000 36.5076 0.0000 -0.6271
# 5 -0.9886 0.5179 -1.3313 0.0000 33.2056 0.0000
# 6 0.0000 0.0000 0.0000 -0.6271 0.0000 19.4268
#
#
#
# Elastic Compliance Matrix: (Units=1/GPa)
#
#
# Indices 1 2 3 4 5 6 
#
# 1 0.014887 -0.002527 -0.005731 0.000000 0.000253 0.000000
# 2 -0.002527 0.020311 -0.002795 0.000000 -0.000504 0.000000
# 3 -0.005731 -0.002795 0.009883 0.000000 0.000269 0.000000
# 4 0.000000 0.000000 0.000000 0.027407 0.000000 0.000885
# 5 0.000253 -0.000504 0.000269 0.000000 0.030142 0.000000
# 6 0.000000 0.000000 0.000000 0.000885 0.000000 0.051504
#
#
# Mechanical properties :
#
#
# Convention : Reuss Voigt Hill
#
# Bulk Modulus (GPa) = 43.52306 56.30770 49.91538
# Shear Modulus (GPa) = 27.18915 30.21160 28.70038
#
# Velocity S-wave (km/s) = 3.78064 3.98524 3.88429
# Velocity P-wave (km/s) = 6.47593 7.12580 6.80862
#
# Compressibility (1/GPa) = 0.02297633
#
# Stress axis : x y z
#
# Youngs Moduli (GPa) = 67.17197 49.23524 101.18065
#
# Poissons Ratio (x) = 0.12440 0.57983
# Poissons Ratio (y) = 0.16972 0.28281
# Poissons Ratio (z) = 0.38494 0.13762
#
# Static dielectric constant tensor:
#      x y z
#    x 3.491730 0.000000 0.133680 
#    y 0.000000 3.388460 0.000000 
#    z 0.133680 0.000000 3.641520 
# 
# 
# High freq. dielectric constant tensor:
#      x y z
#    x 1.722730 0.000000 0.012440 
#    y 0.000000 1.737760 0.000000 
#    z 0.012440 0.000000 1.755120 
# 
# From -- ./inp_files/280913.got.cif
#   From: 2010.06.25/outbox.cif.g09.slc.cpg/sg12_141_cif.got.tgz:280913.got - 2010.06.28 00:19:55.
