data_PCOD8099584
_publ_section_title
;
Structure prediction by ZEFSAII (Michael W. Deem and Ramdas Pophale) SiO2 
 PCOD8099584
Probable space group: C 2/M
;
_chemical_formula_sum "Si O2"
_cell_formula_units_Z 64
_cell_length_a 17.947750
_cell_length_b 8.855267
_cell_length_c 33.356133
_cell_angle_alpha 90.000000
_cell_angle_beta 142.079477
_cell_angle_gamma 90.000000
_cell_volume 3258.045721
_symmetry_space_group_name_H-M "C 2/M"
_symmetry_group_IT_number 12
_symmetry_cell_setting 'monoclinic'
loop_
_space_group_symop_operation_xyz
x,y,z
-x,y,-z
-x,-y,-z
x,-y,z
1/2+x,1/2+y,z
1/2-x,1/2+y,-z
1/2-x,1/2-y,-z
1/2+x,1/2-y,z
loop_
_atom_site_type_symbol
_atom_site_label
_atom_site_fract_x
_atom_site_fract_y
_atom_site_fract_z
Si Si1 0.075316 0.670215 0.991401
Si Si2 0.727426 0.820685 0.259688
Si Si3 0.216094 0.323694 0.877104
Si Si4 0.399704 0.320920 0.488357
Si Si5 0.000261 0.179472 0.385295
Si Si6 0.135199 0.176237 0.139815
Si Si7 0.354500 0.324266 0.629478
Si Si8 0.959272 0.175943 0.759544
O O1 0.101752 0.500000 0.987787
O O2 0.998896 0.758995 0.925445
O O3 0.200855 0.757603 0.052066
O O4 0.000000 0.667985 0.000000
O O5 0.862796 0.760972 0.326043
O O6 0.689092 0.761749 0.200310
O O7 0.643160 0.758392 0.258701
O O8 0.720610 0.000000 0.256671
O O9 0.197970 0.500000 0.876964
O O10 0.275978 0.291188 0.859554
O O11 0.088777 0.241099 0.826093
O O12 0.500000 0.260536 0.500000
O O13 0.395583 0.500000 0.486447
O O14 0.433145 0.258925 0.546691
O O15 0.271333 0.261159 0.419348
O O16 0.072538 0.242212 0.377521
O O17 0.999179 0.000000 0.384125
O O18 0.123374 0.000000 0.144024
O O19 0.326427 0.500000 0.611947
O O20 0.435958 0.293241 0.702899
O O21 0.956494 0.000000 0.768786
#
# Coordination Sequence:
#
# PCOD8099584 Si02
#       8
#     8   8   8   8   8   8   8   8
#     4   9  17  31  54  83 113 147 187 228 274 328
#     4  11  22  38  59  80 108 147 188 229 281 341
#     4  10  20  35  57  84 113 147 187 230 277 330
#     4  10  20  35  56  82 113 147 182 223 273 328
#     4   9  19  36  57  81 109 143 184 229 276 330
#     4  10  20  35  56  84 116 146 183 231 278 329
#     4  10  21  37  57  81 109 143 184 229 276 327
#     4  11  23  38  55  78 111 147 186 234 285 335
#
# _framework density 19.643678000000001
#
# number of rings (size 3 to 8) (size 9 to 14) (size 15 to 20)
#    0.000    2.000    0.000    3.750    0.000    6.250 
#    0.000    3.125    0.000    0.000    0.000    0.000 
#    0.000    0.000    0.000    0.000    0.000    0.000 
#
# Total GULP energy -396916.388319 kJ/mol
# GULP energy per Si atom -12403.637135 kJ/mol
# Density = 1.959897 g / cm^3
# Si number density = 19.643678 Si / 1000 Ang^3
#
#
#
# Elastic Constant Matrix: (Units=GPa)
#
#
# Indices 1 2 3 4 5 6 
#
# 1 118.2685 40.2714 17.6687 0.0000 50.5994 0.0000
# 2 40.2714 79.6456 29.0615 -0.0002 13.2657 0.0003
# 3 17.6687 29.0615 89.3121 -0.0001 24.7820 0.0001
# 4 0.0000 -0.0002 -0.0001 31.0301 0.0000 2.0132
# 5 50.5994 13.2657 24.7820 0.0000 49.4109 -0.0001
# 6 0.0000 0.0003 0.0001 2.0132 -0.0001 24.3589
#
#
#
# Elastic Compliance Matrix: (Units=1/GPa)
#
#
# Indices 1 2 3 4 5 6 
#
# 1 0.018642 -0.007755 0.004130 0.000000 -0.019079 0.000000
# 2 -0.007755 0.017603 -0.005908 0.000000 0.006179 0.000000
# 3 0.004130 -0.005908 0.015143 0.000000 -0.010238 0.000000
# 4 0.000000 0.000000 0.000000 0.032401 0.000000 -0.002678
# 5 -0.019079 0.006179 -0.010238 0.000000 0.043253 0.000000
# 6 0.000000 0.000000 0.000000 -0.002678 0.000000 0.041274
#
#
# Mechanical properties :
#
#
# Convention : Reuss Voigt Hill
#
# Bulk Modulus (GPa) = 30.93959 51.24769 41.09364
# Shear Modulus (GPa) = 25.23259 34.30828 29.77043
#
# Velocity S-wave (km/s) = 3.58790 4.18368 3.89719
# Velocity P-wave (km/s) = 5.74009 7.03441 6.41995
#
# Compressibility (1/GPa) = 0.03232105
#
# Stress axis : x y z
#
# Youngs Moduli (GPa) = 53.64275 56.80701 66.03738
#
# Poissons Ratio (x) = 0.44053 -0.27270
# Poissons Ratio (y) = 0.41599 0.39017
# Poissons Ratio (z) = -0.22152 0.33563
#
# Static dielectric constant tensor:
#      x y z
#    x 3.600640 0.000000 -0.005310 
#    y 0.000000 3.518490 0.000000 
#    z -0.005310 0.000000 3.752310 
# 
# 
# High freq. dielectric constant tensor:
#      x y z
#    x 1.759630 0.000000 0.004510 
#    y 0.000000 1.759590 0.000000 
#    z 0.004510 0.000000 1.782070 
# 
# From -- ./inp_files/378412.got.cif
#   From: 2010.06.25/outbox.cif.g09.slc.cpg/sg12_190_cif.got.tgz:378412.got - 2010.06.28 00:19:55.
