data_PCOD8099213
_publ_section_title
;
Structure prediction by ZEFSAII (Michael W. Deem and Ramdas Pophale) SiO2 
 PCOD8099213
Probable space group: C 2/M
;
_chemical_formula_sum "Si O2"
_cell_formula_units_Z 56
_cell_length_a 29.336079
_cell_length_b 8.742190
_cell_length_c 11.129337
_cell_angle_alpha 90.000000
_cell_angle_beta 79.693319
_cell_angle_gamma 90.000000
_cell_volume 2808.191697
_symmetry_space_group_name_H-M "C 2/M"
_symmetry_group_IT_number 12
_symmetry_cell_setting 'monoclinic'
loop_
_space_group_symop_operation_xyz
x,y,z
-x,y,-z
-x,-y,-z
x,-y,z
1/2+x,1/2+y,z
1/2-x,1/2+y,-z
1/2-x,1/2-y,-z
1/2+x,1/2-y,z
loop_
_atom_site_type_symbol
_atom_site_label
_atom_site_fract_x
_atom_site_fract_y
_atom_site_fract_z
Si Si1 0.258055 0.681048 0.865990
Si Si2 0.558525 0.680579 0.192530
Si Si3 0.878165 0.179706 0.431741
Si Si4 0.671600 0.321181 0.788297
Si Si5 0.465508 0.177174 0.285919
Si Si6 0.647822 0.318985 0.294879
Si Si7 0.084890 0.322409 0.936895
O O1 0.259355 0.500000 0.876840
O O2 0.218231 0.729683 0.792586
O O3 0.306267 0.746795 0.790339
O O4 0.250000 0.750000 0.000000
O O5 0.559852 0.500000 0.171786
O O6 0.512394 0.727895 0.286258
O O7 0.602651 0.740541 0.246309
O O8 0.557536 0.765953 0.065872
O O9 0.844042 0.223475 0.338763
O O10 0.926974 0.266144 0.397678
O O11 0.854064 0.235858 0.565815
O O12 0.888815 0.000000 0.426883
O O13 0.681057 0.500000 0.799113
O O14 0.632382 0.272473 0.902018
O O15 0.448236 0.209971 0.159525
O O16 0.475623 0.000000 0.303777
O O17 0.649182 0.500000 0.290712
O O18 0.097670 0.500000 0.941435
#
# Coordination Sequence:
#
# PCOD8099213 Si02
#       7
#     8   8   8   8   8   8   8
#     4  11  22  38  60  85 115 147 181 224 275 329
#     4  11  21  34  55  81 110 146 188 231 276 327
#     4   9  19  39  61  79 105 144 188 227 268 325
#     4  10  20  35  58  85 111 142 182 227 274 328
#     4  10  21  36  54  80 113 145 181 228 280 331
#     4   9  21  39  57  79 108 144 185 228 271 322
#     4  10  20  35  55  80 112 147 183 227 278 330
#
# _framework density 19.941658
#
# number of rings (size 3 to 8) (size 9 to 14) (size 15 to 20)
#    0.000    2.000    0.000    3.429    0.000    6.286 
#    0.000    7.857    0.000    0.000    0.000    0.000 
#    0.000    0.000    0.000    0.000    0.000    0.000 
#
# Total GULP energy -347327.414399 kJ/mol
# GULP energy per Si atom -12404.550514 kJ/mol
# Density = 1.989627 g / cm^3
# Si number density = 19.941658 Si / 1000 Ang^3
#
#
#
# Elastic Constant Matrix: (Units=GPa)
#
#
# Indices 1 2 3 4 5 6 
#
# 1 143.8809 37.5639 59.9797 0.0000 -20.8909 0.0000
# 2 37.5639 55.5193 30.4355 0.0000 -0.9303 0.0000
# 3 59.9797 30.4355 131.4085 0.0000 -18.7811 0.0000
# 4 0.0000 0.0000 0.0000 24.0377 0.0000 -2.3615
# 5 -20.8909 -0.9303 -18.7811 0.0000 22.7518 0.0000
# 6 0.0000 0.0000 0.0000 -2.3615 0.0000 34.2537
#
#
#
# Elastic Compliance Matrix: (Units=1/GPa)
#
#
# Indices 1 2 3 4 5 6 
#
# 1 0.010518 -0.005661 -0.002429 0.000000 0.007421 0.000000
# 2 -0.005661 0.023929 -0.004038 0.000000 -0.007552 0.000000
# 3 -0.002429 -0.004038 0.010557 0.000000 0.006319 0.000000
# 4 0.000000 0.000000 0.000000 0.041885 0.000000 0.002888
# 5 0.007421 -0.007552 0.006319 0.000000 0.055674 0.000000
# 6 0.000000 0.000000 0.000000 0.002888 0.000000 0.029393
#
#
# Mechanical properties :
#
#
# Convention : Reuss Voigt Hill
#
# Bulk Modulus (GPa) = 48.19587 65.19633 56.69610
# Shear Modulus (GPa) = 24.61514 29.73062 27.17288
#
# Velocity S-wave (km/s) = 3.51715 3.86538 3.69537
# Velocity P-wave (km/s) = 6.38081 7.25852 6.83377
#
# Compressibility (1/GPa) = 0.02074867
#
# Stress axis : x y z
#
# Youngs Moduli (GPa) = 95.07315 41.79097 94.72435
#
# Poissons Ratio (x) = 0.23656 0.23011
# Poissons Ratio (y) = 0.53816 0.38248
# Poissons Ratio (z) = 0.23095 0.16874
#
# Static dielectric constant tensor:
#      x y z
#    x 3.779920 0.000000 -0.076210 
#    y 0.000000 3.503130 0.000000 
#    z -0.076210 0.000000 3.700360 
# 
# 
# High freq. dielectric constant tensor:
#      x y z
#    x 1.784740 0.000000 -0.004090 
#    y 0.000000 1.770490 0.000000 
#    z -0.004090 0.000000 1.778400 
# 
# From -- ./inp_files/180716.got.cif
#   From: 2010.06.25/outbox.cif.g09.slc.cpg/sg12_91_cif.got.tgz:180716.got - 2010.06.28 00:19:55.
