data_PCOD8099117
_publ_section_title
;
Structure prediction by ZEFSAII (Michael W. Deem and Ramdas Pophale) SiO2 
 PCOD8099117
Probable space group: C 2/M
;
_chemical_formula_sum "Si O2"
_cell_formula_units_Z 64
_cell_length_a 31.604578
_cell_length_b 9.022900
_cell_length_c 25.393280
_cell_angle_alpha 90.000000
_cell_angle_beta 150.908733
_cell_angle_gamma 90.000000
_cell_volume 3520.722991
_symmetry_space_group_name_H-M "C 2/M"
_symmetry_group_IT_number 12
_symmetry_cell_setting 'monoclinic'
loop_
_space_group_symop_operation_xyz
x,y,z
-x,y,-z
-x,-y,-z
x,-y,z
1/2+x,1/2+y,z
1/2-x,1/2+y,-z
1/2-x,1/2-y,-z
1/2+x,1/2-y,z
loop_
_atom_site_type_symbol
_atom_site_label
_atom_site_fract_x
_atom_site_fract_y
_atom_site_fract_z
Si Si1 0.922781 0.828452 0.453625
Si Si2 0.016326 0.328782 0.271320
Si Si3 0.181443 0.326885 0.962925
Si Si4 0.270395 0.831664 0.785199
Si Si5 0.701548 0.827127 0.304674
Si Si6 0.379482 0.826434 0.511380
Si Si7 0.145407 0.171391 0.028343
Si Si8 0.053804 0.171915 0.208526
O O1 0.832821 0.803246 0.324938
O O2 0.926907 0.732950 0.510962
O O3 0.000000 0.774121 0.500000
O O4 0.933103 0.000000 0.480968
O O5 0.030679 0.500000 0.272046
O O6 0.057605 0.287924 0.371949
O O7 0.063844 0.230922 0.278819
O O8 0.914292 0.290550 0.163337
O O9 0.201161 0.500000 0.985889
O O10 0.250000 0.250000 0.000000
O O11 0.192255 0.264072 0.033510
O O12 0.305617 0.797888 0.765278
O O13 0.316989 0.718897 0.874747
O O14 0.292281 0.000000 0.825538
O O15 0.787369 0.751200 0.421558
O O16 0.616652 0.760011 0.238493
O O17 0.708060 0.000000 0.324488
O O18 0.363131 0.000000 0.487587
O O19 0.165815 0.000000 0.040542
O O20 0.042849 0.202594 0.917540
O O21 0.078621 0.000000 0.234682
#
# Coordination Sequence:
#
# PCOD8099117 Si02
#       8
#     8   8   8   8   8   8   8   8
#     4   9  19  36  55  77 107 141 177 215 258 311
#     4   9  20  37  55  77 106 139 174 214 260 310
#     4  10  20  36  56  78 107 140 176 217 260 309
#     4   9  19  35  54  77 104 138 177 214 258 310
#     4  10  21  37  56  78 106 139 174 213 260 313
#     4  10  20  35  55  79 106 136 174 218 262 308
#     4  10  21  36  54  78 107 138 174 217 263 309
#     4  10  21  36  55  79 105 136 175 216 259 308
#
# _framework density 18.178084999999999
#
# number of rings (size 3 to 8) (size 9 to 14) (size 15 to 20)
#    0.000    2.375    0.000    2.625    0.000    7.750 
#    0.000    5.000    0.000    0.000    0.000    0.000 
#    0.000    0.000    0.000    0.000    0.000    0.000 
#
# Total GULP energy -396936.824559 kJ/mol
# GULP energy per Si atom -12404.275767 kJ/mol
# Density = 1.813671 g / cm^3
# Si number density = 18.178085 Si / 1000 Ang^3
#
#
#
# Elastic Constant Matrix: (Units=GPa)
#
#
# Indices 1 2 3 4 5 6 
#
# 1 135.1485 74.6965 66.3076 0.0000 13.6264 0.0000
# 2 74.6965 107.9449 58.1859 0.0000 -0.2824 0.0000
# 3 66.3076 58.1859 93.1061 0.0000 -11.8951 0.0000
# 4 0.0000 0.0000 0.0000 31.0038 0.0000 -0.7225
# 5 13.6264 -0.2824 -11.8951 0.0000 26.9313 0.0000
# 6 0.0000 0.0000 0.0000 -0.7225 0.0000 39.5720
#
#
#
# Elastic Compliance Matrix: (Units=1/GPa)
#
#
# Indices 1 2 3 4 5 6 
#
# 1 0.017182 -0.006678 -0.009732 0.000000 -0.013062 0.000000
# 2 -0.006678 0.016970 -0.005717 0.000000 0.001032 0.000000
# 3 -0.009732 -0.005717 0.023173 0.000000 0.015099 0.000000
# 4 0.000000 0.000000 0.000000 0.032268 0.000000 0.000589
# 5 -0.013062 0.001032 0.015099 0.000000 0.050420 0.000000
# 6 0.000000 0.000000 0.000000 0.000589 0.000000 0.025281
#
#
# Mechanical properties :
#
#
# Convention : Reuss Voigt Hill
#
# Bulk Modulus (GPa) = 76.50912 81.61995 79.06454
# Shear Modulus (GPa) = 23.37481 28.63539 26.00510
#
# Velocity S-wave (km/s) = 3.58981 3.97327 3.78640
# Velocity P-wave (km/s) = 7.70469 8.12692 7.91862
#
# Compressibility (1/GPa) = 0.01307034
#
# Stress axis : x y z
#
# Youngs Moduli (GPa) = 58.20075 58.92883 43.15312
#
# Poissons Ratio (x) = 0.39353 0.41996
# Poissons Ratio (y) = 0.38867 0.24672
# Poissons Ratio (z) = 0.56640 0.33692
#
# Static dielectric constant tensor:
#      x y z
#    x 3.374900 0.000000 0.037740 
#    y 0.000000 3.436330 0.000000 
#    z 0.037740 0.000000 3.316230 
# 
# 
# High freq. dielectric constant tensor:
#      x y z
#    x 1.708420 0.000000 0.001060 
#    y 0.000000 1.714960 0.000000 
#    z 0.001060 0.000000 1.701920 
# 
# From -- ./inp_files/244203.got.cif
#   From: 2010.06.25/outbox.cif.g09.slc.cpg/sg12_123_cif.got.tgz:244203.got - 2010.06.28 00:19:55.
