data_PCOD8099541
_publ_section_title
;
Structure prediction by ZEFSAII (Michael W. Deem and Ramdas Pophale) SiO2 
 PCOD8099541
Probable space group: C 2/M
;
_chemical_formula_sum "Si O2"
_cell_formula_units_Z 48
_cell_length_a 20.939815
_cell_length_b 27.426326
_cell_length_c 9.015854
_cell_angle_alpha 90.000000
_cell_angle_beta 28.899700
_cell_angle_gamma 90.000000
_cell_volume 2502.327736
_symmetry_space_group_name_H-M "C 2/M"
_symmetry_group_IT_number 12
_symmetry_cell_setting 'monoclinic'
loop_
_space_group_symop_operation_xyz
x,y,z
-x,y,-z
-x,-y,-z
x,-y,z
1/2+x,1/2+y,z
1/2-x,1/2+y,-z
1/2-x,1/2-y,-z
1/2+x,1/2-y,z
loop_
_atom_site_type_symbol
_atom_site_label
_atom_site_fract_x
_atom_site_fract_y
_atom_site_fract_z
Si Si1 0.708874 0.057116 0.213965
Si Si2 0.748489 0.773932 0.842953
Si Si3 0.519393 0.780366 0.789584
Si Si4 0.006828 0.053554 0.309599
Si Si5 0.238810 0.113526 0.189862
Si Si6 0.002828 0.392130 0.161842
O O1 0.582728 0.071203 0.566370
O O2 0.703615 0.000000 0.184215
O O3 0.842658 0.069023 0.036115
O O4 0.706658 0.087281 0.067044
O O5 0.856835 0.749809 0.518563
O O6 0.784350 0.830042 0.796042
O O7 0.750000 0.750000 0.000000
O O8 0.607370 0.766868 0.051490
O O9 0.553666 0.837537 0.705570
O O10 0.500000 0.765814 0.000000
O O11 0.000000 0.051940 0.500000
O O12 0.899337 0.091641 0.467780
O O13 0.974270 0.000000 0.310129
O O14 0.344734 0.105935 0.102834
O O15 0.000000 0.410600 0.000000
#
# Coordination Sequence:
#
# PCOD8099541 Si02
#       6
#     8   8   8   8   8   8
#     4  10  20  35  57  82 108 142 181 222 273 328
#     4  11  22  35  56  86 112 140 186 237 278 323
#     4  10  22  40  57  77 112 153 186 223 279 339
#     4   8  16  32  53  77 103 132 171 217 263 315
#     4  10  20  35  56  82 107 139 180 222 275 326
#     4  10  22  38  54  77 111 146 182 224 266 318
#
# _framework density 19.18214
#
# number of rings (size 3 to 8) (size 9 to 14) (size 15 to 20)
#    0.000    2.167    0.000    4.000    0.000   10.333 
#    0.000    0.833    0.000    2.000    0.000    0.000 
#    0.000    0.000    0.000    0.000    0.000    0.000 
#
# Total GULP energy -297612.201692 kJ/mol
# GULP energy per Si atom -12400.508404 kJ/mol
# Density = 1.913848 g / cm^3
# Si number density = 19.182140 Si / 1000 Ang^3
#
#
#
# Elastic Constant Matrix: (Units=GPa)
#
#
# Indices 1 2 3 4 5 6 
#
# 1 82.0085 25.4762 6.7471 -0.0001 2.5721 0.0000
# 2 25.4762 77.8882 15.0059 0.0000 -5.5306 0.0000
# 3 6.7471 15.0059 41.3745 -0.0003 -1.9263 0.0001
# 4 -0.0001 0.0000 -0.0003 36.6963 0.0001 -5.4737
# 5 2.5721 -5.5306 -1.9263 0.0001 29.4235 -0.0001
# 6 0.0000 0.0000 0.0001 -5.4737 -0.0001 22.8043
#
#
#
# Elastic Compliance Matrix: (Units=1/GPa)
#
#
# Indices 1 2 3 4 5 6 
#
# 1 0.013715 -0.004499 -0.000702 0.000000 -0.002091 0.000000
# 2 -0.004499 0.015433 -0.004725 0.000000 0.002985 0.000000
# 3 -0.000702 -0.004725 0.026038 0.000000 0.000878 0.000000
# 4 0.000000 0.000000 0.000000 0.028263 0.000000 0.006784
# 5 -0.002091 0.002985 0.000878 0.000000 0.034788 0.000000
# 6 0.000000 0.000000 0.000000 0.006784 0.000000 0.045480
#
#
# Mechanical properties :
#
#
# Convention : Reuss Voigt Hill
#
# Bulk Modulus (GPa) = 28.30108 32.85885 30.57996
# Shear Modulus (GPa) = 25.59567 28.05429 26.82498
#
# Velocity S-wave (km/s) = 3.65684 3.82844 3.74362
# Velocity P-wave (km/s) = 5.71103 6.05885 5.88751
#
# Compressibility (1/GPa) = 0.03533434
#
# Stress axis : x y z
#
# Youngs Moduli (GPa) = 72.91368 64.79753 38.40489
#
# Poissons Ratio (x) = 0.29153 0.02696
# Poissons Ratio (y) = 0.32805 0.18145
# Poissons Ratio (z) = 0.05119 0.30614
#
# Static dielectric constant tensor:
#      x y z
#    x 3.501880 0.000000 -0.280320 
#    y 0.000000 3.627590 0.000000 
#    z -0.280320 0.000000 3.548950 
# 
# 
# High freq. dielectric constant tensor:
#      x y z
#    x 1.739380 0.000000 -0.018390 
#    y 0.000000 1.752260 0.000000 
#    z -0.018390 0.000000 1.747520 
# 
# From -- ./inp_files/91171.got.cif
#   From: 2010.06.25/outbox.cif.g09.slc.cpg/sg12_46_cif.got.tgz:91171.got - 2010.06.28 00:19:55.
