data_PCOD8099095
_publ_section_title
;
Structure prediction by ZEFSAII (Michael W. Deem and Ramdas Pophale) SiO2 
 PCOD8099095
Probable space group: C 2/M
;
_chemical_formula_sum "Si O2"
_cell_formula_units_Z 64
_cell_length_a 18.291962
_cell_length_b 8.956737
_cell_length_c 20.616821
_cell_angle_alpha 90.000000
_cell_angle_beta 90.401221
_cell_angle_gamma 90.000000
_cell_volume 3377.700705
_symmetry_space_group_name_H-M "C 2/M"
_symmetry_group_IT_number 12
_symmetry_cell_setting 'monoclinic'
loop_
_space_group_symop_operation_xyz
x,y,z
-x,y,-z
-x,-y,-z
x,-y,z
1/2+x,1/2+y,z
1/2-x,1/2+y,-z
1/2-x,1/2-y,-z
1/2+x,1/2-y,z
loop_
_atom_site_type_symbol
_atom_site_label
_atom_site_fract_x
_atom_site_fract_y
_atom_site_fract_z
Si Si1 0.074362 0.672450 0.188540
Si Si2 0.835026 0.824625 0.063765
Si Si3 0.168906 0.324486 0.066862
Si Si4 0.920913 0.176109 0.190986
Si Si5 0.580644 0.177275 0.572960
Si Si6 0.822801 0.327114 0.688508
Si Si7 0.582847 0.177362 0.429256
Si Si8 0.330510 0.822782 0.304309
O O1 0.050345 0.500000 0.180808
O O2 0.121985 0.727750 0.127964
O O3 0.120719 0.695032 0.253336
O O4 0.004871 0.778102 0.192701
O O5 0.752357 0.771734 0.078637
O O6 0.886394 0.772247 0.122619
O O7 0.838787 0.000000 0.053563
O O8 0.864108 0.749207 0.998086
O O9 0.165016 0.500000 0.058039
O O10 0.878843 0.259478 0.247214
O O11 0.912536 0.000000 0.201132
O O12 0.606958 0.230333 0.501542
O O13 0.498769 0.238349 0.586454
O O14 0.636233 0.238027 0.627493
O O15 0.578259 0.000000 0.574464
O O16 0.800387 0.500000 0.681164
O O17 0.859885 0.261751 0.623272
O O18 0.751703 0.231978 0.703455
O O19 0.581175 0.000000 0.424491
O O20 0.332817 0.000000 0.301102
#
# Coordination Sequence:
#
# PCOD8099095 Si02
#       8
#     8   8   8   8   8   8   8   8
#     4  10  21  37  56  79 108 140 177 220 264 312
#     4   9  19  36  56  78 105 137 173 214 259 308
#     4   9  18  34  56  79 105 138 173 211 257 310
#     4  11  23  38  56  78 106 139 177 221 267 316
#     4   8  15  29  50  77 105 135 175 219 260 307
#     4  10  20  35  55  78 107 143 179 217 263 313
#     4   8  14  28  52  77 102 137 178 215 257 311
#     4  11  22  35  53  78 108 140 177 222 267 313
#
# _framework density 18.947801999999999
#
# number of rings (size 3 to 8) (size 9 to 14) (size 15 to 20)
#    0.000    2.500    0.000    3.000    0.000    7.000 
#    0.000    5.000    0.000    0.750    0.000    5.250 
#    0.000    0.000    0.000    0.000    0.000    0.000 
#
# Total GULP energy -396796.452103 kJ/mol
# GULP energy per Si atom -12399.889128 kJ/mol
# Density = 1.890468 g / cm^3
# Si number density = 18.947802 Si / 1000 Ang^3
#
#
#
# Elastic Constant Matrix: (Units=GPa)
#
#
# Indices 1 2 3 4 5 6 
#
# 1 85.1268 30.6869 43.7861 0.0000 -8.0046 0.0000
# 2 30.6869 40.4842 36.4187 0.0000 0.3057 0.0000
# 3 43.7861 36.4187 119.7909 0.0000 -12.5381 0.0000
# 4 0.0000 0.0000 0.0000 50.4569 0.0000 1.5925
# 5 -8.0046 0.3057 -12.5381 0.0000 38.1327 0.0000
# 6 0.0000 0.0000 0.0000 1.5925 0.0000 27.0726
#
#
#
# Elastic Compliance Matrix: (Units=1/GPa)
#
#
# Indices 1 2 3 4 5 6 
#
# 1 0.017267 -0.010591 -0.002800 0.000000 0.002789 0.000000
# 2 -0.010591 0.041036 -0.009188 0.000000 -0.005573 0.000000
# 3 -0.002800 -0.009188 0.012542 0.000000 0.003610 0.000000
# 4 0.000000 0.000000 0.000000 0.019856 0.000000 -0.001168
# 5 0.002789 -0.005573 0.003610 0.000000 0.028041 0.000000
# 6 0.000000 0.000000 0.000000 -0.001168 0.000000 0.037006
#
#
# Mechanical properties :
#
#
# Convention : Reuss Voigt Hill
#
# Bulk Modulus (GPa) = 38.92777 51.90949 45.41863
# Shear Modulus (GPa) = 23.86976 32.09979 27.98477
#
# Velocity S-wave (km/s) = 3.55317 4.12043 3.84727
# Velocity P-wave (km/s) = 6.11741 7.07763 6.61496
#
# Compressibility (1/GPa) = 0.02568860
#
# Stress axis : x y z
#
# Youngs Moduli (GPa) = 57.91231 24.36867 79.72959
#
# Poissons Ratio (x) = 0.25809 0.22323
# Poissons Ratio (y) = 0.61335 0.73255
# Poissons Ratio (z) = 0.16214 0.22390
#
# Static dielectric constant tensor:
#      x y z
#    x 3.552610 0.000000 -0.018290 
#    y 0.000000 3.159710 0.000000 
#    z -0.018290 0.000000 3.842820 
# 
# 
# High freq. dielectric constant tensor:
#      x y z
#    x 1.736360 0.000000 -0.001310 
#    y 0.000000 1.704760 0.000000 
#    z -0.001310 0.000000 1.755760 
# 
# From -- ./inp_files/314178.got.cif
#   From: 2010.06.25/outbox.cif.g09.slc.cpg/sg12_158_cif.got.tgz:314178.got - 2010.06.28 00:19:55.
