data_PCOD8099096
_publ_section_title
;
Structure prediction by ZEFSAII (Michael W. Deem and Ramdas Pophale) SiO2 
 PCOD8099096
Probable space group: C 2/M
;
_chemical_formula_sum "Si O2"
_cell_formula_units_Z 60
_cell_length_a 11.394659
_cell_length_b 12.671598
_cell_length_c 19.447530
_cell_angle_alpha 90.000000
_cell_angle_beta 100.273841
_cell_angle_gamma 90.000000
_cell_volume 2762.978548
_symmetry_space_group_name_H-M "C 2/M"
_symmetry_group_IT_number 12
_symmetry_cell_setting 'monoclinic'
loop_
_space_group_symop_operation_xyz
x,y,z
-x,y,-z
-x,-y,-z
x,-y,z
1/2+x,1/2+y,z
1/2-x,1/2+y,-z
1/2-x,1/2-y,-z
1/2+x,1/2-y,z
loop_
_atom_site_type_symbol
_atom_site_label
_atom_site_fract_x
_atom_site_fract_y
_atom_site_fract_z
Si Si1 0.653572 0.117852 0.093700
Si Si2 0.500000 0.275808 0.000000
Si Si3 0.043380 0.311030 0.215401
Si Si4 0.869055 0.327421 0.565477
Si Si5 0.758647 0.115798 0.577472
Si Si6 0.427347 0.378180 0.131780
Si Si7 0.267930 0.379865 0.321878
Si Si8 0.903131 0.683021 0.327835
O O1 0.561381 0.120543 0.148466
O O2 0.787651 0.145900 0.132152
O O3 0.650554 0.000000 0.061723
O O4 0.611248 0.201355 0.032517
O O5 0.544158 0.351131 0.944077
O O6 0.165403 0.315373 0.270716
O O7 0.009778 0.191360 0.190703
O O8 0.937862 0.356340 0.254301
O O9 0.858417 0.200030 0.566947
O O10 0.853904 0.369316 0.486453
O O11 0.765477 0.381009 0.601103
O O12 0.996456 0.356602 0.608911
O O13 0.716072 0.132008 0.652437
O O14 0.814885 0.000000 0.576592
O O15 0.457803 0.500000 0.149008
O O16 0.285063 0.500000 0.296160
O O17 0.388211 0.311265 0.323774
#
# Coordination Sequence:
#
# PCOD8099096 Si02
#       8
#     8   4   8   8   8   8   8   8
#     4  10  20  35  57  84 114 150 184 217 265 320
#     4  10  20  36  60  90 120 140 176 230 266 306
#     4  10  21  35  53  79 110 142 185 230 263 314
#     4   9  20  36  53  79 110 137 178 231 277 331
#     4  10  20  35  55  78 107 143 180 224 280 332
#     4  10  21  38  61  84 111 149 184 217 266 320
#     4  10  20  36  57  78 104 142 183 226 280 334
#     4  10  21  35  53  79 107 139 183 230 273 323
#
# _framework density 21.715695
#
# number of rings (size 3 to 8) (size 9 to 14) (size 15 to 20)
#    0.000    2.133    0.000    2.800    0.000    5.867 
#    0.000    5.333    0.000   30.400    0.000    0.000 
#    0.000    0.000    0.000    0.000    0.000    0.000 
#
# Total GULP energy -371788.625980 kJ/mol
# GULP energy per Si atom -12392.954199 kJ/mol
# Density = 2.166627 g / cm^3
# Si number density = 21.715695 Si / 1000 Ang^3
#
#
#
# Elastic Constant Matrix: (Units=GPa)
#
#
# Indices 1 2 3 4 5 6 
#
# 1 39.4680 11.6439 8.6818 0.0000 -10.0652 0.0000
# 2 11.6439 107.5203 9.9686 0.0000 2.0286 0.0000
# 3 8.6818 9.9686 86.8037 0.0000 -16.7376 0.0000
# 4 0.0000 0.0000 0.0000 19.7671 0.0000 4.8043
# 5 -10.0652 2.0286 -16.7376 0.0000 32.7946 0.0000
# 6 0.0000 0.0000 0.0000 4.8043 0.0000 19.4889
#
#
#
# Elastic Compliance Matrix: (Units=1/GPa)
#
#
# Indices 1 2 3 4 5 6 
#
# 1 0.028645 -0.003185 -0.000850 0.000000 0.008555 0.000000
# 2 -0.003185 0.009802 -0.001234 0.000000 -0.002214 0.000000
# 3 -0.000850 -0.001234 0.012990 0.000000 0.006445 0.000000
# 4 0.000000 0.000000 0.000000 0.053813 0.000000 -0.013266
# 5 0.008555 -0.002214 0.006445 0.000000 0.036545 0.000000
# 6 0.000000 0.000000 0.000000 -0.013266 0.000000 0.054581
#
#
# Mechanical properties :
#
#
# Convention : Reuss Voigt Hill
#
# Bulk Modulus (GPa) = 24.44994 32.70896 28.57945
# Shear Modulus (GPa) = 22.67099 27.97662 25.32381
#
# Velocity S-wave (km/s) = 3.23459 3.59320 3.41860
# Velocity P-wave (km/s) = 5.02331 5.68418 5.36393
#
# Compressibility (1/GPa) = 0.04089990
#
# Stress axis : x y z
#
# Youngs Moduli (GPa) = 34.90985 102.02389 76.98407
#
# Poissons Ratio (x) = 0.32492 0.06541
# Poissons Ratio (y) = 0.11118 0.09499
# Poissons Ratio (z) = 0.02966 0.12589
#
# Static dielectric constant tensor:
#      x y z
#    x 3.722500 0.000000 -0.165840 
#    y 0.000000 3.814060 0.000000 
#    z -0.165840 0.000000 4.061200 
# 
# 
# High freq. dielectric constant tensor:
#      x y z
#    x 1.829710 0.000000 -0.014960 
#    y 0.000000 1.844740 0.000000 
#    z -0.014960 0.000000 1.858550 
# 
# From -- ./inp_files/304746.got.cif
#   From: 2010.06.25/outbox.cif.g09.slc.cpg/sg12_153_cif.got.tgz:304746.got - 2010.06.28 00:19:55.
