data_PCOD8099735
_publ_section_title
;
Structure prediction by ZEFSAII (Michael W. Deem and Ramdas Pophale) SiO2 
 PCOD8099735
Probable space group: C 2/M
;
_chemical_formula_sum "Si O2"
_cell_formula_units_Z 56
_cell_length_a 20.576309
_cell_length_b 8.718873
_cell_length_c 28.036531
_cell_angle_alpha 90.000000
_cell_angle_beta 145.463489
_cell_angle_gamma 90.000000
_cell_volume 2851.560076
_symmetry_space_group_name_H-M "C 2/M"
_symmetry_group_IT_number 12
_symmetry_cell_setting 'monoclinic'
loop_
_space_group_symop_operation_xyz
x,y,z
-x,y,-z
-x,-y,-z
x,-y,z
1/2+x,1/2+y,z
1/2-x,1/2+y,-z
1/2-x,1/2-y,-z
1/2+x,1/2-y,z
loop_
_atom_site_type_symbol
_atom_site_label
_atom_site_fract_x
_atom_site_fract_y
_atom_site_fract_z
Si Si1 0.958981 0.818507 0.241103
Si Si2 0.315313 0.322466 0.676895
Si Si3 0.751055 0.681007 0.948411
Si Si4 0.680411 0.820176 0.219153
Si Si5 0.077334 0.818705 0.675266
Si Si6 0.526673 0.321057 0.961936
Si Si7 0.563597 0.176989 0.491706
O O1 0.858801 0.753754 0.146510
O O2 0.944797 0.749164 0.285547
O O3 0.081578 0.768460 0.294669
O O4 0.948415 0.000000 0.237492
O O5 0.328719 0.500000 0.700841
O O6 0.315539 0.213516 0.722547
O O7 0.199101 0.297390 0.577337
O O8 0.744928 0.500000 0.949624
O O9 0.750000 0.750000 0.000000
O O10 0.863783 0.725579 0.987789
O O11 0.798822 0.762019 0.267656
O O12 0.579851 0.722765 0.135136
O O13 0.659535 0.000000 0.197788
O O14 0.977567 0.762930 0.580175
O O15 0.073271 0.000000 0.673735
O O16 0.553083 0.500000 0.971768
O O17 0.500000 0.276351 0.000000
O O18 0.500000 0.245038 0.500000
O O19 0.529907 0.000000 0.466007
#
# Coordination Sequence:
#
# PCOD8099735 Si02
#       7
#     8   8   8   8   8   8   8
#     4   9  20  38  58  82 112 151 190 233 289 342
#     4  10  20  37  60  82 113 152 191 233 281 345
#     4  11  22  39  63  88 120 157 200 248 299 356
#     4  11  22  36  58  86 113 146 191 242 293 344
#     4  10  21  37  58  83 114 149 190 237 288 343
#     4  11  24  40  59  85 117 154 197 244 298 359
#     4  10  20  35  56  85 117 150 189 231 285 344
#
# _framework density 19.638372
#
# number of rings (size 3 to 8) (size 9 to 14) (size 15 to 20)
#    0.000    1.714    1.429    3.000    0.000    5.429 
#    0.000    2.857    0.000    0.000    0.000    0.000 
#    0.000    0.000    0.000    0.000    0.000    0.000 
#
# Total GULP energy -347333.347056 kJ/mol
# GULP energy per Si atom -12404.762395 kJ/mol
# Density = 1.959367 g / cm^3
# Si number density = 19.638372 Si / 1000 Ang^3
#
#
#
# Elastic Constant Matrix: (Units=GPa)
#
#
# Indices 1 2 3 4 5 6 
#
# 1 169.2890 27.9978 81.5006 0.0000 -1.4634 0.0002
# 2 27.9978 33.6809 24.6615 0.0000 -2.5701 0.0009
# 3 81.5006 24.6615 146.5690 0.0001 6.1988 0.0000
# 4 0.0000 0.0000 0.0001 30.5262 0.0000 -4.0891
# 5 -1.4634 -2.5701 6.1988 0.0000 33.8759 0.0000
# 6 0.0002 0.0009 0.0000 -4.0891 0.0000 27.0579
#
#
#
# Elastic Compliance Matrix: (Units=1/GPa)
#
#
# Indices 1 2 3 4 5 6 
#
# 1 0.008565 -0.004043 -0.004117 0.000000 0.000817 0.000000
# 2 -0.004043 0.036222 -0.003986 0.000000 0.003303 -0.000001
# 3 -0.004117 -0.003986 0.009879 0.000000 -0.002288 0.000000
# 4 0.000000 0.000000 0.000000 0.033436 0.000000 0.005053
# 5 0.000817 0.003303 -0.002288 0.000000 0.030224 0.000000
# 6 0.000000 -0.000001 0.000000 0.005053 0.000000 0.037721
#
#
# Mechanical properties :
#
#
# Convention : Reuss Voigt Hill
#
# Bulk Modulus (GPa) = 32.92270 68.65098 50.78684
# Shear Modulus (GPa) = 26.25176 32.65060 29.45118
#
# Velocity S-wave (km/s) = 3.66014 4.08191 3.87676
# Velocity P-wave (km/s) = 5.88753 7.56634 6.77910
#
# Compressibility (1/GPa) = 0.03037418
#
# Stress axis : x y z
#
# Youngs Moduli (GPa) = 116.75893 27.60758 101.22140
#
# Poissons Ratio (x) = 0.11161 0.41670
# Poissons Ratio (y) = 0.47205 0.40349
# Poissons Ratio (z) = 0.48066 0.11005
#
# Static dielectric constant tensor:
#      x y z
#    x 3.799680 0.000000 0.019420 
#    y 0.000000 3.372160 0.000000 
#    z 0.019420 0.000000 3.735590 
# 
# 
# High freq. dielectric constant tensor:
#      x y z
#    x 1.776950 0.000000 0.001460 
#    y 0.000000 1.747550 0.000000 
#    z 0.001460 0.000000 1.780620 
# 
# From -- ./inp_files/230939.got.cif
#   From: 2010.06.25/outbox.cif.g09.slc.cpg/sg12_116_cif.got.tgz:230939.got - 2010.06.28 00:19:55.
