data_PCOD8099409
_publ_section_title
;
Structure prediction by ZEFSAII (Michael W. Deem and Ramdas Pophale) SiO2 
 PCOD8099409
Probable space group: C 2/M
;
_chemical_formula_sum "Si O2"
_cell_formula_units_Z 64
_cell_length_a 20.429347
_cell_length_b 8.955870
_cell_length_c 22.595376
_cell_angle_alpha 90.000000
_cell_angle_beta 123.238365
_cell_angle_gamma 90.000000
_cell_volume 3457.757678
_symmetry_space_group_name_H-M "C 2/M"
_symmetry_group_IT_number 12
_symmetry_cell_setting 'monoclinic'
loop_
_space_group_symop_operation_xyz
x,y,z
-x,y,-z
-x,-y,-z
x,-y,z
1/2+x,1/2+y,z
1/2-x,1/2+y,-z
1/2-x,1/2-y,-z
1/2+x,1/2-y,z
loop_
_atom_site_type_symbol
_atom_site_label
_atom_site_fract_x
_atom_site_fract_y
_atom_site_fract_z
Si Si1 0.437872 0.829685 0.594602
Si Si2 0.050355 0.323332 0.941010
Si Si3 0.716906 0.676118 0.817534
Si Si4 0.685671 0.822550 0.926062
Si Si5 0.594038 0.325368 0.657154
Si Si6 0.609744 0.822984 0.095412
Si Si7 0.153642 0.325984 0.571078
Si Si8 0.717710 0.172777 0.426223
O O1 0.510127 0.720279 0.642140
O O2 0.396733 0.789789 0.512109
O O3 0.376617 0.807689 0.618832
O O4 0.467969 0.000000 0.607882
O O5 0.049401 0.500000 0.944995
O O6 0.099824 0.274089 0.908227
O O7 0.959662 0.265228 0.894792
O O8 0.092923 0.260971 0.021110
O O9 0.714209 0.500000 0.829509
O O10 0.689718 0.762129 0.862128
O O11 0.660407 0.721943 0.736345
O O12 0.804125 0.730744 0.841969
O O13 0.697007 0.000000 0.932534
O O14 0.750000 0.750000 0.000000
O O15 0.595878 0.500000 0.644986
O O16 0.606502 0.237941 0.602734
O O17 0.608773 0.000000 0.094070
O O18 0.167195 0.500000 0.586486
O O19 0.239853 0.248948 0.609090
O O20 0.750000 0.250000 0.500000
O O21 0.740836 0.000000 0.438873
#
# Coordination Sequence:
#
# PCOD8099409 Si02
#       8
#     8   8   8   8   8   8   8   8
#     4   9  19  35  55  79 107 140 178 223 269 317
#     4   8  14  25  49  79  97 122 166 208 246 293
#     4  10  21  37  53  73 105 139 172 216 267 314
#     4  11  20  32  53  80 105 132 169 211 258 313
#     4  11  23  35  51  76 107 145 183 222 273 327
#     4   8  13  27  50  73  98 126 163 209 248 294
#     4  10  20  35  56  80 107 140 180 227 274 320
#     4   9  17  31  53  81 109 136 172 219 270 319
#
# _framework density 18.509105000000002
#
# number of rings (size 3 to 8) (size 9 to 14) (size 15 to 20)
#    0.000    2.500    1.250    3.375    0.000    5.500 
#    0.000    1.250    0.000    5.250    0.000    0.000 
#    0.000    0.000    0.000    0.000    0.000    0.000 
#
# Total GULP energy -396594.048485 kJ/mol
# GULP energy per Si atom -12393.564015 kJ/mol
# Density = 1.846698 g / cm^3
# Si number density = 18.509105 Si / 1000 Ang^3
#
#
#
# Elastic Constant Matrix: (Units=GPa)
#
#
# Indices 1 2 3 4 5 6 
#
# 1 149.3245 41.0047 40.5888 0.0000 21.5197 0.0000
# 2 41.0047 65.7107 28.1199 0.0000 8.8759 0.0000
# 3 40.5888 28.1199 55.4436 0.0000 19.2263 0.0000
# 4 0.0000 0.0000 0.0000 21.9317 0.0000 -2.2531
# 5 21.5197 8.8759 19.2263 0.0000 20.2800 0.0000
# 6 0.0000 0.0000 0.0000 -2.2531 0.0000 32.8909
#
#
#
# Elastic Compliance Matrix: (Units=1/GPa)
#
#
# Indices 1 2 3 4 5 6 
#
# 1 0.009342 -0.003799 -0.003056 0.000000 -0.005353 0.000000
# 2 -0.003799 0.021003 -0.009060 0.000000 0.003428 0.000000
# 3 -0.003056 -0.009060 0.033325 0.000000 -0.024385 0.000000
# 4 0.000000 0.000000 0.000000 0.045919 0.000000 0.003146
# 5 -0.005353 0.003428 -0.024385 0.000000 0.076608 0.000000
# 6 0.000000 0.000000 0.000000 0.003146 0.000000 0.030619
#
#
# Mechanical properties :
#
#
# Convention : Reuss Voigt Hill
#
# Bulk Modulus (GPa) = 31.40689 54.43395 42.92042
# Shear Modulus (GPa) = 19.28569 25.73820 22.51194
#
# Velocity S-wave (km/s) = 3.23144 3.73308 3.49128
# Velocity P-wave (km/s) = 5.56130 6.93212 6.28420
#
# Compressibility (1/GPa) = 0.03184015
#
# Stress axis : x y z
#
# Youngs Moduli (GPa) = 107.04170 47.61283 30.00764
#
# Poissons Ratio (x) = 0.18087 0.09171
# Poissons Ratio (y) = 0.40663 0.27187
# Poissons Ratio (z) = 0.32713 0.43137
#
# Static dielectric constant tensor:
#      x y z
#    x 4.154870 0.000000 0.090540 
#    y 0.000000 3.330630 0.000000 
#    z 0.090540 0.000000 3.147680 
# 
# 
# High freq. dielectric constant tensor:
#      x y z
#    x 1.744820 0.000000 0.005080 
#    y 0.000000 1.699560 0.000000 
#    z 0.005080 0.000000 1.677340 
# 
# From -- ./inp_files/320113.got.cif
#   From: 2010.06.25/outbox.cif.g09.slc.cpg/sg12_161_cif.got.tgz:320113.got - 2010.06.28 00:19:55.
