data_PCOD8099051
_publ_section_title
;
Structure prediction by ZEFSAII (Michael W. Deem and Ramdas Pophale) SiO2 
 PCOD8099051
Probable space group: C 2/M
;
_chemical_formula_sum "Si O2"
_cell_formula_units_Z 64
_cell_length_a 30.418576
_cell_length_b 8.945618
_cell_length_c 24.486218
_cell_angle_alpha 90.000000
_cell_angle_beta 31.655682
_cell_angle_gamma 90.000000
_cell_volume 3496.840727
_symmetry_space_group_name_H-M "C 2/M"
_symmetry_group_IT_number 12
_symmetry_cell_setting 'monoclinic'
loop_
_space_group_symop_operation_xyz
x,y,z
-x,y,-z
-x,-y,-z
x,-y,z
1/2+x,1/2+y,z
1/2-x,1/2+y,-z
1/2-x,1/2-y,-z
1/2+x,1/2-y,z
loop_
_atom_site_type_symbol
_atom_site_label
_atom_site_fract_x
_atom_site_fract_y
_atom_site_fract_z
Si Si1 0.498868 0.826895 0.767285
Si Si2 0.252287 0.325640 0.735219
Si Si3 0.167612 0.826374 0.564668
Si Si4 0.546612 0.172480 0.308696
Si Si5 0.620936 0.326428 0.491101
Si Si6 0.208984 0.824729 0.182843
Si Si7 0.122965 0.175661 0.018547
Si Si8 0.914109 0.174988 0.065818
O O1 0.587939 0.746183 0.678518
O O2 0.460003 0.803113 0.748831
O O3 0.435898 0.755018 0.876234
O O4 0.511959 0.000000 0.767145
O O5 0.236697 0.500000 0.745171
O O6 0.315888 0.267575 0.621937
O O7 0.290729 0.284792 0.753373
O O8 0.163133 0.247717 0.820433
O O9 0.250000 0.750000 0.500000
O O10 0.164282 0.799325 0.503449
O O11 0.168999 0.000000 0.578174
O O12 0.462679 0.229400 0.426783
O O13 0.622213 0.272049 0.249765
O O14 0.561187 0.000000 0.308558
O O15 0.597571 0.500000 0.507470
O O16 0.220758 0.000000 0.160262
O O17 0.283434 0.738440 0.073349
O O18 0.124029 0.000000 0.028648
O O19 0.088389 0.216052 0.995290
O O20 0.907475 0.000000 0.082700
O O21 0.000000 0.239520 0.000000
#
# Coordination Sequence:
#
# PCOD8099051 Si02
#       8
#     8   8   8   8   8   8   8   8
#     4  10  21  37  55  76 104 137 174 215 258 306
#     4   9  19  35  54  77 103 134 173 212 252 301
#     4  10  20  35  55  78 106 139 174 214 258 304
#     4  10  21  36  54  77 104 135 172 213 257 306
#     4   9  19  36  55  76 104 137 173 212 255 304
#     4  10  20  35  55  77 104 137 171 211 257 305
#     4  10  20  35  55  78 105 136 172 214 257 305
#     4   9  19  35  53  76 106 137 169 208 256 306
#
# _framework density 18.302235
#
# number of rings (size 3 to 8) (size 9 to 14) (size 15 to 20)
#    0.000    2.375    0.000    1.875    0.000    5.750 
#    0.000    5.000    0.000    0.000    0.000    0.000 
#    0.000    0.000    0.000    0.000    0.000    0.000 
#
# Total GULP energy -396933.035950 kJ/mol
# GULP energy per Si atom -12404.157373 kJ/mol
# Density = 1.826058 g / cm^3
# Si number density = 18.302235 Si / 1000 Ang^3
#
#
#
# Elastic Constant Matrix: (Units=GPa)
#
#
# Indices 1 2 3 4 5 6 
#
# 1 77.2510 44.3353 67.6951 -0.0048 -21.5522 0.0037
# 2 44.3353 83.8917 64.0166 0.0442 -4.3227 -0.0240
# 3 67.6951 64.0166 171.4678 0.0868 1.8371 -0.0391
# 4 -0.0048 0.0442 0.0868 38.8481 -0.0341 -6.4994
# 5 -21.5522 -4.3227 1.8371 -0.0341 30.8998 0.0082
# 6 0.0037 -0.0240 -0.0391 -6.4994 0.0082 28.2248
#
#
#
# Elastic Compliance Matrix: (Units=1/GPa)
#
#
# Indices 1 2 3 4 5 6 
#
# 1 0.032872 -0.008581 -0.010013 0.000052 0.022323 -0.000020
# 2 -0.008581 0.019138 -0.003724 -0.000016 -0.003086 0.000010
# 3 -0.010013 -0.003724 0.011263 -0.000028 -0.008175 0.000010
# 4 0.000052 -0.000016 -0.000028 0.026773 0.000064 0.006165
# 5 0.022323 -0.003086 -0.008175 0.000064 0.047987 -0.000016
# 6 -0.000020 0.000010 0.000010 0.006165 -0.000016 0.036849
#
#
# Mechanical properties :
#
#
# Convention : Reuss Voigt Hill
#
# Bulk Modulus (GPa) = 53.65931 76.07827 64.86879
# Shear Modulus (GPa) = 22.15023 30.03213 26.09118
#
# Velocity S-wave (km/s) = 3.48263 4.05520 3.77977
# Velocity P-wave (km/s) = 6.74935 7.97397 7.38708
#
# Compressibility (1/GPa) = 0.01863609
#
# Stress axis : x y z
#
# Youngs Moduli (GPa) = 30.42099 52.25224 88.78459
#
# Poissons Ratio (x) = 0.44838 0.88903
# Poissons Ratio (y) = 0.26105 0.33065
# Poissons Ratio (z) = 0.30461 0.19460
#
# Static dielectric constant tensor:
#      x y z
#    x 3.375660 -0.000040 -0.032930 
#    y -0.000040 3.459520 0.000090 
#    z -0.032930 0.000090 3.488390 
# 
# 
# High freq. dielectric constant tensor:
#      x y z
#    x 1.704700 0.000000 -0.004600 
#    y 0.000000 1.718310 0.000010 
#    z -0.004600 0.000010 1.718670 
# 
# From -- ./inp_files/243781.got.cif
#   From: 2010.06.25/outbox.cif.g09.slc.cpg/sg12_122_cif.got.tgz:243781.got - 2010.06.28 00:19:55.
