data_PCOD8099241
_publ_section_title
;
Structure prediction by ZEFSAII (Michael W. Deem and Ramdas Pophale) SiO2 
 PCOD8099241
Probable space group: C 2/M
;
_chemical_formula_sum "Si O2"
_cell_formula_units_Z 64
_cell_length_a 15.180817
_cell_length_b 8.997439
_cell_length_c 24.058010
_cell_angle_alpha 90.000000
_cell_angle_beta 90.913352
_cell_angle_gamma 90.000000
_cell_volume 3285.629387
_symmetry_space_group_name_H-M "C 2/M"
_symmetry_group_IT_number 12
_symmetry_cell_setting 'monoclinic'
loop_
_space_group_symop_operation_xyz
x,y,z
-x,y,-z
-x,-y,-z
x,-y,z
1/2+x,1/2+y,z
1/2-x,1/2+y,-z
1/2-x,1/2-y,-z
1/2+x,1/2-y,z
loop_
_atom_site_type_symbol
_atom_site_label
_atom_site_fract_x
_atom_site_fract_y
_atom_site_fract_z
Si Si1 0.090421 0.676063 0.608977
Si Si2 0.604416 0.666606 0.003652
Si Si3 0.250721 0.176087 0.314099
Si Si4 0.843032 0.171730 0.497161
Si Si5 0.241142 0.824842 0.188474
Si Si6 0.597204 0.824690 0.114939
Si Si7 0.916311 0.828671 0.619757
Si Si8 0.105207 0.326620 0.893256
O O1 0.094518 0.500000 0.601527
O O2 0.166736 0.737033 0.650211
O O3 0.097990 0.752099 0.549134
O O4 0.999090 0.726117 0.635629
O O5 0.642570 0.500000 0.008782
O O6 0.640873 0.742080 0.948128
O O7 0.500000 0.665654 0.000000
O O8 0.634684 0.759311 0.057561
O O9 0.255594 0.233860 0.251107
O O10 0.162085 0.233012 0.342564
O O11 0.253577 0.000000 0.315614
O O12 0.750000 0.250000 0.500000
O O13 0.892948 0.190731 0.555309
O O14 0.828564 0.000000 0.482188
O O15 0.154644 0.743413 0.164881
O O16 0.329881 0.782870 0.156120
O O17 0.223041 0.000000 0.186057
O O18 0.494768 0.779826 0.123584
O O19 0.609299 0.000000 0.113811
O O20 0.937744 0.000000 0.633613
O O21 0.108218 0.500000 0.907209
#
# Coordination Sequence:
#
# PCOD8099241 Si02
#       8
#     8   8   8   8   8   8   8   8
#     4  11  22  38  60  88 116 149 191 235 282 339
#     4   9  17  31  54  82 110 142 181 222 270 334
#     4   9  20  40  59  77 110 150 188 231 282 331
#     4  11  21  36  60  87 120 155 187 229 284 340
#     4  10  21  38  59  79 104 147 193 228 271 334
#     4  10  20  35  55  81 114 144 177 230 283 328
#     4  10  21  39  59  83 115 152 187 229 284 338
#     4   9  19  35  55  80 110 144 180 223 280 333
#
# _framework density 19.478764000000002
#
# number of rings (size 3 to 8) (size 9 to 14) (size 15 to 20)
#    0.000    2.125    1.250    1.875    0.000    6.500 
#    0.000    3.125    0.000    0.000    0.000    0.000 
#    0.000    0.000    0.000    0.000    0.000    0.000 
#
# Total GULP energy -396881.603103 kJ/mol
# GULP energy per Si atom -12402.550097 kJ/mol
# Density = 1.943443 g / cm^3
# Si number density = 19.478764 Si / 1000 Ang^3
#
#
#
# Elastic Constant Matrix: (Units=GPa)
#
#
# Indices 1 2 3 4 5 6 
#
# 1 118.8141 41.9268 59.7605 0.0000 -11.6736 0.0000
# 2 41.9268 73.5250 44.5376 0.0000 -2.6501 0.0000
# 3 59.7605 44.5376 142.7731 0.0000 -12.7959 0.0000
# 4 0.0000 0.0000 0.0000 25.8559 0.0000 1.4738
# 5 -11.6736 -2.6501 -12.7959 0.0000 18.2386 0.0000
# 6 0.0000 0.0000 0.0000 1.4738 0.0000 32.6436
#
#
#
# Elastic Compliance Matrix: (Units=1/GPa)
#
#
# Indices 1 2 3 4 5 6 
#
# 1 0.012200 -0.004874 -0.003148 0.000000 0.004892 0.000000
# 2 -0.004874 0.018746 -0.004101 0.000000 -0.003273 0.000000
# 3 -0.003148 -0.004101 0.009996 0.000000 0.004402 0.000000
# 4 0.000000 0.000000 0.000000 0.038776 0.000000 -0.001751
# 5 0.004892 -0.003273 0.004402 0.000000 0.060573 0.000000
# 6 0.000000 0.000000 0.000000 -0.001751 0.000000 0.030713
#
#
# Mechanical properties :
#
#
# Convention : Reuss Voigt Hill
#
# Bulk Modulus (GPa) = 59.89284 69.72910 64.81097
# Shear Modulus (GPa) = 24.89853 27.94012 26.41933
#
# Velocity S-wave (km/s) = 3.57913 3.79144 3.68681
# Velocity P-wave (km/s) = 6.92060 7.41902 7.17414
#
# Compressibility (1/GPa) = 0.01669649
#
# Stress axis : x y z
#
# Youngs Moduli (GPa) = 81.96481 53.34346 100.04439
#
# Poissons Ratio (x) = 0.26000 0.31492
# Poissons Ratio (y) = 0.39950 0.41029
# Poissons Ratio (z) = 0.25801 0.21877
#
# Static dielectric constant tensor:
#      x y z
#    x 0.953970 0.000000 -0.016860 
#    y 0.000000 3.513330 0.000000 
#    z -0.016860 0.000000 3.823840 
# 
# 
# High freq. dielectric constant tensor:
#      x y z
#    x 1.764250 0.000000 -0.002210 
#    y 0.000000 1.747820 0.000000 
#    z -0.002210 0.000000 1.756570 
# 
# From -- ./inp_files/338671.got.cif
#   From: 2010.06.25/outbox.cif.g09.slc.cpg/sg12_170_cif.got.tgz:338671.got - 2010.06.28 00:19:55.
