data_PCOD8099795
_publ_section_title
;
Structure prediction by ZEFSAII (Michael W. Deem and Ramdas Pophale) SiO2 
 PCOD8099795
Probable space group: C 2/M
;
_chemical_formula_sum "Si O2"
_cell_formula_units_Z 56
_cell_length_a 20.987902
_cell_length_b 9.209832
_cell_length_c 29.279491
_cell_angle_alpha 90.000000
_cell_angle_beta 148.812490
_cell_angle_gamma 90.000000
_cell_volume 2930.760307
_symmetry_space_group_name_H-M "C 2/M"
_symmetry_group_IT_number 12
_symmetry_cell_setting 'monoclinic'
loop_
_space_group_symop_operation_xyz
x,y,z
-x,y,-z
-x,-y,-z
x,-y,z
1/2+x,1/2+y,z
1/2-x,1/2+y,-z
1/2-x,1/2-y,-z
1/2+x,1/2-y,z
loop_
_atom_site_type_symbol
_atom_site_label
_atom_site_fract_x
_atom_site_fract_y
_atom_site_fract_z
Si Si1 0.986809 0.664254 0.777352
Si Si2 0.898983 0.832173 0.545820
Si Si3 0.358487 0.668826 0.776930
Si Si4 0.237010 0.837265 0.037726
Si Si5 0.342908 0.667480 0.615528
Si Si6 0.074282 0.330745 0.591401
Si Si7 0.011294 0.829877 0.956291
O O1 0.934127 0.500000 0.742043
O O2 0.950025 0.732799 0.803364
O O3 0.940387 0.767042 0.709220
O O4 0.131867 0.661979 0.857396
O O5 0.783877 0.750239 0.453267
O O6 0.897802 0.809283 0.599145
O O7 0.022269 0.761511 0.601668
O O8 0.892077 0.000000 0.527891
O O9 0.383094 0.500000 0.780997
O O10 0.218526 0.709229 0.677654
O O11 0.391843 0.701459 0.850703
O O12 0.194683 0.000000 0.998918
O O13 0.250000 0.750000 0.000000
O O14 0.134243 0.765855 0.007712
O O15 0.318386 0.500000 0.611723
O O16 0.056186 0.500000 0.590967
O O17 0.000000 0.286605 0.500000
O O18 0.029985 0.000000 0.974601
O O19 0.000000 0.757885 0.000000
#
# Coordination Sequence:
#
# PCOD8099795 Si02
#       7
#     8   8   8   8   8   8   8
#     4  11  22  34  55  86 114 144 187 237 288 338
#     4  10  21  37  57  81 111 147 186 232 285 333
#     4  10  20  35  57  80 108 152 193 234 285 341
#     4  10  20  35  57  83 112 146 185 235 286 336
#     4  10  21  37  57  81 111 148 187 230 280 340
#     4  10  21  35  53  80 112 148 190 230 276 340
#     4   9  18  34  56  82 111 147 194 241 285 338
#
# _framework density 19.107669999999999
#
# number of rings (size 3 to 8) (size 9 to 14) (size 15 to 20)
#    0.000    2.000    1.429    2.143    0.000    5.429 
#    0.000    2.857    0.000    1.714    0.000    0.000 
#    0.000    0.000    0.000    0.000    0.000    0.000 
#
# Total GULP energy -347175.710296 kJ/mol
# GULP energy per Si atom -12399.132511 kJ/mol
# Density = 1.906418 g / cm^3
# Si number density = 19.107670 Si / 1000 Ang^3
#
#
#
# Elastic Constant Matrix: (Units=GPa)
#
#
# Indices 1 2 3 4 5 6 
#
# 1 114.3705 45.9350 58.7445 0.0000 6.3927 0.0001
# 2 45.9350 57.3315 16.8402 0.0000 -1.7827 0.0002
# 3 58.7445 16.8402 104.8972 -0.0001 -4.7320 0.0000
# 4 0.0000 0.0000 -0.0001 18.9627 0.0000 -0.4185
# 5 6.3927 -1.7827 -4.7320 0.0000 29.9029 0.0000
# 6 0.0001 0.0002 0.0000 -0.4185 0.0000 32.5496
#
#
#
# Elastic Compliance Matrix: (Units=1/GPa)
#
#
# Indices 1 2 3 4 5 6 
#
# 1 0.018556 -0.012514 -0.008657 0.000000 -0.006083 0.000000
# 2 -0.012514 0.026756 0.002926 0.000000 0.004733 0.000000
# 3 -0.008657 0.002926 0.014104 0.000000 0.004257 0.000000
# 4 0.000000 0.000000 0.000000 0.052750 0.000000 0.000678
# 5 -0.006083 0.004733 0.004257 0.000000 0.035698 0.000000
# 6 0.000000 0.000000 0.000000 0.000678 0.000000 0.030731
#
#
# Mechanical properties :
#
#
# Convention : Reuss Voigt Hill
#
# Bulk Modulus (GPa) = 43.61822 57.73761 50.67791
# Shear Modulus (GPa) = 22.44901 26.62166 24.53534
#
# Velocity S-wave (km/s) = 3.43136 3.73667 3.58726
# Velocity P-wave (km/s) = 6.21097 6.99282 6.61346
#
# Compressibility (1/GPa) = 0.02292620
#
# Stress axis : x y z
#
# Youngs Moduli (GPa) = 53.89082 37.37437 70.90355
#
# Poissons Ratio (x) = 0.46769 0.61383
# Poissons Ratio (y) = 0.67437 -0.20746
# Poissons Ratio (z) = 0.46654 -0.10936
#
# Static dielectric constant tensor:
#      x y z
#    x 3.658260 0.000000 0.119930 
#    y 0.000000 3.447490 0.000000 
#    z 0.119930 0.000000 3.661280 
# 
# 
# High freq. dielectric constant tensor:
#      x y z
#    x 1.743010 0.000000 0.000950 
#    y 0.000000 1.730020 0.000000 
#    z 0.000950 0.000000 1.749400 
# 
# From -- ./inp_files/380721.got.cif
#   From: 2010.06.25/outbox.cif.g09.slc.cpg/sg12_191_cif.got.tgz:380721.got - 2010.06.28 00:19:55.
