data_PCOD8099204
_publ_section_title
;
Structure prediction by ZEFSAII (Michael W. Deem and Ramdas Pophale) SiO2 
 PCOD8099204
Probable space group: C 2/M
;
_chemical_formula_sum "Si O2"
_cell_formula_units_Z 64
_cell_length_a 19.002496
_cell_length_b 8.968680
_cell_length_c 30.980449
_cell_angle_alpha 90.000000
_cell_angle_beta 139.917459
_cell_angle_gamma 90.000000
_cell_volume 3399.686840
_symmetry_space_group_name_H-M "C 2/M"
_symmetry_group_IT_number 12
_symmetry_cell_setting 'monoclinic'
loop_
_space_group_symop_operation_xyz
x,y,z
-x,y,-z
-x,-y,-z
x,-y,z
1/2+x,1/2+y,z
1/2-x,1/2+y,-z
1/2-x,1/2-y,-z
1/2+x,1/2-y,z
loop_
_atom_site_type_symbol
_atom_site_label
_atom_site_fract_x
_atom_site_fract_y
_atom_site_fract_z
Si Si1 0.063321 0.823712 0.188011
Si Si2 0.440609 0.173990 0.296534
Si Si3 0.134985 0.327133 0.447506
Si Si4 0.980410 0.328647 0.920934
Si Si5 0.677837 0.171407 0.076355
Si Si6 0.208402 0.172294 0.706054
Si Si7 0.595658 0.825529 0.818823
Si Si8 0.506827 0.669686 0.552978
O O1 0.024114 0.777935 0.122138
O O2 0.181679 0.757889 0.254124
O O3 0.978046 0.765280 0.182907
O O4 0.068833 0.000000 0.193509
O O5 0.558460 0.220191 0.371257
O O6 0.344818 0.265078 0.275067
O O7 0.442896 0.215253 0.247466
O O8 0.416724 0.000000 0.293239
O O9 0.157767 0.500000 0.458066
O O10 0.250000 0.250000 0.500000
O O11 0.076113 0.282235 0.463848
O O12 0.971464 0.500000 0.901731
O O13 0.880392 0.289361 0.905787
O O14 0.094602 0.300352 0.998265
O O15 0.778738 0.280423 0.116298
O O16 0.717091 0.000000 0.094928
O O17 0.128931 0.195485 0.627945
O O18 0.236004 0.000000 0.727089
O O19 0.583151 0.000000 0.822545
O O20 0.500000 0.708972 0.500000
O O21 0.469793 0.500000 0.544827
#
# Coordination Sequence:
#
# PCOD8099204 Si02
#       8
#     8   8   8   8   8   8   8   8
#     4  12  25  38  54  79 112 146 182 225 270 317
#     4   9  20  38  58  80 107 142 183 226 269 319
#     4  10  20  35  55  80 111 143 180 225 271 321
#     4   9  19  38  62  85 111 143 179 218 264 321
#     4   9  19  37  61  87 112 140 176 220 268 318
#     4  10  20  36  59  82 107 142 181 222 270 324
#     4  11  23  38  56  79 109 145 183 223 271 322
#     4   9  19  36  57  81 109 142 180 221 268 323
#
# _framework density 18.825264000000001
#
# number of rings (size 3 to 8) (size 9 to 14) (size 15 to 20)
#    0.000    2.125    0.000    3.750    0.000    6.750 
#    0.000    6.250    0.000    0.000    0.000    0.000 
#    0.000    0.000    0.000    0.000    0.000    0.000 
#
# Total GULP energy -396902.680175 kJ/mol
# GULP energy per Si atom -12403.208755 kJ/mol
# Density = 1.878242 g / cm^3
# Si number density = 18.825264 Si / 1000 Ang^3
#
#
#
# Elastic Constant Matrix: (Units=GPa)
#
#
# Indices 1 2 3 4 5 6 
#
# 1 121.2696 64.2531 74.8106 0.0000 4.7897 0.0001
# 2 64.2531 94.5924 51.8426 0.0000 7.3168 -0.0002
# 3 74.8106 51.8426 110.6315 0.0000 4.2439 0.0001
# 4 0.0000 0.0000 0.0000 30.8722 0.0000 8.7253
# 5 4.7897 7.3168 4.2439 0.0000 35.2614 0.0000
# 6 0.0001 -0.0002 0.0001 8.7253 0.0000 31.1016
#
#
#
# Elastic Compliance Matrix: (Units=1/GPa)
#
#
# Indices 1 2 3 4 5 6 
#
# 1 0.017078 -0.007104 -0.008225 0.000000 0.000144 0.000000
# 2 -0.007104 0.017346 -0.003238 0.000000 -0.002244 0.000000
# 3 -0.008225 -0.003238 0.016124 0.000000 -0.000151 0.000000
# 4 0.000000 0.000000 0.000000 0.035181 0.000000 -0.009870
# 5 0.000144 -0.002244 -0.000151 0.000000 0.028824 0.000000
# 6 0.000000 0.000000 0.000000 -0.009870 0.000000 0.034922
#
#
# Mechanical properties :
#
#
# Convention : Reuss Voigt Hill
#
# Bulk Modulus (GPa) = 74.55308 78.70069 76.62689
# Shear Modulus (GPa) = 26.16688 28.48618 27.32653
#
# Velocity S-wave (km/s) = 3.73230 3.89419 3.81410
# Velocity P-wave (km/s) = 7.63296 7.88139 7.75817
#
# Compressibility (1/GPa) = 0.01341326
#
# Stress axis : x y z
#
# Youngs Moduli (GPa) = 58.55333 57.65162 62.01792
#
# Poissons Ratio (x) = 0.40955 0.51011
# Poissons Ratio (y) = 0.41596 0.20084
# Poissons Ratio (z) = 0.48162 0.18670
#
# Static dielectric constant tensor:
#      x y z
#    x 3.365220 0.000000 -0.010220 
#    y 0.000000 3.498860 0.000000 
#    z -0.010220 0.000000 3.579190 
# 
# 
# High freq. dielectric constant tensor:
#      x y z
#    x 1.727220 0.000000 0.000530 
#    y 0.000000 1.735110 0.000000 
#    z 0.000530 0.000000 1.744350 
# 
# From -- ./inp_files/378429.got.cif
#   From: 2010.06.25/outbox.cif.g09.slc.cpg/sg12_190_cif.got.tgz:378429.got - 2010.06.28 00:19:55.
