data_PCOD8099038
_publ_section_title
;
Structure prediction by ZEFSAII (Michael W. Deem and Ramdas Pophale) SiO2 
 PCOD8099038
Probable space group: C 2/M
;
_chemical_formula_sum "Si O2"
_cell_formula_units_Z 56
_cell_length_a 14.234100
_cell_length_b 9.255676
_cell_length_c 27.546041
_cell_angle_alpha 90.000000
_cell_angle_beta 58.363095
_cell_angle_gamma 90.000000
_cell_volume 3089.765421
_symmetry_space_group_name_H-M "C 2/M"
_symmetry_group_IT_number 12
_symmetry_cell_setting 'monoclinic'
loop_
_space_group_symop_operation_xyz
x,y,z
-x,y,-z
-x,-y,-z
x,-y,z
1/2+x,1/2+y,z
1/2-x,1/2+y,-z
1/2-x,1/2-y,-z
1/2+x,1/2-y,z
loop_
_atom_site_type_symbol
_atom_site_label
_atom_site_fract_x
_atom_site_fract_y
_atom_site_fract_z
Si Si1 0.001185 0.332237 0.848680
Si Si2 0.249182 0.335157 0.755155
Si Si3 0.913443 0.665272 0.453493
Si Si4 0.660294 0.169215 0.358577
Si Si5 0.934677 0.672306 0.063996
Si Si6 0.806863 0.167344 0.849150
Si Si7 0.284124 0.332305 0.564631
O O1 0.971162 0.500000 0.856326
O O2 0.118788 0.304382 0.791721
O O3 0.005723 0.273836 0.902924
O O4 0.908591 0.250682 0.844067
O O5 0.270778 0.500000 0.732858
O O6 0.305564 0.224681 0.703282
O O7 0.304044 0.306762 0.792379
O O8 0.907144 0.500000 0.473100
O O9 0.829043 0.694932 0.432944
O O10 0.886024 0.763976 0.507243
O O11 0.032350 0.706073 0.400941
O O12 0.730720 0.252665 0.380095
O O13 0.685101 0.000000 0.355524
O O14 0.934204 0.500000 0.064621
O O15 0.807823 0.725683 0.096601
O O16 0.000000 0.735490 0.000000
O O17 0.822345 0.000000 0.857155
O O18 0.308917 0.500000 0.566369
#
# Coordination Sequence:
#
# PCOD8099038 Si02
#       7
#     8   8   8   8   8   8   8
#     4   9  18  33  53  74  99 134 170 206 251 298
#     4   9  20  37  51  68  98 133 169 206 247 301
#     4   9  20  37  53  73 103 133 162 201 249 299
#     4  11  22  35  53  76 101 130 165 208 255 296
#     4   8  15  30  51  75 105 139 171 202 244 302
#     4   9  18  33  53  75 100 133 171 210 250 294
#     4  10  20  35  55  77 102 133 166 200 244 301
#
# _framework density 18.124354
#
# number of rings (size 3 to 8) (size 9 to 14) (size 15 to 20)
#    0.000    2.714    0.000    3.000    0.000    6.286 
#    0.000    6.429    0.000    0.857    0.000    0.000 
#    0.000    0.000    0.000    0.000    0.000    0.000 
#
# Total GULP energy -347218.767529 kJ/mol
# GULP energy per Si atom -12400.670269 kJ/mol
# Density = 1.808310 g / cm^3
# Si number density = 18.124354 Si / 1000 Ang^3
#
#
#
# Elastic Constant Matrix: (Units=GPa)
#
#
# Indices 1 2 3 4 5 6 
#
# 1 117.5330 49.1219 44.1064 0.0000 4.6635 0.0000
# 2 49.1219 75.4195 49.6709 0.0000 4.2766 0.0000
# 3 44.1064 49.6709 109.3658 0.0000 5.1680 0.0000
# 4 0.0000 0.0000 0.0000 25.4489 0.0000 0.6419
# 5 4.6635 4.2766 5.1680 0.0000 14.2848 0.0000
# 6 0.0000 0.0000 0.0000 0.6419 0.0000 32.0920
#
#
#
# Elastic Compliance Matrix: (Units=1/GPa)
#
#
# Indices 1 2 3 4 5 6 
#
# 1 0.011966 -0.006538 -0.001795 0.000000 -0.001300 0.000000
# 2 -0.006538 0.022585 -0.007531 0.000000 -0.001903 0.000000
# 3 -0.001795 -0.007531 0.013382 0.000000 -0.002001 0.000000
# 4 0.000000 0.000000 0.000000 0.039314 0.000000 -0.000786
# 5 -0.001300 -0.001903 -0.002001 0.000000 0.071722 0.000000
# 6 0.000000 0.000000 0.000000 -0.000786 0.000000 0.031176
#
#
# Mechanical properties :
#
#
# Convention : Reuss Voigt Hill
#
# Bulk Modulus (GPa) = 61.70593 65.34631 63.52612
# Shear Modulus (GPa) = 21.99976 24.99310 23.49643
#
# Velocity S-wave (km/s) = 3.48778 3.71749 3.60446
# Velocity P-wave (km/s) = 7.09501 7.38641 7.24218
#
# Compressibility (1/GPa) = 0.01620590
#
# Stress axis : x y z
#
# Youngs Moduli (GPa) = 83.57164 44.27733 74.72451
#
# Poissons Ratio (x) = 0.28946 0.13414
# Poissons Ratio (y) = 0.54635 0.56275
# Poissons Ratio (z) = 0.15002 0.33345
#
# Static dielectric constant tensor:
#      x y z
#    x 3.349200 0.000000 0.028320 
#    y 0.000000 3.184540 0.000000 
#    z 0.028320 0.000000 3.417520 
# 
# 
# High freq. dielectric constant tensor:
#      x y z
#    x 1.708620 0.000000 0.003790 
#    y 0.000000 1.687990 0.000000 
#    z 0.003790 0.000000 1.702230 
# 
# From -- ./inp_files/309075.got.cif
#   From: 2010.06.25/outbox.cif.g09.slc.cpg/sg12_155_cif.got.tgz:309075.got - 2010.06.28 00:19:55.
