data_PCOD8099303
_publ_section_title
;
Structure prediction by ZEFSAII (Michael W. Deem and Ramdas Pophale) SiO2 
 PCOD8099303
Probable space group: C 2/M
;
_chemical_formula_sum "Si O2"
_cell_formula_units_Z 56
_cell_length_a 19.921475
_cell_length_b 8.940105
_cell_length_c 25.255137
_cell_angle_alpha 90.000000
_cell_angle_beta 140.184231
_cell_angle_gamma 90.000000
_cell_volume 2880.127193
_symmetry_space_group_name_H-M "C 2/M"
_symmetry_group_IT_number 12
_symmetry_cell_setting 'monoclinic'
loop_
_space_group_symop_operation_xyz
x,y,z
-x,y,-z
-x,-y,-z
x,-y,z
1/2+x,1/2+y,z
1/2-x,1/2+y,-z
1/2-x,1/2-y,-z
1/2+x,1/2-y,z
loop_
_atom_site_type_symbol
_atom_site_label
_atom_site_fract_x
_atom_site_fract_y
_atom_site_fract_z
Si Si1 0.002166 0.676550 0.237301
Si Si2 0.559094 0.822843 0.483359
Si Si3 0.136919 0.177713 0.937000
Si Si4 0.761033 0.674532 0.639335
Si Si5 0.729410 0.825653 0.234333
Si Si6 0.579312 0.175980 0.697456
Si Si7 0.500017 0.825230 0.938441
O O1 0.988987 0.500000 0.218170
O O2 0.936951 0.766923 0.154879
O O3 0.962736 0.724777 0.271065
O O4 0.123053 0.725161 0.307057
O O5 0.500000 0.763370 0.500000
O O6 0.677016 0.760463 0.552546
O O7 0.498379 0.761539 0.394986
O O8 0.565267 0.000000 0.487000
O O9 0.089821 0.228932 0.964688
O O10 0.146919 0.000000 0.941505
O O11 0.250000 0.250000 0.000000
O O12 0.746456 0.500000 0.620651
O O13 0.740031 0.717465 0.687522
O O14 0.804982 0.741807 0.239472
O O15 0.610751 0.774687 0.152755
O O16 0.740774 0.000000 0.229917
O O17 0.587825 0.000000 0.697639
O O18 0.521880 0.000000 0.941164
O O19 0.500000 0.786642 0.000000
#
# Coordination Sequence:
#
# PCOD8099303 Si02
#       7
#     8   8   8   8   8   8   8
#     4  10  22  43  63  85 120 159 200 245 303 361
#     4  10  20  35  55  84 120 154 195 246 299 352
#     4  12  26  43  65  91 123 162 203 247 301 362
#     4  10  20  36  60  84 114 157 197 241 297 353
#     4  10  20  36  59  87 119 155 197 243 293 352
#     4  10  22  38  59  86 119 159 198 247 300 352
#     4  10  22  42  66  93 126 160 197 248 302 356
#
# _framework density 19.443586
#
# number of rings (size 3 to 8) (size 9 to 14) (size 15 to 20)
#    0.000    1.714    2.857    1.286    2.000    3.429 
#    0.000    0.000    0.000    0.000    0.000    0.000 
#    0.000    0.000    0.000    0.000    0.000    0.000 
#
# Total GULP energy -347323.120684 kJ/mol
# GULP energy per Si atom -12404.397167 kJ/mol
# Density = 1.939933 g / cm^3
# Si number density = 19.443586 Si / 1000 Ang^3
#
#
#
# Elastic Constant Matrix: (Units=GPa)
#
#
# Indices 1 2 3 4 5 6 
#
# 1 145.9268 51.5297 55.6922 0.0000 13.5983 0.0000
# 2 51.5297 54.9590 38.1585 0.0000 3.5797 0.0001
# 3 55.6922 38.1585 93.7649 0.0000 9.4259 0.0000
# 4 0.0000 0.0000 0.0000 31.4372 0.0000 7.0308
# 5 13.5983 3.5797 9.4259 0.0000 35.1787 0.0000
# 6 0.0000 0.0001 0.0000 7.0308 0.0000 29.4041
#
#
#
# Elastic Compliance Matrix: (Units=1/GPa)
#
#
# Indices 1 2 3 4 5 6 
#
# 1 0.011141 -0.008173 -0.003023 0.000000 -0.002665 0.000000
# 2 -0.008173 0.031359 -0.008123 0.000000 0.002145 0.000000
# 3 -0.003023 -0.008123 0.015997 0.000000 -0.002291 0.000000
# 4 0.000000 0.000000 0.000000 0.033607 0.000000 -0.008036
# 5 -0.002665 0.002145 -0.002291 0.000000 0.029852 0.000000
# 6 0.000000 0.000000 0.000000 -0.008036 0.000000 0.035930
#
#
# Mechanical properties :
#
#
# Convention : Reuss Voigt Hill
#
# Bulk Modulus (GPa) = 50.35807 65.04572 57.70189
# Shear Modulus (GPa) = 24.61325 29.15534 26.88430
#
# Velocity S-wave (km/s) = 3.56178 3.87652 3.72248
# Velocity P-wave (km/s) = 6.54758 7.31865 6.94383
#
# Compressibility (1/GPa) = 0.01985779
#
# Stress axis : x y z
#
# Youngs Moduli (GPa) = 89.75870 31.88922 62.51338
#
# Poissons Ratio (x) = 0.26064 0.18899
# Poissons Ratio (y) = 0.73362 0.50778
# Poissons Ratio (z) = 0.27136 0.25903
#
# Static dielectric constant tensor:
#      x y z
#    x 3.741280 0.000000 0.065450 
#    y 0.000000 3.367160 0.000000 
#    z 0.065450 0.000000 3.806300 
# 
# 
# High freq. dielectric constant tensor:
#      x y z
#    x 1.765380 0.000000 0.004260 
#    y 0.000000 1.741600 0.000000 
#    z 0.004260 0.000000 1.768800 
# 
# From -- ./inp_files/230988.got.cif
#   From: 2010.06.25/outbox.cif.g09.slc.cpg/sg12_116_cif.got.tgz:230988.got - 2010.06.28 00:19:55.
