data_PCOD8099653
_publ_section_title
;
Structure prediction by ZEFSAII (Michael W. Deem and Ramdas Pophale) SiO2 
 PCOD8099653
Probable space group: C 2/M
;
_chemical_formula_sum "Si O2"
_cell_formula_units_Z 56
_cell_length_a 20.409796
_cell_length_b 8.897332
_cell_length_c 17.590464
_cell_angle_alpha 90.000000
_cell_angle_beta 116.096956
_cell_angle_gamma 90.000000
_cell_volume 2868.644499
_symmetry_space_group_name_H-M "C 2/M"
_symmetry_group_IT_number 12
_symmetry_cell_setting 'monoclinic'
loop_
_space_group_symop_operation_xyz
x,y,z
-x,y,-z
-x,-y,-z
x,-y,z
1/2+x,1/2+y,z
1/2-x,1/2+y,-z
1/2-x,1/2-y,-z
1/2+x,1/2-y,z
loop_
_atom_site_type_symbol
_atom_site_label
_atom_site_fract_x
_atom_site_fract_y
_atom_site_fract_z
Si Si1 0.827760 0.177015 0.535850
Si Si2 0.917292 0.824142 0.729044
Si Si3 0.318808 0.323434 0.822088
Si Si4 0.579940 0.321395 0.557839
Si Si5 0.570605 0.824871 0.828973
Si Si6 0.921515 0.675027 0.990438
Si Si7 0.337145 0.321720 0.250467
O O1 0.750000 0.250000 0.500000
O O2 0.874043 0.225569 0.632389
O O3 0.866692 0.239337 0.480282
O O4 0.817922 0.000000 0.528048
O O5 0.869700 0.778548 0.777468
O O6 0.991523 0.732714 0.765618
O O7 0.936340 0.000000 0.738443
O O8 0.304249 0.500000 0.818518
O O9 0.358003 0.270114 0.918767
O O10 0.242664 0.240182 0.772922
O O11 0.500000 0.253708 0.500000
O O12 0.576500 0.500000 0.553221
O O13 0.608950 0.267583 0.654561
O O14 0.633152 0.741192 0.813688
O O15 0.575240 0.000000 0.813402
O O16 0.585131 0.790329 0.924277
O O17 0.910396 0.500000 0.965699
O O18 0.000000 0.730092 0.000000
O O19 0.333003 0.500000 0.243660
#
# Coordination Sequence:
#
# PCOD8099653 Si02
#       7
#     8   8   8   8   8   8   8
#     4  10  20  35  56  83 115 150 191 238 286 339
#     4  10  21  37  59  87 118 153 193 240 292 347
#     4  11  23  38  60  89 122 156 193 240 292 348
#     4   9  18  35  59  83 110 151 198 238 279 337
#     4  11  23  39  62  88 116 149 192 243 291 347
#     4  10  21  40  63  88 116 150 193 240 291 350
#     4  11  23  39  60  86 120 159 197 240 292 346
#
# _framework density 19.521415999999999
#
# number of rings (size 3 to 8) (size 9 to 14) (size 15 to 20)
#    0.000    1.714    1.429    3.000    0.000    5.429 
#    0.000    0.714    0.000    3.000    0.000    0.000 
#    0.000    0.000    0.000    0.000    0.000    0.000 
#
# Total GULP energy -347339.204601 kJ/mol
# GULP energy per Si atom -12404.971593 kJ/mol
# Density = 1.947698 g / cm^3
# Si number density = 19.521416 Si / 1000 Ang^3
#
#
#
# Elastic Constant Matrix: (Units=GPa)
#
#
# Indices 1 2 3 4 5 6 
#
# 1 90.7925 16.5524 27.9627 0.0000 1.2897 0.0000
# 2 16.5524 43.6464 29.2330 0.0000 2.6829 0.0000
# 3 27.9627 29.2330 101.8263 0.0000 -1.8573 0.0000
# 4 0.0000 0.0000 0.0000 24.1282 0.0000 3.6356
# 5 1.2897 2.6829 -1.8573 0.0000 35.4022 0.0000
# 6 0.0000 0.0000 0.0000 3.6356 0.0000 37.2601
#
#
#
# Elastic Compliance Matrix: (Units=1/GPa)
#
#
# Indices 1 2 3 4 5 6 
#
# 1 0.012342 -0.002952 -0.002549 0.000000 -0.000360 0.000000
# 2 -0.002952 0.029309 -0.007649 0.000000 -0.002515 0.000000
# 3 -0.002549 -0.007649 0.012741 0.000000 0.001341 0.000000
# 4 0.000000 0.000000 0.000000 0.042064 0.000000 -0.004104
# 5 -0.000360 -0.002515 0.001341 0.000000 0.028521 0.000000
# 6 0.000000 0.000000 0.000000 -0.004104 0.000000 0.027239
#
#
# Mechanical properties :
#
#
# Convention : Reuss Voigt Hill
#
# Bulk Modulus (GPa) = 35.59634 42.64015 39.11824
# Shear Modulus (GPa) = 26.61289 30.19258 28.40274
#
# Velocity S-wave (km/s) = 3.69625 3.93700 3.81852
# Velocity P-wave (km/s) = 6.04073 6.52356 6.28678
#
# Compressibility (1/GPa) = 0.02809278
#
# Stress axis : x y z
#
# Youngs Moduli (GPa) = 81.02245 34.11950 78.48667
#
# Poissons Ratio (x) = 0.10071 0.20002
# Poissons Ratio (y) = 0.23915 0.60038
# Poissons Ratio (z) = 0.20649 0.26100
#
# Static dielectric constant tensor:
#      x y z
#    x 3.651030 0.000000 -0.089110 
#    y 0.000000 3.409350 0.000000 
#    z -0.089110 0.000000 3.790330 
# 
# 
# High freq. dielectric constant tensor:
#      x y z
#    x 1.772970 0.000000 -0.002620 
#    y 0.000000 1.745940 0.000000 
#    z -0.002620 0.000000 1.775810 
# 
# From -- ./inp_files/275568.got.cif
#   From: 2010.06.25/outbox.cif.g09.slc.cpg/sg12_138_cif.got.tgz:275568.got - 2010.06.28 00:19:55.
