data_PCOD8099316
_publ_section_title
;
Structure prediction by ZEFSAII (Michael W. Deem and Ramdas Pophale) SiO2 
 PCOD8099316
Probable space group: C 2/M
;
_chemical_formula_sum "Si O2"
_cell_formula_units_Z 64
_cell_length_a 15.486085
_cell_length_b 8.738651
_cell_length_c 33.290629
_cell_angle_alpha 90.000000
_cell_angle_beta 134.344838
_cell_angle_gamma 90.000000
_cell_volume 3221.830743
_symmetry_space_group_name_H-M "C 2/M"
_symmetry_group_IT_number 12
_symmetry_cell_setting 'monoclinic'
loop_
_space_group_symop_operation_xyz
x,y,z
-x,y,-z
-x,-y,-z
x,-y,z
1/2+x,1/2+y,z
1/2-x,1/2+y,-z
1/2-x,1/2-y,-z
1/2+x,1/2-y,z
loop_
_atom_site_type_symbol
_atom_site_label
_atom_site_fract_x
_atom_site_fract_y
_atom_site_fract_z
Si Si1 0.939544 0.181514 0.940445
Si Si2 0.069182 0.821391 0.632885
Si Si3 0.133825 0.178119 0.942566
Si Si4 0.763489 0.678052 0.763754
Si Si5 0.515257 0.320652 0.823088
Si Si6 0.380566 0.681476 0.439654
Si Si7 0.306519 0.180694 0.175694
Si Si8 0.311982 0.818822 0.559220
O O1 0.802893 0.236693 0.888799
O O2 0.015966 0.239508 0.927341
O O3 0.941177 0.000000 0.944085
O O4 0.000000 0.254188 0.000000
O O5 0.171972 0.785878 0.698285
O O6 0.118730 0.759619 0.606112
O O7 0.949238 0.734623 0.607805
O O8 0.037541 0.000000 0.619730
O O9 0.114019 0.219814 0.889606
O O10 0.148161 0.000000 0.953918
O O11 0.250000 0.250000 0.000000
O O12 0.764577 0.500000 0.775714
O O13 0.721470 0.776705 0.787861
O O14 0.894511 0.727268 0.791441
O O15 0.484634 0.500000 0.812530
O O16 0.572947 0.267061 0.799785
O O17 0.500000 0.747931 0.500000
O O18 0.384031 0.500000 0.441336
O O19 0.261722 0.737872 0.425148
O O20 0.326701 0.000000 0.179431
O O21 0.250000 0.750000 0.500000
O O22 0.306931 0.000000 0.553930
#
# Coordination Sequence:
#
# PCOD8099316 Si02
#       8
#     8   8   8   8   8   8   8   8
#     4   9  17  32  55  83 116 152 194 245 305 366
#     4  10  22  41  62  88 121 158 204 252 299 358
#     4  10  20  35  55  85 121 157 196 250 310 370
#     4  11  24  42  64  90 124 166 210 258 311 371
#     4  11  23  41  63  89 124 162 207 259 310 369
#     4   9  17  34  60  85 117 160 197 236 292 355
#     4  11  22  40  65  89 120 163 207 256 312 374
#     4  11  21  35  60  91 123 162 203 248 302 359
#
# _framework density 19.864481000000001
#
# number of rings (size 3 to 8) (size 9 to 14) (size 15 to 20)
#    0.000    1.750    2.500    2.250    0.000    4.000 
#    0.000    3.125    0.000    2.625    0.000    0.000 
#    0.000    0.000    0.000    0.000    0.000    0.000 
#
# Total GULP energy -396794.809161 kJ/mol
# GULP energy per Si atom -12399.837786 kJ/mol
# Density = 1.981927 g / cm^3
# Si number density = 19.864481 Si / 1000 Ang^3
#
#
#
# Elastic Constant Matrix: (Units=GPa)
#
#
# Indices 1 2 3 4 5 6 
#
# 1 154.4468 26.3039 47.8862 0.0000 -1.8498 0.0000
# 2 26.3039 45.3880 32.0052 0.0000 7.3473 0.0000
# 3 47.8862 32.0052 107.8291 0.0000 -1.1203 0.0000
# 4 0.0000 0.0000 0.0000 27.5596 0.0000 2.5648
# 5 -1.8498 7.3473 -1.1203 0.0000 29.2322 0.0000
# 6 0.0000 0.0000 0.0000 2.5648 0.0000 32.2060
#
#
#
# Elastic Compliance Matrix: (Units=1/GPa)
#
#
# Indices 1 2 3 4 5 6 
#
# 1 0.007779 -0.002859 -0.002595 0.000000 0.001111 0.000000
# 2 -0.002859 0.030575 -0.007890 0.000000 -0.008168 0.000000
# 3 -0.002595 -0.007890 0.012792 0.000000 0.002309 0.000000
# 4 0.000000 0.000000 0.000000 0.036556 0.000000 -0.002911
# 5 0.001111 -0.008168 0.002309 0.000000 0.036421 0.000000
# 6 0.000000 0.000000 0.000000 -0.002911 0.000000 0.031282
#
#
# Mechanical properties :
#
#
# Convention : Reuss Voigt Hill
#
# Bulk Modulus (GPa) = 40.88477 57.78383 49.33430
# Shear Modulus (GPa) = 26.28177 31.23081 28.75629
#
# Velocity S-wave (km/s) = 3.64133 3.96939 3.80889
# Velocity P-wave (km/s) = 6.18915 7.08239 6.65078
#
# Compressibility (1/GPa) = 0.02445899
#
# Stress axis : x y z
#
# Youngs Moduli (GPa) = 128.54487 32.70639 78.17246
#
# Poissons Ratio (x) = 0.09350 0.20284
# Poissons Ratio (y) = 0.36746 0.61682
# Poissons Ratio (z) = 0.33354 0.25807
#
# Static dielectric constant tensor:
#      x y z
#    x 4.040910 0.000000 -0.064500 
#    y 0.000000 3.378100 0.000000 
#    z -0.064500 0.000000 3.701730 
# 
# 
# High freq. dielectric constant tensor:
#      x y z
#    x 1.792480 0.000000 -0.002510 
#    y 0.000000 1.752340 0.000000 
#    z -0.002510 0.000000 1.774790 
# 
# From -- ./inp_files/375673.got.cif
#   From: 2010.06.25/outbox.cif.g09.slc.cpg/sg12_188_cif.got.tgz:375673.got - 2010.06.28 00:19:55.
