data_PCOD8099781
_publ_section_title
;
Structure prediction by ZEFSAII (Michael W. Deem and Ramdas Pophale) SiO2 
 PCOD8099781
Probable space group: C 2/M
;
_chemical_formula_sum "Si O2"
_cell_formula_units_Z 56
_cell_length_a 14.541978
_cell_length_b 12.336523
_cell_length_c 19.219969
_cell_angle_alpha 90.000000
_cell_angle_beta 56.440688
_cell_angle_gamma 90.000000
_cell_volume 2873.277853
_symmetry_space_group_name_H-M "C 2/M"
_symmetry_group_IT_number 12
_symmetry_cell_setting 'monoclinic'
loop_
_space_group_symop_operation_xyz
x,y,z
-x,y,-z
-x,-y,-z
x,-y,z
1/2+x,1/2+y,z
1/2-x,1/2+y,-z
1/2-x,1/2-y,-z
1/2+x,1/2-y,z
loop_
_atom_site_type_symbol
_atom_site_label
_atom_site_fract_x
_atom_site_fract_y
_atom_site_fract_z
Si Si1 0.286593 0.623730 0.871576
Si Si2 0.104450 0.876829 0.034598
Si Si3 0.369746 0.291951 0.116465
Si Si4 0.649753 0.769078 0.595027
Si Si5 0.900414 0.500000 0.436721
Si Si6 0.065871 0.872056 0.318763
Si Si7 0.863180 0.500000 0.599244
Si Si8 0.260043 0.217739 0.691426
O O1 0.255305 0.500000 0.885443
O O2 0.315927 0.664243 0.937115
O O3 0.173621 0.675827 0.891382
O O4 0.392404 0.646697 0.777753
O O5 0.000425 0.795355 0.075476
O O6 0.065155 0.000000 0.066612
O O7 0.162454 0.873429 0.934102
O O8 0.310484 0.318937 0.212777
O O9 0.750000 0.750000 0.500000
O O10 0.551297 0.685569 0.618948
O O11 0.682481 0.752944 0.660899
O O12 0.610003 0.893431 0.606052
O O13 0.817585 0.500000 0.537952
O O14 0.008781 0.500000 0.437734
O O15 0.156121 0.817367 0.331510
O O16 0.055533 0.000000 0.340785
O O17 0.823032 0.608933 0.650315
#
# Coordination Sequence:
#
# PCOD8099781 Si02
#       8
#     8   8   8   8   4   8   4   8
#     4   9  19  38  61  81 115 155 194 234 288 340
#     4  10  20  35  56  89 118 152 190 240 282 341
#     4  10  20  35  59  86 118 149 193 237 285 343
#     4  12  25  41  61  89 116 156 197 243 297 359
#     4  11  24  44  62  84 123 150 198 250 305 345
#     4  10  23  42  60  88 120 157 200 243 289 358
#     4  11  22  42  64  84 120 158 190 256 298 349
#     4  11  24  39  63  88 118 157 200 241 301 345
#
# _framework density 19.489934999999999
#
# number of rings (size 3 to 8) (size 9 to 14) (size 15 to 20)
#    0.000    1.571    2.857    2.143    5.000    0.571 
#    0.000    2.143    0.000    1.714    0.000    0.000 
#    0.000    0.000    0.000    0.000    0.000    0.000 
#
# Total GULP energy -346977.227278 kJ/mol
# GULP energy per Si atom -12392.043831 kJ/mol
# Density = 1.944557 g / cm^3
# Si number density = 19.489935 Si / 1000 Ang^3
#
#
#
# Elastic Constant Matrix: (Units=GPa)
#
#
# Indices 1 2 3 4 5 6 
#
# 1 79.3636 37.1143 32.7820 0.0000 1.7621 0.0000
# 2 37.1143 120.4855 35.2703 0.0000 -5.9487 0.0000
# 3 32.7820 35.2703 96.9616 0.0000 4.4020 0.0000
# 4 0.0000 0.0000 0.0000 28.7352 0.0000 2.8204
# 5 1.7621 -5.9487 4.4020 0.0000 27.8267 0.0000
# 6 0.0000 0.0000 0.0000 2.8204 0.0000 34.8727
#
#
#
# Elastic Compliance Matrix: (Units=1/GPa)
#
#
# Indices 1 2 3 4 5 6 
#
# 1 0.016069 -0.003845 -0.003979 0.000000 -0.001210 0.000000
# 2 -0.003845 0.010390 -0.002610 0.000000 0.002878 0.000000
# 3 -0.003979 -0.002610 0.012713 0.000000 -0.002317 0.000000
# 4 0.000000 0.000000 0.000000 0.035079 0.000000 -0.002837
# 5 -0.001210 0.002878 -0.002317 0.000000 0.036995 0.000000
# 6 0.000000 0.000000 0.000000 -0.002837 0.000000 0.028905
#
#
# Mechanical properties :
#
#
# Convention : Reuss Voigt Hill
#
# Bulk Modulus (GPa) = 54.63304 56.34934 55.49119
# Shear Modulus (GPa) = 29.91837 31.06320 30.49079
#
# Velocity S-wave (km/s) = 3.92224 3.99658 3.95959
# Velocity P-wave (km/s) = 6.97168 7.09025 7.03121
#
# Compressibility (1/GPa) = 0.01830394
#
# Stress axis : x y z
#
# Youngs Moduli (GPa) = 62.23265 96.24398 78.65696
#
# Poissons Ratio (x) = 0.37003 0.31300
# Poissons Ratio (y) = 0.23926 0.20532
# Poissons Ratio (z) = 0.24764 0.25123
#
# Static dielectric constant tensor:
#      x y z
#    x 3.550700 0.000000 0.165160 
#    y 0.000000 3.636400 0.000000 
#    z 0.165160 0.000000 3.809570 
# 
# 
# High freq. dielectric constant tensor:
#      x y z
#    x 1.759040 0.000000 0.013220 
#    y 0.000000 1.760030 0.000000 
#    z 0.013220 0.000000 1.766480 
# 
# From -- ./inp_files/269236.got.cif
#   From: 2010.06.25/outbox.cif.g09.slc.cpg/sg12_135_cif.got.tgz:269236.got - 2010.06.28 00:19:55.
