data_PCOD8099010
_publ_section_title
;
Structure prediction by ZEFSAII (Michael W. Deem and Ramdas Pophale) SiO2 
 PCOD8099010
Probable space group: C 2/M
;
_chemical_formula_sum "Si O2"
_cell_formula_units_Z 64
_cell_length_a 26.132423
_cell_length_b 14.499745
_cell_length_c 9.737959
_cell_angle_alpha 90.000000
_cell_angle_beta 67.733775
_cell_angle_gamma 90.000000
_cell_volume 3414.704138
_symmetry_space_group_name_H-M "C 2/M"
_symmetry_group_IT_number 12
_symmetry_cell_setting 'monoclinic'
loop_
_space_group_symop_operation_xyz
x,y,z
-x,y,-z
-x,-y,-z
x,-y,z
1/2+x,1/2+y,z
1/2-x,1/2+y,-z
1/2-x,1/2-y,-z
1/2+x,1/2-y,z
loop_
_atom_site_type_symbol
_atom_site_label
_atom_site_fract_x
_atom_site_fract_y
_atom_site_fract_z
Si Si1 0.393179 0.104160 0.450857
Si Si2 0.632106 0.765528 0.975935
Si Si3 0.050051 0.895455 0.358871
Si Si4 0.550393 0.604738 0.043801
Si Si5 0.557632 0.108161 0.879320
Si Si6 0.867925 0.738797 0.711793
Si Si7 0.231579 0.606311 0.512026
Si Si8 0.246570 0.252913 0.727024
O O1 0.438315 0.130824 0.287960
O O2 0.398760 0.168818 0.577479
O O3 0.333908 0.114909 0.439782
O O4 0.402521 0.000000 0.493036
O O5 0.608580 0.846283 0.905872
O O6 0.697195 0.754065 0.886011
O O7 0.603049 0.669358 0.964558
O O8 0.621655 0.794838 0.143800
O O9 0.030988 0.887687 0.220731
O O10 0.105450 0.839134 0.335441
O O11 0.000000 0.855627 0.500000
O O12 0.063778 0.000000 0.386941
O O13 0.567606 0.500000 0.988917
O O14 0.500000 0.638497 0.000000
O O15 0.563501 0.000000 0.898421
O O16 0.500000 0.146055 0.000000
O O17 0.803010 0.744896 0.753021
O O18 0.251384 0.500000 0.488723
O O19 0.247911 0.652170 0.639755
O O20 0.262007 0.663469 0.361024
#
# Coordination Sequence:
#
# PCOD8099010 Si02
#       8
#     8   8   8   8   8   8   8   8
#     4   9  18  36  57  77 108 146 183 228 276 324
#     4  11  21  35  56  82 114 148 181 227 282 330
#     4   9  19  37  56  77 108 143 180 223 270 323
#     4   9  19  36  55  78 108 143 184 227 273 324
#     4  10  21  37  58  82 108 142 188 236 280 327
#     4  10  22  35  55  83 114 150 181 223 276 336
#     4   9  18  35  56  78 107 145 185 229 275 319
#     4  10  20  35  54  82 114 144 185 228 269 337
#
# _framework density 18.742474000000001
#
# number of rings (size 3 to 8) (size 9 to 14) (size 15 to 20)
#    0.000    2.375    1.250    0.750    0.000    4.500 
#    0.000    0.000    0.000    7.125    0.000    0.000 
#    0.000    0.000    0.000    0.000    0.000    0.000 
#
# Total GULP energy -396834.806001 kJ/mol
# GULP energy per Si atom -12401.087688 kJ/mol
# Density = 1.869982 g / cm^3
# Si number density = 18.742474 Si / 1000 Ang^3
#
#
#
# Elastic Constant Matrix: (Units=GPa)
#
#
# Indices 1 2 3 4 5 6 
#
# 1 75.9990 37.9108 47.1113 0.0000 -2.9431 0.0000
# 2 37.9108 97.4170 56.5374 0.0000 5.2055 0.0000
# 3 47.1113 56.5374 117.2951 0.0000 -9.5880 0.0000
# 4 0.0000 0.0000 0.0000 25.8520 0.0000 1.9672
# 5 -2.9431 5.2055 -9.5880 0.0000 32.2859 0.0000
# 6 0.0000 0.0000 0.0000 1.9672 0.0000 24.1089
#
#
#
# Elastic Compliance Matrix: (Units=1/GPa)
#
#
# Indices 1 2 3 4 5 6 
#
# 1 0.018610 -0.004138 -0.005419 0.000000 0.000755 0.000000
# 2 -0.004138 0.015823 -0.006359 0.000000 -0.004817 0.000000
# 3 -0.005419 -0.006359 0.014154 0.000000 0.004735 0.000000
# 4 0.000000 0.000000 0.000000 0.038923 0.000000 -0.003176
# 5 0.000755 -0.004817 0.004735 0.000000 0.033225 0.000000
# 6 0.000000 0.000000 0.000000 -0.003176 0.000000 0.041738
#
#
# Mechanical properties :
#
#
# Convention : Reuss Voigt Hill
#
# Bulk Modulus (GPa) = 59.67675 63.75891 61.71783
# Shear Modulus (GPa) = 25.01385 26.39280 25.70332
#
# Velocity S-wave (km/s) = 3.65719 3.75664 3.70725
# Velocity P-wave (km/s) = 7.05286 7.27384 7.16420
#
# Compressibility (1/GPa) = 0.01675694
#
# Stress axis : x y z
#
# Youngs Moduli (GPa) = 53.73339 63.19822 70.65226
#
# Poissons Ratio (x) = 0.26151 0.38284
# Poissons Ratio (y) = 0.22235 0.44925
# Poissons Ratio (z) = 0.29116 0.40186
#
# Static dielectric constant tensor:
#      x y z
#    x 3.263460 0.000000 -0.078870 
#    y 0.000000 3.500120 0.000000 
#    z -0.078870 0.000000 3.529660 
# 
# 
# High freq. dielectric constant tensor:
#      x y z
#    x 1.713120 0.000000 -0.002130 
#    y 0.000000 1.730380 0.000000 
#    z -0.002130 0.000000 1.734780 
# 
# From -- ./inp_files/104539.got.cif
#   From: 2010.06.25/outbox.cif.g09.slc.cpg/sg12_53_cif.got.tgz:104539.got - 2010.06.28 00:19:55.
