data_PCOD8099271
_publ_section_title
;
Structure prediction by ZEFSAII (Michael W. Deem and Ramdas Pophale) SiO2 
 PCOD8099271
Probable space group: C 2/M
;
_chemical_formula_sum "Si O2"
_cell_formula_units_Z 64
_cell_length_a 29.211366
_cell_length_b 9.269174
_cell_length_c 18.273863
_cell_angle_alpha 90.000000
_cell_angle_beta 140.170635
_cell_angle_gamma 90.000000
_cell_volume 3169.163802
_symmetry_space_group_name_H-M "C 2/M"
_symmetry_group_IT_number 12
_symmetry_cell_setting 'monoclinic'
loop_
_space_group_symop_operation_xyz
x,y,z
-x,y,-z
-x,-y,-z
x,-y,z
1/2+x,1/2+y,z
1/2-x,1/2+y,-z
1/2-x,1/2-y,-z
1/2+x,1/2-y,z
loop_
_atom_site_type_symbol
_atom_site_label
_atom_site_fract_x
_atom_site_fract_y
_atom_site_fract_z
Si Si1 0.077695 0.167856 0.570457
Si Si2 0.340823 0.835152 0.211497
Si Si3 0.713792 0.666946 0.265894
Si Si4 0.188085 0.836575 0.071566
Si Si5 0.907593 0.663418 0.146260
Si Si6 0.555721 0.666343 0.131457
Si Si7 0.562653 0.165516 0.287345
Si Si8 0.848546 0.830368 0.489175
O O1 0.137015 0.248266 0.689971
O O2 0.094750 0.200342 0.506447
O O3 0.000000 0.226013 0.500000
O O4 0.084067 0.000000 0.595853
O O5 0.255252 0.823767 0.099136
O O6 0.377399 0.767471 0.184259
O O7 0.365490 0.000000 0.252568
O O8 0.738127 0.500000 0.300226
O O9 0.710586 0.721424 0.178555
O O10 0.636529 0.690784 0.205612
O O11 0.770940 0.765148 0.377650
O O12 0.160845 0.000000 0.046002
O O13 0.122036 0.747077 0.960065
O O14 0.879943 0.500000 0.106090
O O15 0.992686 0.672951 0.252263
O O16 0.542010 0.500000 0.136117
O O17 0.542692 0.766980 0.184992
O O18 0.500000 0.713543 0.000000
O O19 0.624085 0.256138 0.402966
O O20 0.587652 0.000000 0.307784
O O21 0.840062 0.000000 0.492994
#
# Coordination Sequence:
#
# PCOD8099271 Si02
#       8
#     8   8   8   8   8   8   8   8
#     4  10  21  36  55  82 116 156 202 248 292 342
#     4  10  20  35  55  82 115 153 198 241 290 351
#     4  10  21  39  63  90 120 154 195 245 298 354
#     4  10  20  35  58  86 116 154 196 240 294 355
#     4  10  22  37  55  84 119 156 197 243 296 349
#     4  10  22  42  68  94 120 153 195 242 295 355
#     4  11  24  41  61  87 121 157 196 244 295 350
#     4  11  23  39  61  88 119 157 200 245 295 352
#
# _framework density 20.194600999999999
#
# number of rings (size 3 to 8) (size 9 to 14) (size 15 to 20)
#    0.000    1.750    1.250    2.625    0.000    5.500 
#    0.000    0.000    0.000    0.000    0.000    0.000 
#    0.000    0.000    0.000    0.000    0.000    0.000 
#
# Total GULP energy -396922.521100 kJ/mol
# GULP energy per Si atom -12403.828784 kJ/mol
# Density = 2.014864 g / cm^3
# Si number density = 20.194601 Si / 1000 Ang^3
#
#
#
# Elastic Constant Matrix: (Units=GPa)
#
#
# Indices 1 2 3 4 5 6 
#
# 1 73.8280 28.7555 21.8646 0.0000 -4.6661 0.0000
# 2 28.7555 87.2576 61.8250 0.0000 -9.4755 0.0000
# 3 21.8646 61.8250 122.0903 0.0000 -11.4085 0.0000
# 4 0.0000 0.0000 0.0000 39.3848 0.0000 -2.1916
# 5 -4.6661 -9.4755 -11.4085 0.0000 32.6719 0.0000
# 6 0.0000 0.0000 0.0000 -2.1916 0.0000 28.6109
#
#
#
# Elastic Compliance Matrix: (Units=1/GPa)
#
#
# Indices 1 2 3 4 5 6 
#
# 1 0.015563 -0.004871 -0.000253 0.000000 0.000722 0.000000
# 2 -0.004871 0.019537 -0.008845 0.000000 0.001882 0.000000
# 3 -0.000253 -0.008845 0.012893 0.000000 0.001900 0.000000
# 4 0.000000 0.000000 0.000000 0.025499 0.000000 0.001953
# 5 0.000722 0.001882 0.001900 0.000000 0.031920 0.000000
# 6 0.000000 0.000000 0.000000 0.001953 0.000000 0.035101
#
#
# Mechanical properties :
#
#
# Convention : Reuss Voigt Hill
#
# Bulk Modulus (GPa) = 49.86520 56.45178 53.15849
# Shear Modulus (GPa) = 28.54931 31.51559 30.03245
#
# Velocity S-wave (km/s) = 3.76401 3.95472 3.86054
# Velocity P-wave (km/s) = 6.60578 6.99054 6.80088
#
# Compressibility (1/GPa) = 0.02005406
#
# Stress axis : x y z
#
# Youngs Moduli (GPa) = 64.25588 51.18497 77.56390
#
# Poissons Ratio (x) = 0.24932 0.01962
# Poissons Ratio (y) = 0.31299 0.68606
# Poissons Ratio (z) = 0.01626 0.45274
#
# Static dielectric constant tensor:
#      x y z
#    x 3.735410 0.000000 0.014640 
#    y 0.000000 3.599880 0.000000 
#    z 0.014640 0.000000 3.518330 
# 
# 
# High freq. dielectric constant tensor:
#      x y z
#    x 1.795660 0.000000 0.002540 
#    y 0.000000 1.781490 0.000000 
#    z 0.002540 0.000000 1.788530 
# 
# From -- ./inp_files/295798.got.cif
#   From: 2010.06.25/outbox.cif.g09.slc.cpg/sg12_148_cif.got.tgz:295798.got - 2010.06.28 00:19:55.
