data_PCOD8099860
_publ_section_title
;
Structure prediction by ZEFSAII (Michael W. Deem and Ramdas Pophale) SiO2 
 PCOD8099860
Probable space group: C 2/M
;
_chemical_formula_sum "Si O2"
_cell_formula_units_Z 56
_cell_length_a 33.287288
_cell_length_b 9.610700
_cell_length_c 9.773655
_cell_angle_alpha 90.000000
_cell_angle_beta 72.537973
_cell_angle_gamma 90.000000
_cell_volume 2982.638287
_symmetry_space_group_name_H-M "C 2/M"
_symmetry_group_IT_number 12
_symmetry_cell_setting 'monoclinic'
loop_
_space_group_symop_operation_xyz
x,y,z
-x,y,-z
-x,-y,-z
x,-y,z
1/2+x,1/2+y,z
1/2-x,1/2+y,-z
1/2-x,1/2-y,-z
1/2+x,1/2-y,z
loop_
_atom_site_type_symbol
_atom_site_label
_atom_site_fract_x
_atom_site_fract_y
_atom_site_fract_z
Si Si1 0.348774 0.841800 0.375887
Si Si2 0.276188 0.840478 0.247795
Si Si3 0.840597 0.661182 0.946487
Si Si4 0.503042 0.334588 0.341268
Si Si5 0.305323 0.840903 0.696797
Si Si6 0.928426 0.839505 0.225320
Si Si7 0.421350 0.339403 0.923694
O O1 0.306440 0.797033 0.341117
O O2 0.340680 0.826559 0.544801
O O3 0.385957 0.742689 0.294006
O O4 0.360699 0.000000 0.323004
O O5 0.235218 0.747264 0.299142
O O6 0.261884 0.000000 0.275649
O O7 0.300145 0.813220 0.081776
O O8 0.854254 0.500000 0.932853
O O9 0.827623 0.714864 0.810389
O O10 0.879345 0.749729 0.961557
O O11 0.500000 0.275956 0.500000
O O12 0.501950 0.500000 0.343207
O O13 0.464323 0.278578 0.289170
O O14 0.546121 0.284377 0.224799
O O15 0.290514 0.000000 0.730212
O O16 0.919625 0.000000 0.269122
O O17 0.942296 0.822671 0.052652
O O18 0.409575 0.500000 0.908848
#
# Coordination Sequence:
#
# PCOD8099860 Si02
#       7
#     8   8   8   8   8   8   8
#     4  10  21  37  55  79 112 146 179 222 274 322
#     4  10  20  36  56  77 106 145 185 224 269 322
#     4  10  21  37  55  79 112 146 179 222 274 322
#     4   9  19  35  56  83 114 142 173 220 272 318
#     4  10  22  36  54  79 110 145 181 226 275 318
#     4  10  20  35  57  83 109 142 183 223 264 317
#     4  10  20  35  57  83 109 142 183 223 264 317
#
# _framework density 18.775326
#
# number of rings (size 3 to 8) (size 9 to 14) (size 15 to 20)
#    0.000    2.143    1.429    1.286    2.000    4.000 
#    0.000    0.714    0.000    2.571    0.000    0.000 
#    0.000    0.000    0.000    0.000    0.000    0.000 
#
# Total GULP energy -347252.758233 kJ/mol
# GULP energy per Si atom -12401.884223 kJ/mol
# Density = 1.873259 g / cm^3
# Si number density = 18.775326 Si / 1000 Ang^3
#
#
#
# Elastic Constant Matrix: (Units=GPa)
#
#
# Indices 1 2 3 4 5 6 
#
# 1 75.5782 34.2540 21.0926 0.0000 0.0830 0.0000
# 2 34.2540 46.8990 12.6648 0.0000 -6.7210 0.0000
# 3 21.0926 12.6648 88.2426 0.0000 9.0616 0.0000
# 4 0.0000 0.0000 0.0000 19.3795 0.0000 2.1074
# 5 0.0830 -6.7210 9.0616 0.0000 31.1022 0.0000
# 6 0.0000 0.0000 0.0000 2.1074 0.0000 18.8987
#
#
#
# Elastic Compliance Matrix: (Units=1/GPa)
#
#
# Indices 1 2 3 4 5 6 
#
# 1 0.020624 -0.014729 -0.002560 0.000000 -0.002492 0.000000
# 2 -0.014729 0.033803 -0.002149 0.000000 0.007970 0.000000
# 3 -0.002560 -0.002149 0.012679 0.000000 -0.004152 0.000000
# 4 0.000000 0.000000 0.000000 0.052234 0.000000 -0.005825
# 5 -0.002492 0.007970 -0.004152 0.000000 0.035091 0.000000
# 6 0.000000 0.000000 0.000000 -0.005825 0.000000 0.053563
#
#
# Mechanical properties :
#
#
# Convention : Reuss Voigt Hill
#
# Bulk Modulus (GPa) = 35.42403 38.52695 36.97549
# Shear Modulus (GPa) = 19.50985 23.38997 21.44991
#
# Velocity S-wave (km/s) = 3.22704 3.53339 3.38368
# Velocity P-wave (km/s) = 5.72655 6.10008 5.91626
#
# Compressibility (1/GPa) = 0.02822942
#
# Stress axis : x y z
#
# Youngs Moduli (GPa) = 48.48679 29.58328 78.87011
#
# Poissons Ratio (x) = 0.43574 0.20190
# Poissons Ratio (y) = 0.71418 0.16951
# Poissons Ratio (z) = 0.12412 0.06358
#
# Static dielectric constant tensor:
#      x y z
#    x 3.338120 0.000000 0.211560 
#    y 0.000000 3.239120 0.000000 
#    z 0.211560 0.000000 3.774770 
# 
# 
# High freq. dielectric constant tensor:
#      x y z
#    x 1.726720 0.000000 0.008980 
#    y 0.000000 1.706390 0.000000 
#    z 0.008980 0.000000 1.748180 
# 
# From -- ./inp_files/109852.got.cif
#   From: 2010.06.25/outbox.cif.g09.slc.cpg/sg12_55_cif.got.tgz:109852.got - 2010.06.28 00:19:55.
