data_PCOD8099499
_publ_section_title
;
Structure prediction by ZEFSAII (Michael W. Deem and Ramdas Pophale) SiO2 
 PCOD8099499
Probable space group: C 2/M
;
_chemical_formula_sum "Si O2"
_cell_formula_units_Z 64
_cell_length_a 17.969786
_cell_length_b 12.760025
_cell_length_c 28.781099
_cell_angle_alpha 90.000000
_cell_angle_beta 149.095203
_cell_angle_gamma 90.000000
_cell_volume 3389.517557
_symmetry_space_group_name_H-M "C 2/M"
_symmetry_group_IT_number 12
_symmetry_cell_setting 'monoclinic'
loop_
_space_group_symop_operation_xyz
x,y,z
-x,y,-z
-x,-y,-z
x,-y,z
1/2+x,1/2+y,z
1/2-x,1/2+y,-z
1/2-x,1/2-y,-z
1/2+x,1/2-y,z
loop_
_atom_site_type_symbol
_atom_site_label
_atom_site_fract_x
_atom_site_fract_y
_atom_site_fract_z
Si Si1 0.836738 0.376811 0.918566
Si Si2 0.544880 0.120471 0.772819
Si Si3 0.628882 0.623219 0.212829
Si Si4 0.840792 0.782133 0.093311
Si Si5 0.237827 0.378285 0.436429
Si Si6 0.936321 0.288202 0.575979
Si Si7 0.298947 0.771160 0.223603
Si Si8 0.394284 0.116891 0.407624
O O1 0.829017 0.500000 0.912074
O O2 0.767430 0.340859 0.929973
O O3 0.751437 0.333638 0.828726
O O4 0.000000 0.335053 0.000000
O O5 0.582063 0.185252 0.839171
O O6 0.382374 0.146267 0.667284
O O7 0.659768 0.142298 0.793246
O O8 0.557117 0.000000 0.793730
O O9 0.655167 0.500000 0.218438
O O10 0.465163 0.641410 0.140715
O O11 0.671506 0.683848 0.188310
O O12 0.734537 0.664173 0.311586
O O13 0.750000 0.750000 0.000000
O O14 0.286272 0.500000 0.459924
O O15 0.182929 0.350511 0.458691
O O16 0.373558 0.298178 0.505519
O O17 0.056927 0.232685 0.672651
O O18 0.019523 0.381701 0.594545
O O19 0.500000 0.179591 0.500000
O O20 0.371859 0.000000 0.414772
#
# Coordination Sequence:
#
# PCOD8099499 Si02
#       8
#     8   8   8   8   8   8   8   8
#     4  10  21  38  58  78 108 145 179 220 270 324
#     4   9  19  35  55  76 104 142 181 221 267 322
#     4  10  20  35  56  81 110 141 177 227 276 319
#     4  11  23  37  56  83 111 139 180 226 273 330
#     4   9  17  30  49  74 102 135 177 216 258 309
#     4   9  17  29  50  74 103 137 168 218 263 305
#     4   9  18  35  55  80 105 138 182 224 268 319
#     4   9  18  31  49  75 105 139 174 210 262 321
#
# _framework density 18.881744000000001
#
# number of rings (size 3 to 8) (size 9 to 14) (size 15 to 20)
#    0.000    2.500    0.000    1.875    1.750    4.500 
#    0.000    0.625    0.000    5.250    0.000    0.000 
#    0.000    0.000    0.000    0.000    0.000    0.000 
#
# Total GULP energy -396450.442048 kJ/mol
# GULP energy per Si atom -12389.076314 kJ/mol
# Density = 1.883877 g / cm^3
# Si number density = 18.881744 Si / 1000 Ang^3
#
#
#
# Elastic Constant Matrix: (Units=GPa)
#
#
# Indices 1 2 3 4 5 6 
#
# 1 84.2202 22.3757 46.1489 0.0001 3.0984 0.0000
# 2 22.3757 66.3396 38.1048 0.0001 -4.4353 0.0000
# 3 46.1489 38.1048 117.9254 0.0007 -10.6016 0.0001
# 4 0.0001 0.0001 0.0007 26.6309 0.0000 0.9132
# 5 3.0984 -4.4353 -10.6016 0.0000 34.0404 0.0000
# 6 0.0000 0.0000 0.0001 0.9132 0.0000 21.0697
#
#
#
# Elastic Compliance Matrix: (Units=1/GPa)
#
#
# Indices 1 2 3 4 5 6 
#
# 1 0.015753 -0.002242 -0.005757 0.000000 -0.003519 0.000000
# 2 -0.002242 0.018839 -0.005114 0.000000 0.001066 0.000000
# 3 -0.005757 -0.005114 0.012729 0.000000 0.003822 0.000000
# 4 0.000000 0.000000 0.000000 0.037606 0.000000 -0.001630
# 5 -0.003519 0.001066 0.003822 0.000000 0.031026 0.000000
# 6 0.000000 0.000000 0.000000 -0.001630 0.000000 0.047532
#
#
# Mechanical properties :
#
#
# Convention : Reuss Voigt Hill
#
# Bulk Modulus (GPa) = 47.40417 53.52713 50.46565
# Shear Modulus (GPa) = 25.41382 27.13859 26.27620
#
# Velocity S-wave (km/s) = 3.67269 3.79528 3.73449
# Velocity P-wave (km/s) = 6.56850 6.90041 6.73650
#
# Compressibility (1/GPa) = 0.02109519
#
# Stress axis : x y z
#
# Youngs Moduli (GPa) = 63.47918 53.08156 78.56149
#
# Poissons Ratio (x) = 0.11901 0.45226
# Poissons Ratio (y) = 0.14232 0.40177
# Poissons Ratio (z) = 0.36543 0.27147
#
# Static dielectric constant tensor:
#      x y z
#    x 3.395980 0.000000 0.007860 
#    y 0.000000 3.273700 0.000000 
#    z 0.007860 0.000000 3.811050 
# 
# 
# High freq. dielectric constant tensor:
#      x y z
#    x 1.725450 0.000000 -0.001970 
#    y 0.000000 1.715470 0.000000 
#    z -0.001970 0.000000 1.746310 
# 
# From -- ./inp_files/379124.got.cif
#   From: 2010.06.25/outbox.cif.g09.slc.cpg/sg12_190_cif.got.tgz:379124.got - 2010.06.28 00:19:55.
