data_PCOD8099120
_publ_section_title
;
Structure prediction by ZEFSAII (Michael W. Deem and Ramdas Pophale) SiO2 
 PCOD8099120
Probable space group: C 2/M
;
_chemical_formula_sum "Si O2"
_cell_formula_units_Z 48
_cell_length_a 13.429798
_cell_length_b 10.582950
_cell_length_c 20.184681
_cell_angle_alpha 90.000000
_cell_angle_beta 119.644280
_cell_angle_gamma 90.000000
_cell_volume 2493.298805
_symmetry_space_group_name_H-M "C 2/M"
_symmetry_group_IT_number 12
_symmetry_cell_setting 'monoclinic'
loop_
_space_group_symop_operation_xyz
x,y,z
-x,y,-z
-x,-y,-z
x,-y,z
1/2+x,1/2+y,z
1/2-x,1/2+y,-z
1/2-x,1/2-y,-z
1/2+x,1/2-y,z
loop_
_atom_site_type_symbol
_atom_site_label
_atom_site_fract_x
_atom_site_fract_y
_atom_site_fract_z
Si Si1 0.235350 0.710484 0.812549
Si Si2 0.489379 0.356493 0.289907
Si Si3 0.417105 0.644311 0.411912
Si Si4 0.305089 0.137314 0.059266
Si Si5 0.542279 0.143108 0.083126
Si Si6 0.262904 0.357395 0.675939
O O1 0.239892 0.627917 0.880457
O O2 0.344552 0.800529 0.847911
O O3 0.243360 0.629454 0.748343
O O4 0.116154 0.784301 0.777246
O O5 0.471410 0.500000 0.263082
O O6 0.491008 0.338702 0.369708
O O7 0.609865 0.309207 0.300009
O O8 0.500000 0.670903 0.500000
O O9 0.366698 0.500000 0.398554
O O10 0.318265 0.750180 0.382310
O O11 0.441877 0.157223 0.104143
O O12 0.275707 0.000000 0.016881
O O13 0.250000 0.250000 0.000000
O O14 0.574185 0.000000 0.077206
O O15 0.500000 0.207974 0.000000
O O16 0.240483 0.500000 0.639599
#
# Coordination Sequence:
#
# PCOD8099120 Si02
#       6
#     8   8   8   8   8   8
#     4  11  20  36  57  79 108 145 187 235 278 329
#     4   9  19  35  57  83 113 151 185 221 276 331
#     4   9  19  37  60  87 117 149 188 226 263 319
#     4  11  23  38  55  78 106 138 179 230 285 335
#     4  10  20  35  55  79 106 139 183 231 282 340
#     4  10  21  37  56  83 117 148 184 226 276 331
#
# _framework density 19.251602999999999
#
# number of rings (size 3 to 8) (size 9 to 14) (size 15 to 20)
#    0.000    2.000    1.667    2.000    0.000    2.333 
#    0.000    6.667    0.000    0.000    0.000    0.000 
#    0.000    0.000    0.000    0.000    0.000    0.000 
#
# Total GULP energy -297445.835558 kJ/mol
# GULP energy per Si atom -12393.576482 kJ/mol
# Density = 1.920779 g / cm^3
# Si number density = 19.251603 Si / 1000 Ang^3
#
#
#
# Elastic Constant Matrix: (Units=GPa)
#
#
# Indices 1 2 3 4 5 6 
#
# 1 111.8882 53.3949 33.4942 0.0000 20.2525 0.0000
# 2 53.3949 119.3508 55.4362 0.0000 23.3197 0.0000
# 3 33.4942 55.4362 90.4142 0.0000 10.1841 0.0000
# 4 0.0000 0.0000 0.0000 16.6730 0.0000 6.7148
# 5 20.2525 23.3197 10.1841 0.0000 28.9544 0.0000
# 6 0.0000 0.0000 0.0000 6.7148 0.0000 26.2314
#
#
#
# Elastic Compliance Matrix: (Units=1/GPa)
#
#
# Indices 1 2 3 4 5 6 
#
# 1 0.012076 -0.003667 -0.001673 0.000000 -0.004905 0.000000
# 2 -0.003667 0.014469 -0.006757 0.000000 -0.006712 0.000000
# 3 -0.001673 -0.006757 0.015700 0.000000 0.001090 0.000000
# 4 0.000000 0.000000 0.000000 0.066871 0.000000 -0.017118
# 5 -0.004905 -0.006712 0.001090 0.000000 0.042990 0.000000
# 6 0.000000 0.000000 0.000000 -0.017118 0.000000 0.042504
#
#
# Mechanical properties :
#
#
# Convention : Reuss Voigt Hill
#
# Bulk Modulus (GPa) = 55.39723 67.36709 61.38216
# Shear Modulus (GPa) = 22.23981 26.32695 24.28338
#
# Velocity S-wave (km/s) = 3.40254 3.70201 3.55543
# Velocity P-wave (km/s) = 6.65389 7.30357 6.98628
#
# Compressibility (1/GPa) = 0.01805144
#
# Stress axis : x y z
#
# Youngs Moduli (GPa) = 82.80803 69.11208 63.69407
#
# Poissons Ratio (x) = 0.25346 0.10653
# Poissons Ratio (y) = 0.30369 0.43038
# Poissons Ratio (z) = 0.13850 0.46699
#
# Static dielectric constant tensor:
#      x y z
#    x 3.724320 0.000000 -0.065270 
#    y 0.000000 5.438530 0.000000 
#    z -0.065270 0.000000 3.390920 
# 
# 
# High freq. dielectric constant tensor:
#      x y z
#    x 1.762150 0.000000 -0.004140 
#    y 0.000000 1.745850 0.000000 
#    z -0.004140 0.000000 1.733580 
# 
# From -- ./inp_files/261642.got.cif
#   From: 2010.06.25/outbox.cif.g09.slc.cpg/sg12_131_cif.got.tgz:261642.got - 2010.06.28 00:19:55.
