data_PCOD8099959
_publ_section_title
;
Structure prediction by ZEFSAII (Michael W. Deem and Ramdas Pophale) SiO2 
 PCOD8099959
Probable space group: C 2/M
;
_chemical_formula_sum "Si O2"
_cell_formula_units_Z 56
_cell_length_a 9.719909
_cell_length_b 17.674671
_cell_length_c 17.229694
_cell_angle_alpha 90.000000
_cell_angle_beta 106.639535
_cell_angle_gamma 90.000000
_cell_volume 2836.046664
_symmetry_space_group_name_H-M "C 2/M"
_symmetry_group_IT_number 12
_symmetry_cell_setting 'monoclinic'
loop_
_space_group_symop_operation_xyz
x,y,z
-x,y,-z
-x,-y,-z
x,-y,z
1/2+x,1/2+y,z
1/2-x,1/2+y,-z
1/2-x,1/2-y,-z
1/2+x,1/2-y,z
loop_
_atom_site_type_symbol
_atom_site_label
_atom_site_fract_x
_atom_site_fract_y
_atom_site_fract_z
Si Si1 0.730614 0.087643 0.168070
Si Si2 0.892046 0.590099 0.547698
Si Si3 0.510976 0.089307 0.268739
Si Si4 0.158042 0.277230 0.055907
Si Si5 0.261394 0.801696 0.223558
Si Si6 0.594108 0.583440 0.440921
Si Si7 0.517781 0.331708 0.720797
O O1 0.624832 0.113475 0.221044
O O2 0.691969 0.136374 0.085820
O O3 0.895809 0.103445 0.218236
O O4 0.711150 0.000000 0.144005
O O5 0.887768 0.500000 0.551707
O O6 0.740365 0.621889 0.494142
O O7 0.000000 0.620012 0.500000
O O8 0.932805 0.621584 0.639444
O O9 0.352447 0.121733 0.225523
O O10 0.494020 0.000000 0.268534
O O11 0.185239 0.221148 0.131639
O O12 0.250000 0.250000 0.000000
O O13 0.000000 0.270476 0.000000
O O14 0.378351 0.740236 0.269588
O O15 0.134520 0.812572 0.264791
O O16 0.500000 0.570600 0.500000
O O17 0.621266 0.500000 0.406813
O O18 0.514050 0.638795 0.369787
#
# Coordination Sequence:
#
# PCOD8099959 Si02
#       7
#     8   8   8   8   8   8   8
#     4  10  21  38  62  90 117 151 195 240 289 347
#     4   9  17  30  50  79 114 151 190 233 283 332
#     4  10  20  37  61  88 120 156 198 245 288 339
#     4  11  22  40  63  86 115 151 188 232 293 356
#     4  11  23  40  60  86 117 155 198 237 289 356
#     4  10  20  35  57  84 113 150 197 246 295 342
#     4  11  22  38  59  83 119 159 200 243 287 343
#
# _framework density 19.745798000000001
#
# number of rings (size 3 to 8) (size 9 to 14) (size 15 to 20)
#    0.000    1.714    0.000    6.429    0.000    4.857 
#    0.000    4.286    0.000    1.714    0.000    0.000 
#    0.000    0.000    0.000    0.000    0.000    0.000 
#
# Total GULP energy -347163.231068 kJ/mol
# GULP energy per Si atom -12398.686824 kJ/mol
# Density = 1.970086 g / cm^3
# Si number density = 19.745798 Si / 1000 Ang^3
#
#
#
# Elastic Constant Matrix: (Units=GPa)
#
#
# Indices 1 2 3 4 5 6 
#
# 1 146.8443 52.4681 51.3185 0.0000 9.8656 0.0000
# 2 52.4681 67.8030 58.3333 0.0000 -1.7984 0.0000
# 3 51.3185 58.3333 133.6033 0.0000 10.4411 0.0000
# 4 0.0000 0.0000 0.0000 36.6179 0.0000 -0.9306
# 5 9.8656 -1.7984 10.4411 0.0000 43.2442 0.0000
# 6 0.0000 0.0000 0.0000 -0.9306 0.0000 30.7667
#
#
#
# Elastic Compliance Matrix: (Units=1/GPa)
#
#
# Indices 1 2 3 4 5 6 
#
# 1 0.009691 -0.007245 -0.000370 0.000000 -0.002423 0.000000
# 2 -0.007245 0.029582 -0.010558 0.000000 0.005432 0.000000
# 3 -0.000370 -0.010558 0.012500 0.000000 -0.003373 0.000000
# 4 0.000000 0.000000 0.000000 0.027330 0.000000 0.000827
# 5 -0.002423 0.005432 -0.003373 0.000000 0.024718 0.000000
# 6 0.000000 0.000000 0.000000 0.000827 0.000000 0.032528
#
#
# Mechanical properties :
#
#
# Convention : Reuss Voigt Hill
#
# Bulk Modulus (GPa) = 64.81668 74.72114 69.76891
# Shear Modulus (GPa) = 28.11577 34.53446 31.32512
#
# Velocity S-wave (km/s) = 3.77754 4.18659 3.98731
# Velocity P-wave (km/s) = 7.20577 7.82903 7.52386
#
# Compressibility (1/GPa) = 0.01542813
#
# Stress axis : x y z
#
# Youngs Moduli (GPa) = 103.19265 33.80377 79.99967
#
# Poissons Ratio (x) = 0.24492 0.02956
# Poissons Ratio (y) = 0.74766 0.84462
# Poissons Ratio (z) = 0.03813 0.35689
#
# Static dielectric constant tensor:
#      x y z
#    x 7.294360 0.000000 -4.109710 
#    y 0.000000 3.612810 0.000000 
#    z -4.109710 0.000000 8.659370 
# 
# 
# High freq. dielectric constant tensor:
#      x y z
#    x 1.784990 0.000000 0.007590 
#    y 0.000000 1.757630 0.000000 
#    z 0.007590 0.000000 1.770750 
# 
# From -- ./inp_files/257201.got.cif
#   From: 2010.06.25/outbox.cif.g09.slc.cpg/sg12_129_cif.got.tgz:257201.got - 2010.06.28 00:19:55.
