data_PCOD8099291
_publ_section_title
;
Structure prediction by ZEFSAII (Michael W. Deem and Ramdas Pophale) SiO2 
 PCOD8099291
Probable space group: C 2/M
;
_chemical_formula_sum "Si O2"
_cell_formula_units_Z 40
_cell_length_a 15.492880
_cell_length_b 8.573063
_cell_length_c 31.045656
_cell_angle_alpha 90.000000
_cell_angle_beta 28.765472
_cell_angle_gamma 90.000000
_cell_volume 1984.347124
_symmetry_space_group_name_H-M "C 2/M"
_symmetry_group_IT_number 12
_symmetry_cell_setting 'monoclinic'
loop_
_space_group_symop_operation_xyz
x,y,z
-x,y,-z
-x,-y,-z
x,-y,z
1/2+x,1/2+y,z
1/2-x,1/2+y,-z
1/2-x,1/2-y,-z
1/2+x,1/2-y,z
loop_
_atom_site_type_symbol
_atom_site_label
_atom_site_fract_x
_atom_site_fract_y
_atom_site_fract_z
Si Si1 0.377205 0.824394 0.409893
Si Si2 0.709759 0.185235 0.217949
Si Si3 0.788774 0.322425 0.595497
Si Si4 0.502098 0.814710 0.773848
Si Si5 0.423997 0.314288 0.900926
O O1 0.250000 0.750000 0.500000
O O2 0.576246 0.752179 0.314707
O O3 0.281896 0.808163 0.405935
O O4 0.397373 0.000000 0.416185
O O5 0.640948 0.240095 0.200721
O O6 0.908267 0.244000 0.143049
O O7 0.700842 0.000000 0.222334
O O8 0.731140 0.500000 0.609441
O O9 0.695850 0.270489 0.681193
O O10 0.000000 0.309182 0.500000
O O11 0.428457 0.757815 0.851574
O O12 0.526856 0.000000 0.763580
O O13 0.419505 0.500000 0.899684
O O14 0.250000 0.250000 0.000000
#
# Coordination Sequence:
#
# PCOD8099291 Si02
#       5
#     8   8   8   8   8
#     4  10  20  35  55  83 115 154 197 241 290 349
#     4   8  19  39  60  80 116 159 193 233 297 360
#     4  10  21  36  55  82 117 158 196 236 292 354
#     4  10  21  40  62  87 117 154 198 247 296 354
#     4  11  23  41  63  89 117 154 198 246 300 360
#
# _framework density 20.157764
#
# number of rings (size 3 to 8) (size 9 to 14) (size 15 to 20)
#    0.000    2.200    0.000    3.600    2.800    2.400 
#    0.000   15.000    0.000    0.000    0.000    0.000 
#    0.000    0.000    0.000    0.000    0.000    0.000 
#
# Total GULP energy -247763.800457 kJ/mol
# GULP energy per Si atom -12388.190023 kJ/mol
# Density = 2.011188 g / cm^3
# Si number density = 20.157764 Si / 1000 Ang^3
#
#
#
# Elastic Constant Matrix: (Units=GPa)
#
#
# Indices 1 2 3 4 5 6 
#
# 1 100.8277 29.3085 85.5359 0.0006 -0.1738 0.0007
# 2 29.3085 63.3891 49.7439 -0.0208 -5.7146 -0.0266
# 3 85.5359 49.7439 205.0330 -0.0009 3.2746 -0.0006
# 4 0.0006 -0.0208 -0.0009 31.5801 -0.0055 5.3485
# 5 -0.1738 -5.7146 3.2746 -0.0055 36.8139 0.0002
# 6 0.0007 -0.0266 -0.0006 5.3485 0.0002 29.5017
#
#
#
# Elastic Compliance Matrix: (Units=1/GPa)
#
#
# Indices 1 2 3 4 5 6 
#
# 1 0.015696 -0.002592 -0.005922 -0.000002 0.000199 -0.000003
# 2 -0.002592 0.020361 -0.003915 0.000011 0.003497 0.000016
# 3 -0.005922 -0.003915 0.008320 -0.000002 -0.001376 -0.000003
# 4 -0.000002 0.000011 -0.000002 0.032669 0.000007 -0.005923
# 5 0.000199 0.003497 -0.001376 0.000007 0.027830 0.000002
# 6 -0.000003 0.000016 -0.000003 -0.005923 0.000002 0.034970
#
#
# Mechanical properties :
#
#
# Convention : Reuss Voigt Hill
#
# Bulk Modulus (GPa) = 51.23134 77.60292 64.41713
# Shear Modulus (GPa) = 29.20420 33.22326 31.21373
#
# Velocity S-wave (km/s) = 3.81042 4.06416 3.93933
# Velocity P-wave (km/s) = 6.69548 7.78489 7.26065
#
# Compressibility (1/GPa) = 0.01951930
#
# Stress axis : x y z
#
# Youngs Moduli (GPa) = 63.71150 49.11359 120.19727
#
# Poissons Ratio (x) = 0.12728 0.71185
# Poissons Ratio (y) = 0.16512 0.47051
# Poissons Ratio (z) = 0.37732 0.19226
#
# Static dielectric constant tensor:
#      x y z
#    x 3.222220 -0.000150 -1.258100 
#    y -0.000150 3.661760 -0.000020 
#    z -1.258100 -0.000020 1.943450 
# 
# 
# High freq. dielectric constant tensor:
#      x y z
#    x 1.776890 0.000000 0.003640 
#    y 0.000000 1.777910 0.000000 
#    z 0.003640 0.000000 1.803580 
# 
# From -- ./inp_files/211446.got.cif
#   From: 2010.06.25/outbox.cif.g09.slc.cpg/sg12_106_cif.got.tgz:211446.got - 2010.06.28 00:19:55.
