data_PCOD8099020
_publ_section_title
;
Structure prediction by ZEFSAII (Michael W. Deem and Ramdas Pophale) SiO2 
 PCOD8099020
Probable space group: C 2/M
;
_chemical_formula_sum "Si O2"
_cell_formula_units_Z 56
_cell_length_a 12.958292
_cell_length_b 23.137478
_cell_length_c 12.011691
_cell_angle_alpha 90.000000
_cell_angle_beta 119.903774
_cell_angle_gamma 90.000000
_cell_volume 3121.899052
_symmetry_space_group_name_H-M "C 2/M"
_symmetry_group_IT_number 12
_symmetry_cell_setting 'monoclinic'
loop_
_space_group_symop_operation_xyz
x,y,z
-x,y,-z
-x,-y,-z
x,-y,z
1/2+x,1/2+y,z
1/2-x,1/2+y,-z
1/2-x,1/2-y,-z
1/2+x,1/2-y,z
loop_
_atom_site_type_symbol
_atom_site_label
_atom_site_fract_x
_atom_site_fract_y
_atom_site_fract_z
Si Si1 0.373502 0.066350 0.149383
Si Si2 0.274111 0.433372 0.141132
Si Si3 0.540687 0.356185 0.641929
Si Si4 0.864587 0.566317 0.400360
Si Si5 0.748412 0.716798 0.667646
Si Si6 0.287273 0.667129 0.588245
Si Si7 0.074431 0.368485 0.146843
O O1 0.331250 0.073831 0.252860
O O2 0.489023 0.106865 0.197004
O O3 0.410217 0.000000 0.144022
O O4 0.267668 0.084307 0.006804
O O5 0.304871 0.500000 0.164032
O O6 0.393241 0.401387 0.243371
O O7 0.170343 0.418436 0.172741
O O8 0.500000 0.383099 0.500000
O O9 0.625047 0.301051 0.661098
O O10 0.429394 0.336770 0.655856
O O11 0.845618 0.500000 0.428193
O O12 0.772367 0.605594 0.418415
O O13 0.000000 0.585254 0.500000
O O14 0.763989 0.688989 0.555160
O O15 0.753939 0.786379 0.666210
O O16 0.862440 0.691931 0.792407
O O17 0.000000 0.352798 0.000000
#
# Coordination Sequence:
#
# PCOD8099020 Si02
#       7
#     8   8   8   8   8   8   8
#     4   9  17  30  49  74 103 135 170 205 247 299
#     4   9  17  30  49  73 103 137 167 202 251 299
#     4   9  19  34  50  74 100 125 167 211 244 292
#     4  10  21  35  52  76 102 129 167 210 246 287
#     4   9  19  34  52  75  99 128 167 206 247 297
#     4  10  20  35  55  73  99 135 165 200 249 299
#     4   9  16  29  50  75 102 129 164 211 254 292
#
# _framework density 17.937799999999999
#
# number of rings (size 3 to 8) (size 9 to 14) (size 15 to 20)
#    0.000    2.714    0.000    1.286    0.000    6.571 
#    0.000    9.286    0.000    7.714    0.000    0.000 
#    0.000    0.000    0.000    0.000    0.000    0.000 
#
# Total GULP energy -347109.512327 kJ/mol
# GULP energy per Si atom -12396.768297 kJ/mol
# Density = 1.789697 g / cm^3
# Si number density = 17.937800 Si / 1000 Ang^3
#
#
#
# Elastic Constant Matrix: (Units=GPa)
#
#
# Indices 1 2 3 4 5 6 
#
# 1 103.1124 57.5866 33.1741 0.0000 10.6775 0.0000
# 2 57.5866 93.4912 33.4465 0.0000 5.7958 0.0000
# 3 33.1741 33.4465 69.2085 0.0000 15.7023 0.0000
# 4 0.0000 0.0000 0.0000 22.2589 0.0000 -3.2213
# 5 10.6775 5.7958 15.7023 0.0000 25.3723 0.0000
# 6 0.0000 0.0000 0.0000 -3.2213 0.0000 22.2022
#
#
#
# Elastic Compliance Matrix: (Units=1/GPa)
#
#
# Indices 1 2 3 4 5 6 
#
# 1 0.015600 -0.008452 -0.002724 0.000000 -0.002948 0.000000
# 2 -0.008452 0.017535 -0.005027 0.000000 0.002662 0.000000
# 3 -0.002724 -0.005027 0.020549 0.000000 -0.010423 0.000000
# 4 0.000000 0.000000 0.000000 0.045889 0.000000 0.006658
# 5 -0.002948 0.002662 -0.010423 0.000000 0.046496 0.000000
# 6 0.000000 0.000000 0.000000 0.006658 0.000000 0.046007
#
#
# Mechanical properties :
#
#
# Convention : Reuss Voigt Hill
#
# Bulk Modulus (GPa) = 46.99606 57.13628 52.06617
# Shear Modulus (GPa) = 21.59122 23.40702 22.49912
#
# Velocity S-wave (km/s) = 3.47316 3.61626 3.54543
# Velocity P-wave (km/s) = 6.50693 7.02553 6.77119
#
# Compressibility (1/GPa) = 0.02127838
#
# Stress axis : x y z
#
# Youngs Moduli (GPa) = 64.10260 57.02737 48.66365
#
# Poissons Ratio (x) = 0.48197 0.13258
# Poissons Ratio (y) = 0.54176 0.24465
# Poissons Ratio (z) = 0.17464 0.28669
#
# Static dielectric constant tensor:
#      x y z
#    x 3.187480 0.000000 0.111810 
#    y 0.000000 3.224700 0.000000 
#    z 0.111810 0.000000 3.490160 
# 
# 
# High freq. dielectric constant tensor:
#      x y z
#    x 1.682270 0.000000 0.008520 
#    y 0.000000 1.681490 0.000000 
#    z 0.008520 0.000000 1.698810 
# 
# From -- ./inp_files/133976.got.cif
#   From: 2010.06.25/outbox.cif.g09.slc.cpg/sg12_67_cif.got.tgz:133976.got - 2010.06.28 00:19:55.
