data_PCOD8099728
_publ_section_title
;
Structure prediction by ZEFSAII (Michael W. Deem and Ramdas Pophale) SiO2 
 PCOD8099728
Probable space group: C 2/M
;
_chemical_formula_sum "Si O2"
_cell_formula_units_Z 56
_cell_length_a 28.277006
_cell_length_b 8.758918
_cell_length_c 19.770565
_cell_angle_alpha 90.000000
_cell_angle_beta 142.943346
_cell_angle_gamma 90.000000
_cell_volume 2950.769441
_symmetry_space_group_name_H-M "C 2/M"
_symmetry_group_IT_number 12
_symmetry_cell_setting 'monoclinic'
loop_
_space_group_symop_operation_xyz
x,y,z
-x,y,-z
-x,-y,-z
x,-y,z
1/2+x,1/2+y,z
1/2-x,1/2+y,-z
1/2-x,1/2-y,-z
1/2+x,1/2-y,z
loop_
_atom_site_type_symbol
_atom_site_label
_atom_site_fract_x
_atom_site_fract_y
_atom_site_fract_z
Si Si1 0.629474 0.678902 0.079293
Si Si2 0.309986 0.178121 0.429092
Si Si3 0.306003 0.824096 0.268593
Si Si4 0.497541 0.177031 0.159676
Si Si5 0.952851 0.179899 0.382337
Si Si6 0.646163 0.176791 0.238968
Si Si7 0.038400 0.819514 0.345283
O O1 0.624506 0.500000 0.090037
O O2 0.716149 0.721198 0.150965
O O3 0.611162 0.767947 0.127541
O O4 0.568015 0.724819 0.952610
O O5 0.325873 0.215646 0.368864
O O6 0.222274 0.228390 0.348312
O O7 0.370751 0.272930 0.543613
O O8 0.319364 0.000000 0.455900
O O9 0.361943 0.728294 0.283000
O O10 0.321306 0.000000 0.270683
O O11 0.581585 0.206922 0.222119
O O12 0.499612 0.233104 0.238592
O O13 0.474134 0.000000 0.129548
O O14 0.000000 0.250959 0.500000
O O15 0.990690 0.240012 0.356205
O O16 0.958910 0.000000 0.391106
O O17 0.668853 0.000000 0.258872
O O18 0.032050 0.000000 0.327370
#
# Coordination Sequence:
#
# PCOD8099728 Si02
#       7
#     8   8   8   8   8   8   8
#     4  10  21  38  60  87 115 146 189 234 278 331
#     4  10  20  35  56  85 116 147 187 232 280 335
#     4   9  19  34  56  86 114 143 181 229 279 327
#     4  11  24  40  57  81 113 152 193 233 279 333
#     4  10  20  35  57  86 114 143 184 229 277 334
#     4  10  21  37  59  85 113 147 190 235 280 330
#     4  11  23  38  57  82 115 152 187 230 285 339
#
# _framework density 18.978100999999999
#
# number of rings (size 3 to 8) (size 9 to 14) (size 15 to 20)
#    0.000    1.857    1.429    3.429    0.000    8.857 
#    0.000    0.714    0.000    0.000    0.000    0.000 
#    0.000    0.000    0.000    0.000    0.000    0.000 
#
# Total GULP energy -347327.701847 kJ/mol
# GULP energy per Si atom -12404.560780 kJ/mol
# Density = 1.893491 g / cm^3
# Si number density = 18.978101 Si / 1000 Ang^3
#
#
#
# Elastic Constant Matrix: (Units=GPa)
#
#
# Indices 1 2 3 4 5 6 
#
# 1 99.7487 38.0835 26.4008 0.0000 -5.8915 0.0000
# 2 38.0835 38.0924 20.0366 0.0000 5.3333 0.0000
# 3 26.4008 20.0366 32.2358 0.0000 -9.9466 0.0000
# 4 0.0000 0.0000 0.0000 36.2649 0.0000 2.9876
# 5 -5.8915 5.3333 -9.9466 0.0000 22.1435 0.0000
# 6 0.0000 0.0000 0.0000 2.9876 0.0000 28.6869
#
#
#
# Elastic Compliance Matrix: (Units=1/GPa)
#
#
# Indices 1 2 3 4 5 6 
#
# 1 0.017928 -0.019488 0.000407 0.000000 0.009646 0.000000
# 2 -0.019488 0.074700 -0.043675 0.000000 -0.042795 0.000000
# 3 0.000407 -0.043675 0.070947 0.000000 0.042496 0.000000
# 4 0.000000 0.000000 0.000000 0.027814 0.000000 -0.002897
# 5 0.009646 -0.042795 0.042496 0.000000 0.077122 0.000000
# 6 0.000000 0.000000 0.000000 -0.002897 0.000000 0.035161
#
#
# Mechanical properties :
#
#
# Convention : Reuss Voigt Hill
#
# Bulk Modulus (GPa) = 26.27226 37.67986 31.97606
# Shear Modulus (GPa) = 11.31552 23.12281 17.21916
#
# Velocity S-wave (km/s) = 2.44445 3.49434 3.01544
# Velocity P-wave (km/s) = 4.67340 6.01482 5.38603
#
# Compressibility (1/GPa) = 0.03806296
#
# Stress axis : x y z
#
# Youngs Moduli (GPa) = 55.77966 13.38686 14.09499
#
# Poissons Ratio (x) = 0.26088 -0.00574
# Poissons Ratio (y) = 1.08704 0.61560
# Poissons Ratio (z) = -0.02270 0.58467
#
# Static dielectric constant tensor:
#      x y z
#    x 3.487440 0.000000 0.063560 
#    y 0.000000 3.453750 0.000000 
#    z 0.063560 0.000000 3.408480 
# 
# 
# High freq. dielectric constant tensor:
#      x y z
#    x 1.734240 0.000000 0.011010 
#    y 0.000000 1.744160 0.000000 
#    z 0.011010 0.000000 1.732550 
# 
# From -- ./inp_files/288402.got.cif
#   From: 2010.06.25/outbox.cif.g09.slc.cpg/sg12_145_cif.got.tgz:288402.got - 2010.06.28 00:19:55.
