data_PCOD8099920
_publ_section_title
;
Structure prediction by ZEFSAII (Michael W. Deem and Ramdas Pophale) SiO2 
 PCOD8099920
Probable space group: C 2/M
;
_chemical_formula_sum "Si O2"
_cell_formula_units_Z 64
_cell_length_a 16.080816
_cell_length_b 8.871973
_cell_length_c 27.094414
_cell_angle_alpha 90.000000
_cell_angle_beta 126.197142
_cell_angle_gamma 90.000000
_cell_volume 3119.436049
_symmetry_space_group_name_H-M "C 2/M"
_symmetry_group_IT_number 12
_symmetry_cell_setting 'monoclinic'
loop_
_space_group_symop_operation_xyz
x,y,z
-x,y,-z
-x,-y,-z
x,-y,z
1/2+x,1/2+y,z
1/2-x,1/2+y,-z
1/2-x,1/2-y,-z
1/2+x,1/2-y,z
loop_
_atom_site_type_symbol
_atom_site_label
_atom_site_fract_x
_atom_site_fract_y
_atom_site_fract_z
Si Si1 0.571666 0.820863 0.069093
Si Si2 0.830547 0.823835 0.743627
Si Si3 0.908358 0.178875 0.500782
Si Si4 0.285898 0.177022 0.628742
Si Si5 0.548554 0.325572 0.374770
Si Si6 0.168111 0.830010 0.746496
Si Si7 0.983451 0.678659 0.143034
Si Si8 0.304631 0.673770 0.134390
O O1 0.522961 0.761601 0.103555
O O2 0.688034 0.762525 0.099891
O O3 0.573128 0.000000 0.071256
O O4 0.500000 0.759520 0.000000
O O5 0.770855 0.759696 0.675258
O O6 0.758278 0.786430 0.764867
O O7 0.941052 0.745025 0.788724
O O8 0.848948 0.000000 0.744665
O O9 0.800886 0.234105 0.440052
O O10 0.921437 0.238397 0.560968
O O11 0.000000 0.247407 0.500000
O O12 0.916032 0.000000 0.504064
O O13 0.395762 0.221776 0.645502
O O14 0.277515 0.000000 0.635003
O O15 0.581297 0.500000 0.379542
O O16 0.427745 0.304944 0.323306
O O17 0.137297 0.805294 0.792732
O O18 0.212136 0.000000 0.755541
O O19 0.983993 0.500000 0.145737
O O20 0.867640 0.735934 0.114478
O O21 0.301951 0.500000 0.116922
#
# Coordination Sequence:
#
# PCOD8099920 Si02
#       8
#     8   8   8   8   8   8   8   8
#     4   9  19  38  63  90 126 170 208 244 294 359
#     4  12  24  38  59  86 117 152 196 249 305 357
#     4   9  18  34  55  79 107 147 193 238 291 354
#     4  11  22  36  56  81 113 151 195 242 294 355
#     4  10  20  35  57  83 115 151 192 240 295 356
#     4  10  20  37  60  85 114 154 197 242 298 359
#     4  11  22  39  63  92 124 161 206 251 302 360
#     4  10  20  37  61  91 127 166 207 248 300 358
#
# _framework density 20.516528999999998
#
# number of rings (size 3 to 8) (size 9 to 14) (size 15 to 20)
#    0.000    1.750    1.250    3.750    0.000    4.500 
#    0.000    0.625    0.000    5.250    0.000    0.000 
#    0.000    0.000    0.000    0.000    0.000    0.000 
#
# Total GULP energy -396857.517648 kJ/mol
# GULP energy per Si atom -12401.797427 kJ/mol
# Density = 2.046983 g / cm^3
# Si number density = 20.516529 Si / 1000 Ang^3
#
#
#
# Elastic Constant Matrix: (Units=GPa)
#
#
# Indices 1 2 3 4 5 6 
#
# 1 137.2338 42.9812 44.7702 0.0000 5.9499 0.0000
# 2 42.9812 68.6694 32.4557 0.0000 2.7621 0.0000
# 3 44.7702 32.4557 121.9247 0.0000 0.2548 0.0000
# 4 0.0000 0.0000 0.0000 16.0930 0.0000 1.4086
# 5 5.9499 2.7621 0.2548 0.0000 26.3826 0.0000
# 6 0.0000 0.0000 0.0000 1.4086 0.0000 34.3053
#
#
#
# Elastic Compliance Matrix: (Units=1/GPa)
#
#
# Indices 1 2 3 4 5 6 
#
# 1 0.009619 -0.004904 -0.002223 0.000000 -0.001634 0.000000
# 2 -0.004904 0.019235 -0.003318 0.000000 -0.000876 0.000000
# 3 -0.002223 -0.003318 0.009900 0.000000 0.000753 0.000000
# 4 0.000000 0.000000 0.000000 0.062363 0.000000 -0.002561
# 5 -0.001634 -0.000876 0.000753 0.000000 0.038357 0.000000
# 6 0.000000 0.000000 0.000000 -0.002561 0.000000 0.029255
#
#
# Mechanical properties :
#
#
# Convention : Reuss Voigt Hill
#
# Bulk Modulus (GPa) = 55.97864 63.13800 59.55832
# Shear Modulus (GPa) = 25.56578 29.19754 27.38166
#
# Velocity S-wave (km/s) = 3.53385 3.77652 3.65720
# Velocity P-wave (km/s) = 6.63285 7.06096 6.85025
#
# Compressibility (1/GPa) = 0.01786396
#
# Stress axis : x y z
#
# Youngs Moduli (GPa) = 103.96167 51.98735 101.01305
#
# Poissons Ratio (x) = 0.25495 0.22457
# Poissons Ratio (y) = 0.50984 0.33514
# Poissons Ratio (z) = 0.23112 0.17248
#
# Static dielectric constant tensor:
#      x y z
#    x 3.752980 0.000000 -0.044920 
#    y 0.000000 3.333250 0.000000 
#    z -0.044920 0.000000 3.872120 
# 
# 
# High freq. dielectric constant tensor:
#      x y z
#    x 1.810600 0.000000 -0.000550 
#    y 0.000000 1.765980 0.000000 
#    z -0.000550 0.000000 1.808090 
# 
# From -- ./inp_files/375535.got.cif
#   From: 2010.06.25/outbox.cif.g09.slc.cpg/sg12_188_cif.got.tgz:375535.got - 2010.06.28 00:19:55.
