data_PCOD8099702
_publ_section_title
;
Structure prediction by ZEFSAII (Michael W. Deem and Ramdas Pophale) SiO2 
 PCOD8099702
Probable space group: C 2/M
;
_chemical_formula_sum "Si O2"
_cell_formula_units_Z 64
_cell_length_a 30.248734
_cell_length_b 8.710354
_cell_length_c 16.237701
_cell_angle_alpha 90.000000
_cell_angle_beta 47.012869
_cell_angle_gamma 90.000000
_cell_volume 3129.579256
_symmetry_space_group_name_H-M "C 2/M"
_symmetry_group_IT_number 12
_symmetry_cell_setting 'monoclinic'
loop_
_space_group_symop_operation_xyz
x,y,z
-x,y,-z
-x,-y,-z
x,-y,z
1/2+x,1/2+y,z
1/2-x,1/2+y,-z
1/2-x,1/2-y,-z
1/2+x,1/2-y,z
loop_
_atom_site_type_symbol
_atom_site_label
_atom_site_fract_x
_atom_site_fract_y
_atom_site_fract_z
Si Si1 0.228184 0.825299 0.445198
Si Si2 0.844130 0.673838 0.194799
Si Si3 0.613404 0.682859 0.495165
Si Si4 0.835775 0.318952 0.730717
Si Si5 0.957092 0.180551 0.125228
Si Si6 0.204963 0.320039 0.915042
Si Si7 0.005120 0.818363 0.745742
Si Si8 0.375436 0.681353 0.847516
O O1 0.250000 0.750000 0.500000
O O2 0.276725 0.800709 0.312286
O O3 0.165291 0.757263 0.491741
O O4 0.217507 0.000000 0.481351
O O5 0.865965 0.500000 0.181873
O O6 0.888263 0.784892 0.188584
O O7 0.841238 0.712634 0.101525
O O8 0.617729 0.500000 0.475806
O O9 0.621121 0.766928 0.398554
O O10 0.549976 0.734944 0.615878
O O11 0.825243 0.500000 0.741579
O O12 0.771636 0.234583 0.806863
O O13 0.870661 0.271295 0.768594
O O14 0.974360 0.252658 0.192147
O O15 0.966234 0.000000 0.117541
O O16 0.000000 0.252527 0.000000
O O17 0.207628 0.500000 0.932751
O O18 0.181068 0.226048 0.023514
O O19 0.937570 0.763394 0.811127
O O20 0.008171 0.000000 0.748559
O O21 0.374501 0.500000 0.832271
#
# Coordination Sequence:
#
# PCOD8099702 Si02
#       8
#     8   8   8   8   8   8   8   8
#     4  10  20  35  56  84 117 154 194 240 291 347
#     4  10  21  36  56  85 119 156 194 237 297 354
#     4  10  20  40  63  84 119 164 204 248 298 356
#     4  12  25  41  62  91 121 155 200 253 312 365
#     4  10  20  36  59  88 121 158 203 250 292 346
#     4  11  22  41  64  89 123 160 199 248 304 365
#     4   9  20  38  62  89 120 162 208 249 297 356
#     4  11  23  41  64  91 120 156 203 252 302 362
#
# _framework density 20.450033999999999
#
# number of rings (size 3 to 8) (size 9 to 14) (size 15 to 20)
#    0.000    1.625    1.250    3.750    0.000    4.750 
#    0.000    5.625    0.000    0.000    0.000    0.000 
#    0.000    0.000    0.000    0.000    0.000    0.000 
#
# Total GULP energy -396880.671497 kJ/mol
# GULP energy per Si atom -12402.520984 kJ/mol
# Density = 2.040349 g / cm^3
# Si number density = 20.450034 Si / 1000 Ang^3
#
#
#
# Elastic Constant Matrix: (Units=GPa)
#
#
# Indices 1 2 3 4 5 6 
#
# 1 103.5339 18.5621 44.0050 0.0001 6.8693 0.0000
# 2 18.5621 39.6125 24.8439 -0.0025 2.3559 0.0017
# 3 44.0050 24.8439 119.3420 0.0002 13.5092 0.0001
# 4 0.0001 -0.0025 0.0002 29.6383 0.0001 1.9151
# 5 6.8693 2.3559 13.5092 0.0001 36.8035 0.0000
# 6 0.0000 0.0017 0.0001 1.9151 0.0000 30.2292
#
#
#
# Elastic Compliance Matrix: (Units=1/GPa)
#
#
# Indices 1 2 3 4 5 6 
#
# 1 0.011817 -0.003235 -0.003607 0.000000 -0.000674 0.000000
# 2 -0.003235 0.029926 -0.005101 0.000003 0.000560 -0.000002
# 3 -0.003607 -0.005101 0.011120 -0.000001 -0.003082 0.000000
# 4 0.000000 0.000003 -0.000001 0.033879 0.000000 -0.002146
# 5 -0.000674 0.000560 -0.003082 0.000000 0.028393 0.000000
# 6 0.000000 -0.000002 0.000000 -0.002146 0.000000 0.033217
#
#
# Mechanical properties :
#
#
# Convention : Reuss Voigt Hill
#
# Bulk Modulus (GPa) = 34.50956 48.59006 41.54981
# Shear Modulus (GPa) = 27.48841 31.00602 29.24722
#
# Velocity S-wave (km/s) = 3.67028 3.89805 3.78587
# Velocity P-wave (km/s) = 5.90533 6.63865 6.28270
#
# Compressibility (1/GPa) = 0.02897748
#
# Stress axis : x y z
#
# Youngs Moduli (GPa) = 84.62670 33.41593 89.92704
#
# Poissons Ratio (x) = 0.10809 0.32441
# Poissons Ratio (y) = 0.27373 0.45868
# Poissons Ratio (z) = 0.30529 0.17044
#
# Static dielectric constant tensor:
#      x y z
#    x 3.860070 0.000000 0.139500 
#    y 0.000000 3.480110 0.000000 
#    z 0.139500 0.000000 3.844760 
# 
# 
# High freq. dielectric constant tensor:
#      x y z
#    x 1.808470 0.000000 0.006330 
#    y 0.000000 1.776190 0.000000 
#    z 0.006330 0.000000 1.811210 
# 
# From -- ./inp_files/249775.got.cif
#   From: 2010.06.25/outbox.cif.g09.slc.cpg/sg12_125_cif.got.tgz:249775.got - 2010.06.28 00:19:55.
