data_PCOD8099881
_publ_section_title
;
Structure prediction by ZEFSAII (Michael W. Deem and Ramdas Pophale) SiO2 
 PCOD8099881
Probable space group: C 2/M
;
_chemical_formula_sum "Si O2"
_cell_formula_units_Z 48
_cell_length_a 30.569670
_cell_length_b 8.860183
_cell_length_c 9.420817
_cell_angle_alpha 90.000000
_cell_angle_beta 89.822158
_cell_angle_gamma 90.000000
_cell_volume 2551.643035
_symmetry_space_group_name_H-M "C 2/M"
_symmetry_group_IT_number 12
_symmetry_cell_setting 'monoclinic'
loop_
_space_group_symop_operation_xyz
x,y,z
-x,y,-z
-x,-y,-z
x,-y,z
1/2+x,1/2+y,z
1/2-x,1/2+y,-z
1/2-x,1/2-y,-z
1/2+x,1/2-y,z
loop_
_atom_site_type_symbol
_atom_site_label
_atom_site_fract_x
_atom_site_fract_y
_atom_site_fract_z
Si Si1 0.956219 0.822246 0.414996
Si Si2 0.381514 0.179058 0.596645
Si Si3 0.211141 0.172881 0.417118
Si Si4 0.286494 0.669641 0.910774
Si Si5 0.039599 0.178567 0.907237
Si Si6 0.382936 0.320583 0.894084
O O1 0.915841 0.730747 0.478426
O O2 0.962290 0.763014 0.253840
O O3 0.000000 0.782959 0.500000
O O4 0.945775 0.000000 0.421292
O O5 0.334141 0.241805 0.553030
O O6 0.397649 0.243802 0.747362
O O7 0.379253 0.000000 0.603779
O O8 0.250000 0.250000 0.500000
O O9 0.224867 0.182781 0.253681
O O10 0.205473 0.000000 0.466054
O O11 0.286649 0.500000 0.965258
O O12 0.334767 0.738449 0.938336
O O13 0.250000 0.750000 0.000000
O O14 0.035085 0.000000 0.906575
O O15 0.084837 0.228204 0.980401
O O16 0.000000 0.248825 0.000000
O O17 0.382681 0.500000 0.865999
#
# Coordination Sequence:
#
# PCOD8099881 Si02
#       6
#     8   8   8   8   8   8
#     4  10  20  35  57  83 111 145 183 225 275 327
#     4  11  22  36  55  80 110 145 184 225 272 324
#     4  10  21  38  58  82 111 144 183 225 271 322
#     4   9  19  33  51  76 106 139 176 220 268 320
#     4   9  17  31  55  83 105 132 176 225 271 323
#     4   9  18  35  55  76 104 138 179 225 271 320
#
# _framework density 18.811408
#
# number of rings (size 3 to 8) (size 9 to 14) (size 15 to 20)
#    0.000    2.333    0.000    4.000    0.000    7.667 
#    0.000    2.500    0.000    2.000    0.000    0.000 
#    0.000    0.000    0.000    0.000    0.000    0.000 
#
# Total GULP energy -297605.602786 kJ/mol
# GULP energy per Si atom -12400.233449 kJ/mol
# Density = 1.876859 g / cm^3
# Si number density = 18.811408 Si / 1000 Ang^3
#
#
#
# Elastic Constant Matrix: (Units=GPa)
#
#
# Indices 1 2 3 4 5 6 
#
# 1 134.7805 46.6373 93.4062 0.0000 0.6065 0.0000
# 2 46.6373 76.7195 42.6562 0.0000 -1.0290 0.0000
# 3 93.4062 42.6562 139.5547 0.0000 2.7326 0.0000
# 4 0.0000 0.0000 0.0000 24.9943 0.0000 -4.8503
# 5 0.6065 -1.0290 2.7326 0.0000 42.5044 0.0000
# 6 0.0000 0.0000 0.0000 -4.8503 0.0000 29.1011
#
#
#
# Elastic Compliance Matrix: (Units=1/GPa)
#
#
# Indices 1 2 3 4 5 6 
#
# 1 0.014900 -0.004225 -0.008686 0.000000 0.000244 0.000000
# 2 -0.004225 0.016921 -0.002357 0.000000 0.000621 0.000000
# 3 -0.008686 -0.002357 0.013716 0.000000 -0.000815 0.000000
# 4 0.000000 0.000000 0.000000 0.041346 0.000000 0.006891
# 5 0.000244 0.000621 -0.000815 0.000000 0.023591 0.000000
# 6 0.000000 0.000000 0.000000 0.006891 0.000000 0.035511
#
#
# Mechanical properties :
#
#
# Convention : Reuss Voigt Hill
#
# Bulk Modulus (GPa) = 66.65854 79.60601 73.13227
# Shear Modulus (GPa) = 27.54488 30.54363 29.04426
#
# Velocity S-wave (km/s) = 3.83072 4.03386 3.93360
# Velocity P-wave (km/s) = 7.42146 8.00661 7.71958
#
# Compressibility (1/GPa) = 0.01500183
#
# Stress axis : x y z
#
# Youngs Moduli (GPa) = 67.11391 59.09696 72.90874
#
# Poissons Ratio (x) = 0.24967 0.63330
# Poissons Ratio (y) = 0.28354 0.17182
# Poissons Ratio (z) = 0.58297 0.13927
#
# Static dielectric constant tensor:
#      x y z
#    x 3.563400 0.000000 -0.011740 
#    y 0.000000 3.266510 0.000000 
#    z -0.011740 0.000000 3.565870 
# 
# 
# High freq. dielectric constant tensor:
#      x y z
#    x 1.745140 0.000000 0.001200 
#    y 0.000000 1.707150 0.000000 
#    z 0.001200 0.000000 1.732110 
# 
# From -- ./inp_files/108690.got.cif
#   From: 2010.06.25/outbox.cif.g09.slc.cpg/sg12_55_cif.got.tgz:108690.got - 2010.06.28 00:19:55.
