data_PCOD8099804
_publ_section_title
;
Structure prediction by ZEFSAII (Michael W. Deem and Ramdas Pophale) SiO2 
 PCOD8099804
Probable space group: C 2/M
;
_chemical_formula_sum "Si O2"
_cell_formula_units_Z 56
_cell_length_a 15.166016
_cell_length_b 9.156809
_cell_length_c 21.092272
_cell_angle_alpha 90.000000
_cell_angle_beta 88.897380
_cell_angle_gamma 90.000000
_cell_volume 2928.590196
_symmetry_space_group_name_H-M "C 2/M"
_symmetry_group_IT_number 12
_symmetry_cell_setting 'monoclinic'
loop_
_space_group_symop_operation_xyz
x,y,z
-x,y,-z
-x,-y,-z
x,-y,z
1/2+x,1/2+y,z
1/2-x,1/2+y,-z
1/2-x,1/2-y,-z
1/2+x,1/2-y,z
loop_
_atom_site_type_symbol
_atom_site_label
_atom_site_fract_x
_atom_site_fract_y
_atom_site_fract_z
Si Si1 0.598177 0.326221 0.494485
Si Si2 0.151510 0.829524 0.071352
Si Si3 0.329993 0.671674 0.639086
Si Si4 0.340049 0.669251 0.371483
Si Si5 0.996014 0.830817 0.718994
Si Si6 0.007137 0.328389 0.151834
Si Si7 0.646893 0.831487 0.942682
O O1 0.500000 0.260791 0.500000
O O2 0.592195 0.500000 0.491522
O O3 0.643683 0.264848 0.430373
O O4 0.651507 0.275815 0.555995
O O5 0.254656 0.799626 0.084281
O O6 0.095206 0.749721 0.125837
O O7 0.129277 0.000000 0.072935
O O8 0.124720 0.767126 0.003390
O O9 0.317241 0.500000 0.635658
O O10 0.238399 0.743844 0.661667
O O11 0.402571 0.713164 0.690154
O O12 0.316327 0.500000 0.369073
O O13 0.430705 0.701923 0.334531
O O14 0.015086 0.729422 0.778431
O O15 0.997172 0.000000 0.739789
O O16 0.024837 0.500000 0.153457
O O17 0.922647 0.289459 0.110226
O O18 0.637688 0.000000 0.963689
#
# Coordination Sequence:
#
# PCOD8099804 Si02
#       7
#     8   8   8   8   8   8   8
#     4   9  15  30  57  82 106 140 180 221 272 332
#     4  10  20  36  60  88 115 144 181 223 267 322
#     4  10  20  35  57  81 107 142 181 224 277 332
#     4  10  20  35  57  82 108 140 182 229 274 327
#     4  10  22  39  55  75 106 147 189 225 266 326
#     4  11  23  38  57  80 111 149 185 225 274 321
#     4   9  20  38  58  83 115 147 179 220 273 324
#
# _framework density 19.121828000000001
#
# number of rings (size 3 to 8) (size 9 to 14) (size 15 to 20)
#    0.000    2.143    1.429    1.714    0.000    5.714 
#    0.000    4.286    0.000    0.857    0.000    0.000 
#    0.000    0.000    0.000    0.000    0.000    0.000 
#
# Total GULP energy -347278.628219 kJ/mol
# GULP energy per Si atom -12402.808151 kJ/mol
# Density = 1.907831 g / cm^3
# Si number density = 19.121828 Si / 1000 Ang^3
#
#
#
# Elastic Constant Matrix: (Units=GPa)
#
#
# Indices 1 2 3 4 5 6 
#
# 1 96.2396 35.9808 22.4996 0.0000 16.9602 0.0000
# 2 35.9808 57.8753 38.8479 0.0000 4.6671 0.0000
# 3 22.4996 38.8479 84.9286 0.0000 9.1172 0.0000
# 4 0.0000 0.0000 0.0000 29.9201 0.0000 -0.0057
# 5 16.9602 4.6671 9.1172 0.0000 17.6526 0.0000
# 6 0.0000 0.0000 0.0000 -0.0057 0.0000 29.8330
#
#
#
# Elastic Compliance Matrix: (Units=1/GPa)
#
#
# Indices 1 2 3 4 5 6 
#
# 1 0.016212 -0.010213 0.001862 0.000000 -0.013838 0.000000
# 2 -0.010213 0.031377 -0.012503 0.000000 0.007974 0.000000
# 3 0.001862 -0.012503 0.017826 0.000000 -0.007690 0.000000
# 4 0.000000 0.000000 0.000000 0.033422 0.000000 0.000006
# 5 -0.013838 0.007974 -0.007690 0.000000 0.071808 0.000000
# 6 0.000000 0.000000 0.000000 0.000006 0.000000 0.033520
#
#
# Mechanical properties :
#
#
# Convention : Reuss Voigt Hill
#
# Bulk Modulus (GPa) = 42.18026 48.18891 45.18459
# Shear Modulus (GPa) = 19.70237 24.92882 22.31560
#
# Velocity S-wave (km/s) = 3.21341 3.61457 3.41988
# Velocity P-wave (km/s) = 5.98954 6.53268 6.26699
#
# Compressibility (1/GPa) = 0.02370777
#
# Stress axis : x y z
#
# Youngs Moduli (GPa) = 61.68091 31.87003 56.09815
#
# Poissons Ratio (x) = 0.32550 -0.10447
# Poissons Ratio (y) = 0.62997 0.70139
# Poissons Ratio (z) = -0.11486 0.39847
#
# Static dielectric constant tensor:
#      x y z
#    x 3.593550 0.000000 0.008150 
#    y 0.000000 3.304110 0.000000 
#    z 0.008150 0.000000 3.467490 
# 
# 
# High freq. dielectric constant tensor:
#      x y z
#    x 1.756880 0.000000 0.001050 
#    y 0.000000 1.725910 0.000000 
#    z 0.001050 0.000000 1.739670 
# 
# From -- ./inp_files/308906.got.cif
#   From: 2010.06.25/outbox.cif.g09.slc.cpg/sg12_155_cif.got.tgz:308906.got - 2010.06.28 00:19:55.
