data_PCOD8099679
_publ_section_title
;
Structure prediction by ZEFSAII (Michael W. Deem and Ramdas Pophale) SiO2 
 PCOD8099679
Probable space group: C 2/M
;
_chemical_formula_sum "Si O2"
_cell_formula_units_Z 64
_cell_length_a 22.718235
_cell_length_b 9.037673
_cell_length_c 29.470537
_cell_angle_alpha 90.000000
_cell_angle_beta 34.378857
_cell_angle_gamma 90.000000
_cell_volume 3416.710611
_symmetry_space_group_name_H-M "C 2/M"
_symmetry_group_IT_number 12
_symmetry_cell_setting 'monoclinic'
loop_
_space_group_symop_operation_xyz
x,y,z
-x,y,-z
-x,-y,-z
x,-y,z
1/2+x,1/2+y,z
1/2-x,1/2+y,-z
1/2-x,1/2-y,-z
1/2+x,1/2-y,z
loop_
_atom_site_type_symbol
_atom_site_label
_atom_site_fract_x
_atom_site_fract_y
_atom_site_fract_z
Si Si1 0.643707 0.672234 0.555541
Si Si2 0.401675 0.835071 0.503714
Si Si3 0.856312 0.336002 0.630757
Si Si4 0.145457 0.674002 0.121315
Si Si5 0.932799 0.823849 0.738566
Si Si6 0.730530 0.673706 0.231905
Si Si7 0.883466 0.826319 0.953427
Si Si8 0.465010 0.172032 0.073037
O O1 0.660312 0.500000 0.550135
O O2 0.750000 0.750000 0.500000
O O3 0.620341 0.709352 0.518519
O O4 0.547864 0.723798 0.648433
O O5 0.335521 0.797409 0.591171
O O6 0.522014 0.831367 0.438285
O O7 0.370739 0.000000 0.505806
O O8 0.813111 0.500000 0.669271
O O9 0.799086 0.218736 0.698499
O O10 0.123122 0.500000 0.135194
O O11 0.087871 0.746950 0.200466
O O12 0.097672 0.743969 0.106147
O O13 0.268470 0.709166 0.045797
O O14 0.848871 0.761653 0.755318
O O15 0.923470 0.000000 0.750150
O O16 0.724557 0.500000 0.232181
O O17 0.846906 0.730615 0.149409
O O18 0.966309 0.768304 0.936774
O O19 0.899180 0.000000 0.935511
O O20 0.474926 0.000000 0.080500
O O21 0.500000 0.200455 0.000000
#
# Coordination Sequence:
#
# PCOD8099679 Si02
#       8
#     8   8   8   8   8   8   8   8
#     4  11  23  39  59  83 112 148 188 235 287 338
#     4   9  18  35  57  81 110 144 184 225 275 339
#     4   9  18  33  56  83 110 144 182 226 278 330
#     4  10  21  37  61  88 112 148 193 235 280 331
#     4  10  21  38  59  84 113 146 188 234 282 336
#     4  10  20  35  56  84 114 145 187 234 280 333
#     4  10  21  38  59  85 118 151 188 234 281 334
#     4  10  21  37  58  83 116 156 190 228 280 334
#
# _framework density 18.731466999999999
#
# number of rings (size 3 to 8) (size 9 to 14) (size 15 to 20)
#    0.000    2.125    1.250    2.625    0.000    5.250 
#    2.250    1.250    0.000    0.000    0.000    0.000 
#    0.000    0.000    0.000    0.000    0.000    0.000 
#
# Total GULP energy -396784.395459 kJ/mol
# GULP energy per Si atom -12399.512358 kJ/mol
# Density = 1.868883 g / cm^3
# Si number density = 18.731467 Si / 1000 Ang^3
#
#
#
# Elastic Constant Matrix: (Units=GPa)
#
#
# Indices 1 2 3 4 5 6 
#
# 1 107.3444 49.7094 70.7832 -0.0289 4.9337 0.0527
# 2 49.7094 46.1915 38.0727 -0.0454 -4.4319 0.0488
# 3 70.7832 38.0727 120.4601 -0.0094 4.4715 0.0259
# 4 -0.0289 -0.0454 -0.0094 31.5973 0.0097 3.8879
# 5 4.9337 -4.4319 4.4715 0.0097 29.1360 -0.0246
# 6 0.0527 0.0488 0.0259 3.8879 -0.0246 38.6935
#
#
#
# Elastic Compliance Matrix: (Units=1/GPa)
#
#
# Indices 1 2 3 4 5 6 
#
# 1 0.023737 -0.020011 -0.007403 -0.000007 -0.005927 -0.000005
# 2 -0.020011 0.047193 -0.003570 0.000048 0.011115 -0.000028
# 3 -0.007403 -0.003570 0.013832 -0.000008 -0.001412 0.000005
# 4 -0.000007 0.000048 -0.000008 0.032045 -0.000004 -0.003220
# 5 -0.005927 0.011115 -0.001412 -0.000004 0.037233 0.000019
# 6 -0.000005 -0.000028 0.000005 -0.003220 0.000019 0.026168
#
#
# Mechanical properties :
#
#
# Convention : Reuss Voigt Hill
#
# Bulk Modulus (GPa) = 43.87120 65.68072 54.77596
# Shear Modulus (GPa) = 20.01815 27.58075 23.79945
#
# Velocity S-wave (km/s) = 3.27263 3.84139 3.56836
# Velocity P-wave (km/s) = 6.14427 7.40375 6.80322
#
# Compressibility (1/GPa) = 0.02279400
#
# Stress axis : x y z
#
# Youngs Moduli (GPa) = 42.12885 21.18952 72.29482
#
# Poissons Ratio (x) = 0.42403 0.53520
# Poissons Ratio (y) = 0.84305 0.25807
# Poissons Ratio (z) = 0.31188 0.07564
#
# Static dielectric constant tensor:
#      x y z
#    x 3.248980 -0.000030 -0.126020 
#    y -0.000030 2.683020 0.000000 
#    z -0.126020 0.000000 3.361310 
# 
# 
# High freq. dielectric constant tensor:
#      x y z
#    x 1.728090 0.000000 0.009160 
#    y 0.000000 1.723760 0.000000 
#    z 0.009160 0.000000 1.730270 
# 
# From -- ./inp_files/382337.got.cif
#   From: 2010.06.25/outbox.cif.g09.slc.cpg/sg12_192_cif.got.tgz:382337.got - 2010.06.28 00:19:55.
