data_PCOD8099858
_publ_section_title
;
Structure prediction by ZEFSAII (Michael W. Deem and Ramdas Pophale) SiO2 
 PCOD8099858
Probable space group: C 2/M
;
_chemical_formula_sum "Si O2"
_cell_formula_units_Z 64
_cell_length_a 9.357038
_cell_length_b 27.487732
_cell_length_c 13.135443
_cell_angle_alpha 90.000000
_cell_angle_beta 76.107315
_cell_angle_gamma 90.000000
_cell_volume 3279.654892
_symmetry_space_group_name_H-M "C 2/M"
_symmetry_group_IT_number 12
_symmetry_cell_setting 'monoclinic'
loop_
_space_group_symop_operation_xyz
x,y,z
-x,y,-z
-x,-y,-z
x,-y,z
1/2+x,1/2+y,z
1/2-x,1/2+y,-z
1/2-x,1/2-y,-z
1/2+x,1/2-y,z
loop_
_atom_site_type_symbol
_atom_site_label
_atom_site_fract_x
_atom_site_fract_y
_atom_site_fract_z
Si Si1 0.572194 0.396125 0.382089
Si Si2 0.750788 0.606391 0.063284
Si Si3 0.568633 0.283683 0.383241
Si Si4 0.614523 0.218026 0.726708
Si Si5 0.666812 0.943458 0.154951
Si Si6 0.666673 0.213561 0.942043
Si Si7 0.979480 0.056453 0.193761
Si Si8 0.112524 0.606387 0.746205
O O1 0.500000 0.413475 0.500000
O O2 0.531544 0.339930 0.366672
O O3 0.499998 0.428168 0.306782
O O4 0.750207 0.403705 0.353713
O O5 0.738596 0.664524 0.065911
O O6 0.585860 0.585144 0.098112
O O7 0.838685 0.590961 0.148948
O O8 0.834514 0.586626 0.949950
O O9 0.500000 0.265022 0.500000
O O10 0.512731 0.251367 0.298352
O O11 0.742558 0.277263 0.368671
O O12 0.663312 0.236386 0.829876
O O13 0.560815 0.162318 0.745550
O O14 0.530582 0.926771 0.250574
O O15 0.813063 0.931527 0.192518
O O16 0.653157 0.000000 0.130923
O O17 0.500000 0.202056 0.000000
O O18 0.750000 0.250000 0.000000
O O19 0.016864 0.000000 0.175185
#
# Coordination Sequence:
#
# PCOD8099858 Si02
#       8
#     8   8   8   8   8   8   8   8
#     4   9  20  39  59  79 107 144 185 226 269 327
#     4  10  20  37  57  80 112 148 183 221 266 325
#     4  10  20  35  57  83 108 138 180 225 272 322
#     4  10  20  36  53  77 112 143 177 224 267 314
#     4  11  22  36  56  84 113 139 177 232 282 324
#     4  11  23  37  54  81 115 152 191 222 262 326
#     4  10  22  38  57  83 109 138 182 229 278 334
#     4   9  20  36  54  80 111 144 182 221 267 327
#
# _framework density 19.514247000000001
#
# number of rings (size 3 to 8) (size 9 to 14) (size 15 to 20)
#    0.000    2.000    0.000    4.500    0.000    7.250 
#    0.000    0.625    0.000    1.500    0.000    0.000 
#    0.000    0.000    0.000    0.000    0.000    0.000 
#
# Total GULP energy -396824.676147 kJ/mol
# GULP energy per Si atom -12400.771130 kJ/mol
# Density = 1.946983 g / cm^3
# Si number density = 19.514247 Si / 1000 Ang^3
#
#
#
# Elastic Constant Matrix: (Units=GPa)
#
#
# Indices 1 2 3 4 5 6 
#
# 1 106.4239 58.5731 37.4201 0.0000 -14.0805 0.0000
# 2 58.5731 75.3052 31.2442 0.0000 2.4483 0.0000
# 3 37.4201 31.2442 100.9884 0.0000 -16.4590 0.0000
# 4 0.0000 0.0000 0.0000 24.1385 0.0000 0.9173
# 5 -14.0805 2.4483 -16.4590 0.0000 25.4761 0.0000
# 6 0.0000 0.0000 0.0000 0.9173 0.0000 31.4517
#
#
#
# Elastic Compliance Matrix: (Units=1/GPa)
#
#
# Indices 1 2 3 4 5 6 
#
# 1 0.019706 -0.015491 -0.000550 0.000000 0.012025 0.000000
# 2 -0.015491 0.028014 -0.005322 0.000000 -0.014692 0.000000
# 3 -0.000550 -0.005322 0.013173 0.000000 0.008718 0.000000
# 4 0.000000 0.000000 0.000000 0.041474 0.000000 -0.001210
# 5 0.012025 -0.014692 0.008718 0.000000 0.052943 0.000000
# 6 0.000000 0.000000 0.000000 -0.001210 0.000000 0.031830
#
#
# Mechanical properties :
#
#
# Convention : Reuss Voigt Hill
#
# Bulk Modulus (GPa) = 55.03727 59.68803 57.36265
# Shear Modulus (GPa) = 21.19364 26.57860 23.88612
#
# Velocity S-wave (km/s) = 3.29912 3.69455 3.50242
# Velocity P-wave (km/s) = 6.54042 6.98948 6.76868
#
# Compressibility (1/GPa) = 0.01816951
#
# Stress axis : x y z
#
# Youngs Moduli (GPa) = 50.74507 35.69683 75.91276
#
# Poissons Ratio (x) = 0.55297 0.04172
# Poissons Ratio (y) = 0.78608 0.40397
# Poissons Ratio (z) = 0.02789 0.18996
#
# Static dielectric constant tensor:
#      x y z
#    x 3.529560 0.000000 -0.215600 
#    y 0.000000 3.470530 0.000000 
#    z -0.215600 0.000000 3.602380 
# 
# 
# High freq. dielectric constant tensor:
#      x y z
#    x 1.759200 0.000000 -0.016540 
#    y 0.000000 1.755710 0.000000 
#    z -0.016540 0.000000 1.757990 
# 
# From -- ./inp_files/199745.got.cif
#   From: 2010.06.25/outbox.cif.g09.slc.cpg/sg12_100_cif.got.tgz:199745.got - 2010.06.28 00:19:55.
