data_PCOD8099987
_publ_section_title
;
Structure prediction by ZEFSAII (Michael W. Deem and Ramdas Pophale) SiO2 
 PCOD8099987
Probable space group: C 2/M
;
_chemical_formula_sum "Si O2"
_cell_formula_units_Z 40
_cell_length_a 15.346371
_cell_length_b 17.257995
_cell_length_c 14.403848
_cell_angle_alpha 90.000000
_cell_angle_beta 32.281641
_cell_angle_gamma 90.000000
_cell_volume 2037.427104
_symmetry_space_group_name_H-M "C 2/M"
_symmetry_group_IT_number 12
_symmetry_cell_setting 'monoclinic'
loop_
_space_group_symop_operation_xyz
x,y,z
-x,y,-z
-x,-y,-z
x,-y,z
1/2+x,1/2+y,z
1/2-x,1/2+y,-z
1/2-x,1/2-y,-z
1/2+x,1/2-y,z
loop_
_atom_site_type_symbol
_atom_site_label
_atom_site_fract_x
_atom_site_fract_y
_atom_site_fract_z
Si Si1 0.901081 0.332271 0.503367
Si Si2 0.438544 0.258612 0.805353
Si Si3 0.862456 0.912904 0.379527
Si Si4 0.376770 0.223117 0.185411
Si Si5 0.323343 0.414159 0.629704
O O1 0.795302 0.394949 0.542237
O O2 0.781335 0.274768 0.663714
O O3 0.000000 0.372152 0.500000
O O4 0.019625 0.281504 0.330233
O O5 0.493469 0.349309 0.761894
O O6 0.539553 0.211655 0.790727
O O7 0.250000 0.250000 0.000000
O O8 0.802113 0.911490 0.538750
O O9 0.926635 0.000000 0.296531
O O10 0.316282 0.139986 0.200786
O O11 0.500000 0.260413 0.000000
O O12 0.500000 0.382458 0.500000
O O13 0.298459 0.500000 0.693104
#
# Coordination Sequence:
#
# PCOD8099987 Si02
#       5
#     8   8   8   8   8
#     4  11  21  39  62  87 119 157 203 247 293 348
#     4  11  22  38  60  90 117 155 203 250 292 350
#     4  10  21  40  61  86 122 159 195 245 303 353
#     4  11  21  35  58  87 118 153 198 249 294 350
#     4  10  20  35  57  84 120 158 190 237 304 359
#
# _framework density 19.632605000000002
#
# number of rings (size 3 to 8) (size 9 to 14) (size 15 to 20)
#    0.000    1.400    4.000    3.000    2.800    0.800 
#    0.000    2.000    0.000   20.400    0.000    0.000 
#    0.000    0.000    0.000    0.000    0.000    0.000 
#
# Total GULP energy -247889.116221 kJ/mol
# GULP energy per Si atom -12394.455811 kJ/mol
# Density = 1.958792 g / cm^3
# Si number density = 19.632605 Si / 1000 Ang^3
#
#
#
# Elastic Constant Matrix: (Units=GPa)
#
#
# Indices 1 2 3 4 5 6 
#
# 1 113.5444 19.0641 8.1776 -0.0073 -4.4824 0.0037
# 2 19.0641 98.3335 35.4172 -0.0014 -8.7721 0.0008
# 3 8.1776 35.4172 105.6357 -0.0027 4.6268 -0.0002
# 4 -0.0073 -0.0014 -0.0027 13.1409 0.0005 1.1911
# 5 -4.4824 -8.7721 4.6268 0.0005 31.3642 -0.0011
# 6 0.0037 0.0008 -0.0002 1.1911 -0.0011 19.1238
#
#
#
# Elastic Compliance Matrix: (Units=1/GPa)
#
#
# Indices 1 2 3 4 5 6 
#
# 1 0.009128 -0.001618 -0.000203 0.000005 0.000882 -0.000002
# 2 -0.001618 0.012329 -0.004176 -0.000001 0.003833 0.000000
# 3 -0.000203 -0.004176 0.011006 0.000002 -0.002821 0.000000
# 4 0.000005 -0.000001 0.000002 0.076531 -0.000001 -0.004767
# 5 0.000882 0.003833 -0.002821 -0.000001 0.033498 0.000002
# 6 -0.000002 0.000000 0.000000 -0.004767 0.000002 0.052588
#
#
# Mechanical properties :
#
#
# Convention : Reuss Voigt Hill
#
# Bulk Modulus (GPa) = 48.85390 49.20350 49.02870
# Shear Modulus (GPa) = 23.37574 29.71608 26.54591
#
# Velocity S-wave (km/s) = 3.45434 3.89473 3.68113
# Velocity P-wave (km/s) = 6.39124 6.73363 6.56467
#
# Compressibility (1/GPa) = 0.02046919
#
# Stress axis : x y z
#
# Youngs Moduli (GPa) = 109.55052 81.10743 90.85965
#
# Poissons Ratio (x) = 0.13123 0.01843
# Poissons Ratio (y) = 0.17725 0.37946
# Poissons Ratio (z) = 0.02222 0.33874
#
# Static dielectric constant tensor:
#      x y z
#    x 4.375250 -0.000050 -0.544330 
#    y -0.000050 3.721250 0.000050 
#    z -0.544330 0.000050 3.813420 
# 
# 
# High freq. dielectric constant tensor:
#      x y z
#    x 1.785680 0.000000 -0.008630 
#    y 0.000000 1.749330 0.000000 
#    z -0.008630 0.000000 1.747880 
# 
# From -- ./inp_files/60825.got.cif
#   From: 2010.06.25/outbox.cif.g09.slc.cpg/sg12_31_cif.got.tgz:60825.got - 2010.06.28 00:19:55.
