data_PCOD8099263
_publ_section_title
;
Structure prediction by ZEFSAII (Michael W. Deem and Ramdas Pophale) SiO2 
 PCOD8099263
Probable space group: C 2/M
;
_chemical_formula_sum "Si O2"
_cell_formula_units_Z 64
_cell_length_a 21.639472
_cell_length_b 9.217734
_cell_length_c 21.779256
_cell_angle_alpha 90.000000
_cell_angle_beta 128.898498
_cell_angle_gamma 90.000000
_cell_volume 3380.947003
_symmetry_space_group_name_H-M "C 2/M"
_symmetry_group_IT_number 12
_symmetry_cell_setting 'monoclinic'
loop_
_space_group_symop_operation_xyz
x,y,z
-x,y,-z
-x,-y,-z
x,-y,z
1/2+x,1/2+y,z
1/2-x,1/2+y,-z
1/2-x,1/2-y,-z
1/2+x,1/2-y,z
loop_
_atom_site_type_symbol
_atom_site_label
_atom_site_fract_x
_atom_site_fract_y
_atom_site_fract_z
Si Si1 0.991996 0.327260 0.664934
Si Si2 0.980424 0.832723 0.195292
Si Si3 0.871705 0.829558 0.789874
Si Si4 0.058910 0.169846 0.592049
Si Si5 0.702323 0.163567 0.636444
Si Si6 0.178187 0.339335 0.478664
Si Si7 0.909073 0.172406 0.946756
Si Si8 0.674827 0.332883 0.982006
O O1 0.999031 0.500000 0.668196
O O2 0.902036 0.272472 0.599002
O O3 0.026472 0.264788 0.748931
O O4 0.041585 0.263170 0.640583
O O5 0.897556 0.816752 0.109646
O O6 0.051404 0.767379 0.197568
O O7 0.997360 0.000000 0.223743
O O8 0.792828 0.785363 0.703538
O O9 0.867165 0.773981 0.857523
O O10 0.883610 0.000000 0.800058
O O11 0.148646 0.214342 0.633587
O O12 0.000000 0.213432 0.500000
O O13 0.053567 0.000000 0.603137
O O14 0.677421 0.161994 0.550811
O O15 0.690038 0.000000 0.655861
O O16 0.188745 0.500000 0.459263
O O17 0.250000 0.250000 0.500000
O O18 0.912222 0.000000 0.955954
O O19 0.856693 0.231526 0.971882
O O20 0.000000 0.231114 0.000000
O O21 0.700294 0.500000 0.005805
O O22 0.750000 0.250000 0.000000
#
# Coordination Sequence:
#
# PCOD8099263 Si02
#       8
#     8   8   8   8   8   8   8   8
#     4  11  23  38  58  82 111 152 195 238 289 346
#     4  10  20  37  59  85 118 155 195 244 295 346
#     4   9  17  31  57  88 115 147 192 242 292 343
#     4  11  23  39  59  81 108 150 196 237 285 347
#     4  10  20  35  55  82 114 146 184 238 291 341
#     4  10  21  35  53  78 110 147 186 230 284 341
#     4   9  15  30  57  87 113 147 198 242 282 342
#     4  10  21  36  59  89 124 161 197 246 298 356
#
# _framework density 18.929607000000001
#
# number of rings (size 3 to 8) (size 9 to 14) (size 15 to 20)
#    0.000    2.000    2.500    1.500    0.000    4.500 
#    0.000    1.875    0.000    1.125    0.000    0.000 
#    0.000    0.000    0.000    0.000    0.000    0.000 
#
# Total GULP energy -396693.434973 kJ/mol
# GULP energy per Si atom -12396.669843 kJ/mol
# Density = 1.888652 g / cm^3
# Si number density = 18.929607 Si / 1000 Ang^3
#
#
#
# Elastic Constant Matrix: (Units=GPa)
#
#
# Indices 1 2 3 4 5 6 
#
# 1 129.1312 45.1366 34.4149 0.0000 -2.5376 0.0000
# 2 45.1366 51.3831 34.0933 0.0000 -2.2677 0.0000
# 3 34.4149 34.0933 85.0572 0.0000 -9.1294 0.0000
# 4 0.0000 0.0000 0.0000 16.5020 0.0000 4.2470
# 5 -2.5376 -2.2677 -9.1294 0.0000 36.4265 0.0000
# 6 0.0000 0.0000 0.0000 4.2470 0.0000 32.1312
#
#
#
# Elastic Compliance Matrix: (Units=1/GPa)
#
#
# Indices 1 2 3 4 5 6 
#
# 1 0.011216 -0.009320 -0.000802 0.000000 0.000000 0.000000
# 2 -0.009320 0.034296 -0.010088 0.000000 -0.001042 0.000000
# 3 -0.000802 -0.010088 0.016495 0.000000 0.003450 0.000000
# 4 0.000000 0.000000 0.000000 0.062733 0.000000 -0.008292
# 5 0.000000 -0.001042 0.003450 0.000000 0.028252 0.000000
# 6 0.000000 0.000000 0.000000 -0.008292 0.000000 0.032218
#
#
# Mechanical properties :
#
#
# Convention : Reuss Voigt Hill
#
# Bulk Modulus (GPa) = 46.32437 54.76235 50.54336
# Shear Modulus (GPa) = 21.47536 27.14039 24.30787
#
# Velocity S-wave (km/s) = 3.37187 3.79060 3.58735
# Velocity P-wave (km/s) = 6.29955 6.93906 6.62702
#
# Compressibility (1/GPa) = 0.02158691
#
# Stress axis : x y z
#
# Youngs Moduli (GPa) = 89.16230 29.15816 60.62385
#
# Poissons Ratio (x) = 0.27175 0.04864
# Poissons Ratio (y) = 0.83097 0.61156
# Poissons Ratio (z) = 0.07153 0.29414
#
# Static dielectric constant tensor:
#      x y z
#    x 3.195810 0.000000 -0.028480 
#    y 0.000000 3.189480 0.000000 
#    z -0.028480 0.000000 3.590890 
# 
# 
# High freq. dielectric constant tensor:
#      x y z
#    x 1.743430 0.000000 -0.001190 
#    y 0.000000 1.702300 0.000000 
#    z -0.001190 0.000000 1.744540 
# 
# From -- ./inp_files/324217.got.cif
#   From: 2010.06.25/outbox.cif.g09.slc.cpg/sg12_163_cif.got.tgz:324217.got - 2010.06.28 00:19:55.
