data_PCOD8099887
_publ_section_title
;
Structure prediction by ZEFSAII (Michael W. Deem and Ramdas Pophale) SiO2 
 PCOD8099887
Probable space group: C 2/M
;
_chemical_formula_sum "Si O2"
_cell_formula_units_Z 56
_cell_length_a 15.257983
_cell_length_b 9.102097
_cell_length_c 24.275491
_cell_angle_alpha 90.000000
_cell_angle_beta 118.156887
_cell_angle_gamma 90.000000
_cell_volume 2972.399268
_symmetry_space_group_name_H-M "C 2/M"
_symmetry_group_IT_number 12
_symmetry_cell_setting 'monoclinic'
loop_
_space_group_symop_operation_xyz
x,y,z
-x,y,-z
-x,-y,-z
x,-y,z
1/2+x,1/2+y,z
1/2-x,1/2+y,-z
1/2-x,1/2-y,-z
1/2+x,1/2-y,z
loop_
_atom_site_type_symbol
_atom_site_label
_atom_site_fract_x
_atom_site_fract_y
_atom_site_fract_z
Si Si1 0.901324 0.825454 0.498817
Si Si2 0.563657 0.673846 0.368337
Si Si3 0.339223 0.326470 0.285626
Si Si4 0.764159 0.325954 0.633754
Si Si5 0.758000 0.170296 0.845365
Si Si6 0.170094 0.673092 0.937736
Si Si7 0.485233 0.327944 0.932341
O O1 0.897122 0.771326 0.560503
O O2 0.806470 0.768616 0.436654
O O3 0.000000 0.759567 0.500000
O O4 0.906784 0.000000 0.497934
O O5 0.572238 0.500000 0.365202
O O6 0.451780 0.728334 0.325909
O O7 0.629152 0.750698 0.340994
O O8 0.335769 0.500000 0.280273
O O9 0.278910 0.272001 0.320933
O O10 0.292135 0.262036 0.217186
O O11 0.775703 0.500000 0.635446
O O12 0.700484 0.208346 0.884343
O O13 0.873463 0.215085 0.883012
O O14 0.747856 0.000000 0.828197
O O15 0.171478 0.500000 0.950011
O O16 0.060380 0.736682 0.916322
O O17 0.250000 0.750000 0.000000
O O18 0.507147 0.500000 0.930449
O O19 0.500000 0.283058 0.000000
#
# Coordination Sequence:
#
# PCOD8099887 Si02
#       7
#     8   8   8   8   8   8   8
#     4   9  15  30  57  82 107 144 188 233 281 332
#     4  10  20  35  57  83 111 147 190 234 281 335
#     4  10  22  39  57  79 111 152 195 230 271 338
#     4  10  20  35  57  83 111 146 188 236 284 331
#     4  10  23  41  60  83 117 153 185 230 287 336
#     4  11  22  38  61  90 118 148 186 230 282 338
#     4  10  20  39  62  86 117 149 183 230 284 336
#
# _framework density 18.839998999999999
#
# number of rings (size 3 to 8) (size 9 to 14) (size 15 to 20)
#    0.000    2.000    2.857    0.857    0.000    4.286 
#    0.000    5.714    0.000    0.857    0.000    0.000 
#    0.000    0.000    0.000    0.000    0.000    0.000 
#
# Total GULP energy -347255.493044 kJ/mol
# GULP energy per Si atom -12401.981894 kJ/mol
# Density = 1.879712 g / cm^3
# Si number density = 18.839999 Si / 1000 Ang^3
#
#
#
# Elastic Constant Matrix: (Units=GPa)
#
#
# Indices 1 2 3 4 5 6 
#
# 1 181.3953 53.6685 67.4182 0.0000 -9.1568 0.0000
# 2 53.6685 38.6352 39.2455 0.0000 -0.0529 0.0000
# 3 67.4182 39.2455 128.5618 0.0000 -8.7187 0.0000
# 4 0.0000 0.0000 0.0000 28.9406 0.0000 0.5067
# 5 -9.1568 -0.0529 -8.7187 0.0000 7.6711 0.0000
# 6 0.0000 0.0000 0.0000 0.5067 0.0000 35.1918
#
#
#
# Elastic Compliance Matrix: (Units=1/GPa)
#
#
# Indices 1 2 3 4 5 6 
#
# 1 0.010417 -0.014099 -0.000349 0.000000 0.011940 0.000000
# 2 -0.014099 0.058004 -0.012381 0.000000 -0.030502 0.000000
# 3 -0.000349 -0.012381 0.012685 0.000000 0.013915 0.000000
# 4 0.000000 0.000000 0.000000 0.034562 0.000000 -0.000498
# 5 0.011940 -0.030502 0.013915 0.000000 0.160216 0.000000
# 6 0.000000 0.000000 0.000000 -0.000498 0.000000 0.028423
#
#
# Mechanical properties :
#
#
# Convention : Reuss Voigt Hill
#
# Bulk Modulus (GPa) = 36.43506 74.36187 55.39846
# Shear Modulus (GPa) = 13.61975 26.91139 20.26557
#
# Velocity S-wave (km/s) = 2.69163 3.78354 3.28329
# Velocity P-wave (km/s) = 5.38897 7.65786 6.62132
#
# Compressibility (1/GPa) = 0.02744609
#
# Stress axis : x y z
#
# Youngs Moduli (GPa) = 96.00002 17.24025 78.83609
#
# Poissons Ratio (x) = 0.24308 0.02749
# Poissons Ratio (y) = 1.35353 0.97610
# Poissons Ratio (z) = 0.03348 0.21346
#
# Static dielectric constant tensor:
#      x y z
#    x 4.460640 0.000000 -0.138090 
#    y 0.000000 3.182730 0.000000 
#    z -0.138090 0.000000 3.488000 
# 
# 
# High freq. dielectric constant tensor:
#      x y z
#    x 1.750110 0.000000 0.000630 
#    y 0.000000 1.708820 0.000000 
#    z 0.000630 0.000000 1.732870 
# 
# From -- ./inp_files/339031.got.cif
#   From: 2010.06.25/outbox.cif.g09.slc.cpg/sg12_170_cif.got.tgz:339031.got - 2010.06.28 00:19:55.
