data_PCOD8099037
_publ_section_title
;
Structure prediction by ZEFSAII (Michael W. Deem and Ramdas Pophale) SiO2 
 PCOD8099037
Probable space group: C 2/M
;
_chemical_formula_sum "Si O2"
_cell_formula_units_Z 48
_cell_length_a 18.448253
_cell_length_b 9.012550
_cell_length_c 23.521298
_cell_angle_alpha 90.000000
_cell_angle_beta 137.265371
_cell_angle_gamma 90.000000
_cell_volume 2653.874943
_symmetry_space_group_name_H-M "C 2/M"
_symmetry_group_IT_number 12
_symmetry_cell_setting 'monoclinic'
loop_
_space_group_symop_operation_xyz
x,y,z
-x,y,-z
-x,-y,-z
x,-y,z
1/2+x,1/2+y,z
1/2-x,1/2+y,-z
1/2-x,1/2-y,-z
1/2+x,1/2-y,z
loop_
_atom_site_type_symbol
_atom_site_label
_atom_site_fract_x
_atom_site_fract_y
_atom_site_fract_z
Si Si1 0.917444 0.672375 0.498929
Si Si2 0.138665 0.829353 0.428605
Si Si3 0.622611 0.336843 0.087458
Si Si4 0.566305 0.174111 0.161708
Si Si5 0.841034 0.823976 0.015366
Si Si6 0.825200 0.168745 0.674543
O O1 0.936347 0.500000 0.521180
O O2 0.942891 0.754946 0.573498
O O3 0.798261 0.705433 0.408704
O O4 0.000000 0.734184 0.500000
O O5 0.250000 0.750000 0.500000
O O6 0.104550 0.811834 0.342848
O O7 0.152912 0.000000 0.452952
O O8 0.662900 0.500000 0.130385
O O9 0.636712 0.221299 0.147111
O O10 0.500000 0.348090 0.000000
O O11 0.684165 0.285884 0.065531
O O12 0.454497 0.259233 0.099766
O O13 0.632963 0.214528 0.255816
O O14 0.544827 0.000000 0.146903
O O15 0.843537 0.000000 0.026592
O O16 0.750000 0.750000 0.000000
O O17 0.836731 0.000000 0.703885
#
# Coordination Sequence:
#
# PCOD8099037 Si02
#       6
#     8   8   8   8   8   8
#     4   9  18  33  53  76 101 131 166 205 251 300
#     4   9  17  30  50  73  97 130 168 205 247 296
#     4   8  16  32  52  72  97 131 165 199 245 298
#     4  11  21  32  51  77 102 132 170 208 246 291
#     4  10  20  35  55  77 102 132 166 205 250 298
#     4   9  18  33  51  71  99 134 168 205 251 298
#
# _framework density 18.086760000000002
#
# number of rings (size 3 to 8) (size 9 to 14) (size 15 to 20)
#    0.000    2.667    0.000    4.500    0.000    7.333 
#    0.000    1.667    0.000    6.000    0.000    0.000 
#    0.000    0.000    0.000    0.000    0.000    0.000 
#
# Total GULP energy -297461.391821 kJ/mol
# GULP energy per Si atom -12394.224659 kJ/mol
# Density = 1.804559 g / cm^3
# Si number density = 18.086760 Si / 1000 Ang^3
#
#
#
# Elastic Constant Matrix: (Units=GPa)
#
#
# Indices 1 2 3 4 5 6 
#
# 1 145.8623 60.0050 42.6226 0.0000 -31.5085 0.0000
# 2 60.0050 110.2825 44.4972 0.0000 -20.5791 0.0000
# 3 42.6226 44.4972 67.1565 0.0000 -22.7643 0.0000
# 4 0.0000 0.0000 0.0000 26.6579 0.0000 -5.9947
# 5 -31.5085 -20.5791 -22.7643 0.0000 25.3910 0.0000
# 6 0.0000 0.0000 0.0000 -5.9947 0.0000 32.4237
#
#
#
# Elastic Compliance Matrix: (Units=1/GPa)
#
#
# Indices 1 2 3 4 5 6 
#
# 1 0.010696 -0.003578 -0.001295 0.000000 0.009212 0.000000
# 2 -0.003578 0.013841 -0.006612 0.000000 0.000850 0.000000
# 3 -0.001295 -0.006612 0.025474 0.000000 0.015873 0.000000
# 4 0.000000 0.000000 0.000000 0.039140 0.000000 0.007236
# 5 0.009212 0.000850 0.015873 0.000000 0.065735 0.000000
# 6 0.000000 0.000000 0.000000 0.007236 0.000000 0.032180
#
#
# Mechanical properties :
#
#
# Convention : Reuss Voigt Hill
#
# Bulk Modulus (GPa) = 36.98121 68.61677 52.79899
# Shear Modulus (GPa) = 22.82599 28.63963 25.73281
#
# Velocity S-wave (km/s) = 3.55636 3.98359 3.77602
# Velocity P-wave (km/s) = 6.11183 7.69276 6.94741
#
# Compressibility (1/GPa) = 0.02704076
#
# Stress axis : x y z
#
# Youngs Moduli (GPa) = 93.49141 72.24987 39.25594
#
# Poissons Ratio (x) = 0.25853 0.05084
# Poissons Ratio (y) = 0.33454 0.25955
# Poissons Ratio (z) = 0.12107 0.47770
#
# Static dielectric constant tensor:
#      x y z
#    x 3.780620 0.000000 -0.484370 
#    y 0.000000 3.417210 0.000000 
#    z -0.484370 0.000000 3.153080 
# 
# 
# High freq. dielectric constant tensor:
#      x y z
#    x 1.700590 0.000000 -0.033150 
#    y 0.000000 1.704120 0.000000 
#    z -0.033150 0.000000 1.671590 
# 
# From -- ./inp_files/313608.got.cif
#   From: 2010.06.25/outbox.cif.g09.slc.cpg/sg12_157_cif.got.tgz:313608.got - 2010.06.28 00:19:55.
