data_PCOD8099068
_publ_section_title
;
Structure prediction by ZEFSAII (Michael W. Deem and Ramdas Pophale) SiO2 
 PCOD8099068
Probable space group: C 2/M
;
_chemical_formula_sum "Si O2"
_cell_formula_units_Z 48
_cell_length_a 10.021259
_cell_length_b 10.178582
_cell_length_c 23.866842
_cell_angle_alpha 90.000000
_cell_angle_beta 99.545875
_cell_angle_gamma 90.000000
_cell_volume 2400.760765
_symmetry_space_group_name_H-M "C 2/M"
_symmetry_group_IT_number 12
_symmetry_cell_setting 'monoclinic'
loop_
_space_group_symop_operation_xyz
x,y,z
-x,y,-z
-x,-y,-z
x,-y,z
1/2+x,1/2+y,z
1/2-x,1/2+y,-z
1/2-x,1/2-y,-z
1/2+x,1/2-y,z
loop_
_atom_site_type_symbol
_atom_site_label
_atom_site_fract_x
_atom_site_fract_y
_atom_site_fract_z
Si Si1 0.716355 0.151417 0.384041
Si Si2 0.949588 0.349912 0.433735
Si Si3 0.673890 0.151183 0.251027
Si Si4 0.417689 0.714193 0.077864
Si Si5 0.058011 0.146032 0.796656
Si Si6 0.174286 0.140817 0.045488
O O1 0.827512 0.249113 0.416660
O O2 0.571305 0.186309 0.400374
O O3 0.708429 0.175862 0.317731
O O4 0.755858 0.000000 0.400629
O O5 0.900126 0.500000 0.419605
O O6 0.000000 0.333001 0.500000
O O7 0.804759 0.189587 0.224230
O O8 0.554032 0.246101 0.224164
O O9 0.630197 0.000000 0.237454
O O10 0.417233 0.635006 0.135348
O O11 0.327434 0.845408 0.079176
O O12 0.569956 0.744571 0.066842
O O13 0.332293 0.640806 0.022723
O O14 0.014219 0.000000 0.772635
O O15 0.120758 0.000000 0.062786
#
# Coordination Sequence:
#
# PCOD8099068 Si02
#       6
#     8   8   8   8   8   8
#     4  10  21  38  57  80 113 148 183 224 269 318
#     4  10  21  36  57  86 115 144 182 225 268 318
#     4  10  23  39  56  81 111 144 184 227 268 317
#     4  10  20  35  55  78 104 136 174 218 266 322
#     4  11  22  37  57  81 108 141 183 226 271 321
#     4  10  20  36  54  75 105 137 170 213 270 325
#
# _framework density 19.993663000000002
#
# number of rings (size 3 to 8) (size 9 to 14) (size 15 to 20)
#    0.000    1.833    0.000    4.500    0.000    3.000 
#    0.000    8.333    0.000    0.000    0.000    0.000 
#    0.000    0.000    0.000    0.000    0.000    0.000 
#
# Total GULP energy -297439.764449 kJ/mol
# GULP energy per Si atom -12393.323519 kJ/mol
# Density = 1.994816 g / cm^3
# Si number density = 19.993663 Si / 1000 Ang^3
#
#
#
# Elastic Constant Matrix: (Units=GPa)
#
#
# Indices 1 2 3 4 5 6 
#
# 1 123.1099 58.9556 42.4792 0.0000 -2.0619 0.0000
# 2 58.9556 102.9712 28.1258 0.0000 22.8542 0.0000
# 3 42.4792 28.1258 80.2720 0.0000 -13.8863 0.0000
# 4 0.0000 0.0000 0.0000 15.9650 0.0000 -5.1392
# 5 -2.0619 22.8542 -13.8863 0.0000 39.0355 0.0000
# 6 0.0000 0.0000 0.0000 -5.1392 0.0000 40.9820
#
#
#
# Elastic Compliance Matrix: (Units=1/GPa)
#
#
# Indices 1 2 3 4 5 6 
#
# 1 0.012885 -0.007157 -0.003696 0.000000 0.003556 0.000000
# 2 -0.007157 0.017837 -0.004619 0.000000 -0.012464 0.000000
# 3 -0.003696 -0.004619 0.017545 0.000000 0.008750 0.000000
# 4 0.000000 0.000000 0.000000 0.065272 0.000000 0.008185
# 5 0.003556 -0.012464 0.008750 0.000000 0.036216 0.000000
# 6 0.000000 0.000000 0.000000 0.008185 0.000000 0.025427
#
#
# Mechanical properties :
#
#
# Convention : Reuss Voigt Hill
#
# Bulk Modulus (GPa) = 57.72066 62.83048 60.27557
# Shear Modulus (GPa) = 23.59602 30.98266 27.28934
#
# Velocity S-wave (km/s) = 3.43909 3.94080 3.69846
# Velocity P-wave (km/s) = 6.68595 7.22495 6.96067
#
# Compressibility (1/GPa) = 0.01732482
#
# Stress axis : x y z
#
# Youngs Moduli (GPa) = 77.60954 56.06301 56.99513
#
# Poissons Ratio (x) = 0.40125 0.21064
# Poissons Ratio (y) = 0.55546 0.26323
# Poissons Ratio (z) = 0.28683 0.25893
#
# Static dielectric constant tensor:
#      x y z
#    x 3.724130 0.000000 -0.190420 
#    y 0.000000 3.705870 0.000000 
#    z -0.190420 0.000000 3.585860 
# 
# 
# High freq. dielectric constant tensor:
#      x y z
#    x 1.792210 0.000000 -0.016200 
#    y 0.000000 1.772080 0.000000 
#    z -0.016200 0.000000 1.781230 
# 
# From -- ./inp_files/332224.got.cif
#   From: 2010.06.25/outbox.cif.g09.slc.cpg/sg12_167_cif.got.tgz:332224.got - 2010.06.28 00:19:55.
