data_PCOD8099743
_publ_section_title
;
Structure prediction by ZEFSAII (Michael W. Deem and Ramdas Pophale) SiO2 
 PCOD8099743
Probable space group: C 2/M
;
_chemical_formula_sum "Si O2"
_cell_formula_units_Z 48
_cell_length_a 23.061157
_cell_length_b 8.662040
_cell_length_c 12.349603
_cell_angle_alpha 90.000000
_cell_angle_beta 69.478423
_cell_angle_gamma 90.000000
_cell_volume 2310.365632
_symmetry_space_group_name_H-M "C 2/M"
_symmetry_group_IT_number 12
_symmetry_cell_setting 'monoclinic'
loop_
_space_group_symop_operation_xyz
x,y,z
-x,y,-z
-x,-y,-z
x,-y,z
1/2+x,1/2+y,z
1/2-x,1/2+y,-z
1/2-x,1/2-y,-z
1/2+x,1/2-y,z
loop_
_atom_site_type_symbol
_atom_site_label
_atom_site_fract_x
_atom_site_fract_y
_atom_site_fract_z
Si Si1 0.069533 0.183871 0.469201
Si Si2 0.300789 0.682479 0.214242
Si Si3 0.402285 0.318608 0.314078
Si Si4 0.823604 0.817797 0.757747
Si Si5 0.651573 0.176858 0.035147
Si Si6 0.991234 0.676287 0.885042
O O1 0.098951 0.246196 0.562513
O O2 0.113997 0.240570 0.342973
O O3 0.000000 0.251139 0.500000
O O4 0.066729 0.000000 0.473473
O O5 0.291425 0.500000 0.229326
O O6 0.346336 0.748913 0.278060
O O7 0.235462 0.767717 0.274814
O O8 0.330011 0.721158 0.079050
O O9 0.395527 0.500000 0.319341
O O10 0.468793 0.278231 0.221641
O O11 0.814493 0.738129 0.880048
O O12 0.824908 0.000000 0.772488
O O13 0.579089 0.192771 0.105541
O O14 0.671156 0.000000 0.000552
O O15 0.014729 0.500000 0.864987
O O16 0.000000 0.741830 0.000000
#
# Coordination Sequence:
#
# PCOD8099743 Si02
#       6
#     8   8   8   8   8   8
#     4   9  19  38  62  87 115 147 188 239 289 341
#     4  11  23  38  57  85 120 153 194 242 289 340
#     4  10  21  37  60  88 117 153 197 240 281 338
#     4  11  23  39  61  85 114 154 197 237 288 345
#     4  11  22  38  60  85 119 155 193 239 290 345
#     4  10  20  35  56  85 119 151 185 232 291 343
#
# _framework density 20.775932000000001
#
# number of rings (size 3 to 8) (size 9 to 14) (size 15 to 20)
#    0.000    1.667    1.667    3.000    0.000    4.333 
#    0.000    1.667    0.000    4.500    0.000    0.000 
#    0.000    0.000    0.000    0.000    0.000    0.000 
#
# Total GULP energy -297660.781589 kJ/mol
# GULP energy per Si atom -12402.532566 kJ/mol
# Density = 2.072864 g / cm^3
# Si number density = 20.775932 Si / 1000 Ang^3
#
#
#
# Elastic Constant Matrix: (Units=GPa)
#
#
# Indices 1 2 3 4 5 6 
#
# 1 122.3016 18.5836 43.6139 0.0000 3.3164 0.0000
# 2 18.5836 29.0068 9.9918 0.0000 1.3146 0.0000
# 3 43.6139 9.9918 108.6611 0.0000 11.1195 0.0000
# 4 0.0000 0.0000 0.0000 10.6666 0.0000 -7.5271
# 5 3.3164 1.3146 11.1195 0.0000 34.6807 0.0000
# 6 0.0000 0.0000 0.0000 -7.5271 0.0000 29.7160
#
#
#
# Elastic Compliance Matrix: (Units=1/GPa)
#
#
# Indices 1 2 3 4 5 6 
#
# 1 0.010290 -0.005343 -0.003679 0.000000 0.000398 0.000000
# 2 -0.005343 0.038380 -0.001332 0.000000 -0.000517 0.000000
# 3 -0.003679 -0.001332 0.011126 0.000000 -0.003165 0.000000
# 4 0.000000 0.000000 0.000000 0.114155 0.000000 0.028916
# 5 0.000398 -0.000517 -0.003165 0.000000 0.029831 0.000000
# 6 0.000000 0.000000 0.000000 0.028916 0.000000 0.040976
#
#
# Mechanical properties :
#
#
# Convention : Reuss Voigt Hill
#
# Bulk Modulus (GPa) = 25.58370 44.92756 35.25563
# Shear Modulus (GPa) = 17.95362 27.53135 22.74249
#
# Velocity S-wave (km/s) = 2.94284 3.64422 3.31215
# Velocity P-wave (km/s) = 4.88753 6.27526 5.62436
#
# Compressibility (1/GPa) = 0.03908739
#
# Stress axis : x y z
#
# Youngs Moduli (GPa) = 97.18467 26.05538 89.87858
#
# Poissons Ratio (x) = 0.13921 0.33071
# Poissons Ratio (y) = 0.51924 0.11970
# Poissons Ratio (z) = 0.35759 0.03470
#
# Static dielectric constant tensor:
#      x y z
#    x 4.055340 0.000000 0.141210 
#    y 0.000000 3.480500 0.000000 
#    z 0.141210 0.000000 3.803070 
# 
# 
# High freq. dielectric constant tensor:
#      x y z
#    x 1.830910 0.000000 0.004370 
#    y 0.000000 1.789610 0.000000 
#    z 0.004370 0.000000 1.811990 
# 
# From -- ./inp_files/172911.got.cif
#   From: 2010.06.25/outbox.cif.g09.slc.cpg/sg12_87_cif.got.tgz:172911.got - 2010.06.28 00:19:55.
