data_PCOD8099441
_publ_section_title
;
Structure prediction by ZEFSAII (Michael W. Deem and Ramdas Pophale) SiO2 
 PCOD8099441
Probable space group: C 2/M
;
_chemical_formula_sum "Si O2"
_cell_formula_units_Z 48
_cell_length_a 31.545453
_cell_length_b 8.891983
_cell_length_c 16.387487
_cell_angle_alpha 90.000000
_cell_angle_beta 34.790770
_cell_angle_gamma 90.000000
_cell_volume 2622.800573
_symmetry_space_group_name_H-M "C 2/M"
_symmetry_group_IT_number 12
_symmetry_cell_setting 'monoclinic'
loop_
_space_group_symop_operation_xyz
x,y,z
-x,y,-z
-x,-y,-z
x,-y,z
1/2+x,1/2+y,z
1/2-x,1/2+y,-z
1/2-x,1/2-y,-z
1/2+x,1/2-y,z
loop_
_atom_site_type_symbol
_atom_site_label
_atom_site_fract_x
_atom_site_fract_y
_atom_site_fract_z
Si Si1 0.275587 0.673117 0.541281
Si Si2 0.586121 0.326004 0.105751
Si Si3 0.650450 0.178262 0.333722
Si Si4 0.579862 0.323172 0.595436
Si Si5 0.829705 0.823366 0.862007
Si Si6 0.707080 0.824987 0.817885
O O1 0.280124 0.500000 0.513147
O O2 0.250000 0.750000 0.500000
O O3 0.356990 0.730366 0.440690
O O4 0.216593 0.706506 0.706545
O O5 0.598011 0.500000 0.065349
O O6 0.499513 0.282626 0.241230
O O7 0.618985 0.287017 0.141964
O O8 0.625244 0.226783 0.974083
O O9 0.590543 0.235396 0.493870
O O10 0.629173 0.249597 0.280364
O O11 0.733596 0.229745 0.224739
O O12 0.648336 0.000000 0.331050
O O13 0.587973 0.500000 0.563443
O O14 0.819746 0.000000 0.863884
O O15 0.750000 0.750000 0.000000
O O16 0.719960 0.000000 0.816994
#
# Coordination Sequence:
#
# PCOD8099441 Si02
#       6
#     8   8   8   8   8   8
#     4   9  19  36  59  83 105 136 175 218 269 324
#     4  10  21  36  56  80 108 144 184 223 270 320
#     4  11  21  34  53  78 107 146 190 226 267 318
#     4   9  20  39  57  78 110 143 178 224 273 320
#     4  11  21  33  52  79 109 144 187 232 268 311
#     4  10  20  35  56  80 109 142 179 223 270 318
#
# _framework density 18.301048999999999
#
# number of rings (size 3 to 8) (size 9 to 14) (size 15 to 20)
#    0.000    2.000    1.667    3.500    0.000    5.333 
#    0.000    4.167    0.000    5.000    0.000    0.000 
#    0.000    0.000    0.000    0.000    0.000    0.000 
#
# Total GULP energy -297655.147667 kJ/mol
# GULP energy per Si atom -12402.297819 kJ/mol
# Density = 1.825939 g / cm^3
# Si number density = 18.301049 Si / 1000 Ang^3
#
#
#
# Elastic Constant Matrix: (Units=GPa)
#
#
# Indices 1 2 3 4 5 6 
#
# 1 97.2224 44.7928 61.6053 -0.0001 7.9709 0.0000
# 2 44.7928 90.9759 53.6775 -0.0012 5.9181 0.0001
# 3 61.6053 53.6775 127.7771 -0.0003 -4.3098 0.0001
# 4 -0.0001 -0.0012 -0.0003 35.7751 0.0001 4.8865
# 5 7.9709 5.9181 -4.3098 0.0001 27.1143 0.0000
# 6 0.0000 0.0001 0.0001 4.8865 0.0000 28.2960
#
#
#
# Elastic Compliance Matrix: (Units=1/GPa)
#
#
# Indices 1 2 3 4 5 6 
#
# 1 0.016696 -0.004043 -0.006522 0.000000 -0.005063 0.000000
# 2 -0.004043 0.016082 -0.004911 0.000000 -0.003102 0.000000
# 3 -0.006522 -0.004911 0.013205 0.000000 0.005088 0.000000
# 4 0.000000 0.000000 0.000000 0.028628 0.000000 -0.004944
# 5 -0.005063 -0.003102 0.005088 0.000000 0.039855 0.000000
# 6 0.000000 0.000000 0.000000 -0.004944 0.000000 0.036194
#
#
# Mechanical properties :
#
#
# Convention : Reuss Voigt Hill
#
# Bulk Modulus (GPa) = 66.52934 70.68072 68.60503
# Shear Modulus (GPa) = 26.79185 28.63041 27.71113
#
# Velocity S-wave (km/s) = 3.83031 3.95956 3.89547
# Velocity P-wave (km/s) = 7.48287 7.72069 7.60271
#
# Compressibility (1/GPa) = 0.01503096
#
# Stress axis : x y z
#
# Youngs Moduli (GPa) = 59.89370 62.18106 75.72668
#
# Poissons Ratio (x) = 0.25140 0.49390
# Poissons Ratio (y) = 0.24215 0.37191
# Poissons Ratio (z) = 0.39063 0.30538
#
# Static dielectric constant tensor:
#      x y z
#    x 3.413880 0.000000 0.032270 
#    y 0.000000 3.380230 0.000000 
#    z 0.032270 0.000000 3.543490 
# 
# 
# High freq. dielectric constant tensor:
#      x y z
#    x 1.690700 0.000000 0.005540 
#    y 0.000000 1.712700 0.000000 
#    z 0.005540 0.000000 1.714960 
# 
# From -- ./inp_files/230342.got.cif
#   From: 2010.06.25/outbox.cif.g09.slc.cpg/sg12_116_cif.got.tgz:230342.got - 2010.06.28 00:19:55.
