data_PCOD8099805
_publ_section_title
;
Structure prediction by ZEFSAII (Michael W. Deem and Ramdas Pophale) SiO2 
 PCOD8099805
Probable space group: C 2/M
;
_chemical_formula_sum "Si O2"
_cell_formula_units_Z 64
_cell_length_a 28.421868
_cell_length_b 8.685526
_cell_length_c 14.276055
_cell_angle_alpha 90.000000
_cell_angle_beta 93.373961
_cell_angle_gamma 90.000000
_cell_volume 3518.062331
_symmetry_space_group_name_H-M "C 2/M"
_symmetry_group_IT_number 12
_symmetry_cell_setting 'monoclinic'
loop_
_space_group_symop_operation_xyz
x,y,z
-x,y,-z
-x,-y,-z
x,-y,z
1/2+x,1/2+y,z
1/2-x,1/2+y,-z
1/2-x,1/2-y,-z
1/2+x,1/2-y,z
loop_
_atom_site_type_symbol
_atom_site_label
_atom_site_fract_x
_atom_site_fract_y
_atom_site_fract_z
Si Si1 0.523481 0.679679 0.800088
Si Si2 0.907533 0.321824 0.054538
Si Si3 0.067479 0.319947 0.284540
Si Si4 0.907075 0.320241 0.338027
Si Si5 0.326747 0.825457 0.194771
Si Si6 0.759981 0.319666 0.900199
Si Si7 0.861971 0.318354 0.862432
Si Si8 0.053120 0.819849 0.482314
O O1 0.511664 0.500000 0.796288
O O2 0.549190 0.723375 0.899787
O O3 0.475651 0.776689 0.788110
O O4 0.555356 0.720027 0.714407
O O5 0.922961 0.500000 0.055775
O O6 0.861513 0.298118 0.112361
O O7 0.894824 0.255292 0.950749
O O8 0.065578 0.500000 0.309122
O O9 0.115373 0.275184 0.234885
O O10 0.066021 0.220628 0.378102
O O11 0.918794 0.500000 0.324125
O O12 0.854337 0.284836 0.294286
O O13 0.910740 0.272559 0.446781
O O14 0.281263 0.718020 0.178436
O O15 0.308553 0.000000 0.193981
O O16 0.763921 0.500000 0.914069
O O17 0.808962 0.251947 0.864137
O O18 0.750000 0.250000 0.000000
O O19 0.860321 0.500000 0.875686
O O20 0.000000 0.767240 0.500000
O O21 0.059773 0.000000 0.499776
#
# Coordination Sequence:
#
# PCOD8099805 Si02
#       8
#     8   8   8   8   8   8   8   8
#     4  11  21  33  49  77 113 142 178 225 270 314
#     4   9  17  34  54  73 106 147 185 219 259 316
#     4  11  22  37  57  77 103 146 190 221 264 322
#     4  10  20  35  57  81 107 142 182 219 260 322
#     4   9  18  33  54  82 111 137 175 224 267 312
#     4  11  20  34  56  82 110 142 181 224 271 316
#     4   9  20  37  55  77 107 144 187 228 261 315
#     4  11  22  36  56  83 113 138 170 227 281 317
#
# _framework density 18.191832000000002
#
# number of rings (size 3 to 8) (size 9 to 14) (size 15 to 20)
#    0.000    1.875    2.500    3.375    0.000    3.500 
#    0.000    6.250    0.000    0.750    0.000    0.000 
#    0.000    0.000    0.000    0.000    0.000    0.000 
#
# Total GULP energy -396829.775006 kJ/mol
# GULP energy per Si atom -12400.930469 kJ/mol
# Density = 1.815043 g / cm^3
# Si number density = 18.191832 Si / 1000 Ang^3
#
#
#
# Elastic Constant Matrix: (Units=GPa)
#
#
# Indices 1 2 3 4 5 6 
#
# 1 102.6261 25.1447 53.0029 0.0000 3.2183 0.0000
# 2 25.1447 48.4868 24.0825 0.0000 1.5326 0.0000
# 3 53.0029 24.0825 104.8921 0.0000 7.8884 0.0000
# 4 0.0000 0.0000 0.0000 26.6967 0.0000 6.7742
# 5 3.2183 1.5326 7.8884 0.0000 25.6736 0.0000
# 6 0.0000 0.0000 0.0000 6.7742 0.0000 24.1626
#
#
#
# Elastic Compliance Matrix: (Units=1/GPa)
#
#
# Indices 1 2 3 4 5 6 
#
# 1 0.013907 -0.004198 -0.006092 0.000000 0.000379 0.000000
# 2 -0.004198 0.024548 -0.003525 0.000000 0.000144 0.000000
# 3 -0.006092 -0.003525 0.013664 0.000000 -0.003224 0.000000
# 4 0.000000 0.000000 0.000000 0.040327 0.000000 -0.011306
# 5 0.000379 0.000144 -0.003224 0.000000 0.039885 0.000000
# 6 0.000000 0.000000 0.000000 -0.011306 0.000000 0.044556
#
#
# Mechanical properties :
#
#
# Convention : Reuss Voigt Hill
#
# Bulk Modulus (GPa) = 40.83737 51.16281 46.00009
# Shear Modulus (GPa) = 23.50947 25.55826 24.53386
#
# Velocity S-wave (km/s) = 3.59877 3.75231 3.67634
# Velocity P-wave (km/s) = 6.30596 6.85260 6.58496
#
# Compressibility (1/GPa) = 0.02448737
#
# Stress axis : x y z
#
# Youngs Moduli (GPa) = 71.90529 40.73683 73.18586
#
# Poissons Ratio (x) = 0.17103 0.44585
# Poissons Ratio (y) = 0.30188 0.25801
# Poissons Ratio (z) = 0.43805 0.14361
#
# Static dielectric constant tensor:
#      x y z
#    x 3.478640 0.000000 0.169830 
#    y 0.000000 3.228160 0.000000 
#    z 0.169830 0.000000 3.338080 
# 
# 
# High freq. dielectric constant tensor:
#      x y z
#    x 1.692120 0.000000 0.017480 
#    y 0.000000 1.698850 0.000000 
#    z 0.017480 0.000000 1.696270 
# 
# From -- ./inp_files/238686.got.cif
#   From: 2010.06.25/outbox.cif.g09.slc.cpg/sg12_120_cif.got.tgz:238686.got - 2010.06.28 00:19:55.
