data_PCOD8099921
_publ_section_title
;
Structure prediction by ZEFSAII (Michael W. Deem and Ramdas Pophale) SiO2 
 PCOD8099921
Probable space group: C 2/M
;
_chemical_formula_sum "Si O2"
_cell_formula_units_Z 64
_cell_length_a 15.150352
_cell_length_b 9.367692
_cell_length_c 25.306398
_cell_angle_alpha 90.000000
_cell_angle_beta 108.108550
_cell_angle_gamma 90.000000
_cell_volume 3413.687656
_symmetry_space_group_name_H-M "C 2/M"
_symmetry_group_IT_number 12
_symmetry_cell_setting 'monoclinic'
loop_
_space_group_symop_operation_xyz
x,y,z
-x,y,-z
-x,-y,-z
x,-y,z
1/2+x,1/2+y,z
1/2-x,1/2+y,-z
1/2-x,1/2-y,-z
1/2+x,1/2-y,z
loop_
_atom_site_type_symbol
_atom_site_label
_atom_site_fract_x
_atom_site_fract_y
_atom_site_fract_z
Si Si1 0.245872 0.834292 0.445255
Si Si2 0.023077 0.834087 0.759449
Si Si3 0.734203 0.336276 0.049690
Si Si4 0.069948 0.660002 0.060752
Si Si5 0.443010 0.166432 0.437912
Si Si6 0.698335 0.162946 0.827149
Si Si7 0.409612 0.666498 0.841231
Si Si8 0.546260 0.332657 0.367295
O O1 0.250000 0.750000 0.500000
O O2 0.334523 0.797234 0.425550
O O3 0.153396 0.790242 0.396564
O O4 0.246396 0.000000 0.460435
O O5 0.121227 0.757901 0.785313
O O6 0.947821 0.797570 0.790394
O O7 0.978462 0.783320 0.696303
O O8 0.046215 0.000000 0.763318
O O9 0.724212 0.500000 0.031089
O O10 0.641448 0.280097 0.057862
O O11 0.810304 0.317443 0.110402
O O12 0.750000 0.250000 0.000000
O O13 0.110138 0.500000 0.078857
O O14 0.031338 0.729251 0.108062
O O15 0.000000 0.646904 0.000000
O O16 0.500000 0.216161 0.500000
O O17 0.478081 0.252644 0.394265
O O18 0.459736 0.000000 0.430132
O O19 0.800246 0.206702 0.824139
O O20 0.678799 0.000000 0.808176
O O21 0.425007 0.500000 0.858932
O O22 0.530823 0.500000 0.372702
#
# Coordination Sequence:
#
# PCOD8099921 Si02
#       8
#     8   8   8   8   8   8   8   8
#     4  10  20  35  57  83 115 152 185 228 281 330
#     4  10  22  39  59  83 112 149 195 235 277 337
#     4  10  21  36  55  81 113 145 183 231 287 350
#     4  10  21  35  53  81 114 145 182 233 285 340
#     4  10  20  35  57  86 117 149 188 233 279 332
#     4   9  20  38  58  81 110 146 188 233 285 339
#     4   9  20  39  59  80 109 149 191 235 285 345
#     4  10  22  38  56  84 117 151 191 232 278 337
#
# _framework density 18.748054
#
# number of rings (size 3 to 8) (size 9 to 14) (size 15 to 20)
#    0.000    2.250    1.250    1.500    1.750    6.250 
#    0.000    2.500    0.000    0.000    0.000    0.000 
#    0.000    0.000    0.000    0.000    0.000    0.000 
#
# Total GULP energy -396659.005948 kJ/mol
# GULP energy per Si atom -12395.593936 kJ/mol
# Density = 1.870538 g / cm^3
# Si number density = 18.748054 Si / 1000 Ang^3
#
#
#
# Elastic Constant Matrix: (Units=GPa)
#
#
# Indices 1 2 3 4 5 6 
#
# 1 114.2154 48.9723 72.6743 0.0000 -3.3506 0.0000
# 2 48.9723 77.7278 70.8989 0.0000 -2.5118 0.0000
# 3 72.6743 70.8989 153.7731 0.0000 -8.7532 0.0000
# 4 0.0000 0.0000 0.0000 60.1801 0.0000 -10.0481
# 5 -3.3506 -2.5118 -8.7532 0.0000 32.1958 0.0000
# 6 0.0000 0.0000 0.0000 -10.0481 0.0000 35.0121
#
#
#
# Elastic Compliance Matrix: (Units=1/GPa)
#
#
# Indices 1 2 3 4 5 6 
#
# 1 0.013413 -0.004602 -0.004224 0.000000 -0.000111 0.000000
# 2 -0.004602 0.023818 -0.008865 0.000000 -0.001031 0.000000
# 3 -0.004224 -0.008865 0.012719 0.000000 0.002327 0.000000
# 4 0.000000 0.000000 0.000000 0.017453 0.000000 0.005009
# 5 -0.000111 -0.001031 0.002327 0.000000 0.031601 0.000000
# 6 0.000000 0.000000 0.000000 0.005009 0.000000 0.029999
#
#
# Mechanical properties :
#
#
# Convention : Reuss Voigt Hill
#
# Bulk Modulus (GPa) = 68.64223 81.20080 74.92152
# Shear Modulus (GPa) = 29.54388 35.68900 32.61644
#
# Velocity S-wave (km/s) = 3.97399 4.36777 4.17552
# Velocity P-wave (km/s) = 7.59929 8.29712 7.95586
#
# Compressibility (1/GPa) = 0.01456829
#
# Stress axis : x y z
#
# Youngs Moduli (GPa) = 74.55665 41.98517 78.62164
#
# Poissons Ratio (x) = 0.19320 0.33207
# Poissons Ratio (y) = 0.34309 0.69701
# Poissons Ratio (z) = 0.31490 0.37222
#
# Static dielectric constant tensor:
#      x y z
#    x 3.311120 0.000000 0.351250 
#    y 0.000000 3.550600 0.000000 
#    z 0.351250 0.000000 2.071790 
# 
# 
# High freq. dielectric constant tensor:
#      x y z
#    x 1.726540 0.000000 -0.004370 
#    y 0.000000 1.729990 0.000000 
#    z -0.004370 0.000000 1.728990 
# 
# From -- ./inp_files/359971.got.cif
#   From: 2010.06.25/outbox.cif.g09.slc.cpg/sg12_180_cif.got.tgz:359971.got - 2010.06.28 00:19:55.
