data_PCOD8099295
_publ_section_title
;
Structure prediction by ZEFSAII (Michael W. Deem and Ramdas Pophale) SiO2 
 PCOD8099295
Probable space group: C 2/M
;
_chemical_formula_sum "Si O2"
_cell_formula_units_Z 56
_cell_length_a 27.089192
_cell_length_b 9.077516
_cell_length_c 11.830485
_cell_angle_alpha 90.000000
_cell_angle_beta 76.401423
_cell_angle_gamma 90.000000
_cell_volume 2827.594136
_symmetry_space_group_name_H-M "C 2/M"
_symmetry_group_IT_number 12
_symmetry_cell_setting 'monoclinic'
loop_
_space_group_symop_operation_xyz
x,y,z
-x,y,-z
-x,-y,-z
x,-y,z
1/2+x,1/2+y,z
1/2-x,1/2+y,-z
1/2-x,1/2-y,-z
1/2+x,1/2-y,z
loop_
_atom_site_type_symbol
_atom_site_label
_atom_site_fract_x
_atom_site_fract_y
_atom_site_fract_z
Si Si1 0.901765 0.674288 0.302320
Si Si2 0.416582 0.174008 0.806092
Si Si3 0.118460 0.326435 0.934214
Si Si4 0.006825 0.825799 0.626177
Si Si5 0.732112 0.825090 0.896118
Si Si6 0.802487 0.666377 0.478921
Si Si7 0.183768 0.667485 0.273973
O O1 0.909807 0.500000 0.317793
O O2 0.910178 0.718638 0.166153
O O3 0.939971 0.763700 0.359439
O O4 0.844486 0.722165 0.366963
O O5 0.462633 0.259256 0.725881
O O6 0.365105 0.219348 0.769961
O O7 0.426942 0.000000 0.791361
O O8 0.412191 0.228576 0.938878
O O9 0.122903 0.500000 0.939945
O O10 0.175737 0.265056 0.901166
O O11 0.000000 0.777505 0.500000
O O12 0.006341 0.000000 0.639648
O O13 0.768761 0.773338 0.775838
O O14 0.734225 0.000000 0.906891
O O15 0.750000 0.750000 0.000000
O O16 0.788222 0.500000 0.457922
O O17 0.750000 0.750000 0.500000
O O18 0.828587 0.681288 0.587379
O O19 0.197829 0.500000 0.232409
#
# Coordination Sequence:
#
# PCOD8099295 Si02
#       7
#     8   8   8   8   8   8   8
#     4  10  21  40  64  87 113 154 199 235 283 345
#     4  10  20  38  62  85 113 150 194 241 284 341
#     4   9  19  36  59  87 118 151 193 239 282 339
#     4  11  25  43  61  85 116 147 187 243 301 350
#     4  11  20  34  56  84 120 158 194 235 284 340
#     4  10  21  36  57  85 118 155 196 240 286 344
#     4  10  20  35  55  83 117 153 197 244 288 339
#
# _framework density 19.804822000000001
#
# number of rings (size 3 to 8) (size 9 to 14) (size 15 to 20)
#    0.000    1.857    1.429    2.571    0.000    5.714 
#    0.000    5.000    0.000    0.000    0.000    0.000 
#    0.000    0.000    0.000    0.000    0.000    0.000 
#
# Total GULP energy -347213.984681 kJ/mol
# GULP energy per Si atom -12400.499453 kJ/mol
# Density = 1.975975 g / cm^3
# Si number density = 19.804822 Si / 1000 Ang^3
#
#
#
# Elastic Constant Matrix: (Units=GPa)
#
#
# Indices 1 2 3 4 5 6 
#
# 1 122.7526 46.8323 68.9070 0.0000 -2.2571 0.0000
# 2 46.8323 59.7374 41.1682 0.0000 -4.6043 0.0000
# 3 68.9070 41.1682 145.2397 0.0000 -5.0933 0.0000
# 4 0.0000 0.0000 0.0000 29.0365 0.0000 -4.5386
# 5 -2.2571 -4.6043 -5.0933 0.0000 36.8479 0.0000
# 6 0.0000 0.0000 0.0000 -4.5386 0.0000 32.9289
#
#
#
# Elastic Compliance Matrix: (Units=1/GPa)
#
#
# Indices 1 2 3 4 5 6 
#
# 1 0.013432 -0.007676 -0.004222 0.000000 -0.000720 0.000000
# 2 -0.007676 0.025309 -0.003454 0.000000 0.002215 0.000000
# 3 -0.004222 -0.003454 0.009891 0.000000 0.000677 0.000000
# 4 0.000000 0.000000 0.000000 0.035198 0.000000 0.004851
# 5 -0.000720 0.002215 0.000677 0.000000 0.027465 0.000000
# 6 0.000000 0.000000 0.000000 0.004851 0.000000 0.031037
#
#
# Mechanical properties :
#
#
# Convention : Reuss Voigt Hill
#
# Bulk Modulus (GPa) = 55.78147 71.28273 63.53210
# Shear Modulus (GPa) = 27.93111 31.15082 29.54097
#
# Velocity S-wave (km/s) = 3.75950 3.97027 3.86632
# Velocity P-wave (km/s) = 6.86089 7.55567 7.21665
#
# Compressibility (1/GPa) = 0.01792710
#
# Stress axis : x y z
#
# Youngs Moduli (GPa) = 74.45041 39.51172 101.10061
#
# Poissons Ratio (x) = 0.30329 0.42685
# Poissons Ratio (y) = 0.57148 0.34924
# Poissons Ratio (z) = 0.31433 0.13649
#
# Static dielectric constant tensor:
#      x y z
#    x 3.659190 0.000000 0.030640 
#    y 0.000000 3.492490 0.000000 
#    z 0.030640 0.000000 4.078840 
# 
# 
# High freq. dielectric constant tensor:
#      x y z
#    x 1.773060 0.000000 0.003640 
#    y 0.000000 1.747590 0.000000 
#    z 0.003640 0.000000 1.792880 
# 
# From -- ./inp_files/180833.got.cif
#   From: 2010.06.25/outbox.cif.g09.slc.cpg/sg12_91_cif.got.tgz:180833.got - 2010.06.28 00:19:55.
