data_PCOD8099381
_publ_section_title
;
Structure prediction by ZEFSAII (Michael W. Deem and Ramdas Pophale) SiO2 
 PCOD8099381
Probable space group: C 2/M
;
_chemical_formula_sum "Si O2"
_cell_formula_units_Z 64
_cell_length_a 29.168344
_cell_length_b 9.184956
_cell_length_c 25.148597
_cell_angle_alpha 90.000000
_cell_angle_beta 149.243419
_cell_angle_gamma 90.000000
_cell_volume 3445.532652
_symmetry_space_group_name_H-M "C 2/M"
_symmetry_group_IT_number 12
_symmetry_cell_setting 'monoclinic'
loop_
_space_group_symop_operation_xyz
x,y,z
-x,y,-z
-x,-y,-z
x,-y,z
1/2+x,1/2+y,z
1/2-x,1/2+y,-z
1/2-x,1/2-y,-z
1/2+x,1/2-y,z
loop_
_atom_site_type_symbol
_atom_site_label
_atom_site_fract_x
_atom_site_fract_y
_atom_site_fract_z
Si Si1 0.666435 0.830433 0.279894
Si Si2 0.000232 0.169173 0.161775
Si Si3 0.731487 0.328990 0.244289
Si Si4 0.597606 0.332493 0.614893
Si Si5 0.802888 0.830360 0.506718
Si Si6 0.498161 0.669575 0.281655
Si Si7 0.319123 0.330830 0.924684
Si Si8 0.350912 0.331804 0.214042
O O1 0.583397 0.769186 0.230053
O O2 0.671675 0.746249 0.229566
O O3 0.756621 0.803730 0.403714
O O4 0.650990 0.000000 0.253177
O O5 0.974741 0.200774 0.197242
O O6 0.025715 0.000000 0.178744
O O7 0.916611 0.215955 0.042193
O O8 0.734554 0.500000 0.257949
O O9 0.831681 0.265840 0.346219
O O10 0.686191 0.290083 0.142767
O O11 0.500000 0.280379 0.500000
O O12 0.615237 0.500000 0.616524
O O13 0.604354 0.308148 0.684260
O O14 0.750000 0.750000 0.500000
O O15 0.904053 0.766660 0.605337
O O16 0.803878 0.000000 0.523079
O O17 0.500340 0.500000 0.297198
O O18 0.419467 0.738572 0.239472
O O19 0.301782 0.500000 0.916756
O O20 0.244140 0.248546 0.884221
O O21 0.331771 0.500000 0.182948
#
# Coordination Sequence:
#
# PCOD8099381 Si02
#       8
#     8   8   8   8   8   8   8   8
#     4  11  23  36  55  84 113 140 179 226 272 322
#     4  10  20  37  59  78 105 145 185 222 270 325
#     4  10  21  37  55  76 108 144 183 225 270 324
#     4   9  18  32  53  78 107 142 180 222 268 319
#     4  10  20  35  56  79 110 144 176 219 266 320
#     4   9  18  33  55  81 107 140 178 214 261 324
#     4   9  20  38  57  78 106 142 182 228 272 316
#     4   9  18  33  54  79 107 141 178 218 268 322
#
# _framework density 18.574777000000001
#
# number of rings (size 3 to 8) (size 9 to 14) (size 15 to 20)
#    0.000    2.375    1.250    0.750    1.750    2.750 
#    0.000    3.750    0.000    0.000    0.000    0.000 
#    0.000    0.000    0.000    0.000    0.000    0.000 
#
# Total GULP energy -396871.951340 kJ/mol
# GULP energy per Si atom -12402.248479 kJ/mol
# Density = 1.853250 g / cm^3
# Si number density = 18.574777 Si / 1000 Ang^3
#
#
#
# Elastic Constant Matrix: (Units=GPa)
#
#
# Indices 1 2 3 4 5 6 
#
# 1 99.4917 38.9853 16.6868 0.0000 -1.9500 0.0000
# 2 38.9853 59.6108 30.3808 0.0000 0.8777 0.0000
# 3 16.6868 30.3808 95.6117 0.0000 0.7886 0.0000
# 4 0.0000 0.0000 0.0000 24.6945 0.0000 5.3049
# 5 -1.9500 0.8777 0.7886 0.0000 16.5093 0.0000
# 6 0.0000 0.0000 0.0000 5.3049 0.0000 32.1646
#
#
#
# Elastic Compliance Matrix: (Units=1/GPa)
#
#
# Indices 1 2 3 4 5 6 
#
# 1 0.013608 -0.009201 0.000532 0.000000 0.002071 0.000000
# 2 -0.009201 0.026248 -0.006717 0.000000 -0.002161 0.000000
# 3 0.000532 -0.006717 0.012502 0.000000 -0.000177 0.000000
# 4 0.000000 0.000000 0.000000 0.041982 0.000000 -0.006924
# 5 0.002071 -0.002161 -0.000177 0.000000 0.060940 0.000000
# 6 0.000000 0.000000 0.000000 -0.006924 0.000000 0.032232
#
#
# Mechanical properties :
#
#
# Convention : Reuss Voigt Hill
#
# Bulk Modulus (GPa) = 46.32719 47.42445 46.87582
# Shear Modulus (GPa) = 22.17501 25.91777 24.04639
#
# Velocity S-wave (km/s) = 3.45892 3.73945 3.60192
# Velocity P-wave (km/s) = 6.39900 6.65069 6.52606
#
# Compressibility (1/GPa) = 0.02158560
#
# Stress axis : x y z
#
# Youngs Moduli (GPa) = 73.48691 38.09834 79.98788
#
# Poissons Ratio (x) = 0.35054 -0.04252
# Poissons Ratio (y) = 0.67615 0.53725
# Poissons Ratio (z) = -0.03907 0.25589
#
# Static dielectric constant tensor:
#      x y z
#    x 3.465520 0.000000 0.038440 
#    y 0.000000 3.287340 0.000000 
#    z 0.038440 0.000000 3.567310 
# 
# 
# High freq. dielectric constant tensor:
#      x y z
#    x 1.725870 0.000000 0.000830 
#    y 0.000000 1.703780 0.000000 
#    z 0.000830 0.000000 1.725370 
# 
# From -- ./inp_files/249901.got.cif
#   From: 2010.06.25/outbox.cif.g09.slc.cpg/sg12_125_cif.got.tgz:249901.got - 2010.06.28 00:19:55.
