data_PCOD8099787
_publ_section_title
;
Structure prediction by ZEFSAII (Michael W. Deem and Ramdas Pophale) SiO2 
 PCOD8099787
Probable space group: C 2/M
;
_chemical_formula_sum "Si O2"
_cell_formula_units_Z 52
_cell_length_a 18.611404
_cell_length_b 11.964445
_cell_length_c 13.452327
_cell_angle_alpha 90.000000
_cell_angle_beta 62.356154
_cell_angle_gamma 90.000000
_cell_volume 2653.558709
_symmetry_space_group_name_H-M "C 2/M"
_symmetry_group_IT_number 12
_symmetry_cell_setting 'monoclinic'
loop_
_space_group_symop_operation_xyz
x,y,z
-x,y,-z
-x,-y,-z
x,-y,z
1/2+x,1/2+y,z
1/2-x,1/2+y,-z
1/2-x,1/2-y,-z
1/2+x,1/2-y,z
loop_
_atom_site_type_symbol
_atom_site_label
_atom_site_fract_x
_atom_site_fract_y
_atom_site_fract_z
Si Si1 0.159106 0.732481 0.837269
Si Si2 0.995186 0.741127 0.388368
Si Si3 0.431468 0.372325 0.256753
Si Si4 0.826855 0.734632 0.813437
Si Si5 0.645486 0.000000 0.142108
Si Si6 0.904929 0.500000 0.054839
Si Si7 0.390962 0.372201 0.945034
Si Si8 0.993887 0.500000 0.385884
O O1 0.134806 0.789664 0.748612
O O2 0.256492 0.729691 0.782863
O O3 0.128302 0.606317 0.864344
O O4 0.117196 0.805963 0.948471
O O5 0.088343 0.733694 0.296529
O O6 0.951487 0.620368 0.391742
O O7 0.000000 0.773911 0.500000
O O8 0.945347 0.835732 0.362194
O O9 0.400140 0.500000 0.274984
O O10 0.515798 0.359406 0.145288
O O11 0.802752 0.612293 0.872645
O O12 0.830451 0.821582 0.901952
O O13 0.575023 0.000000 0.269067
O O14 0.615912 0.000000 0.047919
O O15 0.000000 0.500000 0.000000
O O16 0.366185 0.500000 0.977064
O O17 0.000000 0.500000 0.500000
#
# Coordination Sequence:
#
# PCOD8099787 Si02
#       8
#     8   8   8   8   4   4   8   4
#     4  12  24  35  54  82 121 150 189 230 281 332
#     4   9  19  39  64  87 108 142 191 239 291 343
#     4  10  22  38  56  84 112 151 188 232 280 341
#     4  10  22  35  56  86 113 149 191 238 280 333
#     4  10  20  36  56  82 116 151 200 228 279 336
#     4  12  26  36  56  84 118 162 190 228 279 340
#     4  10  20  35  57  76 114 154 192 226 270 333
#     4   8  16  32  60  88 110 134 184 245 282 321
#
# _framework density 19.596326000000001
#
# number of rings (size 3 to 8) (size 9 to 14) (size 15 to 20)
#    0.000    1.846    1.538    2.308    7.538    1.538 
#    0.000    0.769    0.000    0.000    0.000    0.000 
#    0.000    0.000    0.000    0.000    0.000    0.000 
#
# Total GULP energy -322259.326060 kJ/mol
# GULP energy per Si atom -12394.589464 kJ/mol
# Density = 1.955172 g / cm^3
# Si number density = 19.596326 Si / 1000 Ang^3
#
#
#
# Elastic Constant Matrix: (Units=GPa)
#
#
# Indices 1 2 3 4 5 6 
#
# 1 102.6447 50.6135 15.3593 0.0000 26.3593 0.0000
# 2 50.6135 156.3230 36.5463 0.0000 16.7323 0.0000
# 3 15.3593 36.5463 74.4376 0.0000 24.7074 0.0000
# 4 0.0000 0.0000 0.0000 25.0211 0.0000 5.0443
# 5 26.3593 16.7323 24.7074 0.0000 20.3351 0.0000
# 6 0.0000 0.0000 0.0000 5.0443 0.0000 25.5309
#
#
#
# Elastic Compliance Matrix: (Units=1/GPa)
#
#
# Indices 1 2 3 4 5 6 
#
# 1 0.018779 -0.004812 0.008803 0.000000 -0.031079 0.000000
# 2 -0.004812 0.008552 -0.004928 0.000000 0.005188 0.000000
# 3 0.008803 -0.004928 0.027616 0.000000 -0.040910 0.000000
# 4 0.000000 0.000000 0.000000 0.041624 0.000000 -0.008224
# 5 -0.031079 0.005188 -0.040910 0.000000 0.134900 0.000000
# 6 0.000000 0.000000 0.000000 -0.008224 0.000000 0.040793
#
#
# Mechanical properties :
#
#
# Convention : Reuss Voigt Hill
#
# Bulk Modulus (GPa) = 18.84143 59.82707 39.33425
# Shear Modulus (GPa) = 17.13340 29.56982 23.35161
#
# Velocity S-wave (km/s) = 2.96009 3.88873 3.45575
# Velocity P-wave (km/s) = 4.61720 7.12453 6.00323
#
# Compressibility (1/GPa) = 0.05307453
#
# Stress axis : x y z
#
# Youngs Moduli (GPa) = 53.25158 116.93653 36.21094
#
# Poissons Ratio (x) = 0.56266 -0.31878
# Poissons Ratio (y) = 0.25623 0.17844
# Poissons Ratio (z) = -0.46879 0.57622
#
# Static dielectric constant tensor:
#      x y z
#    x 3.339920 0.000000 0.093090 
#    y 0.000000 3.291940 0.000000 
#    z 0.093090 0.000000 3.450720 
# 
# 
# High freq. dielectric constant tensor:
#      x y z
#    x 1.742940 0.000000 0.010800 
#    y 0.000000 1.786720 0.000000 
#    z 0.010800 0.000000 1.747140 
# 
# From -- ./inp_files/222485.got.cif
#   From: 2010.06.25/outbox.cif.g09.slc.cpg/sg12_112_cif.got.tgz:222485.got - 2010.06.28 00:19:55.
