data_PCOD8099328
_publ_section_title
;
Structure prediction by ZEFSAII (Michael W. Deem and Ramdas Pophale) SiO2 
 PCOD8099328
Probable space group: C 2/M
;
_chemical_formula_sum "Si O2"
_cell_formula_units_Z 48
_cell_length_a 26.889150
_cell_length_b 9.844143
_cell_length_c 18.550069
_cell_angle_alpha 90.000000
_cell_angle_beta 30.963523
_cell_angle_gamma 90.000000
_cell_volume 2526.267663
_symmetry_space_group_name_H-M "C 2/M"
_symmetry_group_IT_number 12
_symmetry_cell_setting 'monoclinic'
loop_
_space_group_symop_operation_xyz
x,y,z
-x,y,-z
-x,-y,-z
x,-y,z
1/2+x,1/2+y,z
1/2-x,1/2+y,-z
1/2-x,1/2-y,-z
1/2+x,1/2-y,z
loop_
_atom_site_type_symbol
_atom_site_label
_atom_site_fract_x
_atom_site_fract_y
_atom_site_fract_z
Si Si1 0.576712 0.655504 0.705708
Si Si2 0.408290 0.345469 0.574852
Si Si3 0.921981 0.339828 0.158479
Si Si4 0.296713 0.660428 0.579899
Si Si5 0.623797 0.347706 0.113148
Si Si6 0.271208 0.651186 0.874978
O O1 0.587950 0.500000 0.719893
O O2 0.554636 0.755366 0.798906
O O3 0.670357 0.701484 0.542222
O O4 0.489827 0.667279 0.756677
O O5 0.500000 0.271458 0.500000
O O6 0.441024 0.500000 0.517201
O O7 0.369460 0.274394 0.549477
O O8 0.316655 0.340230 0.740442
O O9 0.926886 0.500000 0.170419
O O10 0.814111 0.294851 0.268328
O O11 0.000000 0.301721 0.000000
O O12 0.304301 0.500000 0.579844
O O13 0.658166 0.500000 0.053121
O O14 0.648703 0.307579 0.164618
O O15 0.680219 0.250578 0.988290
O O16 0.232250 0.500000 0.938718
#
# Coordination Sequence:
#
# PCOD8099328 Si02
#       6
#     8   8   8   8   8   8
#     4  10  20  35  56  76 103 140 177 215 259 312
#     4   9  16  27  49  78 104 131 170 214 254 300
#     4  10  22  37  55  79 107 135 170 220 269 311
#     4   9  18  33  52  76 106 138 172 215 262 305
#     4   9  18  31  47  73 105 136 170 212 259 303
#     4   9  17  29  49  75 103 136 174 212 253 305
#
# _framework density 19.000361999999999
#
# number of rings (size 3 to 8) (size 9 to 14) (size 15 to 20)
#    0.000    2.667    0.000    1.500    2.333    5.000 
#    0.000    0.000    0.000    1.500    0.000    0.000 
#    0.000    0.000    0.000    0.000    0.000    0.000 
#
# Total GULP energy -297440.852241 kJ/mol
# GULP energy per Si atom -12393.368843 kJ/mol
# Density = 1.895712 g / cm^3
# Si number density = 19.000362 Si / 1000 Ang^3
#
#
#
# Elastic Constant Matrix: (Units=GPa)
#
#
# Indices 1 2 3 4 5 6 
#
# 1 89.8819 28.1967 46.1482 0.0003 4.7114 -0.0002
# 2 28.1967 45.5000 36.0390 -0.0016 4.1568 0.0001
# 3 46.1482 36.0390 115.3446 0.0009 1.4752 -0.0013
# 4 0.0003 -0.0016 0.0009 19.1125 -0.0001 -0.4568
# 5 4.7114 4.1568 1.4752 -0.0001 27.0151 0.0002
# 6 -0.0002 0.0001 -0.0013 -0.4568 0.0002 20.7288
#
#
#
# Elastic Compliance Matrix: (Units=1/GPa)
#
#
# Indices 1 2 3 4 5 6 
#
# 1 0.015241 -0.005970 -0.004213 -0.000001 -0.001509 0.000000
# 2 -0.005970 0.031982 -0.007560 0.000003 -0.003467 -0.000001
# 3 -0.004213 -0.007560 0.012702 -0.000001 0.001204 0.000001
# 4 -0.000001 0.000003 -0.000001 0.052349 0.000000 0.001154
# 5 -0.001509 -0.003467 0.001204 0.000000 0.037747 0.000000
# 6 0.000000 -0.000001 0.000001 0.001154 0.000000 0.048268
#
#
# Mechanical properties :
#
#
# Convention : Reuss Voigt Hill
#
# Bulk Modulus (GPa) = 40.91785 52.38827 46.65306
# Shear Modulus (GPa) = 20.66786 22.72745 21.69766
#
# Velocity S-wave (km/s) = 3.30170 3.46231 3.38296
# Velocity P-wave (km/s) = 6.00974 6.60420 6.31397
#
# Compressibility (1/GPa) = 0.02443921
#
# Stress axis : x y z
#
# Youngs Moduli (GPa) = 65.61350 31.26727 78.72806
#
# Poissons Ratio (x) = 0.18666 0.33169
# Poissons Ratio (y) = 0.39171 0.59518
# Poissons Ratio (z) = 0.27644 0.23638
#
# Static dielectric constant tensor:
#      x y z
#    x 3.560760 0.000000 -0.077070 
#    y 0.000000 3.211120 0.000000 
#    z -0.077070 0.000000 3.539330 
# 
# 
# High freq. dielectric constant tensor:
#      x y z
#    x 1.744890 0.000000 -0.003830 
#    y 0.000000 1.688450 0.000000 
#    z -0.003830 0.000000 1.744230 
# 
# From -- ./inp_files/232810.got.cif
#   From: 2010.06.25/outbox.cif.g09.slc.cpg/sg12_117_cif.got.tgz:232810.got - 2010.06.28 00:19:55.
