data_PCOD8099325
_publ_section_title
;
Structure prediction by ZEFSAII (Michael W. Deem and Ramdas Pophale) SiO2 
 PCOD8099325
Probable space group: C 2/M
;
_chemical_formula_sum "Si O2"
_cell_formula_units_Z 64
_cell_length_a 17.424367
_cell_length_b 14.243362
_cell_length_c 21.583330
_cell_angle_alpha 90.000000
_cell_angle_beta 148.727269
_cell_angle_gamma 90.000000
_cell_volume 2780.669448
_symmetry_space_group_name_H-M "C 2/M"
_symmetry_group_IT_number 12
_symmetry_cell_setting 'monoclinic'
loop_
_space_group_symop_operation_xyz
x,y,z
-x,y,-z
-x,-y,-z
x,-y,z
1/2+x,1/2+y,z
1/2-x,1/2+y,-z
1/2-x,1/2-y,-z
1/2+x,1/2-y,z
loop_
_atom_site_type_symbol
_atom_site_label
_atom_site_fract_x
_atom_site_fract_y
_atom_site_fract_z
Si Si1 0.096491 0.889632 0.006593
Si Si2 0.904814 0.709808 0.236133
Si Si3 0.643115 0.710903 0.676518
Si Si4 0.318546 0.890350 0.512338
Si Si5 0.642999 0.606843 0.505864
Si Si6 0.828234 0.396295 0.379674
Si Si7 0.873055 0.396763 0.766961
Si Si8 0.077983 0.761679 0.884186
O O1 0.268820 0.860564 0.127678
O O2 0.085909 0.000000 0.993416
O O3 0.028215 0.848001 0.894426
O O4 0.000000 0.855581 0.000000
O O5 0.839299 0.787547 0.237297
O O6 0.972786 0.763269 0.222925
O O7 0.029656 0.658200 0.362592
O O8 0.472780 0.680258 0.543175
O O9 0.701622 0.809620 0.687418
O O10 0.746382 0.625851 0.728592
O O11 0.180552 0.861381 0.461239
O O12 0.273712 0.865019 0.410704
O O13 0.349834 0.000000 0.540589
O O14 0.580754 0.500000 0.466044
O O15 0.800052 0.613188 0.648785
O O16 0.759167 0.500000 0.312323
O O17 0.000000 0.413786 0.500000
O O18 0.934076 0.500000 0.821142
O O19 0.013172 0.330786 0.871486
O O20 0.250000 0.750000 0.000000
#
# Coordination Sequence:
#
# PCOD8099325 Si02
#       8
#     8   8   8   8   8   8   8   8
#     4  10  22  43  69  95 124 158 202 266 337 402
#     4  11  22  37  64  92 127 170 214 264 320 391
#     4  12  24  38  61  95 140 182 222 268 314 379
#     4  10  20  36  58  87 123 172 228 269 313 379
#     4  10  22  39  60  89 128 178 230 270 313 376
#     4  10  20  35  55  86 130 177 223 269 318 370
#     4  11  23  41  66  94 127 171 225 270 322 389
#     4  10  23  43  67  97 122 155 214 276 331 387
#
# _framework density 23.016041000000001
#
# number of rings (size 3 to 8) (size 9 to 14) (size 15 to 20)
#    0.000    1.500    2.500    2.625    0.000    5.000 
#    0.000    1.875    0.000    7.875    0.000    0.000 
#    0.000    0.000    0.000    0.000    0.000    0.000 
#
# Total GULP energy -396518.932446 kJ/mol
# GULP energy per Si atom -12391.216639 kJ/mol
# Density = 2.296366 g / cm^3
# Si number density = 23.016041 Si / 1000 Ang^3
#
#
#
# Elastic Constant Matrix: (Units=GPa)
#
#
# Indices 1 2 3 4 5 6 
#
# 1 161.2647 55.5253 17.0294 -0.0015 -8.0617 -0.0005
# 2 55.5253 100.2406 29.0310 -0.0017 -1.7833 -0.0013
# 3 17.0294 29.0310 38.4935 -0.0009 6.6033 -0.0025
# 4 -0.0015 -0.0017 -0.0009 37.6622 -0.0005 -4.8667
# 5 -8.0617 -1.7833 6.6033 -0.0005 34.4073 -0.0003
# 6 -0.0005 -0.0013 -0.0025 -4.8667 -0.0003 34.5788
#
#
#
# Elastic Compliance Matrix: (Units=1/GPa)
#
#
# Indices 1 2 3 4 5 6 
#
# 1 0.007761 -0.004079 -0.000655 0.000000 0.001733 0.000000
# 2 -0.004079 0.015135 -0.009907 0.000000 0.001730 0.000000
# 3 -0.000655 -0.009907 0.035007 0.000001 -0.007385 0.000002
# 4 0.000000 0.000000 0.000001 0.027044 0.000000 0.003806
# 5 0.001733 0.001730 -0.007385 0.000000 0.030977 0.000000
# 6 0.000000 0.000000 0.000002 0.003806 0.000000 0.029455
#
#
# Mechanical properties :
#
#
# Convention : Reuss Voigt Hill
#
# Bulk Modulus (GPa) = 34.93801 55.90780 45.42291
# Shear Modulus (GPa) = 27.14446 34.55722 30.85084
#
# Velocity S-wave (km/s) = 3.43792 3.87905 3.66513
# Velocity P-wave (km/s) = 5.56524 6.66380 6.13914
#
# Compressibility (1/GPa) = 0.02862212
#
# Stress axis : x y z
#
# Youngs Moduli (GPa) = 128.84882 66.07119 28.56600
#
# Poissons Ratio (x) = 0.26947 0.01870
# Poissons Ratio (y) = 0.52552 0.28301
# Poissons Ratio (z) = 0.08436 0.65457
#
# Static dielectric constant tensor:
#      x y z
#    x 4.915990 -0.000020 -0.135390 
#    y -0.000020 4.293260 0.000000 
#    z -0.135390 0.000000 3.852040 
# 
# 
# High freq. dielectric constant tensor:
#      x y z
#    x 1.937500 0.000000 0.009620 
#    y 0.000000 1.907080 0.000000 
#    z 0.009620 0.000000 1.875860 
# 
# From -- ./inp_files/344081.got.cif
#   From: 2010.06.25/outbox.cif.g09.slc.cpg/sg12_173_cif.got.tgz:344081.got - 2010.06.28 00:19:55.
