data_PCOD8099136
_publ_section_title
;
Structure prediction by ZEFSAII (Michael W. Deem and Ramdas Pophale) SiO2 
 PCOD8099136
Probable space group: C 2/M
;
_chemical_formula_sum "Si O2"
_cell_formula_units_Z 64
_cell_length_a 18.341829
_cell_length_b 8.906647
_cell_length_c 20.394576
_cell_angle_alpha 90.000000
_cell_angle_beta 92.949287
_cell_angle_gamma 90.000000
_cell_volume 3327.330510
_symmetry_space_group_name_H-M "C 2/M"
_symmetry_group_IT_number 12
_symmetry_cell_setting 'monoclinic'
loop_
_space_group_symop_operation_xyz
x,y,z
-x,y,-z
-x,-y,-z
x,-y,z
1/2+x,1/2+y,z
1/2-x,1/2+y,-z
1/2-x,1/2-y,-z
1/2+x,1/2-y,z
loop_
_atom_site_type_symbol
_atom_site_label
_atom_site_fract_x
_atom_site_fract_y
_atom_site_fract_z
Si Si1 0.332358 0.174813 0.931690
Si Si2 0.433300 0.824976 0.195282
Si Si3 0.677786 0.171763 0.288869
Si Si4 0.825880 0.829123 0.583225
Si Si5 0.585236 0.323071 0.175429
Si Si6 0.177456 0.171802 0.557835
Si Si7 0.818009 0.325657 0.080791
Si Si8 0.350678 0.331207 0.303125
O O1 0.396312 0.257838 0.895389
O O2 0.253279 0.230803 0.904195
O O3 0.337669 0.000000 0.916456
O O4 0.344673 0.211278 0.008658
O O5 0.506827 0.731852 0.194925
O O6 0.382101 0.777124 0.132447
O O7 0.393356 0.788039 0.261424
O O8 0.451965 0.000000 0.193917
O O9 0.643180 0.224881 0.357005
O O10 0.646502 0.270445 0.228960
O O11 0.764254 0.196522 0.293589
O O12 0.655476 0.000000 0.276393
O O13 0.865427 0.804199 0.513712
O O14 0.741316 0.793540 0.565774
O O15 0.834189 0.000000 0.607421
O O16 0.585376 0.500000 0.171320
O O17 0.125654 0.192738 0.619379
O O18 0.209259 0.000000 0.561527
O O19 0.797494 0.500000 0.087349
O O20 0.370118 0.500000 0.280722
#
# Coordination Sequence:
#
# PCOD8099136 Si02
#       8
#     8   8   8   8   8   8   8   8
#     4  10  20  37  61  86 112 141 175 218 265 312
#     4  11  23  38  55  77 107 142 180 221 265 313
#     4  10  20  35  55  79 108 141 177 220 270 322
#     4   9  15  25  45  74 105 137 175 219 266 314
#     4  12  25  39  55  77 107 142 181 222 266 319
#     4   8  15  27  44  70 106 142 175 216 266 317
#     4   9  20  38  60  85 112 143 178 216 261 316
#     4   9  18  33  53  78 107 140 177 217 263 315
#
# _framework density 19.234638
#
# number of rings (size 3 to 8) (size 9 to 14) (size 15 to 20)
#    0.000    2.250    0.000    4.125    0.000    7.000 
#    0.000    2.500    0.000    0.750    0.000    5.250 
#    0.000    0.000    0.000    0.000    0.000    0.000 
#
# Total GULP energy -396727.040401 kJ/mol
# GULP energy per Si atom -12397.720013 kJ/mol
# Density = 1.919086 g / cm^3
# Si number density = 19.234638 Si / 1000 Ang^3
#
#
#
# Elastic Constant Matrix: (Units=GPa)
#
#
# Indices 1 2 3 4 5 6 
#
# 1 51.6247 32.6615 36.9040 0.0000 -14.2257 0.0000
# 2 32.6615 91.4547 41.6463 0.0000 -11.8465 0.0000
# 3 36.9040 41.6463 117.6877 0.0000 -22.0011 0.0000
# 4 0.0000 0.0000 0.0000 34.6262 0.0000 -3.6606
# 5 -14.2257 -11.8465 -22.0011 0.0000 9.9978 0.0000
# 6 0.0000 0.0000 0.0000 -3.6606 0.0000 27.3943
#
#
#
# Elastic Compliance Matrix: (Units=1/GPa)
#
#
# Indices 1 2 3 4 5 6 
#
# 1 0.035628 -0.007011 -0.001303 0.000000 0.039519 0.000000
# 2 -0.007011 0.014909 -0.002786 0.000000 0.001559 0.000000
# 3 -0.001303 -0.002786 0.015168 0.000000 0.028223 0.000000
# 4 0.000000 0.000000 0.000000 0.029294 0.000000 0.003914
# 5 0.039519 0.001559 0.028223 0.000000 0.220207 0.000000
# 6 0.000000 0.000000 0.000000 0.003914 0.000000 0.037027
#
#
# Mechanical properties :
#
#
# Convention : Reuss Voigt Hill
#
# Bulk Modulus (GPa) = 22.98652 53.68785 38.33719
# Shear Modulus (GPa) = 12.85566 24.37402 18.61484
#
# Velocity S-wave (km/s) = 2.58807 3.56363 3.11429
# Velocity P-wave (km/s) = 4.57245 6.70114 5.73640
#
# Compressibility (1/GPa) = 0.04350376
#
# Stress axis : x y z
#
# Youngs Moduli (GPa) = 28.06790 67.07407 65.93028
#
# Poissons Ratio (x) = 0.47029 0.08591
# Poissons Ratio (y) = 0.19680 0.18367
# Poissons Ratio (z) = 0.03657 0.18685
#
# Static dielectric constant tensor:
#      x y z
#    x 3.076230 0.000000 -0.070120 
#    y 0.000000 3.581850 0.000000 
#    z -0.070120 0.000000 3.980130 
# 
# 
# High freq. dielectric constant tensor:
#      x y z
#    x 1.697970 0.000000 -0.006900 
#    y 0.000000 1.755990 0.000000 
#    z -0.006900 0.000000 1.772990 
# 
# From -- ./inp_files/314074.got.cif
#   From: 2010.06.25/outbox.cif.g09.slc.cpg/sg12_158_cif.got.tgz:314074.got - 2010.06.28 00:19:55.
