data_PCOD8099486
_publ_section_title
;
Structure prediction by ZEFSAII (Michael W. Deem and Ramdas Pophale) SiO2 
 PCOD8099486
Probable space group: C 2/M
;
_chemical_formula_sum "Si O2"
_cell_formula_units_Z 48
_cell_length_a 32.153538
_cell_length_b 8.986695
_cell_length_c 16.108772
_cell_angle_alpha 90.000000
_cell_angle_beta 32.755393
_cell_angle_gamma 90.000000
_cell_volume 2518.439494
_symmetry_space_group_name_H-M "C 2/M"
_symmetry_group_IT_number 12
_symmetry_cell_setting 'monoclinic'
loop_
_space_group_symop_operation_xyz
x,y,z
-x,y,-z
-x,-y,-z
x,-y,z
1/2+x,1/2+y,z
1/2-x,1/2+y,-z
1/2-x,1/2-y,-z
1/2+x,1/2-y,z
loop_
_atom_site_type_symbol
_atom_site_label
_atom_site_fract_x
_atom_site_fract_y
_atom_site_fract_z
Si Si1 0.436722 0.673214 0.537845
Si Si2 0.730614 0.675601 0.118739
Si Si3 0.141743 0.172198 0.623181
Si Si4 0.642882 0.176511 0.965726
Si Si5 0.184556 0.672839 0.714244
Si Si6 0.523953 0.823634 0.699297
O O1 0.500000 0.712307 0.500000
O O2 0.437937 0.500000 0.511523
O O3 0.354602 0.721896 0.711173
O O4 0.453101 0.767732 0.429299
O O5 0.738297 0.500000 0.095105
O O6 0.789915 0.738025 0.087731
O O7 0.750000 0.750000 0.000000
O O8 0.140385 0.232935 0.719039
O O9 0.224379 0.198463 0.443056
O O10 0.080421 0.261772 0.673582
O O11 0.119007 0.000000 0.662109
O O12 0.656083 0.235494 0.850349
O O13 0.646858 0.000000 0.957427
O O14 0.561548 0.234131 0.136321
O O15 0.163976 0.500000 0.735773
O O16 0.528176 0.000000 0.693751
#
# Coordination Sequence:
#
# PCOD8099486 Si02
#       6
#     8   8   8   8   8   8
#     4  10  21  37  57  81 110 142 175 218 274 323
#     4  10  20  36  57  80 108 141 177 217 263 315
#     4  10  20  35  56  81 109 139 174 221 273 319
#     4   9  19  35  54  76 104 141 181 219 261 311
#     4   9  18  36  59  78 102 140 182 220 262 318
#     4  11  22  35  54  79 107 141 182 222 260 313
#
# _framework density 19.059419999999999
#
# number of rings (size 3 to 8) (size 9 to 14) (size 15 to 20)
#    0.000    2.167    0.000    3.000    0.000    5.000 
#    0.000    6.667    0.000    0.000    0.000    0.000 
#    0.000    0.000    0.000    0.000    0.000    0.000 
#
# Total GULP energy -297690.328686 kJ/mol
# GULP energy per Si atom -12403.763695 kJ/mol
# Density = 1.901604 g / cm^3
# Si number density = 19.059420 Si / 1000 Ang^3
#
#
#
# Elastic Constant Matrix: (Units=GPa)
#
#
# Indices 1 2 3 4 5 6 
#
# 1 164.9548 53.3021 103.1321 0.0000 1.6609 0.0000
# 2 53.3021 52.4929 56.7486 0.0003 1.7303 0.0000
# 3 103.1321 56.7486 163.2101 0.0001 11.3228 0.0000
# 4 0.0000 0.0003 0.0001 1.3689 -0.0001 2.9840
# 5 1.6609 1.7303 11.3228 -0.0001 36.9070 0.0000
# 6 0.0000 0.0000 0.0000 2.9840 0.0000 34.2726
#
#
#
# Elastic Compliance Matrix: (Units=1/GPa)
#
#
# Indices 1 2 3 4 5 6 
#
# 1 0.011114 -0.005827 -0.005089 0.000002 0.001334 0.000000
# 2 -0.005827 0.033705 -0.008119 -0.000008 0.001173 0.000001
# 3 -0.005089 -0.008119 0.012387 0.000001 -0.003191 0.000000
# 4 0.000002 -0.000008 0.000001 0.901635 0.000001 -0.078503
# 5 0.001334 0.001173 -0.003191 0.000001 0.027959 0.000000
# 6 0.000000 0.000001 0.000000 -0.078503 0.000000 0.036013
#
#
# Mechanical properties :
#
#
# Convention : Reuss Voigt Hill
#
# Bulk Modulus (GPa) = 52.25694 89.66925 70.96310
# Shear Modulus (GPa) = 4.68489 25.67472 15.17980
#
# Velocity S-wave (km/s) = 1.56952 3.67425 2.82520
# Velocity P-wave (km/s) = 5.54634 8.07152 6.92501
#
# Compressibility (1/GPa) = 0.01913621
#
# Stress axis : x y z
#
# Youngs Moduli (GPa) = 89.98047 29.66886 80.72942
#
# Poissons Ratio (x) = 0.17289 0.41084
# Poissons Ratio (y) = 0.52433 0.65541
# Poissons Ratio (z) = 0.45792 0.24087
#
# Static dielectric constant tensor:
#      x y z
#    x 3.833480 0.000000 -0.056450 
#    y 0.000000 3.312640 0.000000 
#    z -0.056450 0.000000 3.653890 
# 
# 
# High freq. dielectric constant tensor:
#      x y z
#    x 1.758470 0.000000 0.001930 
#    y 0.000000 1.723320 0.000000 
#    z 0.001930 0.000000 1.750470 
# 
# From -- ./inp_files/248808.got.cif
#   From: 2010.06.25/outbox.cif.g09.slc.cpg/sg12_125_cif.got.tgz:248808.got - 2010.06.28 00:19:55.
