data_PCOD8099745
_publ_section_title
;
Structure prediction by ZEFSAII (Michael W. Deem and Ramdas Pophale) SiO2 
 PCOD8099745
Probable space group: C 2/M
;
_chemical_formula_sum "Si O2"
_cell_formula_units_Z 64
_cell_length_a 29.542560
_cell_length_b 8.808576
_cell_length_c 18.346929
_cell_angle_alpha 90.000000
_cell_angle_beta 139.686827
_cell_angle_gamma 90.000000
_cell_volume 3088.858915
_symmetry_space_group_name_H-M "C 2/M"
_symmetry_group_IT_number 12
_symmetry_cell_setting 'monoclinic'
loop_
_space_group_symop_operation_xyz
x,y,z
-x,y,-z
-x,-y,-z
x,-y,z
1/2+x,1/2+y,z
1/2-x,1/2+y,-z
1/2-x,1/2-y,-z
1/2+x,1/2-y,z
loop_
_atom_site_type_symbol
_atom_site_label
_atom_site_fract_x
_atom_site_fract_y
_atom_site_fract_z
Si Si1 0.397147 0.180525 0.507752
Si Si2 0.194124 0.680994 0.875731
Si Si3 0.544835 0.821908 0.746791
Si Si4 0.591559 0.672302 0.213317
Si Si5 0.196474 0.178517 0.721906
Si Si6 0.945180 0.829012 0.090172
Si Si7 0.669227 0.677248 0.163867
Si Si8 0.821328 0.677168 0.560712
O O1 0.475651 0.241434 0.621248
O O2 0.373281 0.261472 0.403856
O O3 0.344801 0.229921 0.508816
O O4 0.396254 0.000000 0.495547
O O5 0.199445 0.500000 0.886199
O O6 0.116435 0.742202 0.800065
O O7 0.209967 0.736314 0.814130
O O8 0.250000 0.750000 0.000000
O O9 0.542147 0.784011 0.828381
O O10 0.543890 0.000000 0.737612
O O11 0.615742 0.500000 0.259365
O O12 0.507585 0.684234 0.107799
O O13 0.622649 0.727731 0.175141
O O14 0.617094 0.780221 0.308967
O O15 0.261682 0.220529 0.750240
O O16 0.191041 0.000000 0.728352
O O17 0.941369 0.000000 0.116691
O O18 0.873579 0.786684 0.961956
O O19 0.689605 0.500000 0.193509
O O20 0.809565 0.500000 0.546252
O O21 0.750000 0.750000 0.500000
#
# Coordination Sequence:
#
# PCOD8099745 Si02
#       8
#     8   8   8   8   8   8   8   8
#     4  10  22  42  63  85 119 162 204 249 305 365
#     4  11  24  44  70  97 127 161 200 248 303 367
#     4  10  22  41  65  91 120 159 205 251 304 368
#     4  10  20  35  56  85 120 158 203 250 303 364
#     4  12  26  42  62  91 124 158 203 255 306 362
#     4  10  20  35  59  89 122 159 201 251 304 362
#     4  10  21  38  59  85 121 165 207 250 305 366
#     4  11  22  36  57  83 118 161 207 255 304 359
#
# _framework density 20.719626000000002
#
# number of rings (size 3 to 8) (size 9 to 14) (size 15 to 20)
#    0.000    1.500    1.250    3.750    0.000   10.500 
#    0.000    2.500    0.000    2.250    0.000    0.000 
#    0.000    0.000    0.000    0.000    0.000    0.000 
#
# Total GULP energy -396872.457532 kJ/mol
# GULP energy per Si atom -12402.264298 kJ/mol
# Density = 2.067247 g / cm^3
# Si number density = 20.719626 Si / 1000 Ang^3
#
#
#
# Elastic Constant Matrix: (Units=GPa)
#
#
# Indices 1 2 3 4 5 6 
#
# 1 101.0871 32.3904 40.9333 0.0000 6.8792 0.0000
# 2 32.3904 49.7697 38.7828 0.0000 4.3419 0.0000
# 3 40.9333 38.7828 131.1235 0.0000 1.7149 0.0000
# 4 0.0000 0.0000 0.0000 35.2039 0.0000 -1.8402
# 5 6.8792 4.3419 1.7149 0.0000 37.5663 0.0000
# 6 0.0000 0.0000 0.0000 -1.8402 0.0000 27.3919
#
#
#
# Elastic Compliance Matrix: (Units=1/GPa)
#
#
# Indices 1 2 3 4 5 6 
#
# 1 0.012976 -0.006721 -0.002043 0.000000 -0.001506 0.000000
# 2 -0.006721 0.029862 -0.006709 0.000000 -0.001914 0.000000
# 3 -0.002043 -0.006709 0.010240 0.000000 0.000682 0.000000
# 4 0.000000 0.000000 0.000000 0.028506 0.000000 0.001915
# 5 -0.001506 -0.001914 0.000682 0.000000 0.027086 0.000000
# 6 0.000000 0.000000 0.000000 0.001915 0.000000 0.036636
#
#
# Mechanical properties :
#
#
# Convention : Reuss Voigt Hill
#
# Bulk Modulus (GPa) = 45.18666 56.24373 50.71519
# Shear Modulus (GPa) = 27.22889 31.35734 29.29311
#
# Velocity S-wave (km/s) = 3.62907 3.89448 3.76411
# Velocity P-wave (km/s) = 6.27823 6.88671 6.58949
#
# Compressibility (1/GPa) = 0.02213042
#
# Stress axis : x y z
#
# Youngs Moduli (GPa) = 77.06594 33.48755 97.65990
#
# Poissons Ratio (x) = 0.22508 0.19952
# Poissons Ratio (y) = 0.51799 0.65521
# Poissons Ratio (z) = 0.15745 0.22467
#
# Static dielectric constant tensor:
#      x y z
#    x 3.946120 0.000000 0.190660 
#    y 0.000000 3.610390 0.000000 
#    z 0.190660 0.000000 3.951560 
# 
# 
# High freq. dielectric constant tensor:
#      x y z
#    x 1.816710 0.000000 0.007530 
#    y 0.000000 1.794450 0.000000 
#    z 0.007530 0.000000 1.823500 
# 
# From -- ./inp_files/295729.got.cif
#   From: 2010.06.25/outbox.cif.g09.slc.cpg/sg12_148_cif.got.tgz:295729.got - 2010.06.28 00:19:55.
