data_PCOD8099572
_publ_section_title
;
Structure prediction by ZEFSAII (Michael W. Deem and Ramdas Pophale) SiO2 
 PCOD8099572
Probable space group: C 2/M
;
_chemical_formula_sum "Si O2"
_cell_formula_units_Z 32
_cell_length_a 15.301985
_cell_length_b 8.863918
_cell_length_c 14.920482
_cell_angle_alpha 90.000000
_cell_angle_beta 60.470738
_cell_angle_gamma 90.000000
_cell_volume 1760.871102
_symmetry_space_group_name_H-M "C 2/M"
_symmetry_group_IT_number 12
_symmetry_cell_setting 'monoclinic'
loop_
_space_group_symop_operation_xyz
x,y,z
-x,y,-z
-x,-y,-z
x,-y,z
1/2+x,1/2+y,z
1/2-x,1/2+y,-z
1/2-x,1/2-y,-z
1/2+x,1/2-y,z
loop_
_atom_site_type_symbol
_atom_site_label
_atom_site_fract_x
_atom_site_fract_y
_atom_site_fract_z
Si Si1 0.977388 0.170796 0.289738
Si Si2 0.440374 0.328833 0.114429
Si Si3 0.296795 0.822015 0.307366
Si Si4 0.589585 0.174566 0.386254
O O1 0.011407 0.172436 0.167589
O O2 0.866744 0.249466 0.350520
O O3 0.058700 0.263023 0.304794
O O4 0.969527 0.000000 0.330479
O O5 0.406683 0.500000 0.108638
O O6 0.340677 0.230421 0.187575
O O7 0.500000 0.258043 0.000000
O O8 0.184376 0.764048 0.376415
O O9 0.299646 0.000000 0.314583
O O10 0.500000 0.203817 0.500000
O O11 0.617535 0.000000 0.363035
#
# Coordination Sequence:
#
# PCOD8099572 Si02
#       4
#     8   8   8   8
#     4   9  19  36  57  81 110 142 180 223 269 320
#     4   8  16  34  58  81 109 143 177 219 269 318
#     4  10  20  35  56  82 112 143 180 222 268 322
#     4  11  23  38  56  79 108 144 185 227 271 319
#
# _framework density 18.172825
#
# number of rings (size 3 to 8) (size 9 to 14) (size 15 to 20)
#    1.500    1.000    0.000    3.000    0.000    3.500 
#    0.000    1.250    0.000    0.000    0.000    0.000 
#    0.000    0.000    0.000    0.000    0.000    0.000 
#
# Total GULP energy -198255.948439 kJ/mol
# GULP energy per Si atom -12390.996777 kJ/mol
# Density = 1.813146 g / cm^3
# Si number density = 18.172825 Si / 1000 Ang^3
#
#
#
# Elastic Constant Matrix: (Units=GPa)
#
#
# Indices 1 2 3 4 5 6 
#
# 1 59.0392 15.8558 -7.5269 0.0000 0.5093 0.0000
# 2 15.8558 104.5330 19.2440 0.0000 -4.2634 0.0001
# 3 -7.5269 19.2440 38.2066 0.0000 0.6193 0.0000
# 4 0.0000 0.0000 0.0000 18.4114 0.0000 -4.3565
# 5 0.5093 -4.2634 0.6193 0.0000 23.5013 0.0000
# 6 0.0000 0.0001 0.0000 -4.3565 0.0000 35.6928
#
#
#
# Elastic Compliance Matrix: (Units=1/GPa)
#
#
# Indices 1 2 3 4 5 6 
#
# 1 0.018734 -0.003942 0.005697 0.000000 -0.001271 0.000000
# 2 -0.003942 0.011474 -0.006594 0.000000 0.002341 0.000000
# 3 0.005697 -0.006594 0.030651 0.000000 -0.002127 0.000000
# 4 0.000000 0.000000 0.000000 0.055930 0.000000 0.006827
# 5 -0.001271 0.002341 -0.002127 0.000000 0.043059 0.000000
# 6 0.000000 0.000000 0.000000 0.006827 0.000000 0.028850
#
#
# Mechanical properties :
#
#
# Convention : Reuss Voigt Hill
#
# Bulk Modulus (GPa) = 19.53849 28.54717 24.04283
# Shear Modulus (GPa) = 23.20876 27.13483 25.17179
#
# Velocity S-wave (km/s) = 3.57755 3.86833 3.72578
# Velocity P-wave (km/s) = 5.27636 5.97451 5.63625
#
# Compressibility (1/GPa) = 0.05118102
#
# Stress axis : x y z
#
# Youngs Moduli (GPa) = 53.37914 87.15631 32.62494
#
# Poissons Ratio (x) = 0.34359 -0.18586
# Poissons Ratio (y) = 0.21043 0.21512
# Poissons Ratio (z) = -0.30410 0.57468
#
# Static dielectric constant tensor:
#      x y z
#    x 3.129380 0.000000 0.041520 
#    y 0.000000 3.344290 0.000000 
#    z 0.041520 0.000000 3.201840 
# 
# 
# High freq. dielectric constant tensor:
#      x y z
#    x 1.685720 0.000000 0.004080 
#    y 0.000000 1.714920 0.000000 
#    z 0.004080 0.000000 1.683820 
# 
# From -- ./inp_files/138612.got.cif
#   From: 2010.06.25/outbox.cif.g09.slc.cpg/sg12_70_cif.got.tgz:138612.got - 2010.06.28 00:19:55.
