data_PCOD8099963
_publ_section_title
;
Structure prediction by ZEFSAII (Michael W. Deem and Ramdas Pophale) SiO2 
 PCOD8099963
Probable space group: C 2/M
;
_chemical_formula_sum "Si O2"
_cell_formula_units_Z 40
_cell_length_a 12.112424
_cell_length_b 24.492192
_cell_length_c 15.359731
_cell_angle_alpha 90.000000
_cell_angle_beta 153.119909
_cell_angle_gamma 90.000000
_cell_volume 2060.158631
_symmetry_space_group_name_H-M "C 2/M"
_symmetry_group_IT_number 12
_symmetry_cell_setting 'monoclinic'
loop_
_space_group_symop_operation_xyz
x,y,z
-x,y,-z
-x,-y,-z
x,-y,z
1/2+x,1/2+y,z
1/2-x,1/2+y,-z
1/2-x,1/2-y,-z
1/2+x,1/2-y,z
loop_
_atom_site_type_symbol
_atom_site_label
_atom_site_fract_x
_atom_site_fract_y
_atom_site_fract_z
Si Si1 0.500000 0.274548 0.000000
Si Si2 0.280507 0.186105 0.722038
Si Si3 0.132643 0.356805 0.825707
Si Si4 0.907555 0.562085 0.529531
Si Si5 0.646877 0.560209 0.891390
Si Si6 0.500000 0.899163 0.000000
O O1 0.395841 0.239830 0.846308
O O2 0.278912 0.310502 0.879039
O O3 0.423984 0.172542 0.734709
O O4 0.000000 0.195868 0.500000
O O5 0.307969 0.137134 0.810304
O O6 0.018261 0.398210 0.677703
O O7 0.316175 0.391664 0.014007
O O8 0.992982 0.500000 0.608331
O O9 0.618720 0.567759 0.335604
O O10 0.000000 0.580637 0.500000
O O11 0.669783 0.500000 0.951144
O O12 0.844493 0.562731 0.953691
#
# Coordination Sequence:
#
# PCOD8099963 Si02
#       6
#     4   8   8   8   8   4
#     4  11  24  38  56  82 108 142 188 231 274 320
#     4  10  22  39  58  81 109 142 183 230 275 322
#     4  11  22  38  59  81 110 146 182 224 274 324
#     4  10  21  36  56  84 114 144 180 220 266 324
#     4  10  20  35  57  84 114 146 179 218 266 324
#     4   9  19  36  57  84 113 142 179 221 270 324
#
# _framework density 19.415980999999999
#
# number of rings (size 3 to 8) (size 9 to 14) (size 15 to 20)
#    0.000    1.800    0.000    3.900    0.000    3.200 
#    0.000    4.000    0.000    9.600    0.000    0.000 
#    0.000    0.000    0.000    0.000    0.000    0.000 
#
# Total GULP energy -248048.604089 kJ/mol
# GULP energy per Si atom -12402.430204 kJ/mol
# Density = 1.937179 g / cm^3
# Si number density = 19.415981 Si / 1000 Ang^3
#
#
#
# Elastic Constant Matrix: (Units=GPa)
#
#
# Indices 1 2 3 4 5 6 
#
# 1 102.2397 54.0877 46.3456 -0.0005 -7.9018 0.0000
# 2 54.0877 105.2154 52.4582 0.0002 -2.3015 0.0005
# 3 46.3456 52.4582 110.8701 -0.0017 0.2612 -0.0005
# 4 -0.0005 0.0002 -0.0017 36.6049 -0.0009 -1.6230
# 5 -7.9018 -2.3015 0.2612 -0.0009 27.4944 -0.0005
# 6 0.0000 0.0005 -0.0005 -1.6230 -0.0005 43.4861
#
#
#
# Elastic Compliance Matrix: (Units=1/GPa)
#
#
# Indices 1 2 3 4 5 6 
#
# 1 0.014664 -0.005752 -0.003417 0.000000 0.003765 0.000000
# 2 -0.005752 0.014728 -0.004563 0.000000 -0.000377 0.000000
# 3 -0.003417 -0.004563 0.012611 0.000001 -0.001484 0.000000
# 4 0.000000 0.000000 0.000001 0.027364 0.000001 0.001021
# 5 0.003765 -0.000377 -0.001484 0.000001 0.037436 0.000000
# 6 0.000000 0.000000 0.000000 0.001021 0.000000 0.023034
#
#
# Mechanical properties :
#
#
# Convention : Reuss Voigt Hill
#
# Bulk Modulus (GPa) = 68.78630 69.34535 69.06583
# Shear Modulus (GPa) = 30.83616 32.54602 31.69109
#
# Velocity S-wave (km/s) = 3.98953 4.09864 4.04445
# Velocity P-wave (km/s) = 7.53169 7.62834 7.58017
#
# Compressibility (1/GPa) = 0.01453778
#
# Stress axis : x y z
#
# Youngs Moduli (GPa) = 68.19428 67.89676 79.29894
#
# Poissons Ratio (x) = 0.39056 0.27096
# Poissons Ratio (y) = 0.39227 0.36186
# Poissons Ratio (z) = 0.23302 0.30983
#
# Static dielectric constant tensor:
#      x y z
#    x 3.716850 0.000000 -0.012630 
#    y 0.000000 3.656250 0.000000 
#    z -0.012630 0.000000 3.481770 
# 
# 
# High freq. dielectric constant tensor:
#      x y z
#    x 1.766880 0.000000 0.004280 
#    y 0.000000 1.765920 0.000000 
#    z 0.004280 0.000000 1.757960 
# 
# From -- ./inp_files/208724.got.cif
#   From: 2010.06.25/outbox.cif.g09.slc.cpg/sg12_105_cif.got.tgz:208724.got - 2010.06.28 00:19:55.
