data_PCOD8099936
_publ_section_title
;
Structure prediction by ZEFSAII (Michael W. Deem and Ramdas Pophale) SiO2 
 PCOD8099936
Probable space group: C 2/M
;
_chemical_formula_sum "Si O2"
_cell_formula_units_Z 64
_cell_length_a 30.222640
_cell_length_b 9.084350
_cell_length_c 19.835076
_cell_angle_alpha 90.000000
_cell_angle_beta 142.402816
_cell_angle_gamma 90.000000
_cell_volume 3322.504518
_symmetry_space_group_name_H-M "C 2/M"
_symmetry_group_IT_number 12
_symmetry_cell_setting 'monoclinic'
loop_
_space_group_symop_operation_xyz
x,y,z
-x,y,-z
-x,-y,-z
x,-y,z
1/2+x,1/2+y,z
1/2-x,1/2+y,-z
1/2-x,1/2-y,-z
1/2+x,1/2-y,z
loop_
_atom_site_type_symbol
_atom_site_label
_atom_site_fract_x
_atom_site_fract_y
_atom_site_fract_z
Si Si1 0.085976 0.168113 0.711672
Si Si2 0.081989 0.673924 0.092510
Si Si3 0.183349 0.168297 0.952516
Si Si4 0.187373 0.328833 0.338812
Si Si5 0.662798 0.830135 0.686570
Si Si6 0.578821 0.326766 0.468568
Si Si7 0.834757 0.328618 0.534277
Si Si8 0.329421 0.669566 0.912974
O O1 0.112713 0.184581 0.820668
O O2 0.131777 0.276398 0.720351
O O3 0.002436 0.215272 0.608387
O O4 0.095896 0.000000 0.698228
O O5 0.083052 0.500000 0.086941
O O6 0.127430 0.724591 0.212961
O O7 0.115515 0.738804 0.065385
O O8 0.000000 0.733023 0.000000
O O9 0.207931 0.000000 0.990929
O O10 0.250000 0.250000 0.000000
O O11 0.164841 0.232445 0.003896
O O12 0.207021 0.500000 0.353350
O O13 0.156046 0.297984 0.375353
O O14 0.259964 0.236104 0.414788
O O15 0.631849 0.731360 0.589867
O O16 0.748535 0.808223 0.788165
O O17 0.641028 0.000000 0.649977
O O18 0.588485 0.500000 0.471717
O O19 0.597969 0.250008 0.420920
O O20 0.835704 0.500000 0.517976
O O21 0.353062 0.500000 0.938644
#
# Coordination Sequence:
#
# PCOD8099936 Si02
#       8
#     8   8   8   8   8   8   8   8
#     4  10  22  38  57  80 111 151 190 230 282 340
#     4  10  22  39  58  83 114 148 188 231 278 337
#     4  10  20  38  60  83 112 146 189 237 281 332
#     4   9  19  37  59  81 110 146 184 230 283 337
#     4  11  22  37  58  84 113 146 188 236 281 334
#     4  11  23  37  53  80 116 151 187 228 280 343
#     4  10  20  35  57  84 110 142 186 235 281 333
#     4  10  22  38  58  86 115 145 187 235 283 336
#
# _framework density 19.262577
#
# number of rings (size 3 to 8) (size 9 to 14) (size 15 to 20)
#    0.000    1.875    1.250    2.250    0.000    8.250 
#    0.000    0.000    0.000    0.000    0.000    0.000 
#    0.000    0.000    0.000    0.000    0.000    0.000 
#
# Total GULP energy -396945.272762 kJ/mol
# GULP energy per Si atom -12404.539774 kJ/mol
# Density = 1.921873 g / cm^3
# Si number density = 19.262577 Si / 1000 Ang^3
#
#
#
# Elastic Constant Matrix: (Units=GPa)
#
#
# Indices 1 2 3 4 5 6 
#
# 1 130.8073 45.0066 49.5535 0.0000 -2.6604 0.0000
# 2 45.0066 58.9137 26.3244 0.0000 2.9038 0.0000
# 3 49.5535 26.3244 75.1157 0.0000 -11.5695 0.0000
# 4 0.0000 0.0000 0.0000 22.9973 0.0000 -3.9191
# 5 -2.6604 2.9038 -11.5695 0.0000 28.3937 0.0000
# 6 0.0000 0.0000 0.0000 -3.9191 0.0000 38.8527
#
#
#
# Elastic Compliance Matrix: (Units=1/GPa)
#
#
# Indices 1 2 3 4 5 6 
#
# 1 0.012093 -0.006654 -0.005726 0.000000 -0.000519 0.000000
# 2 -0.006654 0.024552 -0.005012 0.000000 -0.005177 0.000000
# 3 -0.005726 -0.005012 0.020104 0.000000 0.008168 0.000000
# 4 0.000000 0.000000 0.000000 0.044244 0.000000 0.004463
# 5 -0.000519 -0.005177 0.008168 0.000000 0.039028 0.000000
# 6 0.000000 0.000000 0.000000 0.004463 0.000000 0.026188
#
#
# Mechanical properties :
#
#
# Convention : Reuss Voigt Hill
#
# Bulk Modulus (GPa) = 45.52507 56.28952 50.90729
# Shear Modulus (GPa) = 24.00215 27.64555 25.82385
#
# Velocity S-wave (km/s) = 3.53377 3.79251 3.66542
# Velocity P-wave (km/s) = 6.35101 6.96155 6.66327
#
# Compressibility (1/GPa) = 0.02196592
#
# Stress axis : x y z
#
# Youngs Moduli (GPa) = 82.69391 40.72988 49.74039
#
# Poissons Ratio (x) = 0.27103 0.28479
# Poissons Ratio (y) = 0.55026 0.24929
# Poissons Ratio (z) = 0.47347 0.20413
#
# Static dielectric constant tensor:
#      x y z
#    x 3.591420 0.000000 -0.097380 
#    y 0.000000 3.516850 0.000000 
#    z -0.097380 0.000000 3.677760 
# 
# 
# High freq. dielectric constant tensor:
#      x y z
#    x 1.755150 0.000000 -0.008470 
#    y 0.000000 1.748130 0.000000 
#    z -0.008470 0.000000 1.754630 
# 
# From -- ./inp_files/295861.got.cif
#   From: 2010.06.25/outbox.cif.g09.slc.cpg/sg12_148_cif.got.tgz:295861.got - 2010.06.28 00:19:55.
