data_PCOD8099402
_publ_section_title
;
Structure prediction by ZEFSAII (Michael W. Deem and Ramdas Pophale) SiO2 
 PCOD8099402
Probable space group: C 2/M
;
_chemical_formula_sum "Si O2"
_cell_formula_units_Z 48
_cell_length_a 25.219680
_cell_length_b 9.043455
_cell_length_c 11.647951
_cell_angle_alpha 90.000000
_cell_angle_beta 89.438546
_cell_angle_gamma 90.000000
_cell_volume 2656.456060
_symmetry_space_group_name_H-M "C 2/M"
_symmetry_group_IT_number 12
_symmetry_cell_setting 'monoclinic'
loop_
_space_group_symop_operation_xyz
x,y,z
-x,y,-z
-x,-y,-z
x,-y,z
1/2+x,1/2+y,z
1/2-x,1/2+y,-z
1/2-x,1/2-y,-z
1/2+x,1/2-y,z
loop_
_atom_site_type_symbol
_atom_site_label
_atom_site_fract_x
_atom_site_fract_y
_atom_site_fract_z
Si Si1 0.000842 0.824949 0.371497
Si Si2 0.807208 0.671694 0.365440
Si Si3 0.060726 0.670752 0.989596
Si Si4 0.594092 0.831161 0.243404
Si Si5 0.199398 0.329784 0.372121
Si Si6 0.900333 0.175459 0.231507
O O1 0.053524 0.774161 0.307818
O O2 0.000000 0.759793 0.500000
O O3 0.949435 0.764803 0.305999
O O4 0.000700 0.000000 0.373559
O O5 0.812124 0.500000 0.334688
O O6 0.820763 0.703317 0.498337
O O7 0.747939 0.724722 0.338239
O O8 0.846586 0.762478 0.284974
O O9 0.061513 0.500000 0.951044
O O10 0.092528 0.767436 0.897570
O O11 0.091182 0.696054 0.107948
O O12 0.000000 0.726326 0.000000
O O13 0.652871 0.791607 0.284380
O O14 0.579568 0.000000 0.274270
O O15 0.217733 0.500000 0.362069
O O16 0.897306 0.000000 0.230571
#
# Coordination Sequence:
#
# PCOD8099402 Si02
#       6
#     8   8   8   8   8   8
#     4  10  21  34  50  77 111 142 173 216 268 319
#     4  10  20  35  57  82 109 142 178 220 270 321
#     4  10  20  36  56  78 107 143 182 223 266 315
#     4  10  20  35  56  80 106 140 179 220 266 316
#     4   9  19  36  57  82 110 140 177 220 269 323
#     4  11  22  35  54  79 109 144 182 222 265 317
#
# _framework density 18.069186999999999
#
# number of rings (size 3 to 8) (size 9 to 14) (size 15 to 20)
#    0.000    2.000    1.667    2.000    0.000    3.333 
#    0.000    0.833    0.000    0.000    0.000    0.000 
#    0.000    0.000    0.000    0.000    0.000    0.000 
#
# Total GULP energy -297711.435741 kJ/mol
# GULP energy per Si atom -12404.643156 kJ/mol
# Density = 1.802806 g / cm^3
# Si number density = 18.069187 Si / 1000 Ang^3
#
#
#
# Elastic Constant Matrix: (Units=GPa)
#
#
# Indices 1 2 3 4 5 6 
#
# 1 96.4240 31.4588 71.5251 0.0000 12.2056 0.0000
# 2 31.4588 47.9361 41.8865 0.0000 -0.3471 0.0000
# 3 71.5251 41.8865 107.2273 0.0000 -9.6093 0.0000
# 4 0.0000 0.0000 0.0000 27.2838 0.0000 -4.8681
# 5 12.2056 -0.3471 -9.6093 0.0000 16.9072 0.0000
# 6 0.0000 0.0000 0.0000 -4.8681 0.0000 33.5882
#
#
#
# Elastic Compliance Matrix: (Units=1/GPa)
#
#
# Indices 1 2 3 4 5 6 
#
# 1 0.036885 0.000518 -0.028651 0.000000 -0.042901 0.000000
# 2 0.000518 0.032422 -0.013681 0.000000 -0.007484 0.000000
# 3 -0.028651 -0.013681 0.037521 0.000000 0.041728 0.000000
# 4 0.000000 0.000000 0.000000 0.037625 0.000000 0.005453
# 5 -0.042901 -0.007484 0.041728 0.000000 0.113680 0.000000
# 6 0.000000 0.000000 0.000000 0.005453 0.000000 0.030563
#
#
# Mechanical properties :
#
#
# Convention : Reuss Voigt Hill
#
# Bulk Modulus (GPa) = 43.10398 60.14759 51.62578
# Shear Modulus (GPa) = 13.15595 22.67029 17.91312
#
# Velocity S-wave (km/s) = 2.70124 3.54593 3.15201
# Velocity P-wave (km/s) = 5.79963 7.07986 6.47148
#
# Compressibility (1/GPa) = 0.02319971
#
# Stress axis : x y z
#
# Youngs Moduli (GPa) = 27.11143 30.84369 26.65167
#
# Poissons Ratio (x) = -0.01598 0.76359
# Poissons Ratio (y) = -0.01405 0.36463
# Poissons Ratio (z) = 0.77676 0.42198
#
# Static dielectric constant tensor:
#      x y z
#    x 3.299580 0.000000 0.163900 
#    y 0.000000 3.290020 0.000000 
#    z 0.163900 0.000000 3.413190 
# 
# 
# High freq. dielectric constant tensor:
#      x y z
#    x 1.698920 0.000000 0.003970 
#    y 0.000000 1.699590 0.000000 
#    z 0.003970 0.000000 1.701420 
# 
# From -- ./inp_files/172069.got.cif
#   From: 2010.06.25/outbox.cif.g09.slc.cpg/sg12_87_cif.got.tgz:172069.got - 2010.06.28 00:19:55.
