data_PCOD8099803
_publ_section_title
;
Structure prediction by ZEFSAII (Michael W. Deem and Ramdas Pophale) SiO2 
 PCOD8099803
Probable space group: C 2/M
;
_chemical_formula_sum "Si O2"
_cell_formula_units_Z 56
_cell_length_a 29.878695
_cell_length_b 8.772481
_cell_length_c 11.870106
_cell_angle_alpha 90.000000
_cell_angle_beta 71.610299
_cell_angle_gamma 90.000000
_cell_volume 2952.392456
_symmetry_space_group_name_H-M "C 2/M"
_symmetry_group_IT_number 12
_symmetry_cell_setting 'monoclinic'
loop_
_space_group_symop_operation_xyz
x,y,z
-x,y,-z
-x,-y,-z
x,-y,z
1/2+x,1/2+y,z
1/2-x,1/2+y,-z
1/2-x,1/2-y,-z
1/2+x,1/2-y,z
loop_
_atom_site_type_symbol
_atom_site_label
_atom_site_fract_x
_atom_site_fract_y
_atom_site_fract_z
Si Si1 0.204583 0.320577 0.479230
Si Si2 0.125004 0.820078 0.692793
Si Si3 0.459207 0.679794 0.388976
Si Si4 0.335261 0.820689 0.119017
Si Si5 0.562151 0.318901 0.348604
Si Si6 0.146969 0.822671 0.128764
Si Si7 0.772353 0.823490 0.765865
O O1 0.205863 0.500000 0.494103
O O2 0.250000 0.250000 0.500000
O O3 0.159211 0.254979 0.575727
O O4 0.203181 0.276765 0.349594
O O5 0.072246 0.774339 0.693979
O O6 0.133041 0.757510 0.810975
O O7 0.133120 0.000000 0.685895
O O8 0.460637 0.500000 0.402126
O O9 0.436738 0.744208 0.523714
O O10 0.513013 0.737333 0.330061
O O11 0.281017 0.766857 0.172806
O O12 0.339256 0.000000 0.130138
O O13 0.355894 0.771569 0.983337
O O14 0.565990 0.500000 0.345755
O O15 0.606403 0.255099 0.242902
O O16 0.198163 0.797101 0.143839
O O17 0.138625 0.000000 0.108128
O O18 0.773762 0.000000 0.727792
#
# Coordination Sequence:
#
# PCOD8099803 Si02
#       7
#     8   8   8   8   8   8   8
#     4  12  23  35  54  80 111 144 178 219 266 318
#     4  11  21  35  56  81 110 144 182 223 271 323
#     4   8  15  29  54  85 111 135 169 219 276 325
#     4  11  23  37  52  73 109 150 186 225 269 324
#     4   8  14  29  54  84 111 133 168 224 278 320
#     4  10  20  35  57  81 106 140 184 230 274 320
#     4  10  21  37  56  79 107 142 184 228 272 318
#
# _framework density 18.967668
#
# number of rings (size 3 to 8) (size 9 to 14) (size 15 to 20)
#    0.000    2.000    1.429    4.286    0.000    3.429 
#    0.000    0.714    0.000    6.000    0.000    6.000 
#    0.000    0.000    0.000    0.000    0.000    0.000 
#
# Total GULP energy -347178.746339 kJ/mol
# GULP energy per Si atom -12399.240941 kJ/mol
# Density = 1.892450 g / cm^3
# Si number density = 18.967668 Si / 1000 Ang^3
#
#
#
# Elastic Constant Matrix: (Units=GPa)
#
#
# Indices 1 2 3 4 5 6 
#
# 1 124.6125 34.2283 51.0248 0.0000 15.2569 0.0000
# 2 34.2283 62.5550 29.3936 0.0000 10.0059 0.0000
# 3 51.0248 29.3936 104.5949 0.0000 12.3736 0.0000
# 4 0.0000 0.0000 0.0000 26.7362 0.0000 0.3779
# 5 15.2569 10.0059 12.3736 0.0000 25.8606 0.0000
# 6 0.0000 0.0000 0.0000 0.3779 0.0000 16.8605
#
#
#
# Elastic Compliance Matrix: (Units=1/GPa)
#
#
# Indices 1 2 3 4 5 6 
#
# 1 0.011055 -0.003665 -0.003985 0.000000 -0.003197 0.000000
# 2 -0.003665 0.020245 -0.003424 0.000000 -0.004033 0.000000
# 3 -0.003985 -0.003424 0.012754 0.000000 -0.002427 0.000000
# 4 0.000000 0.000000 0.000000 0.037414 0.000000 -0.000838
# 5 -0.003197 -0.004033 -0.002427 0.000000 0.043277 0.000000
# 6 0.000000 0.000000 0.000000 -0.000838 0.000000 0.059329
#
#
# Mechanical properties :
#
#
# Convention : Reuss Voigt Hill
#
# Bulk Modulus (GPa) = 45.65004 57.89511 51.77257
# Shear Modulus (GPa) = 23.41658 25.69918 24.55788
#
# Velocity S-wave (km/s) = 3.51743 3.68488 3.60213
# Velocity P-wave (km/s) = 6.37307 6.97809 6.68243
#
# Compressibility (1/GPa) = 0.02190579
#
# Stress axis : x y z
#
# Youngs Moduli (GPa) = 90.46008 49.39379 78.40716
#
# Poissons Ratio (x) = 0.18103 0.31242
# Poissons Ratio (y) = 0.33154 0.26850
# Poissons Ratio (z) = 0.36045 0.16915
#
# Static dielectric constant tensor:
#      x y z
#    x 4.398940 0.000000 -0.116230 
#    y 0.000000 3.281080 0.000000 
#    z -0.116230 0.000000 3.495430 
# 
# 
# High freq. dielectric constant tensor:
#      x y z
#    x 1.745140 0.000000 0.005950 
#    y 0.000000 1.709150 0.000000 
#    z 0.005950 0.000000 1.732640 
# 
# From -- ./inp_files/186439.got.cif
#   From: 2010.06.25/outbox.cif.g09.slc.cpg/sg12_94_cif.got.tgz:186439.got - 2010.06.28 00:19:55.
