data_PCOD8099036
_publ_section_title
;
Structure prediction by ZEFSAII (Michael W. Deem and Ramdas Pophale) SiO2 
 PCOD8099036
Probable space group: C 2/M
;
_chemical_formula_sum "Si O2"
_cell_formula_units_Z 56
_cell_length_a 9.593681
_cell_length_b 17.644229
_cell_length_c 21.067721
_cell_angle_alpha 90.000000
_cell_angle_beta 54.363638
_cell_angle_gamma 90.000000
_cell_volume 2898.360678
_symmetry_space_group_name_H-M "C 2/M"
_symmetry_group_IT_number 12
_symmetry_cell_setting 'monoclinic'
loop_
_space_group_symop_operation_xyz
x,y,z
-x,y,-z
-x,-y,-z
x,-y,z
1/2+x,1/2+y,z
1/2-x,1/2+y,-z
1/2-x,1/2-y,-z
1/2+x,1/2-y,z
loop_
_atom_site_type_symbol
_atom_site_label
_atom_site_fract_x
_atom_site_fract_y
_atom_site_fract_z
Si Si1 0.895844 0.082025 0.591769
Si Si2 0.280754 0.085971 0.679117
Si Si3 0.816754 0.647584 0.028337
Si Si4 0.937403 0.086181 0.143215
Si Si5 0.320661 0.336903 0.418266
Si Si6 0.313155 0.316155 0.068371
Si Si7 0.120668 0.332736 0.599670
O O1 0.706651 0.110304 0.626395
O O2 0.000000 0.073842 0.500000
O O3 0.987841 0.143920 0.610425
O O4 0.884285 0.000000 0.628821
O O5 0.120705 0.095424 0.768732
O O6 0.222197 0.102385 0.623586
O O7 0.421615 0.148974 0.658662
O O8 0.353879 0.000000 0.662411
O O9 0.642442 0.602306 0.089229
O O10 0.806876 0.724996 0.072608
O O11 0.823886 0.659576 0.949626
O O12 0.000000 0.608140 0.000000
O O13 0.804666 0.141287 0.138786
O O14 0.910514 0.000000 0.126024
O O15 0.180655 0.345102 0.511181
O O16 0.329537 0.251339 0.390544
O O17 0.500000 0.345657 0.000000
#
# Coordination Sequence:
#
# PCOD8099036 Si02
#       7
#     8   8   8   8   8   8   8
#     4   9  17  30  49  72  96 123 160 211 268 316
#     4  11  23  37  53  77 111 148 184 221 266 326
#     4   9  17  33  59  86 107 135 181 227 263 311
#     4  10  22  37  52  78 116 150 179 217 268 322
#     4  10  20  35  55  78 103 134 179 232 276 314
#     4   8  16  33  57  81 107 140 175 213 263 322
#     4  10  20  35  55  77 101 135 182 229 272 323
#
# _framework density 19.321266000000001
#
# number of rings (size 3 to 8) (size 9 to 14) (size 15 to 20)
#    0.000    2.429    0.000    3.000    0.000    8.571 
#    0.000    1.429    0.000    3.429    0.000    0.000 
#    0.000    0.000    0.000    0.000    0.000    0.000 
#
# Total GULP energy -346883.865509 kJ/mol
# GULP energy per Si atom -12388.709482 kJ/mol
# Density = 1.927729 g / cm^3
# Si number density = 19.321266 Si / 1000 Ang^3
#
#
#
# Elastic Constant Matrix: (Units=GPa)
#
#
# Indices 1 2 3 4 5 6 
#
# 1 104.0762 27.2599 25.5057 -0.0002 -7.6073 0.0000
# 2 27.2599 90.5855 29.9241 -0.0001 0.8739 0.0001
# 3 25.5057 29.9241 54.0088 -0.0004 -7.8395 0.0003
# 4 -0.0002 -0.0001 -0.0004 23.9580 0.0001 -2.2249
# 5 -7.6073 0.8739 -7.8395 0.0001 16.8406 0.0000
# 6 0.0000 0.0001 0.0003 -2.2249 0.0000 47.4309
#
#
#
# Elastic Compliance Matrix: (Units=1/GPa)
#
#
# Indices 1 2 3 4 5 6 
#
# 1 0.011340 -0.002264 -0.003583 0.000000 0.003572 0.000000
# 2 -0.002264 0.014288 -0.007618 0.000000 -0.005311 0.000000
# 3 -0.003583 -0.007618 0.026008 0.000000 0.010884 0.000000
# 4 0.000000 0.000000 0.000000 0.041922 0.000000 0.001966
# 5 0.003572 -0.005311 0.010884 0.000000 0.066336 0.000000
# 6 0.000000 0.000000 0.000000 0.001966 0.000000 0.021176
#
#
# Mechanical properties :
#
#
# Convention : Reuss Voigt Hill
#
# Bulk Modulus (GPa) = 40.47359 46.00555 43.23957
# Shear Modulus (GPa) = 23.12277 28.71129 25.91703
#
# Velocity S-wave (km/s) = 3.46316 3.85904 3.66645
# Velocity P-wave (km/s) = 6.08149 6.61202 6.35229
#
# Compressibility (1/GPa) = 0.02470747
#
# Stress axis : x y z
#
# Youngs Moduli (GPa) = 88.18052 69.98682 38.44907
#
# Poissons Ratio (x) = 0.15842 0.13776
# Poissons Ratio (y) = 0.19960 0.29292
# Poissons Ratio (z) = 0.31593 0.53319
#
# Static dielectric constant tensor:
#      x y z
#    x 3.856480 0.000000 0.102750 
#    y 0.000000 3.586540 0.000000 
#    z 0.102750 0.000000 3.269210 
# 
# 
# High freq. dielectric constant tensor:
#      x y z
#    x 1.759190 0.000000 0.003690 
#    y 0.000000 1.754900 0.000000 
#    z 0.003690 0.000000 1.709840 
# 
# From -- ./inp_files/300688.got.cif
#   From: 2010.06.25/outbox.cif.g09.slc.cpg/sg12_151_cif.got.tgz:300688.got - 2010.06.28 00:19:55.
