data_PCOD8099498
_publ_section_title
;
Structure prediction by ZEFSAII (Michael W. Deem and Ramdas Pophale) SiO2 
 PCOD8099498
Probable space group: C 2/M
;
_chemical_formula_sum "Si O2"
_cell_formula_units_Z 56
_cell_length_a 17.959315
_cell_length_b 8.833319
_cell_length_c 25.275480
_cell_angle_alpha 90.000000
_cell_angle_beta 45.023588
_cell_angle_gamma 90.000000
_cell_volume 2836.461002
_symmetry_space_group_name_H-M "C 2/M"
_symmetry_group_IT_number 12
_symmetry_cell_setting 'monoclinic'
loop_
_space_group_symop_operation_xyz
x,y,z
-x,y,-z
-x,-y,-z
x,-y,z
1/2+x,1/2+y,z
1/2-x,1/2+y,-z
1/2-x,1/2-y,-z
1/2+x,1/2-y,z
loop_
_atom_site_type_symbol
_atom_site_label
_atom_site_fract_x
_atom_site_fract_y
_atom_site_fract_z
Si Si1 0.312419 0.820163 0.272022
Si Si2 0.415280 0.824408 0.428121
Si Si3 0.458066 0.180015 0.871313
Si Si4 0.183887 0.321008 0.153799
Si Si5 0.874629 0.178924 0.708917
Si Si6 0.397588 0.823424 0.017150
Si Si7 0.246668 0.323408 0.582157
O O1 0.425742 0.753262 0.198274
O O2 0.226345 0.763415 0.273264
O O3 0.282812 0.761324 0.345201
O O4 0.317360 0.000000 0.270742
O O5 0.521780 0.728429 0.374525
O O6 0.347203 0.770554 0.512261
O O7 0.352850 0.792310 0.405346
O O8 0.442762 0.000000 0.420776
O O9 0.378070 0.238224 0.866749
O O10 0.416513 0.239562 0.948571
O O11 0.464314 0.000000 0.869316
O O12 0.179847 0.500000 0.159460
O O13 0.125149 0.255195 0.234013
O O14 0.303312 0.266062 0.091710
O O15 0.872814 0.000000 0.716595
O O16 0.368763 0.000000 0.031603
O O17 0.500000 0.790563 0.000000
O O18 0.276788 0.500000 0.567232
#
# Coordination Sequence:
#
# PCOD8099498 Si02
#       7
#     8   8   8   8   8   8   8
#     4   9  18  34  56  79 103 138 184 226 262 309
#     4  10  20  35  56  81 110 141 175 221 273 320
#     4   9  18  34  56  81 108 140 179 221 266 315
#     4  11  22  36  56  81 111 143 176 221 274 321
#     4  11  22  36  56  80 107 141 183 225 265 317
#     4  10  20  36  59  83 109 143 182 221 261 313
#     4   9  18  35  58  80 105 141 183 221 262 318
#
# _framework density 19.742912
#
# number of rings (size 3 to 8) (size 9 to 14) (size 15 to 20)
#    0.000    2.143    0.000    3.429    0.000    6.000 
#    0.000    5.000    0.000    6.000    0.000    0.000 
#    0.000    0.000    0.000    0.000    0.000    0.000 
#
# Total GULP energy -347318.066141 kJ/mol
# GULP energy per Si atom -12404.216648 kJ/mol
# Density = 1.969798 g / cm^3
# Si number density = 19.742912 Si / 1000 Ang^3
#
#
#
# Elastic Constant Matrix: (Units=GPa)
#
#
# Indices 1 2 3 4 5 6 
#
# 1 71.5619 26.7903 24.9066 -0.0001 -6.7411 0.0002
# 2 26.7903 42.7425 21.0290 0.0001 -8.8066 0.0002
# 3 24.9066 21.0290 101.0066 0.0000 -9.8576 0.0002
# 4 -0.0001 0.0001 0.0000 29.5725 0.0000 1.6119
# 5 -6.7411 -8.8066 -9.8576 0.0000 37.1534 0.0000
# 6 0.0002 0.0002 0.0002 1.6119 0.0000 23.1507
#
#
#
# Elastic Compliance Matrix: (Units=1/GPa)
#
#
# Indices 1 2 3 4 5 6 
#
# 1 0.018781 -0.010528 -0.002413 0.000000 0.000272 0.000000
# 2 -0.010528 0.032854 -0.003768 0.000000 0.004877 0.000000
# 3 -0.002413 -0.003768 0.011446 0.000000 0.001706 0.000000
# 4 0.000000 0.000000 0.000000 0.033944 0.000000 -0.002363
# 5 0.000272 0.004877 0.001706 0.000000 0.028574 0.000000
# 6 0.000000 0.000000 0.000000 -0.002363 0.000000 0.043360
#
#
# Mechanical properties :
#
#
# Convention : Reuss Voigt Hill
#
# Bulk Modulus (GPa) = 33.71206 40.08476 36.89841
# Shear Modulus (GPa) = 23.55566 27.48099 25.51833
#
# Velocity S-wave (km/s) = 3.45790 3.73492 3.59908
# Velocity P-wave (km/s) = 5.74938 6.24075 6.00010
#
# Compressibility (1/GPa) = 0.02966297
#
# Stress axis : x y z
#
# Youngs Moduli (GPa) = 53.24624 30.43798 87.36553
#
# Poissons Ratio (x) = 0.32047 0.21077
# Poissons Ratio (y) = 0.56060 0.32917
# Poissons Ratio (z) = 0.12846 0.11468
#
# Static dielectric constant tensor:
#      x y z
#    x 3.721930 0.000000 0.046330 
#    y 0.000000 3.266390 0.000000 
#    z 0.046330 0.000000 3.715940 
# 
# 
# High freq. dielectric constant tensor:
#      x y z
#    x 1.776540 0.000000 0.000420 
#    y 0.000000 1.739270 0.000000 
#    z 0.000420 0.000000 1.786250 
# 
# From -- ./inp_files/362961.got.cif
#   From: 2010.06.25/outbox.cif.g09.slc.cpg/sg12_182_cif.got.tgz:362961.got - 2010.06.28 00:19:55.
