data_PCOD8099448
_publ_section_title
;
Structure prediction by ZEFSAII (Michael W. Deem and Ramdas Pophale) SiO2 
 PCOD8099448
Probable space group: C 2/M
;
_chemical_formula_sum "Si O2"
_cell_formula_units_Z 64
_cell_length_a 31.192362
_cell_length_b 8.638620
_cell_length_c 15.259811
_cell_angle_alpha 90.000000
_cell_angle_beta 47.670553
_cell_angle_gamma 90.000000
_cell_volume 3039.861125
_symmetry_space_group_name_H-M "C 2/M"
_symmetry_group_IT_number 12
_symmetry_cell_setting 'monoclinic'
loop_
_space_group_symop_operation_xyz
x,y,z
-x,y,-z
-x,-y,-z
x,-y,z
1/2+x,1/2+y,z
1/2-x,1/2+y,-z
1/2-x,1/2-y,-z
1/2+x,1/2-y,z
loop_
_atom_site_type_symbol
_atom_site_label
_atom_site_fract_x
_atom_site_fract_y
_atom_site_fract_z
Si Si1 0.118062 0.179085 0.185358
Si Si2 0.415861 0.182784 0.365114
Si Si3 0.167582 0.819606 0.776332
Si Si4 0.295504 0.818703 0.588552
Si Si5 0.807842 0.824733 0.754511
Si Si6 0.550796 0.182285 0.867039
Si Si7 0.322406 0.826124 0.056683
Si Si8 0.496815 0.180201 0.606869
O O1 0.148449 0.237891 0.232352
O O2 0.050247 0.206714 0.287255
O O3 0.132518 0.000000 0.147501
O O4 0.137909 0.284684 0.078889
O O5 0.349011 0.248720 0.456302
O O6 0.452431 0.243937 0.229874
O O7 0.445515 0.224962 0.417397
O O8 0.411309 0.000000 0.362608
O O9 0.230717 0.753598 0.654670
O O10 0.115341 0.723187 0.808124
O O11 0.165524 0.795716 0.883170
O O12 0.159475 0.000000 0.765763
O O13 0.312699 0.785129 0.664654
O O14 0.291028 0.000000 0.583204
O O15 0.743796 0.816912 0.883738
O O16 0.823362 0.000000 0.704777
O O17 0.542698 0.000000 0.881022
O O18 0.500000 0.255757 0.000000
O O19 0.337876 0.000000 0.067683
O O20 0.500000 0.220077 0.500000
O O21 0.480886 0.000000 0.642440
#
# Coordination Sequence:
#
# PCOD8099448 Si02
#       8
#     8   8   8   8   8   8   8   8
#     4  11  22  34  51  79 115 151 189 240 297 346
#     4   9  19  37  59  84 113 148 197 246 283 335
#     4  10  21  37  58  87 117 145 182 237 300 349
#     4   9  18  35  60  84 111 147 188 238 292 344
#     4   9  19  34  52  79 115 151 188 234 287 344
#     4  10  22  39  60  84 113 155 198 237 283 341
#     4  10  20  35  56  80 109 150 195 235 280 343
#     4  10  21  37  58  83 110 149 200 244 285 340
#
# _framework density 21.053594
#
# number of rings (size 3 to 8) (size 9 to 14) (size 15 to 20)
#    0.000    2.250    0.000    2.250    1.750    4.000 
#    0.000    1.875    0.000    0.000    0.000    0.000 
#    0.000    0.000    0.000    0.000    0.000    0.000 
#
# Total GULP energy -396571.678282 kJ/mol
# GULP energy per Si atom -12392.864946 kJ/mol
# Density = 2.100567 g / cm^3
# Si number density = 21.053594 Si / 1000 Ang^3
#
#
#
# Elastic Constant Matrix: (Units=GPa)
#
#
# Indices 1 2 3 4 5 6 
#
# 1 104.3154 0.6269 54.9274 0.0000 -10.8241 -0.0002
# 2 0.6269 16.7217 11.6221 0.0004 -4.7379 0.0000
# 3 54.9274 11.6221 149.6365 0.0000 -13.3355 0.0000
# 4 0.0000 0.0004 0.0000 21.0153 0.0000 -2.3393
# 5 -10.8241 -4.7379 -13.3355 0.0000 17.6683 0.0000
# 6 -0.0002 0.0000 0.0000 -2.3393 0.0000 24.7384
#
#
#
# Elastic Compliance Matrix: (Units=1/GPa)
#
#
# Indices 1 2 3 4 5 6 
#
# 1 0.012442 0.004127 -0.004406 0.000000 0.005403 0.000000
# 2 0.004127 0.068092 -0.005308 -0.000001 0.016781 0.000000
# 3 -0.004406 -0.005308 0.008947 0.000000 0.002630 0.000000
# 4 0.000000 -0.000001 0.000000 0.048091 0.000000 0.004548
# 5 0.005403 0.016781 0.002630 0.000000 0.066394 0.000000
# 6 0.000000 0.000000 0.000000 0.004548 0.000000 0.040853
#
#
# Mechanical properties :
#
#
# Convention : Reuss Voigt Hill
#
# Bulk Modulus (GPa) = 12.77034 45.00295 28.88664
# Shear Modulus (GPa) = 17.72453 26.25088 21.98770
#
# Velocity S-wave (km/s) = 2.90466 3.53492 3.23517
# Velocity P-wave (km/s) = 4.16271 6.17112 5.26360
#
# Compressibility (1/GPa) = 0.07830646
#
# Stress axis : x y z
#
# Youngs Moduli (GPa) = 80.37112 14.68608 111.77023
#
# Poissons Ratio (x) = -0.06061 0.49248
# Poissons Ratio (y) = -0.33169 0.59328
# Poissons Ratio (z) = 0.35413 0.07795
#
# Static dielectric constant tensor:
#      x y z
#    x 3.842400 0.000000 -0.108430 
#    y 0.000000 3.468460 0.000000 
#    z -0.108430 0.000000 4.112690 
# 
# 
# High freq. dielectric constant tensor:
#      x y z
#    x 1.825010 0.000000 -0.007850 
#    y 0.000000 1.795900 0.000000 
#    z -0.007850 0.000000 1.832020 
# 
# From -- ./inp_files/249690.got.cif
#   From: 2010.06.25/outbox.cif.g09.slc.cpg/sg12_125_cif.got.tgz:249690.got - 2010.06.28 00:19:55.
