data_PCOD8099613
_publ_section_title
;
Structure prediction by ZEFSAII (Michael W. Deem and Ramdas Pophale) SiO2 
 PCOD8099613
Probable space group: C 2/M
;
_chemical_formula_sum "Si O2"
_cell_formula_units_Z 56
_cell_length_a 19.312115
_cell_length_b 8.846612
_cell_length_c 19.206495
_cell_angle_alpha 90.000000
_cell_angle_beta 120.006666
_cell_angle_gamma 90.000000
_cell_volume 2841.557132
_symmetry_space_group_name_H-M "C 2/M"
_symmetry_group_IT_number 12
_symmetry_cell_setting 'monoclinic'
loop_
_space_group_symop_operation_xyz
x,y,z
-x,y,-z
-x,-y,-z
x,-y,z
1/2+x,1/2+y,z
1/2-x,1/2+y,-z
1/2-x,1/2-y,-z
1/2+x,1/2-y,z
loop_
_atom_site_type_symbol
_atom_site_label
_atom_site_fract_x
_atom_site_fract_y
_atom_site_fract_z
Si Si1 0.804098 0.322531 0.587435
Si Si2 0.766232 0.671262 0.318681
Si Si3 0.983324 0.679806 0.689297
Si Si4 0.447455 0.172311 0.414611
Si Si5 0.583806 0.179597 0.008547
Si Si6 0.605084 0.820052 0.862012
Si Si7 0.258744 0.678652 0.852935
O O1 0.800248 0.500000 0.573273
O O2 0.750000 0.250000 0.500000
O O3 0.779210 0.284608 0.653626
O O4 0.894371 0.258741 0.630525
O O5 0.733789 0.500000 0.310660
O O6 0.856401 0.681312 0.390611
O O7 0.761474 0.723943 0.236462
O O8 0.981697 0.500000 0.693967
O O9 0.037215 0.743760 0.653226
O O10 0.027397 0.741431 0.780882
O O11 0.500000 0.256459 0.500000
O O12 0.477710 0.000000 0.424018
O O13 0.657258 0.243692 0.089066
O O14 0.587141 0.000000 0.012270
O O15 0.500000 0.236613 0.000000
O O16 0.594299 0.240779 0.934970
O O17 0.687995 0.761074 0.868468
O O18 0.607228 0.000000 0.861336
O O19 0.267625 0.500000 0.865522
#
# Coordination Sequence:
#
# PCOD8099613 Si02
#       7
#     8   8   8   8   8   8   8
#     4  11  23  37  57  82 113 152 188 230 278 329
#     4  10  20  35  56  83 111 141 182 231 280 330
#     4   9  17  31  54  81 105 139 187 230 269 323
#     4   9  15  27  51  80 104 131 178 231 267 312
#     4  10  22  36  56  84 114 147 184 230 276 329
#     4   9  17  34  56  81 110 142 186 233 277 327
#     4  10  20  36  59  83 111 145 181 229 282 333
#
# _framework density 19.707505000000001
#
# number of rings (size 3 to 8) (size 9 to 14) (size 15 to 20)
#    0.000    2.286    1.429    1.714    2.000    3.143 
#    0.000    0.000    0.000    6.429    0.000    0.000 
#    0.000    0.000    0.000    0.000    0.000    0.000 
#
# Total GULP energy -347030.138052 kJ/mol
# GULP energy per Si atom -12393.933502 kJ/mol
# Density = 1.966265 g / cm^3
# Si number density = 19.707505 Si / 1000 Ang^3
#
#
#
# Elastic Constant Matrix: (Units=GPa)
#
#
# Indices 1 2 3 4 5 6 
#
# 1 122.0109 21.2557 45.5163 0.0000 4.1374 0.0000
# 2 21.2557 22.3807 17.2193 0.0000 1.6957 0.0000
# 3 45.5163 17.2193 117.8712 0.0000 9.3653 0.0000
# 4 0.0000 0.0000 0.0000 24.2416 0.0000 3.3197
# 5 4.1374 1.6957 9.3653 0.0000 42.5136 0.0000
# 6 0.0000 0.0000 0.0000 3.3197 0.0000 19.5594
#
#
#
# Elastic Compliance Matrix: (Units=1/GPa)
#
#
# Indices 1 2 3 4 5 6 
#
# 1 0.010673 -0.007847 -0.002970 0.000000 -0.000072 0.000000
# 2 -0.007847 0.056114 -0.005140 0.000000 -0.000342 0.000000
# 3 -0.002970 -0.005140 0.010526 0.000000 -0.001825 0.000000
# 4 0.000000 0.000000 0.000000 0.042233 0.000000 -0.007168
# 5 -0.000072 -0.000342 -0.001825 0.000000 0.023944 0.000000
# 6 0.000000 0.000000 0.000000 -0.007168 0.000000 0.052343
#
#
# Mechanical properties :
#
#
# Convention : Reuss Voigt Hill
#
# Bulk Modulus (GPa) = 22.02593 47.80503 34.91548
# Shear Modulus (GPa) = 20.58625 29.14770 24.86697
#
# Velocity S-wave (km/s) = 3.23552 3.84997 3.55604
# Velocity P-wave (km/s) = 5.01585 6.63875 5.88352
#
# Compressibility (1/GPa) = 0.04540103
#
# Stress axis : x y z
#
# Youngs Moduli (GPa) = 93.69300 17.82081 94.99890
#
# Poissons Ratio (x) = 0.13983 0.28210
# Poissons Ratio (y) = 0.73517 0.48832
# Poissons Ratio (z) = 0.27822 0.09160
#
# Static dielectric constant tensor:
#      x y z
#    x 3.767380 0.000000 -0.034710 
#    y 0.000000 3.050540 0.000000 
#    z -0.034710 0.000000 3.860770 
# 
# 
# High freq. dielectric constant tensor:
#      x y z
#    x 1.779240 0.000000 -0.000010 
#    y 0.000000 1.708360 0.000000 
#    z -0.000010 0.000000 1.789420 
# 
# From -- ./inp_files/275686.got.cif
#   From: 2010.06.25/outbox.cif.g09.slc.cpg/sg12_138_cif.got.tgz:275686.got - 2010.06.28 00:19:55.
