data_PCOD8099374
_publ_section_title
;
Structure prediction by ZEFSAII (Michael W. Deem and Ramdas Pophale) SiO2 
 PCOD8099374
Probable space group: C 2/M
;
_chemical_formula_sum "Si O2"
_cell_formula_units_Z 64
_cell_length_a 24.464455
_cell_length_b 8.903904
_cell_length_c 16.451734
_cell_angle_alpha 90.000000
_cell_angle_beta 76.507801
_cell_angle_gamma 90.000000
_cell_volume 3484.764234
_symmetry_space_group_name_H-M "C 2/M"
_symmetry_group_IT_number 12
_symmetry_cell_setting 'monoclinic'
loop_
_space_group_symop_operation_xyz
x,y,z
-x,y,-z
-x,-y,-z
x,-y,z
1/2+x,1/2+y,z
1/2-x,1/2+y,-z
1/2-x,1/2-y,-z
1/2+x,1/2-y,z
loop_
_atom_site_type_symbol
_atom_site_label
_atom_site_fract_x
_atom_site_fract_y
_atom_site_fract_z
Si Si1 0.719221 0.826357 0.827396
Si Si2 0.437984 0.176845 0.353140
Si Si3 0.567413 0.176117 0.317583
Si Si4 0.880467 0.177062 0.221143
Si Si5 0.157613 0.827262 0.179678
Si Si6 0.566582 0.668448 0.481320
Si Si7 0.942157 0.329567 0.055149
Si Si8 0.165033 0.330867 0.011561
O O1 0.683030 0.731168 0.775858
O O2 0.785371 0.802534 0.787630
O O3 0.700834 0.000000 0.824716
O O4 0.705465 0.775681 0.924564
O O5 0.503426 0.222158 0.318545
O O6 0.400199 0.253837 0.298656
O O7 0.414605 0.234644 0.447695
O O8 0.429759 0.000000 0.351664
O O9 0.607342 0.224744 0.229966
O O10 0.589984 0.256823 0.391023
O O11 0.571766 0.000000 0.330462
O O12 0.923023 0.226809 0.136095
O O13 0.880878 0.000000 0.228702
O O14 0.171772 0.784203 0.082622
O O15 0.138674 0.000000 0.189789
O O16 0.500000 0.666552 0.500000
O O17 0.590917 0.500000 0.480090
O O18 0.949953 0.500000 0.085029
O O19 0.898846 0.325142 0.996388
O O20 0.000000 0.264042 0.000000
O O21 0.180590 0.500000 0.034330
#
# Coordination Sequence:
#
# PCOD8099374 Si02
#       8
#     8   8   8   8   8   8   8   8
#     4   9  20  39  56  72 100 142 183 218 266 321
#     4  10  20  35  56  79 108 145 180 209 251 321
#     4  10  21  35  53  79 110 144 177 208 257 319
#     4  11  22  34  53  80 105 133 176 226 266 304
#     4  11  22  34  53  79 107 137 175 226 270 308
#     4   9  17  32  54  80 110 138 169 215 264 305
#     4   9  19  35  52  70 102 144 178 211 261 320
#     4   9  18  33  52  74 100 136 181 220 262 317
#
# _framework density 18.365662
#
# number of rings (size 3 to 8) (size 9 to 14) (size 15 to 20)
#    0.000    2.250    0.000    3.750    1.750    6.250 
#    0.000    0.000    0.000    0.750    0.000    0.000 
#    0.000    0.000    0.000    0.000    0.000    0.000 
#
# Total GULP energy -396854.942112 kJ/mol
# GULP energy per Si atom -12401.716941 kJ/mol
# Density = 1.832386 g / cm^3
# Si number density = 18.365662 Si / 1000 Ang^3
#
#
#
# Elastic Constant Matrix: (Units=GPa)
#
#
# Indices 1 2 3 4 5 6 
#
# 1 50.9685 27.5186 28.8143 0.0000 6.6953 0.0000
# 2 27.5186 96.6449 41.2901 0.0000 13.9675 0.0000
# 3 28.8143 41.2901 79.4198 0.0000 21.9079 0.0000
# 4 0.0000 0.0000 0.0000 34.1371 0.0000 3.0543
# 5 6.6953 13.9675 21.9079 0.0000 23.1000 0.0000
# 6 0.0000 0.0000 0.0000 3.0543 0.0000 23.8441
#
#
#
# Elastic Compliance Matrix: (Units=1/GPa)
#
#
# Indices 1 2 3 4 5 6 
#
# 1 0.026139 -0.004448 -0.007886 0.000000 0.002593 0.000000
# 2 -0.004448 0.014128 -0.005052 0.000000 -0.002462 0.000000
# 3 -0.007886 -0.005052 0.022489 0.000000 -0.015988 0.000000
# 4 0.000000 0.000000 0.000000 0.029633 0.000000 -0.003796
# 5 0.002593 -0.002462 -0.015988 0.000000 0.059190 0.000000
# 6 0.000000 0.000000 0.000000 -0.003796 0.000000 0.042425
#
#
# Mechanical properties :
#
#
# Convention : Reuss Voigt Hill
#
# Bulk Modulus (GPa) = 35.73511 46.91991 41.32751
# Shear Modulus (GPa) = 20.99896 24.84360 22.92128
#
# Velocity S-wave (km/s) = 3.38506 3.68192 3.53661
# Velocity P-wave (km/s) = 5.89729 6.60897 6.26325
#
# Compressibility (1/GPa) = 0.02798368
#
# Stress axis : x y z
#
# Youngs Moduli (GPa) = 38.25632 70.78131 44.46525
#
# Poissons Ratio (x) = 0.31486 0.35066
# Poissons Ratio (y) = 0.17018 0.22464
# Poissons Ratio (z) = 0.30169 0.35759
#
# Static dielectric constant tensor:
#      x y z
#    x 3.309110 0.000000 0.055850 
#    y 0.000000 3.400320 0.000000 
#    z 0.055850 0.000000 3.285690 
# 
# 
# High freq. dielectric constant tensor:
#      x y z
#    x 1.698010 0.000000 0.006600 
#    y 0.000000 1.717550 0.000000 
#    z 0.006600 0.000000 1.700640 
# 
# From -- ./inp_files/243909.got.cif
#   From: 2010.06.25/outbox.cif.g09.slc.cpg/sg12_122_cif.got.tgz:243909.got - 2010.06.28 00:19:55.
