data_PCOD8099393
_publ_section_title
;
Structure prediction by ZEFSAII (Michael W. Deem and Ramdas Pophale) SiO2 
 PCOD8099393
Probable space group: C 2/M
;
_chemical_formula_sum "Si O2"
_cell_formula_units_Z 56
_cell_length_a 22.441411
_cell_length_b 9.536426
_cell_length_c 28.637222
_cell_angle_alpha 90.000000
_cell_angle_beta 29.493757
_cell_angle_gamma 90.000000
_cell_volume 3017.323410
_symmetry_space_group_name_H-M "C 2/M"
_symmetry_group_IT_number 12
_symmetry_cell_setting 'monoclinic'
loop_
_space_group_symop_operation_xyz
x,y,z
-x,y,-z
-x,-y,-z
x,-y,z
1/2+x,1/2+y,z
1/2-x,1/2+y,-z
1/2-x,1/2-y,-z
1/2+x,1/2-y,z
loop_
_atom_site_type_symbol
_atom_site_label
_atom_site_fract_x
_atom_site_fract_y
_atom_site_fract_z
Si Si1 0.620360 0.659142 0.893591
Si Si2 0.145328 0.658493 0.205897
Si Si3 0.351409 0.834412 0.902831
Si Si4 0.260945 0.338153 0.539322
Si Si5 0.966586 0.840496 0.641476
Si Si6 0.875490 0.665504 0.278124
Si Si7 0.757867 0.335093 0.264869
O O1 0.606312 0.500000 0.884854
O O2 0.723143 0.670674 0.862072
O O3 0.644008 0.759373 0.834127
O O4 0.500000 0.714352 0.000000
O O5 0.095054 0.500000 0.240974
O O6 0.156019 0.712140 0.145904
O O7 0.051259 0.750402 0.299516
O O8 0.486365 0.790714 0.827835
O O9 0.327524 0.000000 0.925563
O O10 0.250000 0.750000 0.000000
O O11 0.232603 0.500000 0.546635
O O12 0.250000 0.250000 0.500000
O O13 0.395782 0.323564 0.469020
O O14 0.169908 0.275758 0.640751
O O15 0.877700 0.792704 0.659608
O O16 0.935714 0.000000 0.676002
O O17 0.866950 0.500000 0.288327
O O18 0.784367 0.717399 0.299471
O O19 0.780324 0.500000 0.245472
#
# Coordination Sequence:
#
# PCOD8099393 Si02
#       7
#     8   8   8   8   8   8   8
#     4   9  18  31  49  72  98 131 172 214 252 297
#     4   9  18  33  51  71  99 135 169 204 254 308
#     4  10  21  35  51  72  98 133 172 209 253 304
#     4  10  20  35  56  80 105 135 171 211 253 303
#     4   9  18  32  53  80 104 128 167 213 251 294
#     4   9  19  35  53  75 105 137 169 207 256 311
#     4   9  18  33  51  74 104 135 168 207 253 304
#
# _framework density 18.559495999999999
#
# number of rings (size 3 to 8) (size 9 to 14) (size 15 to 20)
#    0.000    2.714    0.000    0.857    2.000    3.143 
#    0.000    4.286    0.000    0.000    0.000    5.000 
#    0.000    0.000    0.000    0.000    0.000    0.000 
#
# Total GULP energy -347118.979400 kJ/mol
# GULP energy per Si atom -12397.106407 kJ/mol
# Density = 1.851725 g / cm^3
# Si number density = 18.559496 Si / 1000 Ang^3
#
#
#
# Elastic Constant Matrix: (Units=GPa)
#
#
# Indices 1 2 3 4 5 6 
#
# 1 125.8832 35.9174 50.4144 -0.0022 14.1920 0.0054
# 2 35.9174 42.5063 33.9288 -0.0054 5.1503 0.0125
# 3 50.4144 33.9288 116.6121 0.0002 3.0488 0.0040
# 4 -0.0022 -0.0054 0.0002 27.6025 0.0007 3.6304
# 5 14.1920 5.1503 3.0488 0.0007 19.5701 -0.0028
# 6 0.0054 0.0125 0.0040 3.6304 -0.0028 23.9528
#
#
#
# Elastic Compliance Matrix: (Units=1/GPa)
#
#
# Indices 1 2 3 4 5 6 
#
# 1 0.011783 -0.006851 -0.002936 0.000000 -0.006285 0.000001
# 2 -0.006851 0.035527 -0.007290 0.000009 -0.003245 -0.000018
# 3 -0.002936 -0.007290 0.011909 -0.000002 0.002193 0.000003
# 4 0.000000 0.000009 -0.000002 0.036966 -0.000004 -0.005603
# 5 -0.006285 -0.003245 0.002193 -0.000004 0.056168 0.000010
# 6 0.000001 -0.000018 0.000003 -0.005603 0.000010 0.042598
#
#
# Mechanical properties :
#
#
# Convention : Reuss Voigt Hill
#
# Bulk Modulus (GPa) = 39.89832 58.39142 49.14487
# Shear Modulus (GPa) = 21.05608 25.20782 23.13195
#
# Velocity S-wave (km/s) = 3.37191 3.68940 3.53422
# Velocity P-wave (km/s) = 6.05838 7.04833 6.57202
#
# Compressibility (1/GPa) = 0.02506372
#
# Stress axis : x y z
#
# Youngs Moduli (GPa) = 84.86625 28.14733 83.97248
#
# Poissons Ratio (x) = 0.19285 0.24658
# Poissons Ratio (y) = 0.58145 0.61216
# Poissons Ratio (z) = 0.24921 0.20519
#
# Static dielectric constant tensor:
#      x y z
#    x 3.603870 -0.000020 -0.113880 
#    y -0.000020 3.291210 0.000010 
#    z -0.113880 0.000010 3.520240 
# 
# 
# High freq. dielectric constant tensor:
#      x y z
#    x 1.727110 0.000000 -0.010990 
#    y 0.000000 1.695460 0.000000 
#    z -0.010990 0.000000 1.723300 
# 
# From -- ./inp_files/347014.got.cif
#   From: 2010.06.25/outbox.cif.g09.slc.cpg/sg12_174_cif.got.tgz:347014.got - 2010.06.28 00:19:55.
