data_PCOD8099203
_publ_section_title
;
Structure prediction by ZEFSAII (Michael W. Deem and Ramdas Pophale) SiO2 
 PCOD8099203
Probable space group: C 2/M
;
_chemical_formula_sum "Si O2"
_cell_formula_units_Z 48
_cell_length_a 31.551103
_cell_length_b 8.765784
_cell_length_c 20.433456
_cell_angle_alpha 90.000000
_cell_angle_beta 26.914875
_cell_angle_gamma 90.000000
_cell_volume 2558.145401
_symmetry_space_group_name_H-M "C 2/M"
_symmetry_group_IT_number 12
_symmetry_cell_setting 'monoclinic'
loop_
_space_group_symop_operation_xyz
x,y,z
-x,y,-z
-x,-y,-z
x,-y,z
1/2+x,1/2+y,z
1/2-x,1/2+y,-z
1/2-x,1/2-y,-z
1/2+x,1/2-y,z
loop_
_atom_site_type_symbol
_atom_site_label
_atom_site_fract_x
_atom_site_fract_y
_atom_site_fract_z
Si Si1 0.690055 0.177329 0.025530
Si Si2 0.195884 0.320584 0.635347
Si Si3 0.024743 0.323836 0.683291
Si Si4 0.692788 0.679712 0.389789
Si Si5 0.520644 0.321715 0.826546
Si Si6 0.692770 0.320394 0.882844
O O1 0.581513 0.201131 0.193382
O O2 0.714622 0.000000 0.983109
O O3 0.750000 0.250000 0.000000
O O4 0.715728 0.265176 0.923997
O O5 0.198514 0.500000 0.624245
O O6 0.250000 0.250000 0.500000
O O7 0.242485 0.267369 0.638887
O O8 0.088343 0.263365 0.784470
O O9 0.045055 0.500000 0.670734
O O10 0.092225 0.262317 0.533335
O O11 0.048021 0.227508 0.715785
O O12 0.677318 0.500000 0.409917
O O13 0.739127 0.731838 0.258937
O O14 0.538263 0.500000 0.808543
O O15 0.413809 0.277071 0.989351
O O16 0.710086 0.500000 0.854232
#
# Coordination Sequence:
#
# PCOD8099203 Si02
#       6
#     8   8   8   8   8   8
#     4  10  21  39  64  91 115 144 183 227 278 340
#     4  11  22  34  53  80 112 151 196 242 281 327
#     4  10  20  35  58  84 112 148 188 229 278 335
#     4  11  23  37  55  82 116 152 190 236 286 332
#     4  10  20  35  55  80 110 149 195 237 280 330
#     4  10  22  39  59  83 115 151 187 233 286 337
#
# _framework density 18.763593
#
# number of rings (size 3 to 8) (size 9 to 14) (size 15 to 20)
#    0.000    1.667    1.667    3.000    0.000    6.667 
#    0.000    4.167    0.000    5.000    0.000    0.000 
#    0.000    0.000    0.000    0.000    0.000    0.000 
#
# Total GULP energy -297715.599037 kJ/mol
# GULP energy per Si atom -12404.816627 kJ/mol
# Density = 1.872089 g / cm^3
# Si number density = 18.763593 Si / 1000 Ang^3
#
#
#
# Elastic Constant Matrix: (Units=GPa)
#
#
# Indices 1 2 3 4 5 6 
#
# 1 99.4156 34.1843 39.7430 0.0010 -5.1064 -0.0005
# 2 34.1843 63.7028 27.5099 0.0130 -3.4221 -0.0018
# 3 39.7430 27.5099 109.1269 0.0094 6.1206 -0.0003
# 4 0.0010 0.0130 0.0094 33.6562 -0.0016 -0.8193
# 5 -5.1064 -3.4221 6.1206 -0.0016 21.3476 0.0000
# 6 -0.0005 -0.0018 -0.0003 -0.8193 0.0000 34.1154
#
#
#
# Elastic Compliance Matrix: (Units=1/GPa)
#
#
# Indices 1 2 3 4 5 6 
#
# 1 0.013637 -0.005502 -0.003774 0.000003 0.003462 0.000000
# 2 -0.005502 0.020208 -0.003250 -0.000007 0.002855 0.000001
# 3 -0.003774 -0.003250 0.011624 -0.000002 -0.004756 0.000000
# 4 0.000003 -0.000007 -0.000002 0.029730 0.000002 0.000714
# 5 0.003462 0.002855 -0.004756 0.000002 0.049493 0.000000
# 6 0.000000 0.000001 0.000000 0.000714 0.000000 0.029329
#
#
# Mechanical properties :
#
#
# Convention : Reuss Voigt Hill
#
# Bulk Modulus (GPa) = 48.98073 52.79108 50.88590
# Shear Modulus (GPa) = 26.89920 29.21108 28.05514
#
# Velocity S-wave (km/s) = 3.79038 3.94991 3.87096
# Velocity P-wave (km/s) = 6.73177 6.99988 6.86713
#
# Compressibility (1/GPa) = 0.02041619
#
# Stress axis : x y z
#
# Youngs Moduli (GPa) = 73.32901 49.48622 86.02809
#
# Poissons Ratio (x) = 0.27229 0.32463
# Poissons Ratio (y) = 0.40349 0.27962
# Poissons Ratio (z) = 0.27671 0.16085
#
# Static dielectric constant tensor:
#      x y z
#    x 3.377240 0.000000 -0.165360 
#    y 0.000000 3.558430 0.000010 
#    z -0.165360 0.000010 3.503920 
# 
# 
# High freq. dielectric constant tensor:
#      x y z
#    x 1.714220 0.000000 -0.009630 
#    y 0.000000 1.746470 0.000000 
#    z -0.009630 0.000000 1.730060 
# 
# From -- ./inp_files/249370.got.cif
#   From: 2010.06.25/outbox.cif.g09.slc.cpg/sg12_125_cif.got.tgz:249370.got - 2010.06.28 00:19:55.
