data_PCOD8099341
_publ_section_title
;
Structure prediction by ZEFSAII (Michael W. Deem and Ramdas Pophale) SiO2 
 PCOD8099341
Probable space group: C 2/M
;
_chemical_formula_sum "Si O2"
_cell_formula_units_Z 64
_cell_length_a 18.014374
_cell_length_b 9.215620
_cell_length_c 22.416401
_cell_angle_alpha 90.000000
_cell_angle_beta 115.529181
_cell_angle_gamma 90.000000
_cell_volume 3358.089746
_symmetry_space_group_name_H-M "C 2/M"
_symmetry_group_IT_number 12
_symmetry_cell_setting 'monoclinic'
loop_
_space_group_symop_operation_xyz
x,y,z
-x,y,-z
-x,-y,-z
x,-y,z
1/2+x,1/2+y,z
1/2-x,1/2+y,-z
1/2-x,1/2-y,-z
1/2+x,1/2-y,z
loop_
_atom_site_type_symbol
_atom_site_label
_atom_site_fract_x
_atom_site_fract_y
_atom_site_fract_z
Si Si1 0.576076 0.166913 0.482706
Si Si2 0.778568 0.667374 0.739550
Si Si3 0.101751 0.831400 0.880939
Si Si4 0.265942 0.830231 0.869613
Si Si5 0.090734 0.168632 0.015225
Si Si6 0.731027 0.168981 0.611438
Si Si7 0.912336 0.170658 0.633003
Si Si8 0.461367 0.830151 0.763863
O O1 0.500000 0.185140 0.500000
O O2 0.657935 0.224601 0.543916
O O3 0.558893 0.266493 0.419934
O O4 0.587090 0.000000 0.466240
O O5 0.760031 0.500000 0.721393
O O6 0.751062 0.715431 0.795928
O O7 0.724287 0.754816 0.673233
O O8 0.874756 0.702179 0.765317
O O9 0.186348 0.783751 0.879308
O O10 0.029929 0.731595 0.831241
O O11 0.080975 0.000000 0.861553
O O12 0.111306 0.798913 0.953878
O O13 0.345523 0.750600 0.921337
O O14 0.283692 0.000000 0.880849
O O15 0.098105 0.000000 0.033059
O O16 0.000000 0.226040 0.000000
O O17 0.816421 0.208242 0.608848
O O18 0.721880 0.000000 0.620843
O O19 0.966471 0.247455 0.702612
O O20 0.929649 0.000000 0.641304
O O21 0.475856 0.000000 0.757963
#
# Coordination Sequence:
#
# PCOD8099341 Si02
#       8
#     8   8   8   8   8   8   8   8
#     4  10  21  36  53  77 110 141 173 217 264 312
#     4   9  19  35  54  77 103 133 173 218 260 307
#     4  10  21  36  53  77 110 141 172 216 265 313
#     4  10  21  36  54  78 108 140 174 215 263 313
#     4  10  21  36  55  79 106 139 179 221 264 311
#     4   9  19  35  55  78 103 136 176 216 260 309
#     4  10  20  35  56  79 104 137 177 218 260 309
#     4  10  20  35  56  79 103 135 175 216 260 311
#
# _framework density 19.058454999999999
#
# number of rings (size 3 to 8) (size 9 to 14) (size 15 to 20)
#    0.000    2.250    0.000    2.250    0.000    4.500 
#    0.000    2.500    0.000    0.000    0.000    0.000 
#    0.000    0.000    0.000    0.000    0.000    0.000 
#
# Total GULP energy -396957.135227 kJ/mol
# GULP energy per Si atom -12404.910476 kJ/mol
# Density = 1.901508 g / cm^3
# Si number density = 19.058455 Si / 1000 Ang^3
#
#
#
# Elastic Constant Matrix: (Units=GPa)
#
#
# Indices 1 2 3 4 5 6 
#
# 1 54.5724 16.0655 10.1268 0.0000 -21.3364 0.0000
# 2 16.0655 54.1524 24.7358 0.0000 -8.0728 0.0000
# 3 10.1268 24.7358 58.8443 0.0000 -21.1487 0.0000
# 4 0.0000 0.0000 0.0000 38.3716 0.0000 1.5485
# 5 -21.3364 -8.0728 -21.1487 0.0000 31.6938 0.0000
# 6 0.0000 0.0000 0.0000 1.5485 0.0000 22.3841
#
#
#
# Elastic Compliance Matrix: (Units=1/GPa)
#
#
# Indices 1 2 3 4 5 6 
#
# 1 0.027541 -0.007816 0.005911 0.000000 0.020495 0.000000
# 2 -0.007816 0.025087 -0.011570 0.000000 -0.006592 0.000000
# 3 0.005911 -0.011570 0.027903 0.000000 0.019652 0.000000
# 4 0.000000 0.000000 0.000000 0.026134 0.000000 -0.001808
# 5 0.020495 -0.006592 0.019652 0.000000 0.056783 0.000000
# 6 0.000000 0.000000 0.000000 -0.001808 0.000000 0.044800
#
#
# Mechanical properties :
#
#
# Convention : Reuss Voigt Hill
#
# Bulk Modulus (GPa) = 18.66248 29.93615 24.29931
# Shear Modulus (GPa) = 19.75840 26.26595 23.01217
#
# Velocity S-wave (km/s) = 3.22332 3.71641 3.47861
# Velocity P-wave (km/s) = 4.86482 5.84442 5.37698
#
# Compressibility (1/GPa) = 0.05358346
#
# Stress axis : x y z
#
# Youngs Moduli (GPa) = 36.30957 39.86095 35.83842
#
# Poissons Ratio (x) = 0.31154 -0.21186
# Poissons Ratio (y) = 0.28378 0.41464
# Poissons Ratio (z) = -0.21464 0.46118
#
# Static dielectric constant tensor:
#      x y z
#    x 3.524230 0.000000 -0.092570 
#    y 0.000000 3.430460 0.000000 
#    z -0.092570 0.000000 3.529500 
# 
# 
# High freq. dielectric constant tensor:
#      x y z
#    x 1.740110 0.000000 -0.004950 
#    y 0.000000 1.737120 0.000000 
#    z -0.004950 0.000000 1.751150 
# 
# From -- ./inp_files/320071.got.cif
#   From: 2010.06.25/outbox.cif.g09.slc.cpg/sg12_161_cif.got.tgz:320071.got - 2010.06.28 00:19:55.
