data_PCOD8099705
_publ_section_title
;
Structure prediction by ZEFSAII (Michael W. Deem and Ramdas Pophale) SiO2 
 PCOD8099705
Probable space group: C 2/M
;
_chemical_formula_sum "Si O2"
_cell_formula_units_Z 56
_cell_length_a 21.035903
_cell_length_b 8.704133
_cell_length_c 18.110656
_cell_angle_alpha 90.000000
_cell_angle_beta 57.447721
_cell_angle_gamma 90.000000
_cell_volume 2795.099977
_symmetry_space_group_name_H-M "C 2/M"
_symmetry_group_IT_number 12
_symmetry_cell_setting 'monoclinic'
loop_
_space_group_symop_operation_xyz
x,y,z
-x,y,-z
-x,-y,-z
x,-y,z
1/2+x,1/2+y,z
1/2-x,1/2+y,-z
1/2-x,1/2-y,-z
1/2+x,1/2-y,z
loop_
_atom_site_type_symbol
_atom_site_label
_atom_site_fract_x
_atom_site_fract_y
_atom_site_fract_z
Si Si1 0.420420 0.176351 0.019710
Si Si2 0.758548 0.677703 0.386963
Si Si3 0.131346 0.321960 0.552175
Si Si4 0.484517 0.319810 0.592841
Si Si5 0.141013 0.321086 0.228803
Si Si6 0.166360 0.819015 0.060561
Si Si7 0.781230 0.325828 0.206344
O O1 0.364723 0.191366 0.123428
O O2 0.428688 0.000000 0.988288
O O3 0.500000 0.241171 0.000000
O O4 0.388953 0.274121 0.971347
O O5 0.735960 0.500000 0.410615
O O6 0.826717 0.721602 0.398448
O O7 0.684684 0.778045 0.450132
O O8 0.786183 0.718999 0.288603
O O9 0.109777 0.500000 0.560874
O O10 0.055725 0.222392 0.598804
O O11 0.500000 0.259052 0.500000
O O12 0.469893 0.500000 0.601682
O O13 0.411051 0.240794 0.672722
O O14 0.126713 0.500000 0.226705
O O15 0.125540 0.237996 0.160707
O O16 0.227302 0.290611 0.197096
O O17 0.176220 0.000000 0.057294
O O18 0.250000 0.750000 0.000000
O O19 0.750755 0.500000 0.214762
#
# Coordination Sequence:
#
# PCOD8099705 Si02
#       7
#     8   8   8   8   8   8   8
#     4  10  22  40  64  94 128 167 208 258 321 382
#     4   9  19  35  56  82 115 159 201 243 303 370
#     4  10  20  35  56  84 117 155 200 251 301 360
#     4  11  24  41  60  85 122 163 202 252 311 371
#     4  12  25  40  63  93 122 160 209 261 313 373
#     4  12  24  42  67  94 127 167 212 264 319 379
#     4  10  20  37  60  85 118 157 201 250 304 374
#
# _framework density 20.035062
#
# number of rings (size 3 to 8) (size 9 to 14) (size 15 to 20)
#    0.000    1.429    1.429    4.286    0.000    7.143 
#    0.000    2.857    0.000    0.000    0.000    0.000 
#    0.000    0.000    0.000    0.000    0.000    0.000 
#
# Total GULP energy -347341.210018 kJ/mol
# GULP energy per Si atom -12405.043215 kJ/mol
# Density = 1.998946 g / cm^3
# Si number density = 20.035062 Si / 1000 Ang^3
#
#
#
# Elastic Constant Matrix: (Units=GPa)
#
#
# Indices 1 2 3 4 5 6 
#
# 1 113.5107 38.3298 45.0347 -0.0001 -4.4956 0.0000
# 2 38.3298 101.2677 43.8242 -0.0005 2.9448 0.0003
# 3 45.0347 43.8242 125.2728 -0.0001 10.6982 0.0001
# 4 -0.0001 -0.0005 -0.0001 28.3219 0.0000 -0.8608
# 5 -4.4956 2.9448 10.6982 0.0000 31.0114 -0.0001
# 6 0.0000 0.0003 0.0001 -0.8608 -0.0001 33.5224
#
#
#
# Elastic Compliance Matrix: (Units=1/GPa)
#
#
# Indices 1 2 3 4 5 6 
#
# 1 0.011212 -0.002917 -0.003269 0.000000 0.003030 0.000000
# 2 -0.002917 0.012398 -0.003248 0.000000 -0.000480 0.000000
# 3 -0.003269 -0.003248 0.010621 0.000000 -0.003829 0.000000
# 4 0.000000 0.000000 0.000000 0.035336 0.000000 0.000907
# 5 0.003030 -0.000480 -0.003829 0.000000 0.034052 0.000000
# 6 0.000000 0.000000 0.000000 0.000907 0.000000 0.029854
#
#
# Mechanical properties :
#
#
# Convention : Reuss Voigt Hill
#
# Bulk Modulus (GPa) = 65.08835 66.04761 65.56798
# Shear Modulus (GPa) = 31.75386 32.76199 32.25792
#
# Velocity S-wave (km/s) = 3.98542 4.04819 4.01693
# Velocity P-wave (km/s) = 7.33047 7.40864 7.36966
#
# Compressibility (1/GPa) = 0.01536373
#
# Stress axis : x y z
#
# Youngs Moduli (GPa) = 89.19299 80.65600 94.15469
#
# Poissons Ratio (x) = 0.23528 0.30777
# Poissons Ratio (y) = 0.26019 0.30578
# Poissons Ratio (z) = 0.29155 0.26194
#
# Static dielectric constant tensor:
#      x y z
#    x 3.665820 0.000000 0.075570 
#    y 0.000000 3.624780 0.000000 
#    z 0.075570 0.000000 3.788560 
# 
# 
# High freq. dielectric constant tensor:
#      x y z
#    x 1.783750 0.000000 0.004880 
#    y 0.000000 1.779250 0.000000 
#    z 0.004880 0.000000 1.790020 
# 
# From -- ./inp_files/281042.got.cif
#   From: 2010.06.25/outbox.cif.g09.slc.cpg/sg12_141_cif.got.tgz:281042.got - 2010.06.28 00:19:55.
