data_PCOD8099645
_publ_section_title
;
Structure prediction by ZEFSAII (Michael W. Deem and Ramdas Pophale) SiO2 
 PCOD8099645
Probable space group: C 2/M
;
_chemical_formula_sum "Si O2"
_cell_formula_units_Z 48
_cell_length_a 30.443416
_cell_length_b 8.837208
_cell_length_c 17.588783
_cell_angle_alpha 90.000000
_cell_angle_beta 149.835923
_cell_angle_gamma 90.000000
_cell_volume 2377.723091
_symmetry_space_group_name_H-M "C 2/M"
_symmetry_group_IT_number 12
_symmetry_cell_setting 'monoclinic'
loop_
_space_group_symop_operation_xyz
x,y,z
-x,y,-z
-x,-y,-z
x,-y,z
1/2+x,1/2+y,z
1/2-x,1/2+y,-z
1/2-x,1/2-y,-z
1/2+x,1/2-y,z
loop_
_atom_site_type_symbol
_atom_site_label
_atom_site_fract_x
_atom_site_fract_y
_atom_site_fract_z
Si Si1 0.661764 0.323890 0.339781
Si Si2 0.676537 0.323838 0.676846
Si Si3 0.010232 0.820315 0.836752
Si Si4 0.170949 0.823334 0.178532
Si Si5 0.177534 0.678365 0.838422
Si Si6 0.514947 0.676779 0.671105
O O1 0.670179 0.500000 0.369350
O O2 0.750000 0.250000 0.500000
O O3 0.579616 0.254003 0.262857
O O4 0.644759 0.292049 0.225901
O O5 0.688100 0.500000 0.712572
O O6 0.742934 0.272987 0.710689
O O7 0.697373 0.227673 0.782546
O O8 0.580309 0.287927 0.503118
O O9 0.021451 0.764045 0.767231
O O10 0.005555 0.000000 0.833606
O O11 0.092233 0.762173 0.008251
O O12 0.189696 0.000000 0.191878
O O13 0.184492 0.500000 0.854894
O O14 0.081673 0.731919 0.718916
O O15 0.250000 0.750000 0.000000
O O16 0.538086 0.500000 0.700477
#
# Coordination Sequence:
#
# PCOD8099645 Si02
#       6
#     8   8   8   8   8   8
#     4  10  20  35  56  83 114 150 193 239 289 345
#     4  11  23  39  60  87 120 155 192 236 288 347
#     4   9  18  35  58  82 111 150 193 236 283 339
#     4  10  20  35  58  85 113 150 198 245 287 340
#     4  12  25  41  62  87 117 152 193 240 290 344
#     4  10  21  38  60  85 116 155 196 237 286 345
#
# _framework density 20.187379
#
# number of rings (size 3 to 8) (size 9 to 14) (size 15 to 20)
#    0.000    1.667    0.000    5.000    0.000    8.667 
#    0.000    1.667    0.000    2.000    0.000    0.000 
#    0.000    0.000    0.000    0.000    0.000    0.000 
#
# Total GULP energy -297732.800917 kJ/mol
# GULP energy per Si atom -12405.533372 kJ/mol
# Density = 2.014143 g / cm^3
# Si number density = 20.187379 Si / 1000 Ang^3
#
#
#
# Elastic Constant Matrix: (Units=GPa)
#
#
# Indices 1 2 3 4 5 6 
#
# 1 73.1218 19.8900 8.6786 0.0000 6.5639 0.0000
# 2 19.8900 65.9049 34.3445 0.0000 3.2001 0.0000
# 3 8.6786 34.3445 93.8917 0.0000 -0.1737 0.0000
# 4 0.0000 0.0000 0.0000 30.0462 0.0000 1.9427
# 5 6.5639 3.2001 -0.1737 0.0000 45.1269 0.0000
# 6 0.0000 0.0000 0.0000 1.9427 0.0000 29.5872
#
#
#
# Elastic Compliance Matrix: (Units=1/GPa)
#
#
# Indices 1 2 3 4 5 6 
#
# 1 0.015062 -0.004606 0.000289 0.000000 -0.001863 0.000000
# 2 -0.004606 0.020239 -0.006979 0.000000 -0.000792 0.000000
# 3 0.000289 -0.006979 0.013178 0.000000 0.000504 0.000000
# 4 0.000000 0.000000 0.000000 0.033424 0.000000 -0.002195
# 5 -0.001863 -0.000792 0.000504 0.000000 0.022489 0.000000
# 6 0.000000 0.000000 0.000000 -0.002195 0.000000 0.033942
#
#
# Mechanical properties :
#
#
# Convention : Reuss Voigt Hill
#
# Bulk Modulus (GPa) = 38.62964 39.86051 39.24507
# Shear Modulus (GPa) = 29.48931 32.28575 30.88753
#
# Velocity S-wave (km/s) = 3.82616 4.00347 3.91582
# Velocity P-wave (km/s) = 6.22065 6.41549 6.31882
#
# Compressibility (1/GPa) = 0.02588686
#
# Stress axis : x y z
#
# Youngs Moduli (GPa) = 66.39416 49.41034 75.88663
#
# Poissons Ratio (x) = 0.22757 -0.02194
# Poissons Ratio (y) = 0.30580 0.52960
# Poissons Ratio (z) = -0.01920 0.34483
#
# Static dielectric constant tensor:
#      x y z
#    x 3.988320 0.000000 -0.049120 
#    y 0.000000 3.465250 0.000000 
#    z -0.049120 0.000000 3.845310 
# 
# 
# High freq. dielectric constant tensor:
#      x y z
#    x 1.806650 0.000000 0.000110 
#    y 0.000000 1.763220 0.000000 
#    z 0.000110 0.000000 1.805590 
# 
# From -- ./inp_files/274101.got.cif
#   From: 2010.06.25/outbox.cif.g09.slc.cpg/sg12_138_cif.got.tgz:274101.got - 2010.06.28 00:19:55.
