data_PCOD8099432
_publ_section_title
;
Structure prediction by ZEFSAII (Michael W. Deem and Ramdas Pophale) SiO2 
 PCOD8099432
Probable space group: C 2/M
;
_chemical_formula_sum "Si O2"
_cell_formula_units_Z 40
_cell_length_a 8.531296
_cell_length_b 10.989192
_cell_length_c 22.648534
_cell_angle_alpha 90.000000
_cell_angle_beta 63.000768
_cell_angle_gamma 90.000000
_cell_volume 1891.928494
_symmetry_space_group_name_H-M "C 2/M"
_symmetry_group_IT_number 12
_symmetry_cell_setting 'monoclinic'
loop_
_space_group_symop_operation_xyz
x,y,z
-x,y,-z
-x,-y,-z
x,-y,z
1/2+x,1/2+y,z
1/2-x,1/2+y,-z
1/2-x,1/2-y,-z
1/2+x,1/2-y,z
loop_
_atom_site_type_symbol
_atom_site_label
_atom_site_fract_x
_atom_site_fract_y
_atom_site_fract_z
Si Si1 0.253850 0.866368 0.869798
Si Si2 0.178816 0.860629 0.552381
Si Si3 0.933004 0.308893 0.952549
Si Si4 0.996217 0.638052 0.273106
Si Si5 0.656985 0.228483 0.359733
O O1 0.392482 0.884458 0.900603
O O2 0.359365 0.806566 0.796787
O O3 0.081548 0.790743 0.913781
O O4 0.186391 0.000000 0.863349
O O5 0.250000 0.750000 0.500000
O O6 0.281934 0.855044 0.596521
O O7 0.971252 0.836988 0.596316
O O8 0.203855 0.000000 0.522953
O O9 0.750000 0.250000 0.000000
O O10 0.000000 0.382914 0.000000
O O11 0.957758 0.500000 0.261426
O O12 0.057706 0.642315 0.330527
O O13 0.818566 0.713604 0.296848
#
# Coordination Sequence:
#
# PCOD8099432 Si02
#       5
#     8   8   8   8   8
#     4  10  20  35  56  80 108 143 183 228 278 330
#     4  11  24  40  60  87 118 153 193 238 287 343
#     4   9  19  34  52  77 109 142 181 226 271 329
#     4  10  20  36  58  82 109 144 184 228 280 336
#     4  10  22  38  59  83 115 148 185 233 283 340
#
# _framework density 21.142448999999999
#
# number of rings (size 3 to 8) (size 9 to 14) (size 15 to 20)
#    0.000    2.000    0.000    3.000    0.000   10.400 
#    0.000    3.000    0.000   16.800    0.000    0.000 
#    0.000    0.000    0.000    0.000    0.000    0.000 
#
# Total GULP energy -247787.230387 kJ/mol
# GULP energy per Si atom -12389.361519 kJ/mol
# Density = 2.109433 g / cm^3
# Si number density = 21.142449 Si / 1000 Ang^3
#
#
#
# Elastic Constant Matrix: (Units=GPa)
#
#
# Indices 1 2 3 4 5 6 
#
# 1 87.4619 21.2801 30.0458 0.0000 -14.4070 0.0000
# 2 21.2801 104.3332 40.0615 0.0000 -13.6275 0.0000
# 3 30.0458 40.0615 115.7009 0.0000 -17.0999 0.0000
# 4 0.0000 0.0000 0.0000 -102.7117 0.0000 24.1532
# 5 -14.4070 -13.6275 -17.0999 0.0000 31.4454 0.0000
# 6 0.0000 0.0000 0.0000 24.1532 0.0000 9.9256
#
#
#
# Elastic Compliance Matrix: (Units=1/GPa)
#
#
# Indices 1 2 3 4 5 6 
#
# 1 0.013252 -0.001232 -0.002388 0.000000 0.004239 0.000000
# 2 -0.001232 0.011426 -0.003249 0.000000 0.002620 0.000000
# 3 -0.002388 -0.003249 0.010894 0.000000 0.003422 0.000000
# 4 0.000000 0.000000 0.000000 -0.006192 0.000000 0.015069
# 5 0.004239 0.002620 0.003422 0.000000 0.036740 0.000000
# 6 0.000000 0.000000 0.000000 0.015069 0.000000 0.064081
#
#
# Mechanical properties :
#
#
# Convention : Reuss Voigt Hill
#
# Bulk Modulus (GPa) = 45.80254 54.47452 50.13853
# Shear Modulus (GPa) = 33.06534 2.13909 17.60222
#
# Velocity S-wave (km/s) = 3.95895 1.00695 2.88853
# Velocity P-wave (km/s) = 6.52752 5.21281 5.90685
#
# Compressibility (1/GPa) = 0.02183285
#
# Stress axis : x y z
#
# Youngs Moduli (GPa) = 75.46018 87.52146 91.79507
#
# Poissons Ratio (x) = 0.10785 0.21923
# Poissons Ratio (y) = 0.09299 0.29824
# Poissons Ratio (z) = 0.18021 0.28435
#
# Static dielectric constant tensor:
#      x y z
#    x 4.183000 0.000000 0.180300 
#    y 0.000000 3.409870 0.000000 
#    z 0.180300 0.000000 4.176620 
# 
# 
# High freq. dielectric constant tensor:
#      x y z
#    x 1.840550 0.000000 0.000550 
#    y 0.000000 1.802220 0.000000 
#    z 0.000550 0.000000 1.843660 
# 
# From -- ./inp_files/254606.got.cif
#   From: 2010.06.25/outbox.cif.g09.slc.cpg/sg12_128_cif.got.tgz:254606.got - 2010.06.28 00:19:55.
