data_PCOD8099365
_publ_section_title
;
Structure prediction by ZEFSAII (Michael W. Deem and Ramdas Pophale) SiO2 
 PCOD8099365
Probable space group: C 2/M
;
_chemical_formula_sum "Si O2"
_cell_formula_units_Z 64
_cell_length_a 20.078837
_cell_length_b 8.947122
_cell_length_c 19.448606
_cell_angle_alpha 90.000000
_cell_angle_beta 90.448325
_cell_angle_gamma 90.000000
_cell_volume 3493.792404
_symmetry_space_group_name_H-M "C 2/M"
_symmetry_group_IT_number 12
_symmetry_cell_setting 'monoclinic'
loop_
_space_group_symop_operation_xyz
x,y,z
-x,y,-z
-x,-y,-z
x,-y,z
1/2+x,1/2+y,z
1/2-x,1/2+y,-z
1/2-x,1/2-y,-z
1/2+x,1/2-y,z
loop_
_atom_site_type_symbol
_atom_site_label
_atom_site_fract_x
_atom_site_fract_y
_atom_site_fract_z
Si Si1 0.700734 0.669892 0.204782
Si Si2 0.438870 0.827621 0.453350
Si Si3 0.555804 0.173290 0.706108
Si Si4 0.807558 0.825436 0.295667
Si Si5 0.557069 0.826126 0.055510
Si Si6 0.548185 0.674723 0.197471
Si Si7 0.196108 0.174248 0.546917
Si Si8 0.194739 0.826384 0.045589
O O1 0.718453 0.500000 0.225482
O O2 0.745060 0.783289 0.248498
O O3 0.623977 0.705473 0.220887
O O4 0.714912 0.697392 0.124785
O O5 0.500000 0.772919 0.500000
O O6 0.456931 0.799959 0.374338
O O7 0.376270 0.730514 0.476217
O O8 0.421598 0.000000 0.467123
O O9 0.627946 0.234448 0.729002
O O10 0.498861 0.264738 0.743573
O O11 0.551678 0.000000 0.726484
O O12 0.789900 0.782816 0.373839
O O13 0.823267 0.000000 0.288452
O O14 0.531475 0.758395 0.126759
O O15 0.623632 0.746784 0.029043
O O16 0.572416 0.000000 0.065903
O O17 0.500000 0.797070 0.000000
O O18 0.536039 0.500000 0.185253
O O19 0.250000 0.250000 0.500000
O O20 0.199903 0.000000 0.534175
O O21 0.189713 0.000000 0.026878
O O22 0.250000 0.750000 0.000000
#
# Coordination Sequence:
#
# PCOD8099365 Si02
#       8
#     8   8   8   8   8   8   8   8
#     4   9  20  37  55  78 108 140 175 217 264 312
#     4   9  19  36  56  79 107 138 175 219 265 313
#     4  10  20  35  56  79 107 142 176 216 265 314
#     4  10  21  36  55  79 106 138 178 221 262 311
#     4  10  21  37  57  81 109 140 176 219 265 314
#     4  10  21  37  56  79 109 141 176 219 262 312
#     4  10  21  36  54  78 107 139 177 218 262 314
#     4  10  21  37  57  81 109 141 178 219 263 314
#
# _framework density 18.318203
#
# number of rings (size 3 to 8) (size 9 to 14) (size 15 to 20)
#    0.000    2.250    0.000    3.000    0.000    8.250 
#    0.000    5.000    0.000    0.000    0.000    0.000 
#    0.000    0.000    0.000    0.000    0.000    0.000 
#
# Total GULP energy -396941.129234 kJ/mol
# GULP energy per Si atom -12404.410289 kJ/mol
# Density = 1.827651 g / cm^3
# Si number density = 18.318203 Si / 1000 Ang^3
#
#
#
# Elastic Constant Matrix: (Units=GPa)
#
#
# Indices 1 2 3 4 5 6 
#
# 1 130.7948 72.9480 78.1923 0.0000 -7.1707 0.0000
# 2 72.9480 104.9566 55.2510 0.0000 0.4291 0.0000
# 3 78.1923 55.2510 80.5400 0.0000 -3.1025 0.0000
# 4 0.0000 0.0000 0.0000 32.2793 0.0000 -3.8015
# 5 -7.1707 0.4291 -3.1025 0.0000 36.8558 0.0000
# 6 0.0000 0.0000 0.0000 -3.8015 0.0000 39.5840
#
#
#
# Elastic Compliance Matrix: (Units=1/GPa)
#
#
# Indices 1 2 3 4 5 6 
#
# 1 0.020547 -0.006021 -0.015712 0.000000 0.002745 0.000000
# 2 -0.006021 0.016717 -0.005694 0.000000 -0.001845 0.000000
# 3 -0.015712 -0.005694 0.031563 0.000000 -0.000334 0.000000
# 4 0.000000 0.000000 0.000000 0.031334 0.000000 0.003009
# 5 0.002745 -0.001845 -0.000334 0.000000 0.027660 0.000000
# 6 0.000000 0.000000 0.000000 0.003009 0.000000 0.025552
#
#
# Mechanical properties :
#
#
# Convention : Reuss Voigt Hill
#
# Bulk Modulus (GPa) = 71.56042 81.00822 76.28432
# Shear Modulus (GPa) = 23.48673 29.07048 26.27861
#
# Velocity S-wave (km/s) = 3.58460 3.98800 3.79167
# Velocity P-wave (km/s) = 7.50217 8.09471 7.80406
#
# Compressibility (1/GPa) = 0.01397420
#
# Stress axis : x y z
#
# Youngs Moduli (GPa) = 48.66825 59.81778 31.68227
#
# Poissons Ratio (x) = 0.36017 0.49779
# Poissons Ratio (y) = 0.29304 0.18039
# Poissons Ratio (z) = 0.76468 0.34059
#
# Static dielectric constant tensor:
#      x y z
#    x 3.375830 0.000000 -0.044680 
#    y 0.000000 3.496310 0.000000 
#    z -0.044680 0.000000 3.358610 
# 
# 
# High freq. dielectric constant tensor:
#      x y z
#    x 1.715660 0.000000 -0.002590 
#    y 0.000000 1.724580 0.000000 
#    z -0.002590 0.000000 1.707530 
# 
# From -- ./inp_files/314119.got.cif
#   From: 2010.06.25/outbox.cif.g09.slc.cpg/sg12_158_cif.got.tgz:314119.got - 2010.06.28 00:19:55.
