data_PCOD8099298
_publ_section_title
;
Structure prediction by ZEFSAII (Michael W. Deem and Ramdas Pophale) SiO2 
 PCOD8099298
Probable space group: C 2/M
;
_chemical_formula_sum "Si O2"
_cell_formula_units_Z 48
_cell_length_a 28.078116
_cell_length_b 9.301975
_cell_length_c 10.148940
_cell_angle_alpha 90.000000
_cell_angle_beta 116.786229
_cell_angle_gamma 90.000000
_cell_volume 2366.282059
_symmetry_space_group_name_H-M "C 2/M"
_symmetry_group_IT_number 12
_symmetry_cell_setting 'monoclinic'
loop_
_space_group_symop_operation_xyz
x,y,z
-x,y,-z
-x,-y,-z
x,-y,z
1/2+x,1/2+y,z
1/2-x,1/2+y,-z
1/2-x,1/2-y,-z
1/2+x,1/2-y,z
loop_
_atom_site_type_symbol
_atom_site_label
_atom_site_fract_x
_atom_site_fract_y
_atom_site_fract_z
Si Si1 0.760485 0.165112 0.745403
Si Si2 0.146433 0.338911 0.210770
Si Si3 0.042819 0.164627 0.451458
Si Si4 0.355818 0.164452 0.345660
Si Si5 0.815034 0.662422 0.017045
Si Si6 0.044183 0.834980 0.156808
O O1 0.797469 0.254869 0.688954
O O2 0.697941 0.180649 0.633248
O O3 0.778859 0.000000 0.766935
O O4 0.768441 0.229329 0.905507
O O5 0.149908 0.500000 0.274502
O O6 0.097138 0.258942 0.214229
O O7 0.140216 0.342733 0.043923
O O8 0.099043 0.243196 0.530161
O O9 0.020877 0.179963 0.275399
O O10 0.000000 0.232215 0.500000
O O11 0.053169 0.000000 0.502531
O O12 0.344213 0.221117 0.183458
O O13 0.374855 0.000000 0.364935
O O14 0.792481 0.500000 0.014029
O O15 0.058613 0.000000 0.141608
O O16 0.000000 0.776365 0.000000
#
# Coordination Sequence:
#
# PCOD8099298 Si02
#       6
#     8   8   8   8   8   8
#     4   9  17  30  53  85 118 154 194 235 280 336
#     4   9  19  34  55  85 117 147 190 236 279 335
#     4  10  24  42  59  85 116 147 190 239 288 343
#     4  10  20  35  55  83 119 156 192 234 286 340
#     4   8  17  31  50  82 120 151 189 234 277 330
#     4  10  22  41  63  85 112 148 192 239 287 341
#
# _framework density 20.284987000000001
#
# number of rings (size 3 to 8) (size 9 to 14) (size 15 to 20)
#    1.000    1.667    0.000    1.000    2.333    3.333 
#    0.000    0.833    0.000    0.000    0.000    0.000 
#    0.000    0.000    0.000    0.000    0.000    0.000 
#
# Total GULP energy -297440.117401 kJ/mol
# GULP energy per Si atom -12393.338225 kJ/mol
# Density = 2.023882 g / cm^3
# Si number density = 20.284987 Si / 1000 Ang^3
#
#
#
# Elastic Constant Matrix: (Units=GPa)
#
#
# Indices 1 2 3 4 5 6 
#
# 1 108.2343 51.4451 36.3369 0.0000 11.1460 0.0000
# 2 51.4451 100.3320 30.6552 0.0000 13.3966 0.0000
# 3 36.3369 30.6552 72.1598 0.0000 9.3354 0.0000
# 4 0.0000 0.0000 0.0000 23.8380 0.0000 4.6936
# 5 11.1460 13.3966 9.3354 0.0000 23.0580 0.0000
# 6 0.0000 0.0000 0.0000 4.6936 0.0000 30.3893
#
#
#
# Elastic Compliance Matrix: (Units=1/GPa)
#
#
# Indices 1 2 3 4 5 6 
#
# 1 0.013374 -0.005339 -0.004254 0.000000 -0.001641 0.000000
# 2 -0.005339 0.014145 -0.002735 0.000000 -0.004530 0.000000
# 3 -0.004254 -0.002735 0.017613 0.000000 -0.003486 0.000000
# 4 0.000000 0.000000 0.000000 0.043266 0.000000 -0.006682
# 5 -0.001641 -0.004530 -0.003486 0.000000 0.048205 0.000000
# 6 0.000000 0.000000 0.000000 -0.006682 0.000000 0.033938
#
#
# Mechanical properties :
#
#
# Convention : Reuss Voigt Hill
#
# Bulk Modulus (GPa) = 48.83616 57.51116 53.17366
# Shear Modulus (GPa) = 24.74983 26.27632 25.51308
#
# Velocity S-wave (km/s) = 3.49679 3.60301 3.55030
# Velocity P-wave (km/s) = 6.35851 6.76181 6.56326
#
# Compressibility (1/GPa) = 0.02047663
#
# Stress axis : x y z
#
# Youngs Moduli (GPa) = 74.77227 70.69810 56.77575
#
# Poissons Ratio (x) = 0.37742 0.24155
# Poissons Ratio (y) = 0.39917 0.15526
# Poissons Ratio (z) = 0.31811 0.19333
#
# Static dielectric constant tensor:
#      x y z
#    x 3.537940 0.000000 -0.134020 
#    y 0.000000 3.623390 0.000000 
#    z -0.134020 0.000000 3.421280 
# 
# 
# High freq. dielectric constant tensor:
#      x y z
#    x 1.788170 0.000000 -0.011840 
#    y 0.000000 1.789490 0.000000 
#    z -0.011840 0.000000 1.771260 
# 
# From -- ./inp_files/180269.got.cif
#   From: 2010.06.25/outbox.cif.g09.slc.cpg/sg12_91_cif.got.tgz:180269.got - 2010.06.28 00:19:55.
