data_PCOD8099006
_publ_section_title
;
Structure prediction by ZEFSAII (Michael W. Deem and Ramdas Pophale) SiO2 
 PCOD8099006
Probable space group: C 2/M
;
_chemical_formula_sum "Si O2"
_cell_formula_units_Z 56
_cell_length_a 14.784207
_cell_length_b 19.658485
_cell_length_c 18.984035
_cell_angle_alpha 90.000000
_cell_angle_beta 147.453925
_cell_angle_gamma 90.000000
_cell_volume 2968.252518
_symmetry_space_group_name_H-M "C 2/M"
_symmetry_group_IT_number 12
_symmetry_cell_setting 'monoclinic'
loop_
_space_group_symop_operation_xyz
x,y,z
-x,y,-z
-x,-y,-z
x,-y,z
1/2+x,1/2+y,z
1/2-x,1/2+y,-z
1/2-x,1/2-y,-z
1/2+x,1/2-y,z
loop_
_atom_site_type_symbol
_atom_site_label
_atom_site_fract_x
_atom_site_fract_y
_atom_site_fract_z
Si Si1 0.689570 0.579769 0.619246
Si Si2 0.995699 0.731698 0.336584
Si Si3 0.329067 0.885624 0.856499
Si Si4 0.862552 0.768370 0.859063
Si Si5 0.952142 0.076195 0.224595
Si Si6 0.074998 0.782599 0.862097
Si Si7 0.798606 0.141524 0.516914
O O1 0.500000 0.608651 0.500000
O O2 0.687345 0.500000 0.621417
O O3 0.811348 0.605645 0.761060
O O4 0.765176 0.603427 0.594580
O O5 0.825210 0.700352 0.259211
O O6 0.982747 0.742380 0.244393
O O7 0.052861 0.804577 0.406192
O O8 0.139852 0.677648 0.448497
O O9 0.330315 0.805439 0.873018
O O10 0.178770 0.923156 0.797132
O O11 0.500000 0.917982 0.000000
O O12 0.929500 0.769096 0.823773
O O13 0.000000 0.805712 0.000000
O O14 0.907640 0.135469 0.138747
O O15 0.133299 0.089357 0.379328
O O16 0.951255 0.000000 0.189695
O O17 0.250000 0.750000 0.000000
#
# Coordination Sequence:
#
# PCOD8099006 Si02
#       7
#     8   8   8   8   8   8   8
#     4  11  20  32  53  80 113 159 198 233 295 367
#     4  10  20  36  56  88 115 148 202 253 304 349
#     4  11  21  36  56  87 121 156 198 248 307 373
#     4  11  19  35  61  87 118 150 194 259 308 352
#     4  11  22  39  58  83 125 165 201 250 311 376
#     4  11  20  37  62  92 121 159 203 251 308 371
#     4  10  20  35  54  81 119 153 201 249 296 366
#
# _framework density 18.866319000000001
#
# number of rings (size 3 to 8) (size 9 to 14) (size 15 to 20)
#    0.000    1.286    5.714    2.571    0.000    1.143 
#    0.000    5.714    0.000    3.857    0.000    0.000 
#    0.000    0.000    0.000    0.000    0.000    0.000 
#
# Total GULP energy -347104.767176 kJ/mol
# GULP energy per Si atom -12396.598828 kJ/mol
# Density = 1.882338 g / cm^3
# Si number density = 18.866319 Si / 1000 Ang^3
#
#
#
# Elastic Constant Matrix: (Units=GPa)
#
#
# Indices 1 2 3 4 5 6 
#
# 1 83.2063 5.9834 31.5127 -0.0002 12.6071 0.0004
# 2 5.9834 71.2235 26.6124 0.0031 6.4865 0.0016
# 3 31.5127 26.6124 124.7435 -0.0050 3.6598 0.0009
# 4 -0.0002 0.0031 -0.0050 21.3010 -0.0026 -4.8137
# 5 12.6071 6.4865 3.6598 -0.0026 33.1816 0.0003
# 6 0.0004 0.0016 0.0009 -4.8137 0.0003 17.5107
#
#
#
# Elastic Compliance Matrix: (Units=1/GPa)
#
#
# Indices 1 2 3 4 5 6 
#
# 1 0.014084 0.000601 -0.003537 -0.000002 -0.005079 -0.000001
# 2 0.000601 0.015515 -0.003377 -0.000004 -0.002889 -0.000002
# 3 -0.003537 -0.003377 0.009603 0.000003 0.000945 0.000001
# 4 -0.000002 -0.000004 0.000003 0.050056 0.000005 0.013760
# 5 -0.005079 -0.002889 0.000945 0.000005 0.032527 0.000001
# 6 -0.000001 -0.000002 0.000001 0.013760 0.000001 0.060891
#
#
# Mechanical properties :
#
#
# Convention : Reuss Voigt Hill
#
# Bulk Modulus (GPa) = 37.62883 45.26558 41.44721
# Shear Modulus (GPa) = 24.49060 28.73632 26.61346
#
# Velocity S-wave (km/s) = 3.60684 3.90700 3.75991
# Velocity P-wave (km/s) = 6.11016 6.66316 6.39264
#
# Compressibility (1/GPa) = 0.02657537
#
# Stress axis : x y z
#
# Youngs Moduli (GPa) = 71.00150 64.45510 104.13732
#
# Poissons Ratio (x) = -0.03874 0.36835
# Poissons Ratio (y) = -0.04267 0.35166
# Poissons Ratio (z) = 0.25114 0.21766
#
# Static dielectric constant tensor:
#      x y z
#    x 3.257260 0.000000 0.185310 
#    y 0.000000 3.277070 -0.000010 
#    z 0.185310 -0.000010 3.551310 
# 
# 
# High freq. dielectric constant tensor:
#      x y z
#    x 1.708830 0.000000 0.003600 
#    y 0.000000 1.704950 0.000000 
#    z 0.003600 0.000000 1.749980 
# 
# From -- ./inp_files/272399.got.cif
#   From: 2010.06.25/outbox.cif.g09.slc.cpg/sg12_137_cif.got.tgz:272399.got - 2010.06.28 00:19:55.
