data_PCOD8099158
_publ_section_title
;
Structure prediction by ZEFSAII (Michael W. Deem and Ramdas Pophale) SiO2 
 PCOD8099158
Probable space group: C 2/M
;
_chemical_formula_sum "Si O2"
_cell_formula_units_Z 64
_cell_length_a 19.959854
_cell_length_b 8.483439
_cell_length_c 33.679078
_cell_angle_alpha 90.000000
_cell_angle_beta 144.304597
_cell_angle_gamma 90.000000
_cell_volume 3327.457617
_symmetry_space_group_name_H-M "C 2/M"
_symmetry_group_IT_number 12
_symmetry_cell_setting 'monoclinic'
loop_
_space_group_symop_operation_xyz
x,y,z
-x,y,-z
-x,-y,-z
x,-y,z
1/2+x,1/2+y,z
1/2-x,1/2+y,-z
1/2-x,1/2-y,-z
1/2+x,1/2-y,z
loop_
_atom_site_type_symbol
_atom_site_label
_atom_site_fract_x
_atom_site_fract_y
_atom_site_fract_z
Si Si1 0.387476 0.314866 0.966147
Si Si2 0.642635 0.186775 0.820297
Si Si3 0.626504 0.684300 0.949478
Si Si4 0.876988 0.684788 0.557145
Si Si5 0.227997 0.814986 0.703038
Si Si6 0.010330 0.185124 0.549983
Si Si7 0.918875 0.813642 0.294763
Si Si8 0.521596 0.814349 0.190010
O O1 0.384697 0.500000 0.956697
O O2 0.269123 0.242816 0.891264
O O3 0.500000 0.238248 0.000000
O O4 0.401330 0.275933 0.018768
O O5 0.602727 0.232238 0.757466
O O6 0.551737 0.257072 0.808610
O O7 0.646061 0.000000 0.826245
O O8 0.621029 0.500000 0.937577
O O9 0.535458 0.775808 0.879252
O O10 0.750000 0.750000 0.000000
O O11 0.878706 0.500000 0.566037
O O12 0.750000 0.750000 0.500000
O O13 0.920005 0.721366 0.533400
O O14 0.956446 0.768153 0.628357
O O15 0.139316 0.773795 0.625470
O O16 0.178262 0.751236 0.721109
O O17 0.350375 0.738784 0.750068
O O18 0.243347 0.000000 0.715122
O O19 0.000000 0.243180 0.500000
O O20 0.983923 0.000000 0.541864
O O21 0.913600 0.000000 0.286920
O O22 0.529434 0.000000 0.199414
#
# Coordination Sequence:
#
# PCOD8099158 Si02
#       8
#     8   8   8   8   8   8   8   8
#     4   9  19  35  53  77 109 143 182 228 278 331
#     4  10  20  35  55  79 109 146 185 227 278 333
#     4  11  21  36  57  79 104 140 180 229 281 330
#     4  11  22  38  60  86 116 153 194 236 284 337
#     4   8  17  34  55  78 109 145 180 223 272 324
#     4   9  18  35  59  87 118 153 191 232 281 336
#     4  10  21  38  57  81 113 147 185 230 280 333
#     4  10  20  36  55  78 109 145 185 226 274 333
#
# _framework density 19.233903000000002
#
# number of rings (size 3 to 8) (size 9 to 14) (size 15 to 20)
#    0.000    2.250    1.250    2.625    1.750    1.750 
#    0.000    5.000    0.000    1.875    0.000    0.000 
#    0.000    0.000    0.000    0.000    0.000    0.000 
#
# Total GULP energy -396754.034815 kJ/mol
# GULP energy per Si atom -12398.563588 kJ/mol
# Density = 1.919013 g / cm^3
# Si number density = 19.233903 Si / 1000 Ang^3
#
#
#
# Elastic Constant Matrix: (Units=GPa)
#
#
# Indices 1 2 3 4 5 6 
#
# 1 145.2126 8.8610 88.1475 -0.0003 20.2373 -0.0002
# 2 8.8610 10.5892 -4.8536 -0.0008 7.1356 0.0000
# 3 88.1475 -4.8536 133.5522 -0.0002 13.2825 0.0001
# 4 -0.0003 -0.0008 -0.0002 27.5416 0.0003 -6.2786
# 5 20.2373 7.1356 13.2825 0.0003 40.7773 -0.0001
# 6 -0.0002 0.0000 0.0001 -6.2786 -0.0001 21.2010
#
#
#
# Elastic Compliance Matrix: (Units=1/GPa)
#
#
# Indices 1 2 3 4 5 6 
#
# 1 0.013727 -0.015121 -0.009503 0.000000 -0.001071 0.000000
# 2 -0.015121 0.128490 0.016680 0.000004 -0.020413 0.000001
# 3 -0.009503 0.016680 0.014662 0.000001 -0.002979 0.000000
# 4 0.000000 0.000004 0.000001 0.038937 -0.000001 0.011531
# 5 -0.001071 -0.020413 -0.002979 -0.000001 0.029597 0.000000
# 6 0.000000 0.000001 0.000000 0.011531 0.000000 0.050582
#
#
# Mechanical properties :
#
#
# Convention : Reuss Voigt Hill
#
# Bulk Modulus (GPa) = 7.09265 52.62930 29.86098
# Shear Modulus (GPa) = 14.75442 31.05060 22.90251
#
# Velocity S-wave (km/s) = 2.77267 4.02228 3.45445
# Velocity P-wave (km/s) = 3.73441 6.99956 5.60980
#
# Compressibility (1/GPa) = 0.14099102
#
# Stress axis : x y z
#
# Youngs Moduli (GPa) = 72.84875 7.78273 68.20144
#
# Poissons Ratio (x) = 0.11768 0.64813
# Poissons Ratio (y) = 1.10153 -1.13760
# Poissons Ratio (z) = 0.69229 -0.12982
#
# Static dielectric constant tensor:
#      x y z
#    x 3.829430 0.000000 0.208930 
#    y 0.000000 3.237470 0.000000 
#    z 0.208930 0.000000 3.639250 
# 
# 
# High freq. dielectric constant tensor:
#      x y z
#    x 1.759430 0.000000 0.003440 
#    y 0.000000 1.719930 0.000000 
#    z 0.003440 0.000000 1.757650 
# 
# From -- ./inp_files/378515.got.cif
#   From: 2010.06.25/outbox.cif.g09.slc.cpg/sg12_190_cif.got.tgz:378515.got - 2010.06.28 00:19:55.
