data_PCOD8099828
_publ_section_title
;
Structure prediction by ZEFSAII (Michael W. Deem and Ramdas Pophale) SiO2 
 PCOD8099828
Probable space group: C 2/M
;
_chemical_formula_sum "Si O2"
_cell_formula_units_Z 48
_cell_length_a 16.629936
_cell_length_b 12.858223
_cell_length_c 12.930611
_cell_angle_alpha 90.000000
_cell_angle_beta 112.141540
_cell_angle_gamma 90.000000
_cell_volume 2561.069916
_symmetry_space_group_name_H-M "C 2/M"
_symmetry_group_IT_number 12
_symmetry_cell_setting 'monoclinic'
loop_
_space_group_symop_operation_xyz
x,y,z
-x,y,-z
-x,-y,-z
x,-y,z
1/2+x,1/2+y,z
1/2-x,1/2+y,-z
1/2-x,1/2-y,-z
1/2+x,1/2-y,z
loop_
_atom_site_type_symbol
_atom_site_label
_atom_site_fract_x
_atom_site_fract_y
_atom_site_fract_z
Si Si1 0.585229 0.779004 0.304077
Si Si2 0.754325 0.382721 0.719156
Si Si3 0.412456 0.879603 0.295171
Si Si4 0.596179 0.710441 0.535756
Si Si5 0.923807 0.120802 0.885833
Si Si6 0.749605 0.289977 0.115126
O O1 0.660283 0.855817 0.303947
O O2 0.497810 0.844301 0.275403
O O3 0.617563 0.731657 0.427315
O O4 0.568812 0.685994 0.215725
O O5 0.761078 0.500000 0.760904
O O6 0.667813 0.370460 0.608746
O O7 0.747600 0.313656 0.816701
O O8 0.399902 0.817276 0.396191
O O9 0.332618 0.861222 0.179016
O O10 0.419031 0.000000 0.328438
O O11 0.500000 0.660721 0.500000
O O12 0.834180 0.140974 0.901404
O O13 0.931402 0.000000 0.859268
O O14 0.000000 0.155264 0.000000
O O15 0.750000 0.250000 0.000000
#
# Coordination Sequence:
#
# PCOD8099828 Si02
#       6
#     8   8   8   8   8   8
#     4  10  20  36  55  80 110 140 176 220 264 314
#     4  10  21  35  53  78 107 139 174 216 266 315
#     4  10  20  35  57  82 107 140 180 221 266 314
#     4   9  20  36  53  78 109 140 177 219 262 314
#     4  10  21  37  57  80 107 142 180 218 265 318
#     4  10  21  38  56  78 108 138 177 224 264 315
#
# _framework density 18.742166999999998
#
# number of rings (size 3 to 8) (size 9 to 14) (size 15 to 20)
#    0.000    2.167    0.000    2.500    0.000    6.000 
#    0.000   10.000    0.000    5.500    0.000    0.000 
#    0.000    0.000    0.000    0.000    0.000    0.000 
#
# Total GULP energy -297667.494564 kJ/mol
# GULP energy per Si atom -12402.812273 kJ/mol
# Density = 1.869951 g / cm^3
# Si number density = 18.742167 Si / 1000 Ang^3
#
#
#
# Elastic Constant Matrix: (Units=GPa)
#
#
# Indices 1 2 3 4 5 6 
#
# 1 111.0503 40.8403 54.0422 0.0000 13.6863 0.0000
# 2 40.8403 96.5625 31.4242 0.0000 -0.5040 0.0000
# 3 54.0422 31.4242 117.9039 0.0000 0.4657 0.0000
# 4 0.0000 0.0000 0.0000 10.9355 0.0000 -1.2847
# 5 13.6863 -0.5040 0.4657 0.0000 36.8961 0.0000
# 6 0.0000 0.0000 0.0000 -1.2847 0.0000 16.7192
#
#
#
# Elastic Compliance Matrix: (Units=1/GPa)
#
#
# Indices 1 2 3 4 5 6 
#
# 1 0.013643 -0.004126 -0.005134 0.000000 -0.005052 0.000000
# 2 -0.004126 0.012589 -0.001471 0.000000 0.001721 0.000000
# 3 -0.005134 -0.001471 0.011220 0.000000 0.001743 0.000000
# 4 0.000000 0.000000 0.000000 0.092279 0.000000 0.007091
# 5 -0.005052 0.001721 0.001743 0.000000 0.028979 0.000000
# 6 0.000000 0.000000 0.000000 0.007091 0.000000 0.060356
#
#
# Mechanical properties :
#
#
# Convention : Reuss Voigt Hill
#
# Bulk Modulus (GPa) = 62.53750 64.23667 63.38709
# Shear Modulus (GPa) = 20.33702 26.19084 23.26393
#
# Velocity S-wave (km/s) = 3.29765 3.74227 3.52698
# Velocity P-wave (km/s) = 6.92380 7.28156 7.10493
#
# Compressibility (1/GPa) = 0.01599040
#
# Stress axis : x y z
#
# Youngs Moduli (GPa) = 73.29538 79.43653 89.12831
#
# Poissons Ratio (x) = 0.32776 0.45758
# Poissons Ratio (y) = 0.30242 0.13109
# Poissons Ratio (z) = 0.37629 0.11683
#
# Static dielectric constant tensor:
#      x y z
#    x 3.342370 0.000000 -0.025740 
#    y 0.000000 3.262380 0.000000 
#    z -0.025740 0.000000 3.373610 
# 
# 
# High freq. dielectric constant tensor:
#      x y z
#    x 1.745850 0.000000 0.008920 
#    y 0.000000 1.719830 0.000000 
#    z 0.008920 0.000000 1.735570 
# 
# From -- ./inp_files/154192.got.cif
#   From: 2010.06.25/outbox.cif.g09.slc.cpg/sg12_78_cif.got.tgz:154192.got - 2010.06.28 00:19:55.
