data_PCOD8099861
_publ_section_title
;
Structure prediction by ZEFSAII (Michael W. Deem and Ramdas Pophale) SiO2 
 PCOD8099861
Probable space group: C 2/M
;
_chemical_formula_sum "Si O2"
_cell_formula_units_Z 48
_cell_length_a 27.285739
_cell_length_b 10.453935
_cell_length_c 9.094853
_cell_angle_alpha 90.000000
_cell_angle_beta 69.980279
_cell_angle_gamma 90.000000
_cell_volume 2437.488526
_symmetry_space_group_name_H-M "C 2/M"
_symmetry_group_IT_number 12
_symmetry_cell_setting 'monoclinic'
loop_
_space_group_symop_operation_xyz
x,y,z
-x,y,-z
-x,-y,-z
x,-y,z
1/2+x,1/2+y,z
1/2-x,1/2+y,-z
1/2-x,1/2-y,-z
1/2+x,1/2-y,z
loop_
_atom_site_type_symbol
_atom_site_label
_atom_site_fract_x
_atom_site_fract_y
_atom_site_fract_z
Si Si1 0.965532 0.636705 0.888473
Si Si2 0.021819 0.863896 0.812207
Si Si3 0.848795 0.644123 0.973715
Si Si4 0.666850 0.144393 0.347864
Si Si5 0.136556 0.855321 0.602508
Si Si6 0.788759 0.146275 0.209580
O O1 0.968751 0.500000 0.801634
O O2 0.990482 0.749494 0.761804
O O3 0.905411 0.666527 0.988791
O O4 0.000000 0.629281 0.000000
O O5 0.083435 0.838425 0.749274
O O6 0.009657 0.000000 0.746780
O O7 0.000000 0.868494 0.000000
O O8 0.828152 0.500000 0.032622
O O9 0.854826 0.659476 0.793495
O O10 0.809274 0.751537 0.070686
O O11 0.637062 0.249939 0.474465
O O12 0.728069 0.172218 0.290929
O O13 0.655529 0.000000 0.418094
O O14 0.184407 0.828488 0.661934
O O15 0.140618 0.000000 0.533392
O O16 0.799402 0.000000 0.144390
#
# Coordination Sequence:
#
# PCOD8099861 Si02
#       6
#     8   8   8   8   8   8
#     4   9  17  30  50  76 102 130 170 217 263 313
#     4   9  17  31  52  77 103 130 167 219 270 314
#     4  10  21  36  55  82 113 144 182 226 272 324
#     4  10  22  38  54  78 114 150 182 221 272 326
#     4  10  21  36  56  83 111 142 183 226 270 324
#     4  10  20  35  57  83 109 143 187 227 267 320
#
# _framework density 19.692399999999999
#
# number of rings (size 3 to 8) (size 9 to 14) (size 15 to 20)
#    0.000    2.333    0.000    3.000    0.000    4.667 
#    0.000    0.833    0.000    5.000    0.000    0.000 
#    0.000    0.000    0.000    0.000    0.000    0.000 
#
# Total GULP energy -297371.023486 kJ/mol
# GULP energy per Si atom -12390.459312 kJ/mol
# Density = 1.964758 g / cm^3
# Si number density = 19.692400 Si / 1000 Ang^3
#
#
#
# Elastic Constant Matrix: (Units=GPa)
#
#
# Indices 1 2 3 4 5 6 
#
# 1 55.3546 38.3723 32.4867 0.0000 -17.7571 0.0000
# 2 38.3723 168.1837 55.8622 0.0000 -14.5620 0.0000
# 3 32.4867 55.8622 73.4794 0.0000 -6.8393 0.0000
# 4 0.0000 0.0000 0.0000 31.8474 0.0000 -4.2367
# 5 -17.7571 -14.5620 -6.8393 0.0000 19.1705 0.0000
# 6 0.0000 0.0000 0.0000 -4.2367 0.0000 26.5094
#
#
#
# Elastic Compliance Matrix: (Units=1/GPa)
#
#
# Indices 1 2 3 4 5 6 
#
# 1 0.034532 -0.001779 -0.011444 0.000000 0.026553 0.000000
# 2 -0.001779 0.008357 -0.005306 0.000000 0.002808 0.000000
# 3 -0.011444 -0.005306 0.022074 0.000000 -0.006755 0.000000
# 4 0.000000 0.000000 0.000000 0.032082 0.000000 0.005127
# 5 0.026553 0.002808 -0.006755 0.000000 0.076481 0.000000
# 6 0.000000 0.000000 0.000000 0.005127 0.000000 0.038542
#
#
# Mechanical properties :
#
#
# Convention : Reuss Voigt Hill
#
# Bulk Modulus (GPa) = 35.83366 61.16223 48.49794
# Shear Modulus (GPa) = 19.34789 26.85855 23.10322
#
# Velocity S-wave (km/s) = 3.13789 3.69711 3.42892
# Velocity P-wave (km/s) = 5.60042 7.02503 6.35279
#
# Compressibility (1/GPa) = 0.02790672
#
# Stress axis : x y z
#
# Youngs Moduli (GPa) = 28.95845 119.65892 45.30305
#
# Poissons Ratio (x) = 0.21284 0.51843
# Poissons Ratio (y) = 0.05151 0.24036
# Poissons Ratio (z) = 0.33139 0.63487
#
# Static dielectric constant tensor:
#      x y z
#    x 3.652040 0.000000 -0.103760 
#    y 0.000000 5.656690 0.000000 
#    z -0.103760 0.000000 3.060230 
# 
# 
# High freq. dielectric constant tensor:
#      x y z
#    x 1.773610 0.000000 -0.013510 
#    y 0.000000 1.800400 0.000000 
#    z -0.013510 0.000000 1.714630 
# 
# From -- ./inp_files/94904.got.cif
#   From: 2010.06.25/outbox.cif.g09.slc.cpg/sg12_48_cif.got.tgz:94904.got - 2010.06.28 00:19:55.
