data_PCOD8099207
_publ_section_title
;
Structure prediction by ZEFSAII (Michael W. Deem and Ramdas Pophale) SiO2 
 PCOD8099207
Probable space group: C 2/M
;
_chemical_formula_sum "Si O2"
_cell_formula_units_Z 56
_cell_length_a 23.849336
_cell_length_b 8.844788
_cell_length_c 31.898820
_cell_angle_alpha 90.000000
_cell_angle_beta 154.092573
_cell_angle_gamma 90.000000
_cell_volume 2939.941326
_symmetry_space_group_name_H-M "C 2/M"
_symmetry_group_IT_number 12
_symmetry_cell_setting 'monoclinic'
loop_
_space_group_symop_operation_xyz
x,y,z
-x,y,-z
-x,-y,-z
x,-y,z
1/2+x,1/2+y,z
1/2-x,1/2+y,-z
1/2-x,1/2-y,-z
1/2+x,1/2-y,z
loop_
_atom_site_type_symbol
_atom_site_label
_atom_site_fract_x
_atom_site_fract_y
_atom_site_fract_z
Si Si1 0.911249 0.172820 0.752159
Si Si2 0.049728 0.678665 0.372845
Si Si3 0.713271 0.325430 0.415125
Si Si4 0.837990 0.678162 0.953380
Si Si5 0.407246 0.673460 0.843867
Si Si6 0.236503 0.323152 0.805755
Si Si7 0.672244 0.177540 0.910127
O O1 0.796587 0.200730 0.641625
O O2 0.860712 0.206162 0.765050
O O3 0.023669 0.286944 0.815962
O O4 0.961522 0.000000 0.782630
O O5 0.043716 0.500000 0.366446
O O6 0.148697 0.733930 0.475688
O O7 0.096678 0.739443 0.359585
O O8 0.908285 0.741308 0.288500
O O9 0.697930 0.500000 0.416747
O O10 0.822170 0.500000 0.944784
O O11 0.830498 0.735041 0.900585
O O12 0.720364 0.755106 0.898684
O O13 0.972778 0.721619 0.064687
O O14 0.451973 0.500000 0.879293
O O15 0.287265 0.709898 0.793107
O O16 0.242649 0.500000 0.820794
O O17 0.695549 0.000000 0.925904
O O18 0.750000 0.250000 0.000000
#
# Coordination Sequence:
#
# PCOD8099207 Si02
#       7
#     8   8   8   8   8   8   8
#     4  10  20  35  55  80 111 146 181 220 270 325
#     4   9  18  34  55  80 108 137 176 225 273 323
#     4   9  18  33  55  82 109 137 174 222 274 325
#     4  12  24  37  55  80 108 143 184 229 275 322
#     4  10  21  37  55  75 107 148 186 224 270 325
#     4  10  21  37  56  78 106 145 187 227 273 323
#     4  12  23  36  55  80 110 142 177 221 268 320
#
# _framework density 19.047998
#
# number of rings (size 3 to 8) (size 9 to 14) (size 15 to 20)
#    0.000    1.714    1.429    3.857    0.000    5.714 
#    0.000    0.714    0.000    4.286    0.000    0.000 
#    0.000    8.000    0.000    0.000    0.000    0.000 
#
# Total GULP energy -347256.224454 kJ/mol
# GULP energy per Si atom -12402.008016 kJ/mol
# Density = 1.900464 g / cm^3
# Si number density = 19.047998 Si / 1000 Ang^3
#
#
#
# Elastic Constant Matrix: (Units=GPa)
#
#
# Indices 1 2 3 4 5 6 
#
# 1 135.6679 37.6487 56.4718 0.0028 -15.5076 -0.0012
# 2 37.6487 78.2877 24.4686 0.0017 -5.1627 0.0007
# 3 56.4718 24.4686 88.0787 -0.0033 -17.6854 0.0018
# 4 0.0028 0.0017 -0.0033 21.3522 0.0031 1.2951
# 5 -15.5076 -5.1627 -17.6854 0.0031 31.5139 -0.0008
# 6 -0.0012 0.0007 0.0018 1.2951 -0.0008 23.4206
#
#
#
# Elastic Compliance Matrix: (Units=1/GPa)
#
#
# Indices 1 2 3 4 5 6 
#
# 1 0.010856 -0.003329 -0.005716 -0.000002 0.001589 0.000001
# 2 -0.003329 0.015009 -0.002108 -0.000001 -0.000362 0.000000
# 3 -0.005716 -0.002108 0.016871 0.000003 0.006310 -0.000001
# 4 -0.000002 -0.000001 0.000003 0.046991 -0.000005 -0.002599
# 5 0.001589 -0.000362 0.006310 -0.000005 0.035995 0.000001
# 6 0.000001 0.000000 -0.000001 -0.002599 0.000001 0.042841
#
#
# Mechanical properties :
#
#
# Convention : Reuss Voigt Hill
#
# Bulk Modulus (GPa) = 48.94934 59.91249 54.43092
# Shear Modulus (GPa) = 25.29333 27.48703 26.39018
#
# Velocity S-wave (km/s) = 3.64795 3.80286 3.72621
# Velocity P-wave (km/s) = 6.59523 7.12769 6.86663
#
# Compressibility (1/GPa) = 0.02042928
#
# Stress axis : x y z
#
# Youngs Moduli (GPa) = 92.11626 66.62517 59.27314
#
# Poissons Ratio (x) = 0.22181 0.33883
# Poissons Ratio (y) = 0.30667 0.12494
# Poissons Ratio (z) = 0.52657 0.14044
#
# Static dielectric constant tensor:
#      x y z
#    x 3.511710 0.000000 -0.022990 
#    y 0.000000 3.420740 0.000000 
#    z -0.022990 0.000000 3.597090 
# 
# 
# High freq. dielectric constant tensor:
#      x y z
#    x 1.741370 0.000000 -0.013080 
#    y 0.000000 1.732710 0.000000 
#    z -0.013080 0.000000 1.733610 
# 
# From -- ./inp_files/237480.got.cif
#   From: 2010.06.25/outbox.cif.g09.slc.cpg/sg12_119_cif.got.tgz:237480.got - 2010.06.28 00:19:55.
