data_PCOD8099867
_publ_section_title
;
Structure prediction by ZEFSAII (Michael W. Deem and Ramdas Pophale) SiO2 
 PCOD8099867
Probable space group: C 2/M
;
_chemical_formula_sum "Si O2"
_cell_formula_units_Z 56
_cell_length_a 14.410195
_cell_length_b 14.531359
_cell_length_c 12.936895
_cell_angle_alpha 90.000000
_cell_angle_beta 90.000000
_cell_angle_gamma 90.000000
_cell_volume 2708.982149
_symmetry_space_group_name_H-M "C 2/M"
_symmetry_group_IT_number 12
_symmetry_cell_setting 'monoclinic'
loop_
_space_group_symop_operation_xyz
x,y,z
-x,y,-z
-x,-y,-z
x,-y,z
1/2+x,1/2+y,z
1/2-x,1/2+y,-z
1/2-x,1/2-y,-z
1/2+x,1/2-y,z
loop_
_atom_site_type_symbol
_atom_site_label
_atom_site_fract_x
_atom_site_fract_y
_atom_site_fract_z
Si Si1 0.898035 0.602531 0.277952
Si Si2 0.394380 0.390414 0.000000
Si Si3 0.605398 0.712658 0.616225
Si Si4 0.894602 0.787342 0.616225
Si Si5 0.296195 0.394362 0.204212
Si Si6 0.101965 0.602531 0.277952
Si Si7 0.296194 0.605638 0.795788
O O1 0.889019 0.500000 0.326979
O O2 0.887480 0.677385 0.368347
O O3 0.815593 0.616099 0.194003
O O4 0.000000 0.613621 0.224152
O O5 0.388555 0.500000 1.000000
O O6 0.343051 0.351578 0.898144
O O7 0.500000 0.355213 0.000000
O O8 0.343051 0.351578 0.101856
O O9 0.638431 0.690385 0.500000
O O10 0.500000 0.678824 0.633687
O O11 0.671487 0.660291 0.695125
O O12 0.887480 0.677385 0.631653
O O13 0.828513 0.839709 0.695125
O O14 0.326649 0.500000 0.217770
O O15 0.184407 0.383901 0.194003
O O16 0.110981 0.500000 0.326979
O O17 0.326649 0.500000 0.782230
#
# Coordination Sequence:
#
# PCOD8099867 Si02
#       7
#     8   8   8   8   8   8   8
#     4   9  19  36  55  76 107 146 185 223 263 314
#     4   9  18  34  56  81 110 144 181 220 264 321
#     4  10  21  36  55  81 112 144 179 222 272 325
#     4  10  21  36  55  81 112 144 179 222 272 325
#     4  10  20  35  57  83 110 142 180 222 271 324
#     4   9  19  36  55  76 107 146 185 223 263 314
#     4  10  20  35  57  83 110 142 180 222 271 324
#
# _framework density 20.671970999999999
#
# number of rings (size 3 to 8) (size 9 to 14) (size 15 to 20)
#    0.000    2.429    0.000    1.714    0.000    5.143 
#    0.000   10.714    0.000    7.714    0.000    0.000 
#    0.000    0.000    0.000    0.000    0.000    0.000 
#
# Total GULP energy -347023.100883 kJ/mol
# GULP energy per Si atom -12393.682174 kJ/mol
# Density = 2.062492 g / cm^3
# Si number density = 20.671971 Si / 1000 Ang^3
#
#
#
# Elastic Constant Matrix: (Units=GPa)
#
#
# Indices 1 2 3 4 5 6 
#
# 1 166.3861 40.8957 88.9765 0.0000 0.0000 0.0000
# 2 40.8957 75.3746 44.8437 0.0000 0.0000 0.0000
# 3 88.9765 44.8437 146.8361 0.0000 0.0001 0.0000
# 4 0.0000 0.0000 0.0000 14.4617 0.0000 0.0000
# 5 0.0000 0.0000 0.0001 0.0000 23.4520 0.0000
# 6 0.0000 0.0000 0.0000 0.0000 0.0000 26.2952
#
#
#
# Elastic Compliance Matrix: (Units=1/GPa)
#
#
# Indices 1 2 3 4 5 6 
#
# 1 0.009139 -0.002033 -0.004917 0.000000 0.000000 0.000000
# 2 -0.002033 0.016665 -0.003857 0.000000 0.000000 0.000000
# 3 -0.004917 -0.003857 0.010968 0.000000 0.000000 0.000000
# 4 0.000000 0.000000 0.000000 0.069148 0.000000 0.000000
# 5 0.000000 0.000000 0.000000 0.000000 0.042640 0.000000
# 6 0.000000 0.000000 0.000000 0.000000 0.000000 0.038030
#
#
# Mechanical properties :
#
#
# Convention : Reuss Voigt Hill
#
# Bulk Modulus (GPa) = 65.97697 82.00318 73.99008
# Shear Modulus (GPa) = 23.44572 27.10052 25.27312
#
# Velocity S-wave (km/s) = 3.37141 3.62467 3.50033
# Velocity P-wave (km/s) = 6.86591 7.56786 7.22541
#
# Compressibility (1/GPa) = 0.01515680
#
# Stress axis : x y z
#
# Youngs Moduli (GPa) = 109.41714 60.00511 91.17488
#
# Poissons Ratio (x) = 0.12201 0.44831
# Poissons Ratio (y) = 0.22248 0.35170
# Poissons Ratio (z) = 0.53801 0.23147
#
# Static dielectric constant tensor:
#      x y z
#    x 4.159030 0.000000 0.000000 
#    y 0.000000 3.735910 0.000000 
#    z 0.000000 0.000000 3.434900 
# 
# 
# High freq. dielectric constant tensor:
#      x y z
#    x 1.832640 0.000000 0.000000 
#    y 0.000000 1.802600 0.000000 
#    z 0.000000 0.000000 1.769440 
# 
# From -- ./inp_files/143721.got.cif
#   From: 2010.06.25/outbox.cif.g09.slc.cpg/sg12_72_cif.got.tgz:143721.got - 2010.06.28 00:19:55.
