data_PCOD8099706
_publ_section_title
;
Structure prediction by ZEFSAII (Michael W. Deem and Ramdas Pophale) SiO2 
 PCOD8099706
Probable space group: C 2/M
;
_chemical_formula_sum "Si O2"
_cell_formula_units_Z 52
_cell_length_a 15.070177
_cell_length_b 28.009057
_cell_length_c 9.489448
_cell_angle_alpha 90.000000
_cell_angle_beta 41.696396
_cell_angle_gamma 90.000000
_cell_volume 2664.398534
_symmetry_space_group_name_H-M "C 2/M"
_symmetry_group_IT_number 12
_symmetry_cell_setting 'monoclinic'
loop_
_space_group_symop_operation_xyz
x,y,z
-x,y,-z
-x,-y,-z
x,-y,z
1/2+x,1/2+y,z
1/2-x,1/2+y,-z
1/2-x,1/2-y,-z
1/2+x,1/2-y,z
loop_
_atom_site_type_symbol
_atom_site_label
_atom_site_fract_x
_atom_site_fract_y
_atom_site_fract_z
Si Si1 0.159159 0.600284 0.810451
Si Si2 0.177467 0.183269 0.499826
Si Si3 0.264326 0.778037 0.689030
Si Si4 0.805265 0.599434 0.912656
Si Si5 0.000000 0.340746 0.500000
Si Si6 0.935562 0.500000 0.726007
Si Si7 0.073969 0.843772 0.058083
Si Si8 0.626022 0.000000 0.753011
O O1 0.220232 0.639709 0.634555
O O2 0.207576 0.548516 0.692446
O O3 0.215883 0.611390 0.898027
O O4 0.000000 0.603944 0.000000
O O5 0.194255 0.210905 0.625461
O O6 0.201965 0.221321 0.343562
O O7 0.025488 0.163952 0.691401
O O8 0.399409 0.807443 0.535494
O O9 0.161342 0.795012 0.933263
O O10 0.931681 0.627151 0.699977
O O11 0.836684 0.543812 0.866551
O O12 0.672213 0.612801 0.983770
O O13 0.000000 0.500000 0.500000
O O14 0.068090 0.500000 0.664803
O O15 0.000000 0.858558 0.000000
O O16 0.500000 0.000000 0.000000
#
# Coordination Sequence:
#
# PCOD8099706 Si02
#       8
#     8   8   8   8   4   4   8   4
#     4  11  21  36  61  88 119 149 197 249 309 356
#     4  10  21  37  58  83 116 161 201 234 301 369
#     4   9  20  36  57  81 114 155 200 250 292 350
#     4  11  21  36  59  89 114 157 197 250 302 355
#     4  10  20  35  56  84 118 145 200 252 306 334
#     4  12  22  36  64  93 120 152 205 254 303 364
#     4   9  21  39  57  79 122 160 195 250 297 354
#     4  10  20  38  59  87 123 147 187 260 308 338
#
# _framework density 19.516598999999999
#
# number of rings (size 3 to 8) (size 9 to 14) (size 15 to 20)
#    0.000    1.846    3.846    0.923    0.000    7.385 
#    0.000    4.231    0.000    1.846    0.000    0.000 
#    0.000    0.000    0.000    0.000    0.000    0.000 
#
# Total GULP energy -322293.302625 kJ/mol
# GULP energy per Si atom -12395.896255 kJ/mol
# Density = 1.947218 g / cm^3
# Si number density = 19.516599 Si / 1000 Ang^3
#
#
#
# Elastic Constant Matrix: (Units=GPa)
#
#
# Indices 1 2 3 4 5 6 
#
# 1 86.4455 25.3672 22.4362 0.0000 -4.7099 0.0000
# 2 25.3672 140.0063 43.7036 0.0000 -12.2363 0.0000
# 3 22.4362 43.7036 85.1930 0.0000 -10.1728 0.0000
# 4 0.0000 0.0000 0.0000 5.1211 0.0000 3.3549
# 5 -4.7099 -12.2363 -10.1728 0.0000 32.5210 0.0000
# 6 0.0000 0.0000 0.0000 3.3549 0.0000 25.8452
#
#
#
# Elastic Compliance Matrix: (Units=1/GPa)
#
#
# Indices 1 2 3 4 5 6 
#
# 1 0.012681 -0.001465 -0.002529 0.000000 0.000494 0.000000
# 2 -0.001465 0.008789 -0.003899 0.000000 0.001875 0.000000
# 3 -0.002529 -0.003899 0.014736 0.000000 0.002776 0.000000
# 4 0.000000 0.000000 0.000000 0.213420 0.000000 -0.027704
# 5 0.000494 0.001875 0.002776 0.000000 0.032395 0.000000
# 6 0.000000 0.000000 0.000000 -0.027704 0.000000 0.042288
#
#
# Mechanical properties :
#
#
# Convention : Reuss Voigt Hill
#
# Bulk Modulus (GPa) = 48.97221 54.96209 51.96715
# Shear Modulus (GPa) = 14.41330 27.37332 20.89331
#
# Velocity S-wave (km/s) = 2.72051 3.74915 3.27546
# Velocity P-wave (km/s) = 5.91737 6.85305 6.40233
#
# Compressibility (1/GPa) = 0.02041974
#
# Stress axis : x y z
#
# Youngs Moduli (GPa) = 78.85675 113.77943 67.86205
#
# Poissons Ratio (x) = 0.16669 0.17163
# Poissons Ratio (y) = 0.11552 0.26459
# Poissons Ratio (z) = 0.19944 0.44362
#
# Static dielectric constant tensor:
#      x y z
#    x 3.716720 0.000000 0.153300 
#    y 0.000000 4.104080 0.000000 
#    z 0.153300 0.000000 3.686900 
# 
# 
# High freq. dielectric constant tensor:
#      x y z
#    x 1.752230 0.000000 0.005170 
#    y 0.000000 1.762780 0.000000 
#    z 0.005170 0.000000 1.752760 
# 
# From -- ./inp_files/68563.got.cif
#   From: 2010.06.25/outbox.cif.g09.slc.cpg/sg12_35_cif.got.tgz:68563.got - 2010.06.28 00:19:55.
