data_PCOD8099662
_publ_section_title
;
Structure prediction by ZEFSAII (Michael W. Deem and Ramdas Pophale) SiO2 
 PCOD8099662
Probable space group: C 2/M
;
_chemical_formula_sum "Si O2"
_cell_formula_units_Z 48
_cell_length_a 21.011719
_cell_length_b 9.618845
_cell_length_c 19.997003
_cell_angle_alpha 90.000000
_cell_angle_beta 141.873754
_cell_angle_gamma 90.000000
_cell_volume 2495.246396
_symmetry_space_group_name_H-M "C 2/M"
_symmetry_group_IT_number 12
_symmetry_cell_setting 'monoclinic'
loop_
_space_group_symop_operation_xyz
x,y,z
-x,y,-z
-x,-y,-z
x,-y,z
1/2+x,1/2+y,z
1/2-x,1/2+y,-z
1/2-x,1/2-y,-z
1/2+x,1/2-y,z
loop_
_atom_site_type_symbol
_atom_site_label
_atom_site_fract_x
_atom_site_fract_y
_atom_site_fract_z
Si Si1 0.100536 0.655461 0.622079
Si Si2 0.996378 0.664560 0.921172
Si Si3 0.648507 0.162360 0.931913
Si Si4 0.269426 0.844518 0.704800
Si Si5 0.322874 0.656177 0.517381
Si Si6 0.487526 0.846293 0.309237
O O1 0.119951 0.500000 0.609766
O O2 0.201262 0.747024 0.694798
O O3 0.090082 0.652567 0.692967
O O4 0.000000 0.716731 0.500000
O O5 0.004995 0.500000 0.929678
O O6 0.886870 0.710960 0.799088
O O7 0.090426 0.717608 0.951466
O O8 0.000000 0.724881 0.000000
O O9 0.570938 0.187419 0.806970
O O10 0.678429 0.000000 0.963016
O O11 0.750000 0.250000 0.000000
O O12 0.221946 0.845152 0.592992
O O13 0.267646 0.000000 0.734194
O O14 0.329723 0.500000 0.551894
O O15 0.250000 0.750000 0.500000
O O16 0.434313 0.723726 0.610697
O O17 0.540655 0.000000 0.347330
#
# Coordination Sequence:
#
# PCOD8099662 Si02
#       6
#     8   8   8   8   8   8
#     4  10  20  35  56  83 116 154 189 226 286 350
#     4   9  19  37  59  83 111 149 191 236 289 342
#     4  10  22  40  62  86 116 151 194 243 295 349
#     4  10  21  36  57  84 113 145 191 242 285 335
#     4  11  22  35  55  83 113 148 189 237 292 350
#     4  10  21  38  57  80 116 154 188 235 290 347
#
# _framework density 19.236578000000002
#
# number of rings (size 3 to 8) (size 9 to 14) (size 15 to 20)
#    0.000    2.000    1.667    1.500    2.333    5.000 
#    0.000    0.833    0.000    1.000    0.000    0.000 
#    0.000    0.000    0.000    0.000    0.000    0.000 
#
# Total GULP energy -297524.342999 kJ/mol
# GULP energy per Si atom -12396.847625 kJ/mol
# Density = 1.919279 g / cm^3
# Si number density = 19.236578 Si / 1000 Ang^3
#
#
#
# Elastic Constant Matrix: (Units=GPa)
#
#
# Indices 1 2 3 4 5 6 
#
# 1 139.8040 55.4772 57.6982 0.0000 9.9326 0.0000
# 2 55.4772 100.1986 48.6812 0.0000 17.6785 0.0000
# 3 57.6982 48.6812 96.8642 0.0000 8.8403 0.0000
# 4 0.0000 0.0000 0.0000 24.5757 0.0000 9.7625
# 5 9.9326 17.6785 8.8403 0.0000 38.6399 0.0000
# 6 0.0000 0.0000 0.0000 9.7625 0.0000 33.6538
#
#
#
# Elastic Compliance Matrix: (Units=1/GPa)
#
#
# Indices 1 2 3 4 5 6 
#
# 1 0.010398 -0.003633 -0.004366 0.000000 -0.000011 0.000000
# 2 -0.003633 0.015334 -0.005093 0.000000 -0.004916 0.000000
# 3 -0.004366 -0.005093 0.015493 0.000000 -0.000092 0.000000
# 4 0.000000 0.000000 0.000000 0.045990 0.000000 -0.013341
# 5 -0.000011 -0.004916 -0.000092 0.000000 0.028153 0.000000
# 6 0.000000 0.000000 0.000000 -0.013341 0.000000 0.033584
#
#
# Mechanical properties :
#
#
# Convention : Reuss Voigt Hill
#
# Bulk Modulus (GPa) = 66.49864 73.39776 69.94820
# Shear Modulus (GPa) = 27.75449 31.04123 29.39786
#
# Velocity S-wave (km/s) = 3.80254 4.02139 3.91350
# Velocity P-wave (km/s) = 7.34323 7.73306 7.54066
#
# Compressibility (1/GPa) = 0.01503790
#
# Stress axis : x y z
#
# Youngs Moduli (GPa) = 96.17684 65.21480 64.54638
#
# Poissons Ratio (x) = 0.23696 0.28183
# Poissons Ratio (y) = 0.34946 0.32876
# Poissons Ratio (z) = 0.41993 0.33217
#
# Static dielectric constant tensor:
#      x y z
#    x 3.679630 0.000000 -0.059910 
#    y 0.000000 3.650530 0.000000 
#    z -0.059910 0.000000 3.544690 
# 
# 
# High freq. dielectric constant tensor:
#      x y z
#    x 1.757620 0.000000 -0.004980 
#    y 0.000000 1.729650 0.000000 
#    z -0.004980 0.000000 1.748390 
# 
# From -- ./inp_files/244878.got.cif
#   From: 2010.06.25/outbox.cif.g09.slc.cpg/sg12_123_cif.got.tgz:244878.got - 2010.06.28 00:19:55.
