data_PCOD8099497
_publ_section_title
;
Structure prediction by ZEFSAII (Michael W. Deem and Ramdas Pophale) SiO2 
 PCOD8099497
Probable space group: C 2/M
;
_chemical_formula_sum "Si O2"
_cell_formula_units_Z 32
_cell_length_a 18.418587
_cell_length_b 8.800937
_cell_length_c 11.196073
_cell_angle_alpha 90.000000
_cell_angle_beta 66.435099
_cell_angle_gamma 90.000000
_cell_volume 1663.544781
_symmetry_space_group_name_H-M "C 2/M"
_symmetry_group_IT_number 12
_symmetry_cell_setting 'monoclinic'
loop_
_space_group_symop_operation_xyz
x,y,z
-x,y,-z
-x,-y,-z
x,-y,z
1/2+x,1/2+y,z
1/2-x,1/2+y,-z
1/2-x,1/2-y,-z
1/2+x,1/2-y,z
loop_
_atom_site_type_symbol
_atom_site_label
_atom_site_fract_x
_atom_site_fract_y
_atom_site_fract_z
Si Si1 0.821130 0.179253 0.879981
Si Si2 0.298474 0.175287 0.643372
Si Si3 0.134443 0.176609 0.626768
Si Si4 0.986426 0.180712 0.876460
O O1 0.817608 0.223919 0.744745
O O2 0.903137 0.241096 0.881252
O O3 0.815922 0.000000 0.896033
O O4 0.750000 0.250000 0.000000
O O5 0.207733 0.204198 0.667161
O O6 0.356457 0.226094 0.499085
O O7 0.313926 0.000000 0.663449
O O8 0.056357 0.238042 0.744050
O O9 0.128108 0.000000 0.595527
O O10 0.988239 0.000000 0.879940
O O11 0.000000 0.247762 0.000000
#
# Coordination Sequence:
#
# PCOD8099497 Si02
#       4
#     8   8   8   8
#     4  11  22  36  56  80 107 139 177 221 267 316
#     4  10  20  35  56  81 110 141 174 217 267 316
#     4   9  18  35  58  80 105 141 183 220 256 307
#     4   9  18  34  56  79 103 137 181 222 259 308
#
# _framework density 19.236032000000002
#
# number of rings (size 3 to 8) (size 9 to 14) (size 15 to 20)
#    0.000    2.250    0.000    3.000    0.000    6.000 
#    0.000    7.500    0.000    5.250    0.000    0.000 
#    0.000    0.000    0.000    0.000    0.000    0.000 
#
# Total GULP energy -198454.287158 kJ/mol
# GULP energy per Si atom -12403.392947 kJ/mol
# Density = 1.919225 g / cm^3
# Si number density = 19.236032 Si / 1000 Ang^3
#
#
#
# Elastic Constant Matrix: (Units=GPa)
#
#
# Indices 1 2 3 4 5 6 
#
# 1 134.7594 36.4054 94.6361 0.0000 -12.4203 0.0000
# 2 36.4054 46.8330 33.0779 0.0000 -1.1540 0.0000
# 3 94.6361 33.0779 147.5410 0.0000 -15.8569 0.0000
# 4 0.0000 0.0000 0.0000 34.6617 0.0000 1.3739
# 5 -12.4203 -1.1540 -15.8569 0.0000 40.4028 0.0000
# 6 0.0000 0.0000 0.0000 1.3739 0.0000 25.7493
#
#
#
# Elastic Compliance Matrix: (Units=1/GPa)
#
#
# Indices 1 2 3 4 5 6 
#
# 1 0.014718 -0.005745 -0.008022 0.000000 0.001212 0.000000
# 2 -0.005745 0.027709 -0.002748 0.000000 -0.002053 0.000000
# 3 -0.008022 -0.002748 0.012806 0.000000 0.002481 0.000000
# 4 0.000000 0.000000 0.000000 0.028911 0.000000 -0.001543
# 5 0.001212 -0.002053 0.002481 0.000000 0.026039 0.000000
# 6 0.000000 0.000000 0.000000 -0.001543 0.000000 0.038918
#
#
# Mechanical properties :
#
#
# Convention : Reuss Voigt Hill
#
# Bulk Modulus (GPa) = 45.03972 73.04135 59.04053
# Shear Modulus (GPa) = 26.38077 31.16369 28.77223
#
# Velocity S-wave (km/s) = 3.70729 4.02937 3.87168
# Velocity P-wave (km/s) = 6.46455 7.72666 7.12362
#
# Compressibility (1/GPa) = 0.02220262
#
# Stress axis : x y z
#
# Youngs Moduli (GPa) = 67.94368 36.08994 78.08765
#
# Poissons Ratio (x) = 0.20734 0.62644
# Poissons Ratio (y) = 0.39034 0.21456
# Poissons Ratio (z) = 0.54506 0.09916
#
# Static dielectric constant tensor:
#      x y z
#    x 3.693300 0.000000 -0.018860 
#    y 0.000000 3.302020 0.000000 
#    z -0.018860 0.000000 3.709000 
# 
# 
# High freq. dielectric constant tensor:
#      x y z
#    x 1.752010 0.000000 -0.001560 
#    y 0.000000 1.726300 0.000000 
#    z -0.001560 0.000000 1.764680 
# 
# From -- ./inp_files/56783.got.cif
#   From: 2010.06.25/outbox.cif.g09.slc.cpg/sg12_29_cif.got.tgz:56783.got - 2010.06.28 00:19:55.
