data_PCOD8099160
_publ_section_title
;
Structure prediction by ZEFSAII (Michael W. Deem and Ramdas Pophale) SiO2 
 PCOD8099160
Probable space group: C 2/M
;
_chemical_formula_sum "Si O2"
_cell_formula_units_Z 56
_cell_length_a 29.628644
_cell_length_b 9.032878
_cell_length_c 11.849386
_cell_angle_alpha 90.000000
_cell_angle_beta 70.517663
_cell_angle_gamma 90.000000
_cell_volume 2989.700654
_symmetry_space_group_name_H-M "C 2/M"
_symmetry_group_IT_number 12
_symmetry_cell_setting 'monoclinic'
loop_
_space_group_symop_operation_xyz
x,y,z
-x,y,-z
-x,-y,-z
x,-y,z
1/2+x,1/2+y,z
1/2-x,1/2+y,-z
1/2-x,1/2-y,-z
1/2+x,1/2-y,z
loop_
_atom_site_type_symbol
_atom_site_label
_atom_site_fract_x
_atom_site_fract_y
_atom_site_fract_z
Si Si1 0.169160 0.174630 0.372647
Si Si2 0.707192 0.169881 0.973587
Si Si3 0.563720 0.175152 0.847055
Si Si4 0.619838 0.830053 0.214199
Si Si5 0.229177 0.828511 0.738789
Si Si6 0.541308 0.175556 0.112422
Si Si7 0.353662 0.330694 0.357420
O O1 0.130973 0.228168 0.312030
O O2 0.219327 0.254439 0.312561
O O3 0.148020 0.219708 0.511494
O O4 0.177340 0.000000 0.355799
O O5 0.698196 0.250470 0.862285
O O6 0.721104 0.000000 0.940261
O O7 0.750000 0.250000 0.000000
O O8 0.660096 0.184600 0.086234
O O9 0.513894 0.225613 0.829437
O O10 0.607884 0.235647 0.740581
O O11 0.567903 0.000000 0.843422
O O12 0.563709 0.235966 0.975881
O O13 0.571188 0.768918 0.196248
O O14 0.614835 0.000000 0.258819
O O15 0.199563 0.807461 0.648428
O O16 0.237016 0.000000 0.762810
O O17 0.544999 0.000000 0.103559
O O18 0.369540 0.500000 0.332759
#
# Coordination Sequence:
#
# PCOD8099160 Si02
#       7
#     8   8   8   8   8   8   8
#     4  11  23  38  54  74 106 146 186 227 268 318
#     4  11  21  33  53  81 112 142 175 219 266 317
#     4   9  17  34  61  86 107 136 175 221 269 321
#     4  10  20  35  55  79 110 145 178 217 267 321
#     4  11  22  37  56  78 106 142 183 227 274 323
#     4   8  16  33  58  87 112 134 171 221 269 319
#     4  10  23  39  54  77 109 142 180 228 275 320
#
# _framework density 18.730972000000001
#
# number of rings (size 3 to 8) (size 9 to 14) (size 15 to 20)
#    0.000    2.000    1.429    3.429    0.000    4.000 
#    0.000    3.571    0.000    4.286    0.000    0.000 
#    0.000    0.000    0.000    0.000    0.000    0.000 
#
# Total GULP energy -347194.909903 kJ/mol
# GULP energy per Si atom -12399.818211 kJ/mol
# Density = 1.868834 g / cm^3
# Si number density = 18.730972 Si / 1000 Ang^3
#
#
#
# Elastic Constant Matrix: (Units=GPa)
#
#
# Indices 1 2 3 4 5 6 
#
# 1 107.4315 30.8082 40.2945 0.0000 21.9942 0.0000
# 2 30.8082 72.3319 37.1419 0.0000 11.8573 0.0000
# 3 40.2945 37.1419 94.0716 0.0000 19.9678 0.0000
# 4 0.0000 0.0000 0.0000 29.0939 0.0000 1.5539
# 5 21.9942 11.8573 19.9678 0.0000 26.1755 0.0000
# 6 0.0000 0.0000 0.0000 1.5539 0.0000 25.2448
#
#
#
# Elastic Compliance Matrix: (Units=1/GPa)
#
#
# Indices 1 2 3 4 5 6 
#
# 1 0.012625 -0.002763 -0.002781 0.000000 -0.007235 0.000000
# 2 -0.002763 0.018165 -0.005649 0.000000 -0.001597 0.000000
# 3 -0.002781 -0.005649 0.015527 0.000000 -0.006949 0.000000
# 4 0.000000 0.000000 0.000000 0.034485 0.000000 -0.002123
# 5 -0.007235 -0.001597 -0.006949 0.000000 0.050307 0.000000
# 6 0.000000 0.000000 0.000000 -0.002123 0.000000 0.039743
#
#
# Mechanical properties :
#
#
# Convention : Reuss Voigt Hill
#
# Bulk Modulus (GPa) = 41.78960 54.48046 48.13503
# Shear Modulus (GPa) = 24.84905 27.14222 25.99564
#
# Velocity S-wave (km/s) = 3.64624 3.81078 3.72942
# Velocity P-wave (km/s) = 6.33132 6.96503 6.65572
#
# Compressibility (1/GPa) = 0.02392940
#
# Stress axis : x y z
#
# Youngs Moduli (GPa) = 79.20817 55.05152 64.40459
#
# Poissons Ratio (x) = 0.15212 0.17911
# Poissons Ratio (y) = 0.21887 0.36384
# Poissons Ratio (z) = 0.22028 0.31100
#
# Static dielectric constant tensor:
#      x y z
#    x 3.648370 0.000000 0.028490 
#    y 0.000000 3.737970 0.000000 
#    z 0.028490 0.000000 3.729720 
# 
# 
# High freq. dielectric constant tensor:
#      x y z
#    x 1.733740 0.000000 0.011590 
#    y 0.000000 1.715200 0.000000 
#    z 0.011590 0.000000 1.722900 
# 
# From -- ./inp_files/186468.got.cif
#   From: 2010.06.25/outbox.cif.g09.slc.cpg/sg12_94_cif.got.tgz:186468.got - 2010.06.28 00:19:55.
