data_PCOD8099437
_publ_section_title
;
Structure prediction by ZEFSAII (Michael W. Deem and Ramdas Pophale) SiO2 
 PCOD8099437
Probable space group: C 2/M
;
_chemical_formula_sum "Si O2"
_cell_formula_units_Z 64
_cell_length_a 33.119371
_cell_length_b 9.065931
_cell_length_c 15.452443
_cell_angle_alpha 90.000000
_cell_angle_beta 135.496094
_cell_angle_gamma 90.000000
_cell_volume 3252.247333
_symmetry_space_group_name_H-M "C 2/M"
_symmetry_group_IT_number 12
_symmetry_cell_setting 'monoclinic'
loop_
_space_group_symop_operation_xyz
x,y,z
-x,y,-z
-x,-y,-z
x,-y,z
1/2+x,1/2+y,z
1/2-x,1/2+y,-z
1/2-x,1/2-y,-z
1/2+x,1/2-y,z
loop_
_atom_site_type_symbol
_atom_site_label
_atom_site_fract_x
_atom_site_fract_y
_atom_site_fract_z
Si Si1 0.254036 0.327183 0.695746
Si Si2 0.374005 0.175519 0.483715
Si Si3 0.118450 0.670376 0.852982
Si Si4 0.865951 0.171839 0.292528
Si Si5 0.764495 0.665883 0.881937
Si Si6 0.368844 0.674354 0.794692
Si Si7 0.432947 0.330374 0.062754
Si Si8 0.566723 0.330374 0.273966
O O1 0.251396 0.500000 0.699647
O O2 0.189294 0.268619 0.579643
O O3 0.278732 0.272202 0.824475
O O4 0.300760 0.280766 0.693941
O O5 0.387713 0.246159 0.411810
O O6 0.420899 0.233750 0.622502
O O7 0.377657 0.000000 0.481408
O O8 0.101635 0.500000 0.815525
O O9 0.101468 0.757998 0.739927
O O10 0.082832 0.734302 0.878330
O O11 0.186953 0.690381 0.971724
O O12 0.798019 0.199730 0.174200
O O13 0.881677 0.000000 0.323526
O O14 0.766219 0.500000 0.847943
O O15 0.377895 0.500000 0.807485
O O16 0.396332 0.738439 0.749037
O O17 0.401009 0.735221 0.929355
O O18 0.415214 0.500000 0.053120
O O19 0.500458 0.316274 0.147526
O O20 0.583787 0.500000 0.318717
#
# Coordination Sequence:
#
# PCOD8099437 Si02
#       8
#     8   8   8   8   8   8   8   8
#     4   9  17  31  54  81 110 145 181 220 270 324
#     4  10  21  37  55  79 113 148 183 224 273 326
#     4  11  21  33  52  82 116 145 176 220 276 331
#     4  10  20  35  56  80 108 145 186 224 264 319
#     4   9  18  31  49  78 114 146 176 215 268 325
#     4   9  17  33  58  85 110 138 181 232 275 318
#     4  10  20  36  58  82 109 144 186 229 271 320
#     4  10  21  37  58  81 106 144 191 232 270 318
#
# _framework density 19.678701
#
# number of rings (size 3 to 8) (size 9 to 14) (size 15 to 20)
#    0.000    2.250    1.250    1.875    0.000    4.000 
#    0.000    1.875    0.000    5.250    0.000    0.000 
#    0.000    0.000    0.000    0.000    0.000    0.000 
#
# Total GULP energy -396760.149961 kJ/mol
# GULP energy per Si atom -12398.754686 kJ/mol
# Density = 1.963391 g / cm^3
# Si number density = 19.678701 Si / 1000 Ang^3
#
#
#
# Elastic Constant Matrix: (Units=GPa)
#
#
# Indices 1 2 3 4 5 6 
#
# 1 67.9832 23.0044 13.7447 0.0000 -23.2622 0.0000
# 2 23.0044 55.5990 20.8386 0.0000 -8.1582 0.0000
# 3 13.7447 20.8386 61.2570 0.0000 -13.4135 0.0000
# 4 0.0000 0.0000 0.0000 24.1466 0.0000 -1.9363
# 5 -23.2622 -8.1582 -13.4135 0.0000 24.6941 0.0000
# 6 0.0000 0.0000 0.0000 -1.9363 0.0000 24.4844
#
#
#
# Elastic Compliance Matrix: (Units=1/GPa)
#
#
# Indices 1 2 3 4 5 6 
#
# 1 0.024176 -0.007559 0.001801 0.000000 0.021255 0.000000
# 2 -0.007559 0.023233 -0.006908 0.000000 -0.003198 0.000000
# 3 0.001801 -0.006908 0.020591 0.000000 0.010600 0.000000
# 4 0.000000 0.000000 0.000000 0.041678 0.000000 0.003296
# 5 0.021255 -0.003198 0.010600 0.000000 0.065220 0.000000
# 6 0.000000 0.000000 0.000000 0.003296 0.000000 0.041103
#
#
# Mechanical properties :
#
#
# Convention : Reuss Voigt Hill
#
# Bulk Modulus (GPa) = 23.43580 33.33497 28.38538
# Shear Modulus (GPa) = 19.56514 23.14847 21.35681
#
# Velocity S-wave (km/s) = 3.15656 3.43347 3.29793
# Velocity P-wave (km/s) = 5.02198 5.71793 5.38122
#
# Compressibility (1/GPa) = 0.04266977
#
# Stress axis : x y z
#
# Youngs Moduli (GPa) = 41.36266 43.04132 48.56395
#
# Poissons Ratio (x) = 0.32537 -0.08748
# Poissons Ratio (y) = 0.31268 0.33546
# Poissons Ratio (z) = -0.07451 0.29732
#
# Static dielectric constant tensor:
#      x y z
#    x 3.641550 0.000000 0.043830 
#    y 0.000000 3.431990 0.000000 
#    z 0.043830 0.000000 3.427700 
# 
# 
# High freq. dielectric constant tensor:
#      x y z
#    x 1.767640 0.000000 -0.002570 
#    y 0.000000 1.752030 0.000000 
#    z -0.002570 0.000000 1.753320 
# 
# From -- ./inp_files/250088.got.cif
#   From: 2010.06.25/outbox.cif.g09.slc.cpg/sg12_126_cif.got.tgz:250088.got - 2010.06.28 00:19:55.
