data_PCOD8099560
_publ_section_title
;
Structure prediction by ZEFSAII (Michael W. Deem and Ramdas Pophale) SiO2 
 PCOD8099560
Probable space group: C 2/M
;
_chemical_formula_sum "Si O2"
_cell_formula_units_Z 40
_cell_length_a 8.680175
_cell_length_b 19.050003
_cell_length_c 18.231519
_cell_angle_alpha 90.000000
_cell_angle_beta 135.574683
_cell_angle_gamma 90.000000
_cell_volume 2110.237701
_symmetry_space_group_name_H-M "C 2/M"
_symmetry_group_IT_number 12
_symmetry_cell_setting 'monoclinic'
loop_
_space_group_symop_operation_xyz
x,y,z
-x,y,-z
-x,-y,-z
x,-y,z
1/2+x,1/2+y,z
1/2-x,1/2+y,-z
1/2-x,1/2-y,-z
1/2+x,1/2-y,z
loop_
_atom_site_type_symbol
_atom_site_label
_atom_site_fract_x
_atom_site_fract_y
_atom_site_fract_z
Si Si1 0.598348 0.324231 0.111332
Si Si2 0.497920 0.083007 0.714123
Si Si3 0.326365 0.083431 0.500000
Si Si4 0.355552 0.583007 0.285877
Si Si5 0.235650 0.324231 0.111332
O O1 0.764325 0.383358 0.195091
O O2 0.399952 0.316830 0.099968
O O3 0.722545 0.250000 0.148363
O O4 0.500000 0.347501 0.000000
O O5 0.391133 0.111089 0.602420
O O6 0.339986 0.105883 0.726657
O O7 0.530987 0.000000 0.722692
O O8 0.500000 0.113277 0.500000
O O9 0.083873 0.111088 0.397580
O O10 0.327782 0.000000 0.500001
O O11 0.362911 0.500000 0.277307
O O12 0.320950 0.616642 0.195092
O O13 0.000000 0.347500 0.000000
#
# Coordination Sequence:
#
# PCOD8099560 Si02
#       5
#     8   8   8   8   8
#     4  11  22  38  58  79 107 142 180 221 269 322
#     4  10  20  35  56  82 111 143 180 221 265 315
#     4   9  17  31  52  79 110 143 178 217 265 317
#     4  10  20  35  56  82 111 143 180 221 265 315
#     4  11  22  38  58  79 107 142 180 221 269 322
#
# _framework density 18.955210999999998
#
# number of rings (size 3 to 8) (size 9 to 14) (size 15 to 20)
#    0.000    1.800    0.000    6.600    0.000    5.600 
#    0.000    1.000    0.000    0.000    0.000    0.000 
#    0.000    0.000    0.000    0.000    0.000    0.000 
#
# Total GULP energy -248081.561934 kJ/mol
# GULP energy per Si atom -12404.078097 kJ/mol
# Density = 1.891207 g / cm^3
# Si number density = 18.955211 Si / 1000 Ang^3
#
#
#
# Elastic Constant Matrix: (Units=GPa)
#
#
# Indices 1 2 3 4 5 6 
#
# 1 169.9229 36.2357 61.9446 -0.0004 0.3133 -0.0003
# 2 36.2357 37.1734 45.2074 -0.0001 -0.1048 -0.0001
# 3 61.9446 45.2074 135.1134 0.0003 0.0908 -0.0001
# 4 -0.0004 -0.0001 0.0003 -5.4785 0.0000 0.3883
# 5 0.3133 -0.1048 0.0908 0.0000 40.5091 -0.0001
# 6 -0.0003 -0.0001 -0.0001 0.3883 -0.0001 27.9079
#
#
#
# Elastic Compliance Matrix: (Units=1/GPa)
#
#
# Indices 1 2 3 4 5 6 
#
# 1 0.007656 -0.005386 -0.001708 -0.000001 -0.000069 0.000000
# 2 -0.005386 0.049147 -0.013975 -0.000001 0.000200 0.000000
# 3 -0.001708 -0.013975 0.012860 0.000001 -0.000052 0.000000
# 4 -0.000001 -0.000001 0.000001 -0.182352 0.000000 0.002537
# 5 -0.000069 0.000200 -0.000052 0.000000 0.024687 0.000000
# 6 0.000000 0.000000 0.000000 0.002537 0.000000 0.035797
#
#
# Mechanical properties :
#
#
# Convention : Reuss Voigt Hill
#
# Bulk Modulus (GPa) = 36.33012 69.88722 53.10867
# Shear Modulus (GPa) = -5604.21217 25.84251 -2789.18483
#
# Velocity S-wave (km/s) = -54.43320 3.69636 -38.40124
# Velocity P-wave (km/s) = 62.70106 7.42746 44.02418
#
# Compressibility (1/GPa) = 0.02752537
#
# Stress axis : x y z
#
# Youngs Moduli (GPa) = 130.60958 20.34713 77.76065
#
# Poissons Ratio (x) = 0.10960 0.13281
# Poissons Ratio (y) = 0.70353 1.08668
# Poissons Ratio (z) = 0.22307 0.28434
#
# Static dielectric constant tensor:
#      x y z
#    x 3.692940 0.000000 0.001080 
#    y 0.000000 3.145850 0.000000 
#    z 0.001080 0.000000 3.599380 
# 
# 
# High freq. dielectric constant tensor:
#      x y z
#    x 1.759770 0.000000 0.000120 
#    y 0.000000 1.705720 0.000000 
#    z 0.000120 0.000000 1.749670 
# 
# From -- ./inp_files/118872.got.cif
#   From: 2010.06.25/outbox.cif.g09.slc.cpg/sg12_60_cif.got.tgz:118872.got - 2010.06.28 00:19:55.
