data_PCOD8099321
_publ_section_title
;
Structure prediction by ZEFSAII (Michael W. Deem and Ramdas Pophale) SiO2 
 PCOD8099321
Probable space group: C 2/M
;
_chemical_formula_sum "Si O2"
_cell_formula_units_Z 56
_cell_length_a 15.789824
_cell_length_b 21.332762
_cell_length_c 14.307425
_cell_angle_alpha 90.000000
_cell_angle_beta 37.969190
_cell_angle_gamma 90.000000
_cell_volume 2965.027708
_symmetry_space_group_name_H-M "C 2/M"
_symmetry_group_IT_number 12
_symmetry_cell_setting 'monoclinic'
loop_
_space_group_symop_operation_xyz
x,y,z
-x,y,-z
-x,-y,-z
x,-y,z
1/2+x,1/2+y,z
1/2-x,1/2+y,-z
1/2-x,1/2-y,-z
1/2+x,1/2-y,z
loop_
_atom_site_type_symbol
_atom_site_label
_atom_site_fract_x
_atom_site_fract_y
_atom_site_fract_z
Si Si1 0.840152 0.302659 0.626408
Si Si2 0.530473 0.768141 0.169436
Si Si3 0.279954 0.828704 0.309868
Si Si4 0.362149 0.428124 0.675071
Si Si5 0.335775 0.658939 0.388707
Si Si6 0.243539 0.172238 0.907086
Si Si7 0.081154 0.072707 0.158401
O O1 0.810088 0.228695 0.650869
O O2 0.787541 0.335218 0.577827
O O3 0.760073 0.335255 0.782047
O O4 0.000000 0.315271 0.500000
O O5 0.441375 0.811206 0.176704
O O6 0.424894 0.722877 0.316353
O O7 0.609385 0.810467 0.175942
O O8 0.636346 0.728388 0.016238
O O9 0.263773 0.885842 0.251650
O O10 0.227740 0.852979 0.455347
O O11 0.500000 0.408095 0.500000
O O12 0.325959 0.500000 0.685711
O O13 0.377195 0.415084 0.771194
O O14 0.429015 0.600409 0.275933
O O15 0.190109 0.107286 0.996904
O O16 0.080355 0.000000 0.132316
#
# Coordination Sequence:
#
# PCOD8099321 Si02
#       7
#     8   8   8   8   8   8   8
#     4  11  22  35  59  86 115 145 190 239 294 351
#     4   9  20  34  52  81 119 148 185 227 288 341
#     4  11  20  32  57  86 118 152 184 232 288 338
#     4  10  20  35  57  85 115 151 194 234 278 340
#     4  10  20  35  55  86 117 146 191 236 283 338
#     4  10  21  38  57  80 115 154 191 238 287 340
#     4  10  22  40  60  82 114 154 198 241 282 334
#
# _framework density 18.886838999999998
#
# number of rings (size 3 to 8) (size 9 to 14) (size 15 to 20)
#    0.000    1.857    1.429    3.857    6.000    5.143 
#    0.000    2.143    0.000    5.143    0.000    0.000 
#    0.000    0.000    0.000    0.000    0.000    0.000 
#
# Total GULP energy -347307.502212 kJ/mol
# GULP energy per Si atom -12403.839365 kJ/mol
# Density = 1.884385 g / cm^3
# Si number density = 18.886839 Si / 1000 Ang^3
#
#
#
# Elastic Constant Matrix: (Units=GPa)
#
#
# Indices 1 2 3 4 5 6 
#
# 1 108.1906 62.1019 41.7973 -0.0117 -14.7430 0.0062
# 2 62.1019 101.9074 29.0829 -0.0054 -4.3331 0.0026
# 3 41.7973 29.0829 70.8553 -0.0225 -0.1355 0.0148
# 4 -0.0117 -0.0054 -0.0225 18.5155 0.0077 0.0196
# 5 -14.7430 -4.3331 -0.1355 0.0077 38.3105 -0.0048
# 6 0.0062 0.0026 0.0148 0.0196 -0.0048 31.9770
#
#
#
# Elastic Compliance Matrix: (Units=1/GPa)
#
#
# Indices 1 2 3 4 5 6 
#
# 1 0.017555 -0.008496 -0.006858 -0.000002 0.005771 0.000001
# 2 -0.008496 0.015285 -0.001265 -0.000002 -0.001545 0.000001
# 3 -0.006858 -0.001265 0.018673 0.000019 -0.002716 -0.000008
# 4 -0.000002 -0.000002 0.000019 0.054009 -0.000012 -0.000033
# 5 0.005771 -0.001545 -0.002716 -0.000012 0.028139 0.000004
# 6 0.000001 0.000001 -0.000008 -0.000033 0.000004 0.031273
#
#
# Mechanical properties :
#
#
# Convention : Reuss Voigt Hill
#
# Bulk Modulus (GPa) = 54.71632 60.76860 57.74246
# Shear Modulus (GPa) = 24.47827 27.62534 26.05181
#
# Velocity S-wave (km/s) = 3.60397 3.82865 3.71801
# Velocity P-wave (km/s) = 6.80821 7.19650 7.00505
#
# Compressibility (1/GPa) = 0.01827608
#
# Stress axis : x y z
#
# Youngs Moduli (GPa) = 56.96354 65.42184 53.55391
#
# Poissons Ratio (x) = 0.55579 0.36725
# Poissons Ratio (y) = 0.48394 0.06777
# Poissons Ratio (z) = 0.39063 0.08279
#
# Static dielectric constant tensor:
#      x y z
#    x 3.564650 -0.000010 -0.067970 
#    y -0.000010 3.358010 0.000010 
#    z -0.067970 0.000010 3.426800 
# 
# 
# High freq. dielectric constant tensor:
#      x y z
#    x 1.742490 0.000000 0.001640 
#    y 0.000000 1.709490 0.000000 
#    z 0.001640 0.000000 1.731280 
# 
# From -- ./inp_files/217680.got.cif
#   From: 2010.06.25/outbox.cif.g09.slc.cpg/sg12_109_cif.got.tgz:217680.got - 2010.06.28 00:19:55.
