data_PCOD8099121
_publ_section_title
;
Structure prediction by ZEFSAII (Michael W. Deem and Ramdas Pophale) SiO2 
 PCOD8099121
Probable space group: C 2/M
;
_chemical_formula_sum "Si O2"
_cell_formula_units_Z 40
_cell_length_a 26.537992
_cell_length_b 9.027359
_cell_length_c 19.031132
_cell_angle_alpha 90.000000
_cell_angle_beta 28.183884
_cell_angle_gamma 90.000000
_cell_volume 2153.346732
_symmetry_space_group_name_H-M "C 2/M"
_symmetry_group_IT_number 12
_symmetry_cell_setting 'monoclinic'
loop_
_space_group_symop_operation_xyz
x,y,z
-x,y,-z
-x,-y,-z
x,-y,z
1/2+x,1/2+y,z
1/2-x,1/2+y,-z
1/2-x,1/2-y,-z
1/2+x,1/2-y,z
loop_
_atom_site_type_symbol
_atom_site_label
_atom_site_fract_x
_atom_site_fract_y
_atom_site_fract_z
Si Si1 0.259137 0.327883 0.562290
Si Si2 0.436847 0.327752 0.452033
Si Si3 0.621319 0.668646 0.838477
Si Si4 0.702020 0.171261 0.265746
Si Si5 0.317213 0.674484 0.856197
O O1 0.252528 0.500000 0.556499
O O2 0.250000 0.250000 0.500000
O O3 0.368821 0.283506 0.466862
O O4 0.159894 0.278824 0.731123
O O5 0.421460 0.500000 0.489909
O O6 0.397668 0.235294 0.567600
O O7 0.558373 0.288740 0.285072
O O8 0.633576 0.500000 0.796753
O O9 0.687952 0.692434 0.827583
O O10 0.500000 0.711308 0.000000
O O11 0.719304 0.260346 0.173097
O O12 0.678342 0.000000 0.278370
O O13 0.295462 0.500000 0.883992
O O14 0.250000 0.750000 0.000000
#
# Coordination Sequence:
#
# PCOD8099121 Si02
#       5
#     8   8   8   8   8
#     4  10  20  35  55  79 107 138 176 218 260 308
#     4   9  20  38  57  76 103 142 179 212 257 315
#     4   9  19  36  56  78 107 142 176 211 257 313
#     4  10  20  35  57  82 106 136 176 218 259 308
#     4  11  23  38  55  77 107 140 175 216 264 313
#
# _framework density 18.575737
#
# number of rings (size 3 to 8) (size 9 to 14) (size 15 to 20)
#    0.000    2.200    0.000    2.400    0.000    7.600 
#    0.000    8.000    0.000    0.000    0.000    0.000 
#    0.000    0.000    0.000    0.000    0.000    0.000 
#
# Total GULP energy -248068.214206 kJ/mol
# GULP energy per Si atom -12403.410710 kJ/mol
# Density = 1.853346 g / cm^3
# Si number density = 18.575737 Si / 1000 Ang^3
#
#
#
# Elastic Constant Matrix: (Units=GPa)
#
#
# Indices 1 2 3 4 5 6 
#
# 1 115.5213 64.1246 82.2696 -0.0020 18.2869 0.0002
# 2 64.1246 97.1189 71.9576 -0.0027 13.6345 0.0017
# 3 82.2696 71.9576 145.9824 -0.0062 2.3908 0.0039
# 4 -0.0020 -0.0027 -0.0062 37.8413 0.0042 6.9549
# 5 18.2869 13.6345 2.3908 0.0042 33.9739 -0.0015
# 6 0.0002 0.0017 0.0039 6.9549 -0.0015 35.8487
#
#
#
# Elastic Compliance Matrix: (Units=1/GPa)
#
#
# Indices 1 2 3 4 5 6 
#
# 1 0.018042 -0.005486 -0.007349 0.000000 -0.006993 0.000001
# 2 -0.005486 0.019188 -0.006296 0.000001 -0.004305 0.000000
# 3 -0.007349 -0.006296 0.014005 0.000001 0.005497 -0.000001
# 4 0.000000 0.000001 0.000001 0.027403 -0.000004 -0.005316
# 5 -0.006993 -0.004305 0.005497 -0.000004 0.034539 0.000002
# 6 0.000001 0.000000 -0.000001 -0.005316 0.000002 0.028926
#
#
# Mechanical properties :
#
#
# Convention : Reuss Voigt Hill
#
# Bulk Modulus (GPa) = 77.08145 88.36955 82.72550
# Shear Modulus (GPa) = 27.07221 30.88419 28.97820
#
# Velocity S-wave (km/s) = 3.82173 4.08193 3.95397
# Velocity P-wave (km/s) = 7.81409 8.36015 8.09173
#
# Compressibility (1/GPa) = 0.01297329
#
# Stress axis : x y z
#
# Youngs Moduli (GPa) = 55.42507 52.11585 71.40130
#
# Poissons Ratio (x) = 0.28590 0.52475
# Poissons Ratio (y) = 0.30405 0.44955
# Poissons Ratio (z) = 0.40734 0.32813
#
# Static dielectric constant tensor:
#      x y z
#    x 3.535730 0.000230 -0.104150 
#    y 0.000230 3.943820 0.001050 
#    z -0.104150 0.001050 3.216220 
# 
# 
# High freq. dielectric constant tensor:
#      x y z
#    x 1.729510 0.000000 -0.003100 
#    y 0.000000 1.731010 0.000000 
#    z -0.003100 0.000000 1.717540 
# 
# From -- ./inp_files/151974.got.cif
#   From: 2010.06.25/outbox.cif.g09.slc.cpg/sg12_76_cif.got.tgz:151974.got - 2010.06.28 00:19:55.
