data_PCOD8099981
_publ_section_title
;
Structure prediction by ZEFSAII (Michael W. Deem and Ramdas Pophale) SiO2 
 PCOD8099981
Probable space group: C 2/M
;
_chemical_formula_sum "Si O2"
_cell_formula_units_Z 64
_cell_length_a 32.142221
_cell_length_b 9.057602
_cell_length_c 15.031963
_cell_angle_alpha 90.000000
_cell_angle_beta 46.466176
_cell_angle_gamma 90.000000
_cell_volume 3172.660346
_symmetry_space_group_name_H-M "C 2/M"
_symmetry_group_IT_number 12
_symmetry_cell_setting 'monoclinic'
loop_
_space_group_symop_operation_xyz
x,y,z
-x,y,-z
-x,-y,-z
x,-y,z
1/2+x,1/2+y,z
1/2-x,1/2+y,-z
1/2-x,1/2-y,-z
1/2+x,1/2-y,z
loop_
_atom_site_type_symbol
_atom_site_label
_atom_site_fract_x
_atom_site_fract_y
_atom_site_fract_z
Si Si1 0.862327 0.675524 0.186508
Si Si2 0.049258 0.170462 0.072325
Si Si3 0.122317 0.671994 0.501616
Si Si4 0.402573 0.335067 0.816133
Si Si5 0.752262 0.172557 0.274636
Si Si6 0.564586 0.174189 0.404472
Si Si7 0.918274 0.172031 0.266278
Si Si8 0.773282 0.165155 0.049120
O O1 0.861534 0.500000 0.189837
O O2 0.798805 0.733535 0.259303
O O3 0.877841 0.736401 0.260546
O O4 0.908931 0.727608 0.046194
O O5 0.053125 0.211942 0.171466
O O6 0.983910 0.196343 0.138861
O O7 0.067698 0.000000 0.030580
O O8 0.107402 0.500000 0.537555
O O9 0.190323 0.699234 0.409277
O O10 0.098962 0.728005 0.440635
O O11 0.090377 0.768841 0.621788
O O12 0.415947 0.500000 0.762234
O O13 0.403677 0.228217 0.730601
O O14 0.341426 0.326228 0.953570
O O15 0.769778 0.000000 0.250630
O O16 0.749576 0.230190 0.176703
O O17 0.500000 0.238243 0.500000
O O18 0.563954 0.000000 0.401192
O O19 0.901948 0.000000 0.286452
O O20 0.750302 0.000000 0.072025
O O21 0.750000 0.250000 0.000000
#
# Coordination Sequence:
#
# PCOD8099981 Si02
#       8
#     8   8   8   8   8   8   8   8
#     4  12  25  40  63  93 122 154 198 257 311 361
#     4  10  21  41  64  89 123 160 200 244 303 370
#     4  10  22  40  62  88 122 164 206 252 300 351
#     4  10  20  35  58  86 117 155 197 242 289 347
#     4  10  21  41  63  83 120 167 204 246 300 360
#     4  10  21  37  58  87 124 162 199 244 300 356
#     4  11  24  41  65  90 118 160 202 249 305 368
#     4  10  20  35  57  84 117 155 195 241 292 348
#
# _framework density 20.172345
#
# number of rings (size 3 to 8) (size 9 to 14) (size 15 to 20)
#    0.000    1.625    1.250    3.375    0.000    6.750 
#    0.000    0.000    0.000    0.000    0.000    0.000 
#    0.000    0.000    0.000    0.000    0.000    0.000 
#
# Total GULP energy -396914.493752 kJ/mol
# GULP energy per Si atom -12403.577930 kJ/mol
# Density = 2.012643 g / cm^3
# Si number density = 20.172345 Si / 1000 Ang^3
#
#
#
# Elastic Constant Matrix: (Units=GPa)
#
#
# Indices 1 2 3 4 5 6 
#
# 1 116.1544 52.7878 21.4529 0.0000 3.2130 0.0000
# 2 52.7878 85.9936 34.4669 0.0000 0.5106 0.0000
# 3 21.4529 34.4669 77.9985 0.0000 2.1739 0.0000
# 4 0.0000 0.0000 0.0000 34.2407 0.0000 5.4128
# 5 3.2130 0.5106 2.1739 0.0000 32.3655 0.0000
# 6 0.0000 0.0000 0.0000 5.4128 0.0000 30.2288
#
#
#
# Elastic Compliance Matrix: (Units=1/GPa)
#
#
# Indices 1 2 3 4 5 6 
#
# 1 0.011977 -0.007337 -0.000022 0.000000 -0.001072 0.000000
# 2 -0.007337 0.018628 -0.006237 0.000000 0.000853 0.000000
# 3 -0.000022 -0.006237 0.015609 0.000000 -0.000948 0.000000
# 4 0.000000 0.000000 0.000000 0.030056 0.000000 -0.005382
# 5 -0.001072 0.000853 -0.000948 0.000000 0.031054 0.000000
# 6 0.000000 0.000000 0.000000 -0.005382 0.000000 0.034045
#
#
# Mechanical properties :
#
#
# Convention : Reuss Voigt Hill
#
# Bulk Modulus (GPa) = 52.57228 55.28464 53.92846
# Shear Modulus (GPa) = 28.58742 30.79626 29.69184
#
# Velocity S-wave (km/s) = 3.76860 3.91149 3.84071
# Velocity P-wave (km/s) = 6.71227 6.91847 6.81615
#
# Compressibility (1/GPa) = 0.01902143
#
# Stress axis : x y z
#
# Youngs Moduli (GPa) = 83.49018 53.68387 64.06393
#
# Poissons Ratio (x) = 0.39389 0.00142
# Poissons Ratio (y) = 0.61258 0.39957
# Poissons Ratio (z) = 0.00185 0.33483
#
# Static dielectric constant tensor:
#      x y z
#    x 3.902880 0.000000 -0.079850 
#    y 0.000000 3.559870 0.000000 
#    z -0.079850 0.000000 3.607120 
# 
# 
# High freq. dielectric constant tensor:
#      x y z
#    x 1.803650 0.000000 0.000540 
#    y 0.000000 1.774710 0.000000 
#    z 0.000540 0.000000 1.789250 
# 
# From -- ./inp_files/249815.got.cif
#   From: 2010.06.25/outbox.cif.g09.slc.cpg/sg12_125_cif.got.tgz:249815.got - 2010.06.28 00:19:55.
