data_PCOD8099482
_publ_section_title
;
Structure prediction by ZEFSAII (Michael W. Deem and Ramdas Pophale) SiO2 
 PCOD8099482
Probable space group: C 2/M
;
_chemical_formula_sum "Si O2"
_cell_formula_units_Z 56
_cell_length_a 14.803917
_cell_length_b 9.241408
_cell_length_c 24.260639
_cell_angle_alpha 90.000000
_cell_angle_beta 63.152979
_cell_angle_gamma 90.000000
_cell_volume 2961.329842
_symmetry_space_group_name_H-M "C 2/M"
_symmetry_group_IT_number 12
_symmetry_cell_setting 'monoclinic'
loop_
_space_group_symop_operation_xyz
x,y,z
-x,y,-z
-x,-y,-z
x,-y,z
1/2+x,1/2+y,z
1/2-x,1/2+y,-z
1/2-x,1/2-y,-z
1/2+x,1/2-y,z
loop_
_atom_site_type_symbol
_atom_site_label
_atom_site_fract_x
_atom_site_fract_y
_atom_site_fract_z
Si Si1 0.923407 0.331356 0.791502
Si Si2 0.573622 0.667603 0.431517
Si Si3 0.302960 0.333477 0.114245
Si Si4 0.997234 0.170223 0.874332
Si Si5 0.896447 0.336928 0.995303
Si Si6 0.996991 0.330219 0.348773
Si Si7 0.225863 0.333603 0.561682
O O1 0.947249 0.500000 0.795361
O O2 0.804103 0.298839 0.828494
O O3 0.988554 0.237271 0.816156
O O4 0.957921 0.280365 0.721815
O O5 0.500000 0.727174 0.500000
O O6 0.549202 0.500000 0.427613
O O7 0.558771 0.753033 0.379582
O O8 0.689228 0.695378 0.416154
O O9 0.312904 0.500000 0.093480
O O10 0.390586 0.294598 0.133944
O O11 0.311418 0.238183 0.056509
O O12 0.911243 0.245769 0.935531
O O13 0.975798 0.000000 0.878735
O O14 0.862338 0.500000 0.989657
O O15 0.000000 0.337398 0.000000
O O16 0.010324 0.500000 0.353543
O O17 0.879946 0.282123 0.383324
O O18 0.222090 0.500000 0.545592
O O19 0.250000 0.250000 0.500000
#
# Coordination Sequence:
#
# PCOD8099482 Si02
#       7
#     8   8   8   8   8   8   8
#     4  10  22  39  55  76 109 147 183 223 270 322
#     4  10  20  35  56  82 111 141 173 217 271 320
#     4   9  19  36  56  77 108 145 181 224 273 324
#     4  10  20  35  56  81 108 142 184 226 271 323
#     4   9  17  31  54  83 110 139 179 228 276 320
#     4  10  22  38  56  80 110 143 183 224 266 322
#     4  10  20  35  56  82 110 140 174 216 267 319
#
# _framework density 18.910423000000002
#
# number of rings (size 3 to 8) (size 9 to 14) (size 15 to 20)
#    0.000    2.286    1.429    0.857    0.000    6.000 
#    0.000    0.000    0.000    0.000    0.000    0.000 
#    0.000    0.000    0.000    0.000    0.000    0.000 
#
# Total GULP energy -347294.465241 kJ/mol
# GULP energy per Si atom -12403.373759 kJ/mol
# Density = 1.886738 g / cm^3
# Si number density = 18.910423 Si / 1000 Ang^3
#
#
#
# Elastic Constant Matrix: (Units=GPa)
#
#
# Indices 1 2 3 4 5 6 
#
# 1 85.2446 40.1627 57.8960 0.0000 -0.1427 0.0000
# 2 40.1627 75.3711 58.9337 0.0000 6.8042 0.0000
# 3 57.8960 58.9337 157.5697 0.0000 3.4523 0.0000
# 4 0.0000 0.0000 0.0000 32.9079 0.0000 8.4939
# 5 -0.1427 6.8042 3.4523 0.0000 34.4950 0.0000
# 6 0.0000 0.0000 0.0000 8.4939 0.0000 28.9006
#
#
#
# Elastic Compliance Matrix: (Units=1/GPa)
#
#
# Indices 1 2 3 4 5 6 
#
# 1 0.017476 -0.006243 -0.004124 0.000000 0.001716 0.000000
# 2 -0.006243 0.021297 -0.005591 0.000000 -0.003667 0.000000
# 3 -0.004124 -0.005591 0.009951 0.000000 0.000090 0.000000
# 4 0.000000 0.000000 0.000000 0.032882 0.000000 -0.009664
# 5 0.001716 -0.003667 0.000090 0.000000 0.029711 0.000000
# 6 0.000000 0.000000 0.000000 -0.009664 0.000000 0.037442
#
#
# Mechanical properties :
#
#
# Convention : Reuss Voigt Hill
#
# Bulk Modulus (GPa) = 59.49534 70.24114 64.86824
# Shear Modulus (GPa) = 26.84159 30.00690 28.42425
#
# Velocity S-wave (km/s) = 3.77159 3.98778 3.88119
# Velocity P-wave (km/s) = 7.10609 7.64382 7.37985
#
# Compressibility (1/GPa) = 0.01680804
#
# Stress axis : x y z
#
# Youngs Moduli (GPa) = 57.22155 46.95435 100.49269
#
# Poissons Ratio (x) = 0.29312 0.41442
# Poissons Ratio (y) = 0.35722 0.56190
# Poissons Ratio (z) = 0.23598 0.26254
#
# Static dielectric constant tensor:
#      x y z
#    x 3.477660 0.000000 -0.080540 
#    y 0.000000 3.487130 0.000000 
#    z -0.080540 0.000000 3.493150 
# 
# 
# High freq. dielectric constant tensor:
#      x y z
#    x 1.738880 0.000000 -0.002100 
#    y 0.000000 1.732480 0.000000 
#    z -0.002100 0.000000 1.731550 
# 
# From -- ./inp_files/338512.got.cif
#   From: 2010.06.25/outbox.cif.g09.slc.cpg/sg12_170_cif.got.tgz:338512.got - 2010.06.28 00:19:55.
