data_PCOD8099734
_publ_section_title
;
Structure prediction by ZEFSAII (Michael W. Deem and Ramdas Pophale) SiO2 
 PCOD8099734
Probable space group: C 2/M
;
_chemical_formula_sum "Si O2"
_cell_formula_units_Z 56
_cell_length_a 17.600381
_cell_length_b 14.773754
_cell_length_c 22.821466
_cell_angle_alpha 90.000000
_cell_angle_beta 150.241415
_cell_angle_gamma 90.000000
_cell_volume 2945.381201
_symmetry_space_group_name_H-M "C 2/M"
_symmetry_group_IT_number 12
_symmetry_cell_setting 'monoclinic'
loop_
_space_group_symop_operation_xyz
x,y,z
-x,y,-z
-x,-y,-z
x,-y,z
1/2+x,1/2+y,z
1/2-x,1/2+y,-z
1/2-x,1/2-y,-z
1/2+x,1/2-y,z
loop_
_atom_site_type_symbol
_atom_site_label
_atom_site_fract_x
_atom_site_fract_y
_atom_site_fract_z
Si Si1 0.844506 0.780242 0.359326
Si Si2 0.099267 0.788004 0.735960
Si Si3 0.504886 0.102034 0.297273
Si Si4 0.320627 0.097155 0.386750
Si Si5 0.879501 0.394579 0.970399
Si Si6 0.697103 0.397703 0.431954
Si Si7 0.931113 0.397026 0.792192
O O1 0.874263 0.813342 0.313700
O O2 0.768151 0.679339 0.309626
O O3 0.729688 0.846952 0.314260
O O4 0.000000 0.779643 0.500000
O O5 0.230513 0.833478 0.862424
O O6 0.101577 0.678827 0.744742
O O7 0.937570 0.826297 0.649344
O O8 0.680254 0.115481 0.434256
O O9 0.491019 0.115110 0.218475
O O10 0.449796 0.000000 0.278416
O O11 0.500000 0.085060 0.500000
O O12 0.281288 0.123106 0.427221
O O13 0.242962 0.000000 0.317745
O O14 0.831557 0.500000 0.939518
O O15 0.000000 0.374942 0.000000
O O16 0.952176 0.361484 0.080267
O O17 0.631053 0.500000 0.389049
O O18 0.890913 0.500000 0.779380
#
# Coordination Sequence:
#
# PCOD8099734 Si02
#       7
#     8   8   8   8   8   8   8
#     4  11  21  32  53  84 112 142 182 224 272 328
#     4  12  22  34  59  85 111 146 187 232 272 321
#     4  10  21  36  54  81 117 149 175 218 283 338
#     4   9  18  34  54  76 109 151 185 215 260 322
#     4  10  21  40  60  79 106 143 189 233 277 327
#     4  10  20  35  56  85 117 145 181 228 276 325
#     4  10  21  38  57  77 108 146 181 223 276 334
#
# _framework density 19.012819
#
# number of rings (size 3 to 8) (size 9 to 14) (size 15 to 20)
#    0.000    1.714    1.429    4.286    0.000    3.143 
#    0.000    0.000    0.000    1.286    0.000    0.000 
#    0.000    0.000    0.000    0.000    0.000    0.000 
#
# Total GULP energy -347170.263733 kJ/mol
# GULP energy per Si atom -12398.937990 kJ/mol
# Density = 1.896954 g / cm^3
# Si number density = 19.012819 Si / 1000 Ang^3
#
#
#
# Elastic Constant Matrix: (Units=GPa)
#
#
# Indices 1 2 3 4 5 6 
#
# 1 52.1845 14.7305 11.0331 0.0017 -8.2241 0.0023
# 2 14.7305 91.1287 33.4058 -0.0059 8.3139 -0.0031
# 3 11.0331 33.4058 81.0995 -0.0181 -5.5167 -0.0153
# 4 0.0017 -0.0059 -0.0181 30.7854 0.0015 -0.8010
# 5 -8.2241 8.3139 -5.5167 0.0015 18.9592 0.0035
# 6 0.0023 -0.0031 -0.0153 -0.8010 0.0035 28.6640
#
#
#
# Elastic Compliance Matrix: (Units=1/GPa)
#
#
# Indices 1 2 3 4 5 6 
#
# 1 0.022344 -0.004524 -0.000390 -0.000003 0.011563 -0.000004
# 2 -0.004524 0.014934 -0.006238 0.000000 -0.010326 0.000000
# 3 -0.000390 -0.006238 0.015433 0.000008 0.007057 0.000007
# 4 -0.000003 0.000000 0.000008 0.032507 -0.000002 0.000908
# 5 0.011563 -0.010326 0.007057 -0.000002 0.064342 -0.000006
# 6 -0.000004 0.000000 0.000007 0.000908 -0.000006 0.034912
#
#
# Mechanical properties :
#
#
# Convention : Reuss Voigt Hill
#
# Bulk Modulus (GPa) = 32.88683 38.08351 35.48517
# Shear Modulus (GPa) = 23.05076 26.69794 24.87435
#
# Velocity S-wave (km/s) = 3.48570 3.75134 3.62096
# Velocity P-wave (km/s) = 5.79093 6.23196 6.01549
#
# Compressibility (1/GPa) = 0.03040731
#
# Stress axis : x y z
#
# Youngs Moduli (GPa) = 44.75378 66.96268 64.79506
#
# Poissons Ratio (x) = 0.30293 0.02526
# Poissons Ratio (y) = 0.20246 0.40421
# Poissons Ratio (z) = 0.01745 0.41774
#
# Static dielectric constant tensor:
#      x y z
#    x 3.425700 0.000000 -0.211040 
#    y 0.000000 3.968020 -0.000010 
#    z -0.211040 -0.000010 3.295520 
# 
# 
# High freq. dielectric constant tensor:
#      x y z
#    x 1.740370 0.000000 -0.016380 
#    y 0.000000 1.755370 0.000000 
#    z -0.016380 0.000000 1.709870 
# 
# From -- ./inp_files/316725.got.cif
#   From: 2010.06.25/outbox.cif.g09.slc.cpg/sg12_159_cif.got.tgz:316725.got - 2010.06.28 00:19:55.
