data_PCOD8099319
_publ_section_title
;
Structure prediction by ZEFSAII (Michael W. Deem and Ramdas Pophale) SiO2 
 PCOD8099319
Probable space group: C 2/M
;
_chemical_formula_sum "Si O2"
_cell_formula_units_Z 56
_cell_length_a 10.899578
_cell_length_b 18.627431
_cell_length_c 14.680775
_cell_angle_alpha 90.000000
_cell_angle_beta 110.942248
_cell_angle_gamma 90.000000
_cell_volume 2783.755908
_symmetry_space_group_name_H-M "C 2/M"
_symmetry_group_IT_number 12
_symmetry_cell_setting 'monoclinic'
loop_
_space_group_symop_operation_xyz
x,y,z
-x,y,-z
-x,-y,-z
x,-y,z
1/2+x,1/2+y,z
1/2-x,1/2+y,-z
1/2-x,1/2-y,-z
1/2+x,1/2-y,z
loop_
_atom_site_type_symbol
_atom_site_label
_atom_site_fract_x
_atom_site_fract_y
_atom_site_fract_z
Si Si1 0.931034 0.821649 0.741270
Si Si2 0.842948 0.668655 0.749635
Si Si3 0.916083 0.793334 0.397160
Si Si4 0.075086 0.083136 0.927285
Si Si5 0.932460 0.419286 0.618579
Si Si6 0.146175 0.582751 0.068271
Si Si7 0.825922 0.365590 0.413117
O O1 0.877409 0.751616 0.780520
O O2 0.815828 0.872358 0.671673
O O3 0.006936 0.787999 0.676661
O O4 0.020893 0.868676 0.830982
O O5 0.712756 0.660150 0.654015
O O6 0.948421 0.626315 0.716261
O O7 0.814838 0.630752 0.836726
O O8 0.879081 0.714693 0.421374
O O9 0.000000 0.830690 0.500000
O O10 0.235308 0.094134 0.974881
O O11 0.043672 0.000000 0.897927
O O12 0.000000 0.106529 0.000000
O O13 0.891533 0.500000 0.632918
O O14 0.824489 0.386428 0.519654
O O15 0.076519 0.419787 0.612038
O O16 0.140212 0.500000 0.096194
O O17 0.000000 0.607896 0.000000
#
# Coordination Sequence:
#
# PCOD8099319 Si02
#       7
#     8   8   8   8   8   8   8
#     4  11  22  38  63  90 123 160 201 259 308 368
#     4  11  22  37  61  93 120 160 208 255 309 367
#     4  11  19  36  60  86 125 164 205 249 301 361
#     4  10  23  45  68  91 122 161 207 259 322 385
#     4  11  21  36  55  84 128 166 209 254 296 359
#     4  10  22  43  67  90 121 163 207 260 320 379
#     4  10  20  35  55  85 122 166 209 244 299 362
#
# _framework density 20.116705
#
# number of rings (size 3 to 8) (size 9 to 14) (size 15 to 20)
#    0.000    1.429    4.286    2.143    0.000    5.143 
#    0.000    2.857    0.000    2.143    0.000    0.000 
#    0.000    0.000    0.000    0.000    0.000    0.000 
#
# Total GULP energy -347077.397795 kJ/mol
# GULP energy per Si atom -12395.621350 kJ/mol
# Density = 2.007092 g / cm^3
# Si number density = 20.116705 Si / 1000 Ang^3
#
#
#
# Elastic Constant Matrix: (Units=GPa)
#
#
# Indices 1 2 3 4 5 6 
#
# 1 101.3944 22.9750 43.3205 0.0000 4.5840 0.0000
# 2 22.9750 79.0842 44.1706 0.0000 3.3355 0.0000
# 3 43.3205 44.1706 84.8808 0.0000 3.7918 0.0000
# 4 0.0000 0.0000 0.0000 28.9598 0.0000 -4.9156
# 5 4.5840 3.3355 3.7918 0.0000 37.6600 0.0000
# 6 0.0000 0.0000 0.0000 -4.9156 0.0000 12.1288
#
#
#
# Elastic Compliance Matrix: (Units=1/GPa)
#
#
# Indices 1 2 3 4 5 6 
#
# 1 0.012643 -0.000076 -0.006373 0.000000 -0.000890 0.000000
# 2 -0.000076 0.017842 -0.009217 0.000000 -0.000643 0.000000
# 3 -0.006373 -0.009217 0.019849 0.000000 -0.000406 0.000000
# 4 0.000000 0.000000 0.000000 0.037082 0.000000 0.015029
# 5 -0.000890 -0.000643 -0.000406 0.000000 0.026760 0.000000
# 6 0.000000 0.000000 0.000000 0.015029 0.000000 0.088539
#
#
# Mechanical properties :
#
#
# Convention : Reuss Voigt Hill
#
# Bulk Modulus (GPa) = 52.62933 54.03240 53.33087
# Shear Modulus (GPa) = 20.80036 26.07595 23.43815
#
# Velocity S-wave (km/s) = 3.21905 3.60423 3.41707
# Velocity P-wave (km/s) = 6.32734 6.65120 6.49129
#
# Compressibility (1/GPa) = 0.01900081
#
# Stress axis : x y z
#
# Youngs Moduli (GPa) = 79.09593 56.04759 50.38120
#
# Poissons Ratio (x) = 0.00424 0.32110
# Poissons Ratio (y) = 0.00599 0.46438
# Poissons Ratio (z) = 0.50411 0.51661
#
# Static dielectric constant tensor:
#      x y z
#    x 3.997230 0.000000 0.222230 
#    y 0.000000 3.468720 0.000000 
#    z 0.222230 0.000000 3.709640 
# 
# 
# High freq. dielectric constant tensor:
#      x y z
#    x 1.794160 0.000000 -0.001280 
#    y 0.000000 1.775330 0.000000 
#    z -0.001280 0.000000 1.772450 
# 
# From -- ./inp_files/177930.got.cif
#   From: 2010.06.25/outbox.cif.g09.slc.cpg/sg12_89_cif.got.tgz:177930.got - 2010.06.28 00:19:55.
