data_PCOD8099761
_publ_section_title
;
Structure prediction by ZEFSAII (Michael W. Deem and Ramdas Pophale) SiO2 
 PCOD8099761
Probable space group: C 2/M
;
_chemical_formula_sum "Si O2"
_cell_formula_units_Z 64
_cell_length_a 16.790688
_cell_length_b 17.925978
_cell_length_c 13.741573
_cell_angle_alpha 90.000000
_cell_angle_beta 128.530547
_cell_angle_gamma 90.000000
_cell_volume 3235.548338
_symmetry_space_group_name_H-M "C 2/M"
_symmetry_group_IT_number 12
_symmetry_cell_setting 'monoclinic'
loop_
_space_group_symop_operation_xyz
x,y,z
-x,y,-z
-x,-y,-z
x,-y,z
1/2+x,1/2+y,z
1/2-x,1/2+y,-z
1/2-x,1/2-y,-z
1/2+x,1/2-y,z
loop_
_atom_site_type_symbol
_atom_site_label
_atom_site_fract_x
_atom_site_fract_y
_atom_site_fract_z
Si Si1 0.733966 0.584207 0.961597
Si Si2 0.149603 0.717237 0.614451
Si Si3 0.843984 0.415496 0.242443
Si Si4 0.965080 0.331368 0.659234
Si Si5 0.930945 0.917406 0.542776
Si Si6 0.114564 0.415401 0.089913
Si Si7 0.720972 0.158513 0.344240
Si Si8 0.575384 0.308092 0.740900
O O1 0.687729 0.500000 0.912404
O O2 0.838992 0.589211 0.982190
O O3 0.658681 0.649283 0.869007
O O4 0.762196 0.598301 0.095003
O O5 0.184759 0.640904 0.692547
O O6 0.060797 0.699604 0.468949
O O7 0.244647 0.754472 0.629233
O O8 0.117924 0.781185 0.668184
O O9 0.836898 0.500000 0.275774
O O10 0.960044 0.401926 0.294751
O O11 0.864985 0.355055 0.640132
O O12 0.031080 0.265480 0.761977
O O13 0.815016 0.895351 0.436325
O O14 0.000000 0.914602 0.500000
O O15 0.980006 0.863081 0.658806
O O16 0.930710 0.000000 0.586740
O O17 0.117597 0.500000 0.133023
O O18 0.178290 0.361592 0.206754
O O19 0.000000 0.385332 0.000000
#
# Coordination Sequence:
#
# PCOD8099761 Si02
#       8
#     8   8   8   8   8   8   8   8
#     4  10  20  37  61  87 116 152 195 244 288 347
#     4  11  22  38  60  84 117 157 193 250 291 340
#     4  10  23  42  63  86 114 156 208 250 293 348
#     4  11  24  37  61  85 122 155 194 249 301 346
#     4  11  20  32  56  85 115 153 190 230 286 357
#     4  10  20  35  56  86 125 156 186 236 298 360
#     4  12  22  38  56  87 125 158 193 241 300 359
#     4  11  19  37  58  86 117 148 198 242 291 347
#
# _framework density 19.780263999999999
#
# number of rings (size 3 to 8) (size 9 to 14) (size 15 to 20)
#    0.000    1.250    3.750    3.375    0.000    7.000 
#    2.250    0.000    0.000    0.000    0.000    1.750 
#    0.000    0.000    0.000    0.000    0.000    0.000 
#
# Total GULP energy -396709.301547 kJ/mol
# GULP energy per Si atom -12397.165673 kJ/mol
# Density = 1.973524 g / cm^3
# Si number density = 19.780264 Si / 1000 Ang^3
#
#
#
# Elastic Constant Matrix: (Units=GPa)
#
#
# Indices 1 2 3 4 5 6 
#
# 1 48.0793 4.1541 0.0323 0.0000 7.6449 0.0000
# 2 4.1541 106.5409 37.7545 0.0000 -2.7428 0.0000
# 3 0.0323 37.7545 89.0983 0.0000 8.0145 0.0000
# 4 0.0000 0.0000 0.0000 31.0736 0.0000 -10.5200
# 5 7.6449 -2.7428 8.0145 0.0000 26.2455 0.0000
# 6 0.0000 0.0000 0.0000 -10.5200 0.0000 -11.8379
#
#
#
# Elastic Compliance Matrix: (Units=1/GPa)
#
#
# Indices 1 2 3 4 5 6 
#
# 1 0.022031 -0.001479 0.001244 0.000000 -0.006952 0.000000
# 2 -0.001479 0.011327 -0.005084 0.000000 0.003167 0.000000
# 3 0.001244 -0.005084 0.013838 0.000000 -0.005119 0.000000
# 4 0.000000 0.000000 0.000000 0.024739 0.000000 -0.021985
# 5 -0.006952 0.003167 -0.005119 0.000000 0.042021 0.000000
# 6 0.000000 0.000000 0.000000 -0.021985 0.000000 -0.064938
#
#
# Mechanical properties :
#
#
# Convention : Reuss Voigt Hill
#
# Bulk Modulus (GPa) = 27.35354 36.40005 31.87680
# Shear Modulus (GPa) = 69.59730 22.54808 46.07269
#
# Velocity S-wave (km/s) = 5.93815 3.37995 4.83144
# Velocity P-wave (km/s) = 7.80219 5.80295 6.87562
#
# Compressibility (1/GPa) = 0.03655834
#
# Stress axis : x y z
#
# Youngs Moduli (GPa) = 45.39004 88.28584 72.26543
#
# Poissons Ratio (x) = 0.13056 -0.08989
# Poissons Ratio (y) = 0.06712 0.36740
# Poissons Ratio (z) = -0.05646 0.44884
#
# Static dielectric constant tensor:
#      x y z
#    x 3.402960 0.000000 0.136690 
#    y 0.000000 3.796060 0.000000 
#    z 0.136690 0.000000 3.575880 
# 
# 
# High freq. dielectric constant tensor:
#      x y z
#    x 1.743990 0.000000 0.013460 
#    y 0.000000 1.780190 0.000000 
#    z 0.013460 0.000000 1.770730 
# 
# From -- ./inp_files/226885.got.cif
#   From: 2010.06.25/outbox.cif.g09.slc.cpg/sg12_114_cif.got.tgz:226885.got - 2010.06.28 00:19:55.
