data_PCOD8099759
_publ_section_title
;
Structure prediction by ZEFSAII (Michael W. Deem and Ramdas Pophale) SiO2 
 PCOD8099759
Probable space group: C 2/M
;
_chemical_formula_sum "Si O2"
_cell_formula_units_Z 56
_cell_length_a 25.200934
_cell_length_b 15.184509
_cell_length_c 14.487432
_cell_angle_alpha 90.000000
_cell_angle_beta 29.690892
_cell_angle_gamma 90.000000
_cell_volume 2745.966117
_symmetry_space_group_name_H-M "C 2/M"
_symmetry_group_IT_number 12
_symmetry_cell_setting 'monoclinic'
loop_
_space_group_symop_operation_xyz
x,y,z
-x,y,-z
-x,-y,-z
x,-y,z
1/2+x,1/2+y,z
1/2-x,1/2+y,-z
1/2-x,1/2-y,-z
1/2+x,1/2-y,z
loop_
_atom_site_type_symbol
_atom_site_label
_atom_site_fract_x
_atom_site_fract_y
_atom_site_fract_z
Si Si1 0.227630 0.245690 0.829130
Si Si2 0.778889 0.294554 0.552667
Si Si3 0.485310 0.714623 0.252534
Si Si4 0.758318 0.597673 0.057487
Si Si5 0.026139 0.901718 0.357224
Si Si6 0.623691 0.896506 0.299197
Si Si7 0.909886 0.100914 0.204532
O O1 0.238674 0.260945 0.702912
O O2 0.260191 0.335384 0.831042
O O3 0.300956 0.163079 0.749447
O O4 0.104026 0.230905 0.040091
O O5 0.750000 0.250000 0.500000
O O6 0.909155 0.302993 0.365138
O O7 0.710211 0.385091 0.656378
O O8 0.477315 0.672618 0.365880
O O9 0.423220 0.645950 0.282464
O O10 0.778583 0.500000 0.068662
O O11 0.653796 0.596886 0.150503
O O12 0.853194 0.625202 0.843878
O O13 0.000000 0.872205 0.500000
O O14 0.979494 0.000000 0.407601
O O15 0.500000 0.871772 0.500000
O O16 0.646018 0.000000 0.286937
O O17 0.931720 0.000000 0.187709
O O18 0.000000 0.140556 0.000000
#
# Coordination Sequence:
#
# PCOD8099759 Si02
#       7
#     8   8   8   8   8   8   8
#     4  12  23  38  65  91 121 170 212 254 311 370
#     4  10  24  41  58  89 122 154 200 256 313 371
#     4  11  22  37  62  90 119 159 206 251 306 369
#     4  10  22  40  58  89 127 166 209 252 300 364
#     4  10  20  35  56  86 122 158 201 250 296 353
#     4  10  23  40  61  92 132 166 205 255 307 372
#     4  10  20  39  64  90 120 152 195 260 320 367
#
# _framework density 20.393550000000001
#
# number of rings (size 3 to 8) (size 9 to 14) (size 15 to 20)
#    0.000    1.571    2.857    1.714    2.000    1.714 
#    0.000    3.571    0.000    0.000    0.000    6.000 
#    0.000    0.000    0.000    0.000    0.000    0.000 
#
# Total GULP energy -346968.283231 kJ/mol
# GULP energy per Si atom -12391.724401 kJ/mol
# Density = 2.034713 g / cm^3
# Si number density = 20.393550 Si / 1000 Ang^3
#
#
#
# Elastic Constant Matrix: (Units=GPa)
#
#
# Indices 1 2 3 4 5 6 
#
# 1 103.6678 41.2226 43.5268 0.0000 8.8979 0.0000
# 2 41.2226 70.0984 26.9468 0.0000 -2.8942 0.0000
# 3 43.5268 26.9468 128.7681 0.0000 -11.1150 0.0000
# 4 0.0000 0.0000 0.0000 24.1315 0.0000 -3.6562
# 5 8.8979 -2.8942 -11.1150 0.0000 42.4404 0.0000
# 6 0.0000 0.0000 0.0000 -3.6562 0.0000 23.6117
#
#
#
# Elastic Compliance Matrix: (Units=1/GPa)
#
#
# Indices 1 2 3 4 5 6 
#
# 1 0.014510 -0.007269 -0.003774 0.000000 -0.004526 0.000000
# 2 -0.007269 0.019157 -0.001338 0.000000 0.002480 0.000000
# 3 -0.003774 -0.001338 0.009599 0.000000 0.003214 0.000000
# 4 0.000000 0.000000 0.000000 0.042435 0.000000 0.006571
# 5 -0.004526 0.002480 0.003214 0.000000 0.025522 0.000000
# 6 0.000000 0.000000 0.000000 0.006571 0.000000 0.043369
#
#
# Mechanical properties :
#
#
# Convention : Reuss Voigt Hill
#
# Bulk Modulus (GPa) = 54.04207 58.43628 56.23917
# Shear Modulus (GPa) = 26.95100 30.75927 28.85514
#
# Velocity S-wave (km/s) = 3.63925 3.88788 3.76562
# Velocity P-wave (km/s) = 6.64951 6.99075 6.82226
#
# Compressibility (1/GPa) = 0.01850410
#
# Stress axis : x y z
#
# Youngs Moduli (GPa) = 68.91938 52.20080 104.17671
#
# Poissons Ratio (x) = 0.37943 0.39319
# Poissons Ratio (y) = 0.50095 0.13937
# Poissons Ratio (z) = 0.26012 0.06983
#
# Static dielectric constant tensor:
#      x y z
#    x 3.792210 0.000000 -0.100870 
#    y 0.000000 3.601510 0.000000 
#    z -0.100870 0.000000 4.232400 
# 
# 
# High freq. dielectric constant tensor:
#      x y z
#    x 1.793220 0.000000 0.004800 
#    y 0.000000 1.774350 0.000000 
#    z 0.004800 0.000000 1.820570 
# 
# From -- ./inp_files/240891.got.cif
#   From: 2010.06.25/outbox.cif.g09.slc.cpg/sg12_121_cif.got.tgz:240891.got - 2010.06.28 00:19:55.
