data_PCOD8099716
_publ_section_title
;
Structure prediction by ZEFSAII (Michael W. Deem and Ramdas Pophale) SiO2 
 PCOD8099716
Probable space group: C 2/M
;
_chemical_formula_sum "Si O2"
_cell_formula_units_Z 64
_cell_length_a 26.130471
_cell_length_b 9.203567
_cell_length_c 14.829917
_cell_angle_alpha 90.000000
_cell_angle_beta 63.317533
_cell_angle_gamma 90.000000
_cell_volume 3186.698611
_symmetry_space_group_name_H-M "C 2/M"
_symmetry_group_IT_number 12
_symmetry_cell_setting 'monoclinic'
loop_
_space_group_symop_operation_xyz
x,y,z
-x,y,-z
-x,-y,-z
x,-y,z
1/2+x,1/2+y,z
1/2-x,1/2+y,-z
1/2-x,1/2-y,-z
1/2+x,1/2-y,z
loop_
_atom_site_type_symbol
_atom_site_label
_atom_site_fract_x
_atom_site_fract_y
_atom_site_fract_z
Si Si1 0.562476 0.332531 0.428251
Si Si2 0.635132 0.167929 0.227400
Si Si3 0.456420 0.830599 0.201496
Si Si4 0.789763 0.837050 0.532470
Si Si5 0.368647 0.327399 0.137642
Si Si6 0.262954 0.169264 0.728562
Si Si7 0.911764 0.159663 0.394301
Si Si8 0.089937 0.330553 0.069657
O O1 0.500000 0.271473 0.500000
O O2 0.560674 0.500000 0.400306
O O3 0.589181 0.247369 0.325056
O O4 0.596039 0.306365 0.493827
O O5 0.700438 0.200676 0.208377
O O6 0.623572 0.216355 0.133741
O O7 0.620422 0.000000 0.248219
O O8 0.412692 0.741437 0.174027
O O9 0.447122 0.779996 0.311998
O O10 0.522087 0.798042 0.125849
O O11 0.442220 0.000000 0.203230
O O12 0.750000 0.750000 0.500000
O O13 0.794323 0.758539 0.625405
O O14 0.845189 0.840881 0.422962
O O15 0.767784 0.000000 0.568696
O O16 0.376281 0.500000 0.134865
O O17 0.302981 0.281256 0.208626
O O18 0.383363 0.269444 0.027669
O O19 0.266044 0.000000 0.701327
O O20 0.940159 0.000000 0.355683
O O21 0.100077 0.500000 0.039551
#
# Coordination Sequence:
#
# PCOD8099716 Si02
#       8
#     8   8   8   8   8   8   8   8
#     4  10  20  35  56  84 119 155 192 237 287 343
#     4  10  21  39  62  86 119 158 197 245 296 350
#     4  11  23  39  61  89 120 154 197 246 298 359
#     4  11  22  36  56  83 117 155 196 239 287 345
#     4  11  24  41  62  88 117 153 199 249 303 358
#     4  10  22  40  60  86 120 156 198 247 295 350
#     4  10  21  36  54  83 119 152 188 232 283 341
#     4  10  23  42  62  88 119 152 196 250 303 356
#
# _framework density 20.083480000000002
#
# number of rings (size 3 to 8) (size 9 to 14) (size 15 to 20)
#    0.000    1.625    1.250    3.000    0.000    9.250 
#    0.000    0.000    0.000    0.000    0.000    0.000 
#    0.000    0.000    0.000    0.000    0.000    0.000 
#
# Total GULP energy -396650.370436 kJ/mol
# GULP energy per Si atom -12395.324076 kJ/mol
# Density = 2.003777 g / cm^3
# Si number density = 20.083480 Si / 1000 Ang^3
#
#
#
# Elastic Constant Matrix: (Units=GPa)
#
#
# Indices 1 2 3 4 5 6 
#
# 1 100.2155 37.6055 24.8834 0.0000 0.5793 0.0000
# 2 37.6055 81.8040 48.0472 0.0000 -1.9031 0.0000
# 3 24.8834 48.0472 89.3985 0.0000 -6.5923 0.0000
# 4 0.0000 0.0000 0.0000 46.4659 0.0000 8.0906
# 5 0.5793 -1.9031 -6.5923 0.0000 27.6582 0.0000
# 6 0.0000 0.0000 0.0000 8.0906 0.0000 35.6017
#
#
#
# Elastic Compliance Matrix: (Units=1/GPa)
#
#
# Indices 1 2 3 4 5 6 
#
# 1 0.012093 -0.005212 -0.000621 0.000000 -0.000760 0.000000
# 2 -0.005212 0.020141 -0.009430 0.000000 -0.000753 0.000000
# 3 -0.000621 -0.009430 0.016673 0.000000 0.003338 0.000000
# 4 0.000000 0.000000 0.000000 0.022408 0.000000 -0.005092
# 5 -0.000760 -0.000753 0.003338 0.000000 0.036915 0.000000
# 6 0.000000 0.000000 0.000000 -0.005092 0.000000 0.029246
#
#
# Mechanical properties :
#
#
# Convention : Reuss Voigt Hill
#
# Bulk Modulus (GPa) = 54.40155 54.72111 54.56133
# Shear Modulus (GPa) = 28.71442 32.67061 30.69251
#
# Velocity S-wave (km/s) = 3.78531 4.03766 3.91352
# Velocity P-wave (km/s) = 6.80083 7.00307 6.90269
#
# Compressibility (1/GPa) = 0.01838183
#
# Stress axis : x y z
#
# Youngs Moduli (GPa) = 82.69329 49.64900 59.97803
#
# Poissons Ratio (x) = 0.25878 0.03723
# Poissons Ratio (y) = 0.43102 0.56557
# Poissons Ratio (z) = 0.05133 0.46817
#
# Static dielectric constant tensor:
#      x y z
#    x 3.832370 0.000000 0.214060 
#    y 0.000000 3.542760 0.000000 
#    z 0.214060 0.000000 3.544720 
# 
# 
# High freq. dielectric constant tensor:
#      x y z
#    x 1.803120 0.000000 0.005270 
#    y 0.000000 1.782060 0.000000 
#    z 0.005270 0.000000 1.780830 
# 
# From -- ./inp_files/243869.got.cif
#   From: 2010.06.25/outbox.cif.g09.slc.cpg/sg12_122_cif.got.tgz:243869.got - 2010.06.28 00:19:55.
