data_PCOD8099801
_publ_section_title
;
Structure prediction by ZEFSAII (Michael W. Deem and Ramdas Pophale) SiO2 
 PCOD8099801
Probable space group: C 2/M
;
_chemical_formula_sum "Si O2"
_cell_formula_units_Z 56
_cell_length_a 17.902028
_cell_length_b 9.090484
_cell_length_c 28.843581
_cell_angle_alpha 90.000000
_cell_angle_beta 38.629808
_cell_angle_gamma 90.000000
_cell_volume 2930.367438
_symmetry_space_group_name_H-M "C 2/M"
_symmetry_group_IT_number 12
_symmetry_cell_setting 'monoclinic'
loop_
_space_group_symop_operation_xyz
x,y,z
-x,y,-z
-x,-y,-z
x,-y,z
1/2+x,1/2+y,z
1/2-x,1/2+y,-z
1/2-x,1/2-y,-z
1/2+x,1/2-y,z
loop_
_atom_site_type_symbol
_atom_site_label
_atom_site_fract_x
_atom_site_fract_y
_atom_site_fract_z
Si Si1 0.200612 0.325705 0.569453
Si Si2 0.484792 0.326454 0.143401
Si Si3 0.867401 0.825404 0.572562
Si Si4 0.544290 0.669651 0.294970
Si Si5 0.158316 0.828986 0.141020
Si Si6 0.236073 0.172001 0.280467
Si Si7 0.092445 0.826229 0.993902
O O1 0.206044 0.500000 0.560590
O O2 0.250000 0.250000 0.500000
O O3 0.281894 0.272100 0.572793
O O4 0.066292 0.276530 0.643904
O O5 0.465632 0.500000 0.153258
O O6 0.567768 0.273624 0.145391
O O7 0.356858 0.253169 0.209354
O O8 0.546398 0.272936 0.066171
O O9 0.815416 0.765253 0.646209
O O10 0.000000 0.759801 0.500000
O O11 0.874696 0.000000 0.571122
O O12 0.502620 0.500000 0.318613
O O13 0.599650 0.706164 0.218561
O O14 0.640981 0.707164 0.286917
O O15 0.279987 0.741511 0.078194
O O16 0.187520 0.000000 0.120827
O O17 0.263848 0.000000 0.270589
O O18 0.106336 0.000000 0.985241
O O19 0.000000 0.769498 0.000000
#
# Coordination Sequence:
#
# PCOD8099801 Si02
#       7
#     8   8   8   8   8   8   8
#     4  11  22  36  57  82 108 141 178 217 263 313
#     4  10  21  36  53  77 110 142 174 220 272 316
#     4   9  18  34  55  78 105 137 174 216 259 306
#     4  10  21  37  56  80 110 140 174 219 267 316
#     4  10  21  36  55  80 109 141 176 219 271 319
#     4  10  20  35  57  81 104 138 181 219 260 314
#     4  10  21  36  54  77 106 142 182 222 265 315
#
# _framework density 19.110232
#
# number of rings (size 3 to 8) (size 9 to 14) (size 15 to 20)
#    0.000    2.000    0.000    3.429    0.000    4.857 
#    0.000    0.714    0.000    3.000    0.000    0.000 
#    0.000    0.000    0.000    0.000    0.000    0.000 
#
# Total GULP energy -347322.441941 kJ/mol
# GULP energy per Si atom -12404.372926 kJ/mol
# Density = 1.906674 g / cm^3
# Si number density = 19.110232 Si / 1000 Ang^3
#
#
#
# Elastic Constant Matrix: (Units=GPa)
#
#
# Indices 1 2 3 4 5 6 
#
# 1 169.9038 46.5240 91.9105 -0.0003 12.3381 -0.0002
# 2 46.5240 38.7176 43.1690 -0.0001 -4.2412 -0.0023
# 3 91.9105 43.1690 139.4985 0.0000 2.0317 -0.0005
# 4 -0.0003 -0.0001 0.0000 36.1030 0.0000 -13.8279
# 5 12.3381 -4.2412 2.0317 0.0000 44.2370 0.0000
# 6 -0.0002 -0.0023 -0.0005 -13.8279 0.0000 30.8059
#
#
#
# Elastic Compliance Matrix: (Units=1/GPa)
#
#
# Indices 1 2 3 4 5 6 
#
# 1 0.010915 -0.008484 -0.004513 0.000000 -0.003650 -0.000001
# 2 -0.008484 0.046881 -0.009024 0.000002 0.007275 0.000004
# 3 -0.004513 -0.009024 0.012937 0.000000 -0.000201 -0.000001
# 4 0.000000 0.000002 0.000000 0.033449 0.000000 0.015014
# 5 -0.003650 0.007275 -0.000201 0.000000 0.024330 0.000001
# 6 -0.000001 0.000004 -0.000001 0.015014 0.000001 0.039201
#
#
# Mechanical properties :
#
#
# Convention : Reuss Voigt Hill
#
# Bulk Modulus (GPa) = 37.46471 79.03631 58.25051
# Shear Modulus (GPa) = 22.66000 33.33026 27.99513
#
# Velocity S-wave (km/s) = 3.44721 4.18078 3.83159
# Velocity P-wave (km/s) = 5.95747 8.04693 7.07971
#
# Compressibility (1/GPa) = 0.02669179
#
# Stress axis : x y z
#
# Youngs Moduli (GPa) = 91.61469 21.33068 77.29485
#
# Poissons Ratio (x) = 0.18097 0.34884
# Poissons Ratio (y) = 0.77726 0.69750
# Poissons Ratio (z) = 0.41346 0.19248
#
# Static dielectric constant tensor:
#      x y z
#    x 3.731470 0.000000 0.029930 
#    y 0.000000 3.273430 0.000000 
#    z 0.029930 0.000000 3.464010 
# 
# 
# High freq. dielectric constant tensor:
#      x y z
#    x 1.764520 0.000000 0.004770 
#    y 0.000000 1.720660 0.000000 
#    z 0.004770 0.000000 1.761760 
# 
# From -- ./inp_files/275218.got.cif
#   From: 2010.06.25/outbox.cif.g09.slc.cpg/sg12_138_cif.got.tgz:275218.got - 2010.06.28 00:19:55.
