data_PCOD8099438
_publ_section_title
;
Structure prediction by ZEFSAII (Michael W. Deem and Ramdas Pophale) SiO2 
 PCOD8099438
Probable space group: C 2/M
;
_chemical_formula_sum "Si O2"
_cell_formula_units_Z 56
_cell_length_a 19.385317
_cell_length_b 8.782987
_cell_length_c 26.054725
_cell_angle_alpha 90.000000
_cell_angle_beta 137.734094
_cell_angle_gamma 90.000000
_cell_volume 2983.600021
_symmetry_space_group_name_H-M "C 2/M"
_symmetry_group_IT_number 12
_symmetry_cell_setting 'monoclinic'
loop_
_space_group_symop_operation_xyz
x,y,z
-x,y,-z
-x,-y,-z
x,-y,z
1/2+x,1/2+y,z
1/2-x,1/2+y,-z
1/2-x,1/2-y,-z
1/2+x,1/2-y,z
loop_
_atom_site_type_symbol
_atom_site_label
_atom_site_fract_x
_atom_site_fract_y
_atom_site_fract_z
Si Si1 0.705046 0.325354 0.123787
Si Si2 0.373760 0.825100 0.299085
Si Si3 0.408166 0.678637 0.585829
Si Si4 0.234435 0.321739 0.414692
Si Si5 0.826444 0.680438 0.000019
Si Si6 0.783135 0.320428 0.712322
Si Si7 0.551112 0.319521 0.129012
O O1 0.690033 0.500000 0.097680
O O2 0.812255 0.303885 0.212217
O O3 0.610063 0.278020 0.108422
O O4 0.712498 0.217119 0.078656
O O5 0.476854 0.731765 0.356044
O O6 0.307702 0.763127 0.309108
O O7 0.399255 0.000000 0.323071
O O8 0.407402 0.500000 0.588573
O O9 0.339785 0.734622 0.499667
O O10 0.363203 0.743098 0.613626
O O11 0.220189 0.500000 0.414110
O O12 0.233949 0.274280 0.355620
O O13 0.832691 0.500000 0.011394
O O14 0.937474 0.754997 0.066510
O O15 0.750000 0.750000 0.000000
O O16 0.777705 0.500000 0.718724
O O17 0.892066 0.257767 0.791699
O O18 0.550322 0.500000 0.136476
#
# Coordination Sequence:
#
# PCOD8099438 Si02
#       7
#     8   8   8   8   8   8   8
#     4   9  20  39  60  81 110 146 180 221 274 327
#     4  10  21  37  57  82 113 146 181 225 276 325
#     4  10  20  35  56  80 108 145 188 229 272 328
#     4   9  20  37  55  78 110 147 183 226 280 328
#     4  12  25  39  58  84 113 145 184 227 270 320
#     4  10  20  36  58  83 112 144 183 228 272 323
#     4  10  21  39  61  84 113 146 180 221 273 329
#
# _framework density 18.769271
#
# number of rings (size 3 to 8) (size 9 to 14) (size 15 to 20)
#    0.000    2.000    0.000    4.286    0.000    8.571 
#    0.000    4.286    0.000    0.000    0.000    0.000 
#    0.000    0.000    0.000    0.000    0.000    0.000 
#
# Total GULP energy -347248.722152 kJ/mol
# GULP energy per Si atom -12401.740077 kJ/mol
# Density = 1.872655 g / cm^3
# Si number density = 18.769271 Si / 1000 Ang^3
#
#
#
# Elastic Constant Matrix: (Units=GPa)
#
#
# Indices 1 2 3 4 5 6 
#
# 1 209.7086 163.1786 134.8327 0.0000 53.4852 0.0000
# 2 163.1786 224.3731 130.2774 0.0000 23.8834 0.0000
# 3 134.8327 130.2774 155.9070 0.0000 15.8036 0.0000
# 4 0.0000 0.0000 0.0000 33.8439 0.0000 3.0132
# 5 53.4852 23.8834 15.8036 0.0000 67.5225 0.0000
# 6 0.0000 0.0000 0.0000 3.0132 0.0000 37.4209
#
#
#
# Elastic Compliance Matrix: (Units=1/GPa)
#
#
# Indices 1 2 3 4 5 6 
#
# 1 0.019235 -0.007449 -0.009356 0.000000 -0.010412 0.000000
# 2 -0.007449 0.011673 -0.003577 0.000000 0.002608 0.000000
# 3 -0.009356 -0.003577 0.017018 0.000000 0.004693 0.000000
# 4 0.000000 0.000000 0.000000 0.029761 0.000000 -0.002396
# 5 -0.010412 0.002608 0.004693 0.000000 0.021036 0.000000
# 6 0.000000 0.000000 0.000000 -0.002396 0.000000 0.026916
#
#
# Mechanical properties :
#
#
# Convention : Reuss Voigt Hill
#
# Bulk Modulus (GPa) = 139.57698 160.72957 150.15327
# Shear Modulus (GPa) = 29.62267 38.53748 34.08007
#
# Velocity S-wave (km/s) = 3.97703 4.53616 4.26577
# Velocity P-wave (km/s) = 9.77830 10.64218 10.21937
#
# Compressibility (1/GPa) = 0.00716451
#
# Stress axis : x y z
#
# Youngs Moduli (GPa) = 51.98805 85.66676 58.76095
#
# Poissons Ratio (x) = 0.63810 0.54974
# Poissons Ratio (y) = 0.38724 0.21017
# Poissons Ratio (z) = 0.48638 0.30641
#
# Static dielectric constant tensor:
#      x y z
#    x 3.143420 0.000000 -0.175120 
#    y 0.000000 3.574030 0.000000 
#    z -0.175120 0.000000 3.565020 
# 
# 
# High freq. dielectric constant tensor:
#      x y z
#    x 1.728210 0.000000 0.002970 
#    y 0.000000 1.739470 0.000000 
#    z 0.002970 0.000000 1.738930 
# 
# From -- ./inp_files/342565.got.cif
#   From: 2010.06.25/outbox.cif.g09.slc.cpg/sg12_172_cif.got.tgz:342565.got - 2010.06.28 00:19:55.
