data_PCOD8099450
_publ_section_title
;
Structure prediction by ZEFSAII (Michael W. Deem and Ramdas Pophale) SiO2 
 PCOD8099450
Probable space group: C 2/M
;
_chemical_formula_sum "Si O2"
_cell_formula_units_Z 48
_cell_length_a 28.523663
_cell_length_b 9.026500
_cell_length_c 18.795368
_cell_angle_alpha 90.000000
_cell_angle_beta 148.731198
_cell_angle_gamma 90.000000
_cell_volume 2511.816279
_symmetry_space_group_name_H-M "C 2/M"
_symmetry_group_IT_number 12
_symmetry_cell_setting 'monoclinic'
loop_
_space_group_symop_operation_xyz
x,y,z
-x,y,-z
-x,-y,-z
x,-y,z
1/2+x,1/2+y,z
1/2-x,1/2+y,-z
1/2-x,1/2-y,-z
1/2+x,1/2-y,z
loop_
_atom_site_type_symbol
_atom_site_label
_atom_site_fract_x
_atom_site_fract_y
_atom_site_fract_z
Si Si1 0.421601 0.824361 0.064242
Si Si2 0.225147 0.329456 0.572341
Si Si3 0.090907 0.325597 0.650610
Si Si4 0.240492 0.174652 0.221023
Si Si5 0.655078 0.173100 0.885021
Si Si6 0.892181 0.171898 0.689559
O O1 0.395315 0.771950 0.109705
O O2 0.518885 0.759173 0.171881
O O3 0.424467 0.000000 0.061032
O O4 0.350775 0.760106 0.916162
O O5 0.196494 0.500000 0.525907
O O6 0.232452 0.285062 0.663784
O O7 0.146574 0.231463 0.435416
O O8 0.320758 0.298040 0.659371
O O9 0.089118 0.500000 0.634980
O O10 0.179883 0.263864 0.726547
O O11 0.093233 0.285604 0.737043
O O12 0.000000 0.253576 0.500000
O O13 0.223726 0.000000 0.189588
O O14 0.674472 0.000000 0.913353
O O15 0.750000 0.250000 0.000000
O O16 0.915238 0.000000 0.710740
#
# Coordination Sequence:
#
# PCOD8099450 Si02
#       6
#     8   8   8   8   8   8
#     4  11  23  36  55  83 116 149 187 231 275 328
#     4   9  20  38  60  85 111 143 185 234 281 329
#     4   9  18  32  54  82 107 138 180 223 271 325
#     4  10  20  36  59  82 111 147 186 231 276 330
#     4  10  20  35  56  80 110 144 181 226 271 326
#     4  10  21  38  59  83 112 146 186 229 280 339
#
# _framework density 19.109677000000001
#
# number of rings (size 3 to 8) (size 9 to 14) (size 15 to 20)
#    0.000    2.167    1.667    1.000    2.333    2.667 
#    0.000    3.333    0.000    1.000    0.000    0.000 
#    0.000    0.000    0.000    0.000    0.000    0.000 
#
# Total GULP energy -297674.125607 kJ/mol
# GULP energy per Si atom -12403.088567 kJ/mol
# Density = 1.906618 g / cm^3
# Si number density = 19.109677 Si / 1000 Ang^3
#
#
#
# Elastic Constant Matrix: (Units=GPa)
#
#
# Indices 1 2 3 4 5 6 
#
# 1 50.2578 18.1855 13.4052 0.0000 -3.9027 0.0000
# 2 18.1855 51.8756 33.8973 0.0000 4.0856 0.0000
# 3 13.4052 33.8973 100.0563 0.0000 12.9277 0.0000
# 4 0.0000 0.0000 0.0000 34.3005 0.0000 1.0636
# 5 -3.9027 4.0856 12.9277 0.0000 33.8670 0.0000
# 6 0.0000 0.0000 0.0000 1.0636 0.0000 22.5045
#
#
#
# Elastic Compliance Matrix: (Units=1/GPa)
#
#
# Indices 1 2 3 4 5 6 
#
# 1 0.023309 -0.007845 -0.000983 0.000000 0.004008 0.000000
# 2 -0.007845 0.027399 -0.008086 0.000000 -0.001123 0.000000
# 3 -0.000983 -0.008086 0.013416 0.000000 -0.004259 0.000000
# 4 0.000000 0.000000 0.000000 0.029197 0.000000 -0.001380
# 5 0.004008 -0.001123 -0.004259 0.000000 0.031750 0.000000
# 6 0.000000 0.000000 0.000000 -0.001380 0.000000 0.044501
#
#
# Mechanical properties :
#
#
# Convention : Reuss Voigt Hill
#
# Bulk Modulus (GPa) = 33.00725 37.01842 35.01283
# Shear Modulus (GPa) = 23.41928 27.24783 25.33356
#
# Velocity S-wave (km/s) = 3.50454 3.78016 3.64496
# Velocity P-wave (km/s) = 5.80394 6.20213 6.00634
#
# Compressibility (1/GPa) = 0.03029638
#
# Stress axis : x y z
#
# Youngs Moduli (GPa) = 42.90119 36.49739 74.53865
#
# Poissons Ratio (x) = 0.28631 0.07328
# Poissons Ratio (y) = 0.33654 0.60274
# Poissons Ratio (z) = 0.04218 0.29513
#
# Static dielectric constant tensor:
#      x y z
#    x 4.401560 0.000000 3.643950 
#    y 0.000000 3.327150 0.000000 
#    z 3.643950 0.000000 22.740080 
# 
# 
# High freq. dielectric constant tensor:
#      x y z
#    x 1.746950 0.000000 -0.001410 
#    y 0.000000 1.722690 0.000000 
#    z -0.001410 0.000000 1.753710 
# 
# From -- ./inp_files/244708.got.cif
#   From: 2010.06.25/outbox.cif.g09.slc.cpg/sg12_123_cif.got.tgz:244708.got - 2010.06.28 00:19:55.
