data_PCOD8099975
_publ_section_title
;
Structure prediction by ZEFSAII (Michael W. Deem and Ramdas Pophale) SiO2 
 PCOD8099975
Probable space group: C 2/M
;
_chemical_formula_sum "Si O2"
_cell_formula_units_Z 64
_cell_length_a 32.266189
_cell_length_b 8.976443
_cell_length_c 14.983571
_cell_angle_alpha 90.000000
_cell_angle_beta 47.137813
_cell_angle_gamma 90.000000
_cell_volume 3181.020801
_symmetry_space_group_name_H-M "C 2/M"
_symmetry_group_IT_number 12
_symmetry_cell_setting 'monoclinic'
loop_
_space_group_symop_operation_xyz
x,y,z
-x,y,-z
-x,-y,-z
x,-y,z
1/2+x,1/2+y,z
1/2-x,1/2+y,-z
1/2-x,1/2-y,-z
1/2+x,1/2-y,z
loop_
_atom_site_type_symbol
_atom_site_label
_atom_site_fract_x
_atom_site_fract_y
_atom_site_fract_z
Si Si1 0.865629 0.826966 0.171087
Si Si2 0.047112 0.323437 0.086423
Si Si3 0.122476 0.674958 0.504148
Si Si4 0.404885 0.329916 0.819659
Si Si5 0.746039 0.176216 0.280597
Si Si6 0.565254 0.173107 0.400564
Si Si7 0.932451 0.173218 0.248151
Si Si8 0.775669 0.169265 0.045905
O O1 0.799982 0.776295 0.261266
O O2 0.884554 0.797609 0.244392
O O3 0.872999 0.000000 0.132943
O O4 0.901781 0.729785 0.049993
O O5 0.044357 0.500000 0.090908
O O6 0.053704 0.265701 0.178226
O O7 0.988627 0.258486 0.133829
O O8 0.117446 0.500000 0.532755
O O9 0.187592 0.731649 0.410011
O O10 0.095175 0.713761 0.449205
O O11 0.088956 0.765783 0.626810
O O12 0.426040 0.500000 0.787355
O O13 0.404234 0.266423 0.720918
O O14 0.342817 0.317259 0.951309
O O15 0.743902 0.000000 0.274344
O O16 0.752179 0.242480 0.171615
O O17 0.500000 0.219805 0.500000
O O18 0.572278 0.000000 0.367313
O O19 0.946957 0.000000 0.236148
O O20 0.755740 0.000000 0.067200
O O21 0.750000 0.250000 0.000000
#
# Coordination Sequence:
#
# PCOD8099975 Si02
#       8
#     8   8   8   8   8   8   8   8
#     4  10  21  41  64  87 119 159 202 246 306 368
#     4  12  24  39  62  91 123 155 196 253 306 365
#     4  10  21  38  61  87 121 164 206 250 298 355
#     4  11  22  37  60  88 119 156 196 243 298 358
#     4   9  18  37  61  83 117 162 200 241 296 359
#     4  10  21  37  57  84 120 162 205 248 298 354
#     4  11  24  40  62  88 118 158 201 253 306 362
#     4  10  20  35  57  84 116 153 194 238 288 349
#
# _framework density 20.119326999999998
#
# number of rings (size 3 to 8) (size 9 to 14) (size 15 to 20)
#    0.000    1.625    1.250    3.750    0.000    6.750 
#    0.000    1.250    0.000    0.000    0.000    0.000 
#    0.000    0.000    0.000    0.000    0.000    0.000 
#
# Total GULP energy -396923.193328 kJ/mol
# GULP energy per Si atom -12403.849792 kJ/mol
# Density = 2.007353 g / cm^3
# Si number density = 20.119327 Si / 1000 Ang^3
#
#
#
# Elastic Constant Matrix: (Units=GPa)
#
#
# Indices 1 2 3 4 5 6 
#
# 1 117.7477 43.4260 24.9504 -0.0001 -10.3082 -0.0003
# 2 43.4260 92.9323 33.9564 -0.0001 2.0333 -0.0005
# 3 24.9504 33.9564 80.7356 0.0000 -6.9344 0.0000
# 4 -0.0001 -0.0001 0.0000 31.6611 0.0000 1.7558
# 5 -10.3082 2.0333 -6.9344 0.0000 36.1035 0.0000
# 6 -0.0003 -0.0005 0.0000 1.7558 0.0000 22.7875
#
#
#
# Elastic Compliance Matrix: (Units=1/GPa)
#
#
# Indices 1 2 3 4 5 6 
#
# 1 0.010722 -0.004686 -0.001075 0.000000 0.003119 0.000000
# 2 -0.004686 0.014875 -0.005079 0.000000 -0.003151 0.000000
# 3 -0.001075 -0.005079 0.015102 0.000000 0.002880 0.000000
# 4 0.000000 0.000000 0.000000 0.031720 0.000000 -0.002444
# 5 0.003119 -0.003151 0.002880 0.000000 0.029319 0.000000
# 6 0.000000 0.000000 0.000000 -0.002444 0.000000 0.044072
#
#
# Mechanical properties :
#
#
# Convention : Reuss Voigt Hill
#
# Bulk Modulus (GPa) = 52.57708 55.12010 53.84859
# Shear Modulus (GPa) = 28.76420 30.71593 29.74006
#
# Velocity S-wave (km/s) = 3.78521 3.91152 3.84889
# Velocity P-wave (km/s) = 6.73002 6.91781 6.82456
#
# Compressibility (1/GPa) = 0.01901969
#
# Stress axis : x y z
#
# Youngs Moduli (GPa) = 93.26996 67.22843 66.21788
#
# Poissons Ratio (x) = 0.31500 0.07117
# Poissons Ratio (y) = 0.43702 0.33630
# Poissons Ratio (z) = 0.10025 0.34143
#
# Static dielectric constant tensor:
#      x y z
#    x 4.328930 0.000000 -0.341810 
#    y 0.000000 3.494940 0.000000 
#    z -0.341810 0.000000 3.785260 
# 
# 
# High freq. dielectric constant tensor:
#      x y z
#    x 1.801690 0.000000 -0.002800 
#    y 0.000000 1.766910 0.000000 
#    z -0.002800 0.000000 1.788520 
# 
# From -- ./inp_files/249813.got.cif
#   From: 2010.06.25/outbox.cif.g09.slc.cpg/sg12_125_cif.got.tgz:249813.got - 2010.06.28 00:19:55.
