data_PCOD8099641
_publ_section_title
;
Structure prediction by ZEFSAII (Michael W. Deem and Ramdas Pophale) SiO2 
 PCOD8099641
Probable space group: C 2/M
;
_chemical_formula_sum "Si O2"
_cell_formula_units_Z 48
_cell_length_a 18.740705
_cell_length_b 8.703073
_cell_length_c 15.265209
_cell_angle_alpha 90.000000
_cell_angle_beta 89.664553
_cell_angle_gamma 90.000000
_cell_volume 2489.739229
_symmetry_space_group_name_H-M "C 2/M"
_symmetry_group_IT_number 12
_symmetry_cell_setting 'monoclinic'
loop_
_space_group_symop_operation_xyz
x,y,z
-x,y,-z
-x,-y,-z
x,-y,z
1/2+x,1/2+y,z
1/2-x,1/2+y,-z
1/2-x,1/2-y,-z
1/2+x,1/2-y,z
loop_
_atom_site_type_symbol
_atom_site_label
_atom_site_fract_x
_atom_site_fract_y
_atom_site_fract_z
Si Si1 0.291600 0.675167 0.920791
Si Si2 0.708548 0.819289 0.581802
Si Si3 0.043087 0.321307 0.585763
Si Si4 0.202843 0.681673 0.266357
Si Si5 0.044374 0.825550 0.077086
Si Si6 0.051752 0.181791 0.269505
O O1 0.267027 0.500000 0.906560
O O2 0.277558 0.766643 0.831606
O O3 0.373349 0.684347 0.948466
O O4 0.250000 0.750000 0.000000
O O5 0.750000 0.750000 0.500000
O O6 0.625359 0.778575 0.571821
O O7 0.735980 0.745755 0.671188
O O8 0.721476 0.000000 0.584036
O O9 0.032311 0.500000 0.607339
O O10 0.000000 0.272697 0.500000
O O11 0.012347 0.223041 0.665955
O O12 0.201858 0.500000 0.272019
O O13 0.126173 0.743357 0.299636
O O14 0.031584 0.751676 0.173176
O O15 0.016892 0.000000 0.082744
O O16 0.000000 0.739751 0.000000
O O17 0.064575 0.000000 0.264861
#
# Coordination Sequence:
#
# PCOD8099641 Si02
#       6
#     8   8   8   8   8   8
#     4  10  20  35  56  83 114 148 188 235 287 341
#     4  11  23  39  60  87 118 149 186 233 283 340
#     4  10  22  39  58  82 113 147 181 224 282 343
#     4  11  22  38  59  81 112 154 196 238 285 334
#     4   8  16  32  53  78 108 141 178 222 272 328
#     4  10  20  35  58  85 112 145 187 234 282 336
#
# _framework density 19.279126000000002
#
# number of rings (size 3 to 8) (size 9 to 14) (size 15 to 20)
#    0.000    2.000    0.000    5.000    0.000    4.333 
#    0.000    1.667    0.000   17.000    0.000    0.000 
#    0.000    0.000    0.000    0.000    0.000    0.000 
#
# Total GULP energy -297633.798919 kJ/mol
# GULP energy per Si atom -12401.408288 kJ/mol
# Density = 1.923525 g / cm^3
# Si number density = 19.279126 Si / 1000 Ang^3
#
#
#
# Elastic Constant Matrix: (Units=GPa)
#
#
# Indices 1 2 3 4 5 6 
#
# 1 117.6404 57.8177 85.2672 0.0000 5.2943 0.0000
# 2 57.8177 104.5190 49.6324 0.0000 -0.9223 0.0000
# 3 85.2672 49.6324 132.1101 0.0000 2.4987 0.0000
# 4 0.0000 0.0000 0.0000 33.3940 0.0000 -5.8514
# 5 5.2943 -0.9223 2.4987 0.0000 44.8312 0.0000
# 6 0.0000 0.0000 0.0000 -5.8514 0.0000 26.6812
#
#
#
# Elastic Compliance Matrix: (Units=1/GPa)
#
#
# Indices 1 2 3 4 5 6 
#
# 1 0.018361 -0.005551 -0.009732 0.000000 -0.001740 0.000000
# 2 -0.005551 0.013334 -0.001446 0.000000 0.001010 0.000000
# 3 -0.009732 -0.001446 0.014388 0.000000 0.000318 0.000000
# 4 0.000000 0.000000 0.000000 0.031142 0.000000 0.006830
# 5 -0.001740 0.001010 0.000318 0.000000 0.022514 0.000000
# 6 0.000000 0.000000 0.000000 0.006830 0.000000 0.038977
#
#
# Mechanical properties :
#
#
# Convention : Reuss Voigt Hill
#
# Bulk Modulus (GPa) = 79.20853 82.18935 80.69894
# Shear Modulus (GPa) = 28.34736 31.75143 30.04940
#
# Velocity S-wave (km/s) = 3.83869 4.06264 3.95226
# Velocity P-wave (km/s) = 7.79883 8.04553 7.92314
#
# Compressibility (1/GPa) = 0.01262490
#
# Stress axis : x y z
#
# Youngs Moduli (GPa) = 54.46322 74.99802 69.50147
#
# Poissons Ratio (x) = 0.41629 0.67642
# Poissons Ratio (y) = 0.30231 0.10049
# Poissons Ratio (z) = 0.53006 0.10844
#
# Static dielectric constant tensor:
#      x y z
#    x 3.483900 0.000000 0.118350 
#    y 0.000000 3.485080 0.000000 
#    z 0.118350 0.000000 3.682280 
# 
# 
# High freq. dielectric constant tensor:
#      x y z
#    x 1.749720 0.000000 0.002980 
#    y 0.000000 1.743040 0.000000 
#    z 0.002980 0.000000 1.765780 
# 
# From -- ./inp_files/221573.got.cif
#   From: 2010.06.25/outbox.cif.g09.slc.cpg/sg12_111_cif.got.tgz:221573.got - 2010.06.28 00:19:55.
