data_PCOD8099273
_publ_section_title
;
Structure prediction by ZEFSAII (Michael W. Deem and Ramdas Pophale) SiO2 
 PCOD8099273
Probable space group: C 2/M
;
_chemical_formula_sum "Si O2"
_cell_formula_units_Z 40
_cell_length_a 8.466244
_cell_length_b 22.234089
_cell_length_c 10.263037
_cell_angle_alpha 90.000000
_cell_angle_beta 100.136433
_cell_angle_gamma 90.000000
_cell_volume 1901.751891
_symmetry_space_group_name_H-M "C 2/M"
_symmetry_group_IT_number 12
_symmetry_cell_setting 'monoclinic'
loop_
_space_group_symop_operation_xyz
x,y,z
-x,y,-z
-x,-y,-z
x,-y,z
1/2+x,1/2+y,z
1/2-x,1/2+y,-z
1/2-x,1/2-y,-z
1/2+x,1/2-y,z
loop_
_atom_site_type_symbol
_atom_site_label
_atom_site_fract_x
_atom_site_fract_y
_atom_site_fract_z
Si Si1 0.660874 0.790681 0.167768
Si Si2 0.159181 0.434371 0.475248
Si Si3 0.356490 0.432270 0.761472
Si Si4 0.894780 0.138176 0.355726
Si Si5 0.192810 0.671792 0.885395
O O1 0.804776 0.802575 0.291002
O O2 0.671578 0.719097 0.143582
O O3 0.483329 0.808197 0.193812
O O4 0.692594 0.828845 0.041410
O O5 0.104451 0.500000 0.416712
O O6 0.279494 0.440304 0.610742
O O7 0.245833 0.404287 0.367627
O O8 0.000000 0.398477 0.500000
O O9 0.390744 0.500000 0.823300
O O10 0.515602 0.394008 0.751828
O O11 0.242691 0.394640 0.842985
O O12 0.000000 0.153876 0.500000
#
# Coordination Sequence:
#
# PCOD8099273 Si02
#       5
#     8   8   8   8   8
#     4  10  21  39  61  83 110 146 189 232 279 332
#     4   9  17  31  52  77 110 151 188 226 275 330
#     4  10  20  35  55  82 116 149 186 229 276 331
#     4  10  20  35  55  84 115 147 184 227 278 331
#     4  10  21  39  62  83 109 147 188 233 280 330
#
# _framework density 21.033238000000001
#
# number of rings (size 3 to 8) (size 9 to 14) (size 15 to 20)
#    0.000    2.200    0.000    3.000    0.000    4.800 
#    0.000   16.000    0.000    0.000    0.000    0.000 
#    0.000    0.000    0.000    0.000    0.000    0.000 
#
# Total GULP energy -247804.761534 kJ/mol
# GULP energy per Si atom -12390.238077 kJ/mol
# Density = 2.098537 g / cm^3
# Si number density = 21.033238 Si / 1000 Ang^3
#
#
#
# Elastic Constant Matrix: (Units=GPa)
#
#
# Indices 1 2 3 4 5 6 
#
# 1 122.0202 29.9798 22.7170 0.0000 -8.1147 0.0000
# 2 29.9798 89.9671 34.9846 0.0000 -11.8700 0.0000
# 3 22.7170 34.9846 44.4131 0.0000 0.6252 0.0000
# 4 0.0000 0.0000 0.0000 -66.0172 0.0000 12.6282
# 5 -8.1147 -11.8700 0.6252 0.0000 34.3114 0.0000
# 6 0.0000 0.0000 0.0000 12.6282 0.0000 26.9444
#
#
#
# Elastic Compliance Matrix: (Units=1/GPa)
#
#
# Indices 1 2 3 4 5 6 
#
# 1 0.009353 -0.001460 -0.003659 0.000000 0.001774 0.000000
# 2 -0.001460 0.017483 -0.013108 0.000000 0.005942 0.000000
# 3 -0.003659 -0.013108 0.034798 0.000000 -0.006034 0.000000
# 4 0.000000 0.000000 0.000000 -0.013901 0.000000 0.006515
# 5 0.001774 0.005942 -0.006034 0.000000 0.031730 0.000000
# 6 0.000000 0.000000 0.000000 0.006515 0.000000 0.034060
#
#
# Mechanical properties :
#
#
# Convention : Reuss Voigt Hill
#
# Bulk Modulus (GPa) = 39.71497 47.97369 43.84433
# Shear Modulus (GPa) = 31.57152 10.29565 20.93358
#
# Velocity S-wave (km/s) = 3.87852 2.21485 3.15820
# Velocity P-wave (km/s) = 6.24341 5.42206 5.84718
#
# Compressibility (1/GPa) = 0.02517942
#
# Stress axis : x y z
#
# Youngs Moduli (GPa) = 106.91482 57.19869 28.73724
#
# Poissons Ratio (x) = 0.08350 0.10515
# Poissons Ratio (y) = 0.15608 0.37670
# Poissons Ratio (z) = 0.39122 0.74978
#
# Static dielectric constant tensor:
#      x y z
#    x 4.074730 0.000000 -0.103290 
#    y 0.000000 3.869960 0.000000 
#    z -0.103290 0.000000 3.541490 
# 
# 
# High freq. dielectric constant tensor:
#      x y z
#    x 1.842420 0.000000 -0.005390 
#    y 0.000000 1.808580 0.000000 
#    z -0.005390 0.000000 1.798180 
# 
# From -- ./inp_files/39214.got.cif
#   From: 2010.06.25/outbox.cif.g09.slc.cpg/sg12_20_cif.got.tgz:39214.got - 2010.06.28 00:19:55.
