data_PCOD8099593
_publ_section_title
;
Structure prediction by ZEFSAII (Michael W. Deem and Ramdas Pophale) SiO2 
 PCOD8099593
Probable space group: C 2/M
;
_chemical_formula_sum "Si O2"
_cell_formula_units_Z 64
_cell_length_a 15.212255
_cell_length_b 9.292242
_cell_length_c 25.184558
_cell_angle_alpha 90.000000
_cell_angle_beta 71.876003
_cell_angle_gamma 90.000000
_cell_volume 3383.360358
_symmetry_space_group_name_H-M "C 2/M"
_symmetry_group_IT_number 12
_symmetry_cell_setting 'monoclinic'
loop_
_space_group_symop_operation_xyz
x,y,z
-x,y,-z
-x,-y,-z
x,-y,z
1/2+x,1/2+y,z
1/2-x,1/2+y,-z
1/2-x,1/2-y,-z
1/2+x,1/2-y,z
loop_
_atom_site_type_symbol
_atom_site_label
_atom_site_fract_x
_atom_site_fract_y
_atom_site_fract_z
Si Si1 0.808557 0.334911 0.838511
Si Si2 0.991844 0.669536 0.239894
Si Si3 0.121277 0.833860 0.823714
Si Si4 0.003673 0.837311 0.941425
Si Si5 0.253305 0.167345 0.444659
Si Si6 0.547326 0.831402 0.633493
Si Si7 0.297431 0.663750 0.944396
Si Si8 0.442914 0.668236 0.562265
O O1 0.815307 0.500000 0.856726
O O2 0.906490 0.280756 0.797767
O O3 0.732254 0.319653 0.806335
O O4 0.773538 0.238062 0.893475
O O5 0.978254 0.500000 0.236358
O O6 0.913106 0.745697 0.220244
O O7 0.979018 0.719078 0.302698
O O8 0.076722 0.768058 0.886526
O O9 0.090379 0.000000 0.822913
O O10 0.906446 0.829938 0.930902
O O11 0.037174 0.000000 0.946097
O O12 0.000000 0.757837 0.000000
O O13 0.250000 0.250000 0.500000
O O14 0.345853 0.211104 0.395966
O O15 0.164905 0.207650 0.425261
O O16 0.251300 0.000000 0.459345
O O17 0.479179 0.751569 0.606404
O O18 0.531468 0.000000 0.628510
O O19 0.260916 0.500000 0.951069
O O20 0.250000 0.750000 0.000000
O O21 0.500000 0.719281 0.500000
O O22 0.458127 0.500000 0.569426
#
# Coordination Sequence:
#
# PCOD8099593 Si02
#       8
#     8   8   8   8   8   8   8   8
#     4  10  21  38  60  82 112 150 188 233 285 335
#     4  10  22  40  58  82 118 152 187 237 285 329
#     4  10  20  37  60  83 108 149 195 230 277 339
#     4   9  17  31  52  78 108 140 179 225 272 328
#     4  10  20  35  56  82 114 150 188 230 283 337
#     4  10  22  38  57  83 116 154 191 228 282 344
#     4  11  21  34  55  83 115 148 186 231 284 342
#     4  10  20  35  56  84 116 148 189 239 284 328
#
# _framework density 18.916105999999999
#
# number of rings (size 3 to 8) (size 9 to 14) (size 15 to 20)
#    0.000    2.000    2.500    1.125    0.000    4.750 
#    0.000    0.000    0.000    1.875    0.000    0.000 
#    0.000    0.000    0.000    0.000    0.000    0.000 
#
# Total GULP energy -396837.058807 kJ/mol
# GULP energy per Si atom -12401.158088 kJ/mol
# Density = 1.887305 g / cm^3
# Si number density = 18.916106 Si / 1000 Ang^3
#
#
#
# Elastic Constant Matrix: (Units=GPa)
#
#
# Indices 1 2 3 4 5 6 
#
# 1 119.4580 43.1922 58.1041 0.0000 8.5739 0.0000
# 2 43.1922 59.3714 53.8588 0.0000 5.0774 0.0000
# 3 58.1041 53.8588 145.5820 0.0000 11.5089 0.0000
# 4 0.0000 0.0000 0.0000 30.7249 0.0000 7.8816
# 5 8.5739 5.0774 11.5089 0.0000 32.3117 0.0000
# 6 0.0000 0.0000 0.0000 7.8816 0.0000 28.2622
#
#
#
# Elastic Compliance Matrix: (Units=1/GPa)
#
#
# Indices 1 2 3 4 5 6 
#
# 1 0.011914 -0.006525 -0.002235 0.000000 -0.001340 0.000000
# 2 -0.006525 0.028938 -0.008107 0.000000 0.000072 0.000000
# 3 -0.002235 -0.008107 0.010920 0.000000 -0.002023 0.000000
# 4 0.000000 0.000000 0.000000 0.035055 0.000000 -0.009776
# 5 -0.001340 0.000072 -0.002023 0.000000 0.032013 0.000000
# 6 0.000000 0.000000 0.000000 -0.009776 0.000000 0.038109
#
#
# Mechanical properties :
#
#
# Convention : Reuss Voigt Hill
#
# Bulk Modulus (GPa) = 55.43981 70.52462 62.98222
# Shear Modulus (GPa) = 25.41984 29.54352 27.48168
#
# Velocity S-wave (km/s) = 3.66979 3.95627 3.81572
# Velocity P-wave (km/s) = 6.87956 7.63107 7.26504
#
# Compressibility (1/GPa) = 0.01803758
#
# Stress axis : x y z
#
# Youngs Moduli (GPa) = 83.93722 34.55610 91.57271
#
# Poissons Ratio (x) = 0.22548 0.20467
# Poissons Ratio (y) = 0.54769 0.74241
# Poissons Ratio (z) = 0.18761 0.28016
#
# Static dielectric constant tensor:
#      x y z
#    x 3.722730 0.000000 -0.098350 
#    y 0.000000 3.298120 0.000000 
#    z -0.098350 0.000000 3.502720 
# 
# 
# High freq. dielectric constant tensor:
#      x y z
#    x 1.747670 0.000000 -0.001950 
#    y 0.000000 1.715410 0.000000 
#    z -0.001950 0.000000 1.733240 
# 
# From -- ./inp_files/359799.got.cif
#   From: 2010.06.25/outbox.cif.g09.slc.cpg/sg12_180_cif.got.tgz:359799.got - 2010.06.28 00:19:55.
