data_PCOD8099746
_publ_section_title
;
Structure prediction by ZEFSAII (Michael W. Deem and Ramdas Pophale) SiO2 
 PCOD8099746
Probable space group: C 2/M
;
_chemical_formula_sum "Si O2"
_cell_formula_units_Z 64
_cell_length_a 17.189480
_cell_length_b 14.109771
_cell_length_c 25.580802
_cell_angle_alpha 90.000000
_cell_angle_beta 150.116680
_cell_angle_gamma 90.000000
_cell_volume 3091.230540
_symmetry_space_group_name_H-M "C 2/M"
_symmetry_group_IT_number 12
_symmetry_cell_setting 'monoclinic'
loop_
_space_group_symop_operation_xyz
x,y,z
-x,y,-z
-x,-y,-z
x,-y,z
1/2+x,1/2+y,z
1/2-x,1/2+y,-z
1/2-x,1/2-y,-z
1/2+x,1/2-y,z
loop_
_atom_site_type_symbol
_atom_site_label
_atom_site_fract_x
_atom_site_fract_y
_atom_site_fract_z
Si Si1 0.546218 0.111262 0.152846
Si Si2 0.725579 0.284091 0.783865
Si Si3 0.033203 0.612486 0.776911
Si Si4 0.917412 0.109474 0.728732
Si Si5 0.621087 0.607584 0.030273
Si Si6 0.110984 0.759566 0.378951
Si Si7 0.150505 0.106893 0.196435
Si Si8 0.226785 0.611112 0.084576
O O1 0.703807 0.159759 0.224158
O O2 0.522913 0.145111 0.198685
O O3 0.568796 0.000000 0.163235
O O4 0.397843 0.143113 0.031673
O O5 0.539739 0.300175 0.678246
O O6 0.755807 0.172215 0.790225
O O7 0.805998 0.325032 0.883283
O O8 0.027409 0.500000 0.767920
O O9 0.208724 0.656340 0.872532
O O10 0.926031 0.658864 0.670002
O O11 0.101577 0.132272 0.837869
O O12 0.835626 0.167151 0.634659
O O13 0.835349 0.139702 0.735318
O O14 0.887139 0.000000 0.699949
O O15 0.649932 0.500000 0.065886
O O16 0.500000 0.657831 0.000000
O O17 0.536203 0.610332 0.924487
O O18 0.250000 0.750000 0.500000
O O19 0.214559 0.000000 0.225967
O O20 0.207443 0.500000 0.088021
#
# Coordination Sequence:
#
# PCOD8099746 Si02
#       8
#     8   8   8   8   8   8   8   8
#     4  10  20  36  59  88 121 150 178 221 279 342
#     4  11  22  35  56  84 114 150 189 228 277 334
#     4  10  21  38  60  86 116 149 185 228 281 338
#     4   9  19  38  61  83 110 148 190 227 269 327
#     4   9  17  30  51  82 120 155 182 212 258 323
#     4  11  25  43  60  78 104 143 193 247 291 328
#     4  10  20  35  56  85 121 152 179 217 267 331
#     4   9  18  34  57  86 119 152 184 218 263 328
#
# _framework density 20.703728999999999
#
# number of rings (size 3 to 8) (size 9 to 14) (size 15 to 20)
#    0.000    2.125    0.000    3.000    0.000   10.500 
#    0.000    6.875    0.000    3.000    0.000    0.000 
#    0.000    0.000    0.000    0.000    0.000    0.000 
#
# Total GULP energy -396734.698001 kJ/mol
# GULP energy per Si atom -12397.959313 kJ/mol
# Density = 2.065661 g / cm^3
# Si number density = 20.703729 Si / 1000 Ang^3
#
#
#
# Elastic Constant Matrix: (Units=GPa)
#
#
# Indices 1 2 3 4 5 6 
#
# 1 122.2743 42.5263 55.6613 -0.0002 -20.9522 0.0001
# 2 42.5263 59.2043 29.1041 -0.0009 -10.9726 -0.0002
# 3 55.6613 29.1041 132.2005 -0.0033 -16.5943 -0.0006
# 4 -0.0002 -0.0009 -0.0033 26.4518 -0.0004 -6.3932
# 5 -20.9522 -10.9726 -16.5943 -0.0004 21.7318 0.0001
# 6 0.0001 -0.0002 -0.0006 -6.3932 0.0001 37.9461
#
#
#
# Elastic Compliance Matrix: (Units=1/GPa)
#
#
# Indices 1 2 3 4 5 6 
#
# 1 0.013096 -0.006557 -0.003209 0.000000 0.006865 0.000000
# 2 -0.006557 0.023255 -0.001856 0.000001 0.004002 0.000000
# 3 -0.003209 -0.001856 0.009753 0.000001 0.003416 0.000000
# 4 0.000000 0.000001 0.000001 0.039409 0.000002 0.006640
# 5 0.006865 0.004002 0.003416 0.000002 0.057264 0.000000
# 6 0.000000 0.000000 0.000000 0.006640 0.000000 0.027472
#
#
# Mechanical properties :
#
#
# Convention : Reuss Voigt Hill
#
# Bulk Modulus (GPa) = 43.74569 63.14030 53.44299
# Shear Modulus (GPa) = 24.86171 29.65178 27.25674
#
# Velocity S-wave (km/s) = 3.46906 3.78854 3.63232
# Velocity P-wave (km/s) = 6.10091 7.04987 6.59249
#
# Compressibility (1/GPa) = 0.02285940
#
# Stress axis : x y z
#
# Youngs Moduli (GPa) = 76.36034 43.00161 102.53560
#
# Poissons Ratio (x) = 0.28196 0.32899
# Poissons Ratio (y) = 0.50070 0.19035
# Poissons Ratio (z) = 0.24500 0.07983
#
# Static dielectric constant tensor:
#      x y z
#    x 3.961950 0.000000 -0.118980 
#    y 0.000000 3.862640 0.000000 
#    z -0.118980 0.000000 3.287200 
# 
# 
# High freq. dielectric constant tensor:
#      x y z
#    x 1.822170 0.000000 -0.016070 
#    y 0.000000 1.823710 0.000000 
#    z -0.016070 0.000000 1.756090 
# 
# From -- ./inp_files/344113.got.cif
#   From: 2010.06.25/outbox.cif.g09.slc.cpg/sg12_173_cif.got.tgz:344113.got - 2010.06.28 00:19:55.
