data_PCOD8099767
_publ_section_title
;
Structure prediction by ZEFSAII (Michael W. Deem and Ramdas Pophale) SiO2 
 PCOD8099767
Probable space group: C 2/M
;
_chemical_formula_sum "Si O2"
_cell_formula_units_Z 64
_cell_length_a 14.711409
_cell_length_b 14.215852
_cell_length_c 17.665096
_cell_angle_alpha 90.000000
_cell_angle_beta 118.414589
_cell_angle_gamma 90.000000
_cell_volume 3249.320552
_symmetry_space_group_name_H-M "C 2/M"
_symmetry_group_IT_number 12
_symmetry_cell_setting 'monoclinic'
loop_
_space_group_symop_operation_xyz
x,y,z
-x,y,-z
-x,-y,-z
x,-y,z
1/2+x,1/2+y,z
1/2-x,1/2+y,-z
1/2-x,1/2-y,-z
1/2+x,1/2-y,z
loop_
_atom_site_type_symbol
_atom_site_label
_atom_site_fract_x
_atom_site_fract_y
_atom_site_fract_z
Si Si1 0.621985 0.394055 0.557258
Si Si2 0.660881 0.391022 0.197032
Si Si3 0.210140 0.104878 0.046168
Si Si4 0.324362 0.205388 0.363474
Si Si5 0.006378 0.607977 0.667028
Si Si6 0.446965 0.105529 0.143864
Si Si7 0.972540 0.790221 0.075579
Si Si8 0.205089 0.606014 0.492277
O O1 0.500000 0.376457 0.500000
O O2 0.642846 0.500000 0.595950
O O3 0.666131 0.318975 0.635118
O O4 0.682732 0.379630 0.501732
O O5 0.673241 0.500000 0.223920
O O6 0.705060 0.367042 0.132128
O O7 0.723168 0.327465 0.280124
O O8 0.541305 0.360188 0.154043
O O9 0.328857 0.106226 0.070757
O O10 0.163254 0.000000 0.017342
O O11 0.147234 0.176335 0.966066
O O12 0.428646 0.164576 0.369030
O O13 0.312125 0.176888 0.446020
O O14 0.038683 0.500000 0.669653
O O15 0.884616 0.624723 0.605579
O O16 0.036430 0.639624 0.763556
O O17 0.498032 0.183333 0.110020
O O18 0.493603 0.000000 0.150179
O O19 0.000000 0.805434 0.000000
O O20 0.195249 0.500000 0.520110
#
# Coordination Sequence:
#
# PCOD8099767 Si02
#       8
#     8   8   8   8   8   8   8   8
#     4  10  23  42  58  78 115 161 203 234 275 340
#     4  10  20  35  56  87 117 142 181 242 301 343
#     4   9  17  35  59  81 109 145 186 236 297 351
#     4  12  21  35  61  87 116 149 196 244 292 339
#     4  10  20  35  57  88 119 145 186 245 302 342
#     4  10  20  35  57  83 115 152 188 237 292 346
#     4  10  21  35  55  82 112 152 195 232 285 356
#     4  10  21  36  59  87 114 150 194 238 285 341
#
# _framework density 19.696425999999999
#
# number of rings (size 3 to 8) (size 9 to 14) (size 15 to 20)
#    0.000    1.875    1.250    3.375    1.750    2.750 
#    0.000    0.000    0.000    1.500    0.000    0.000 
#    0.000    0.000    0.000    0.000    0.000    0.000 
#
# Total GULP energy -396706.478044 kJ/mol
# GULP energy per Si atom -12397.077439 kJ/mol
# Density = 1.965160 g / cm^3
# Si number density = 19.696426 Si / 1000 Ang^3
#
#
#
# Elastic Constant Matrix: (Units=GPa)
#
#
# Indices 1 2 3 4 5 6 
#
# 1 62.3494 16.5574 34.1768 0.0000 19.8811 0.0000
# 2 16.5574 124.9311 62.7328 0.0000 7.9640 0.0000
# 3 34.1768 62.7328 90.3485 0.0000 17.8677 0.0000
# 4 0.0000 0.0000 0.0000 34.3458 0.0000 -1.3532
# 5 19.8811 7.9640 17.8677 0.0000 18.3005 0.0000
# 6 0.0000 0.0000 0.0000 -1.3532 0.0000 12.9999
#
#
#
# Elastic Compliance Matrix: (Units=1/GPa)
#
#
# Indices 1 2 3 4 5 6 
#
# 1 0.026574 0.001071 -0.006190 0.000000 -0.023292 0.000000
# 2 0.001071 0.012537 -0.009668 0.000000 0.002820 0.000000
# 3 -0.006190 -0.009668 0.022259 0.000000 -0.010800 0.000000
# 4 0.000000 0.000000 0.000000 0.029236 0.000000 0.003043
# 5 -0.023292 0.002820 -0.010800 0.000000 0.089265 0.000000
# 6 0.000000 0.000000 0.000000 0.003043 0.000000 0.077241
#
#
# Mechanical properties :
#
#
# Convention : Reuss Voigt Hill
#
# Bulk Modulus (GPa) = 31.44988 56.06255 43.75621
# Shear Modulus (GPa) = 16.81894 24.07338 20.44616
#
# Velocity S-wave (km/s) = 2.92534 3.49982 3.22540
# Velocity P-wave (km/s) = 5.23566 6.69752 6.01119
#
# Compressibility (1/GPa) = 0.03179663
#
# Stress axis : x y z
#
# Youngs Moduli (GPa) = 37.63046 79.76124 44.92657
#
# Poissons Ratio (x) = -0.08542 0.27808
# Poissons Ratio (y) = -0.04030 0.43435
# Poissons Ratio (z) = 0.23292 0.77114
#
# Static dielectric constant tensor:
#      x y z
#    x 3.507340 0.000000 0.240950 
#    y 0.000000 3.781980 0.000000 
#    z 0.240950 0.000000 3.534740 
# 
# 
# High freq. dielectric constant tensor:
#      x y z
#    x 1.754250 0.000000 0.021350 
#    y 0.000000 1.776520 0.000000 
#    z 0.021350 0.000000 1.754630 
# 
# From -- ./inp_files/270309.got.cif
#   From: 2010.06.25/outbox.cif.g09.slc.cpg/sg12_136_cif.got.tgz:270309.got - 2010.06.28 00:19:55.
