data_PCOD8099292
_publ_section_title
;
Structure prediction by ZEFSAII (Michael W. Deem and Ramdas Pophale) SiO2 
 PCOD8099292
Probable space group: C 2/M
;
_chemical_formula_sum "Si O2"
_cell_formula_units_Z 64
_cell_length_a 30.098138
_cell_length_b 9.228409
_cell_length_c 16.250794
_cell_angle_alpha 90.000000
_cell_angle_beta 131.333801
_cell_angle_gamma 90.000000
_cell_volume 3389.288096
_symmetry_space_group_name_H-M "C 2/M"
_symmetry_group_IT_number 12
_symmetry_cell_setting 'monoclinic'
loop_
_space_group_symop_operation_xyz
x,y,z
-x,y,-z
-x,-y,-z
x,-y,z
1/2+x,1/2+y,z
1/2-x,1/2+y,-z
1/2-x,1/2-y,-z
1/2+x,1/2-y,z
loop_
_atom_site_type_symbol
_atom_site_label
_atom_site_fract_x
_atom_site_fract_y
_atom_site_fract_z
Si Si1 0.782773 0.665688 0.258991
Si Si2 0.851792 0.831553 0.883927
Si Si3 0.520217 0.162561 0.254782
Si Si4 0.201627 0.169686 0.887472
Si Si5 0.397217 0.828108 0.794869
Si Si6 0.809771 0.169357 0.581870
Si Si7 0.365240 0.162215 0.512779
Si Si8 0.901636 0.166387 0.119787
O O1 0.780070 0.500000 0.223663
O O2 0.718078 0.704742 0.218172
O O3 0.798712 0.772368 0.205173
O O4 0.837651 0.685017 0.389225
O O5 0.900080 0.735656 0.891020
O O6 0.864605 0.000000 0.881526
O O7 0.864789 0.788118 0.993985
O O8 0.550654 0.214154 0.205316
O O9 0.563590 0.170752 0.388121
O O10 0.463573 0.255305 0.205320
O O11 0.498462 0.000000 0.214277
O O12 0.137626 0.201561 0.848483
O O13 0.216254 0.000000 0.905558
O O14 0.250000 0.250000 0.000000
O O15 0.338943 0.743235 0.695966
O O16 0.388116 0.000000 0.785527
O O17 0.750000 0.250000 0.500000
O O18 0.844634 0.202807 0.541586
O O19 0.802552 0.000000 0.588565
O O20 0.345755 0.000000 0.521042
O O21 0.918208 0.000000 0.134526
#
# Coordination Sequence:
#
# PCOD8099292 Si02
#       8
#     8   8   8   8   8   8   8   8
#     4  10  20  37  60  86 117 148 182 233 289 338
#     4  10  20  35  55  83 116 148 189 234 286 344
#     4   9  20  38  57  80 112 152 196 235 275 330
#     4  11  22  39  61  87 116 145 183 230 285 345
#     4  10  21  36  53  79 113 148 192 237 280 333
#     4  11  20  31  50  76 108 148 192 233 281 334
#     4   9  19  36  57  81 112 149 188 233 282 333
#     4  10  22  39  58  82 112 148 190 233 282 344
#
# _framework density 18.883020999999999
#
# number of rings (size 3 to 8) (size 9 to 14) (size 15 to 20)
#    0.000    2.000    1.250    3.375    0.000    6.500 
#    0.000    3.125    0.000    3.750    0.000    0.000 
#    0.000    0.000    0.000    0.000    0.000    0.000 
#
# Total GULP energy -396497.243227 kJ/mol
# GULP energy per Si atom -12390.538851 kJ/mol
# Density = 1.884004 g / cm^3
# Si number density = 18.883021 Si / 1000 Ang^3
#
#
#
# Elastic Constant Matrix: (Units=GPa)
#
#
# Indices 1 2 3 4 5 6 
#
# 1 98.4647 51.7174 45.5151 0.0000 3.4818 0.0000
# 2 51.7174 87.5398 38.2728 0.0000 2.4557 0.0000
# 3 45.5151 38.2728 84.5253 0.0000 3.9394 0.0000
# 4 0.0000 0.0000 0.0000 32.8037 0.0000 -0.6012
# 5 3.4818 2.4557 3.9394 0.0000 29.6852 0.0000
# 6 0.0000 0.0000 0.0000 -0.6012 0.0000 37.0774
#
#
#
# Elastic Compliance Matrix: (Units=1/GPa)
#
#
# Indices 1 2 3 4 5 6 
#
# 1 0.016630 -0.007362 -0.005593 0.000000 -0.000599 0.000000
# 2 -0.007362 0.017506 -0.003959 0.000000 -0.000059 0.000000
# 3 -0.005593 -0.003959 0.016693 0.000000 -0.001232 0.000000
# 4 0.000000 0.000000 0.000000 0.030493 0.000000 0.000494
# 5 -0.000599 -0.000059 -0.001232 0.000000 0.033925 0.000000
# 6 0.000000 0.000000 0.000000 0.000494 0.000000 0.026979
#
#
# Mechanical properties :
#
#
# Convention : Reuss Voigt Hill
#
# Bulk Modulus (GPa) = 58.82895 60.17115 59.50005
# Shear Modulus (GPa) = 27.51473 28.91489 28.21481
#
# Velocity S-wave (km/s) = 3.82136 3.91738 3.86967
# Velocity P-wave (km/s) = 7.11986 7.23848 7.17941
#
# Compressibility (1/GPa) = 0.01699843
#
# Stress axis : x y z
#
# Youngs Moduli (GPa) = 60.13410 57.12450 59.90653
#
# Poissons Ratio (x) = 0.42057 0.33506
# Poissons Ratio (y) = 0.44273 0.23718
# Poissons Ratio (z) = 0.33633 0.22617
#
# Static dielectric constant tensor:
#      x y z
#    x 3.346410 0.000000 -0.085560 
#    y 0.000000 4.647670 0.000000 
#    z -0.085560 0.000000 3.553910 
# 
# 
# High freq. dielectric constant tensor:
#      x y z
#    x 1.719760 0.000000 0.000710 
#    y 0.000000 1.736290 0.000000 
#    z 0.000710 0.000000 1.734870 
# 
# From -- ./inp_files/249929.got.cif
#   From: 2010.06.25/outbox.cif.g09.slc.cpg/sg12_125_cif.got.tgz:249929.got - 2010.06.28 00:19:55.
