data_PCOD8099344
_publ_section_title
;
Structure prediction by ZEFSAII (Michael W. Deem and Ramdas Pophale) SiO2 
 PCOD8099344
Probable space group: C 2/M
;
_chemical_formula_sum "Si O2"
_cell_formula_units_Z 48
_cell_length_a 19.380347
_cell_length_b 18.466508
_cell_length_c 17.650415
_cell_angle_alpha 90.000000
_cell_angle_beta 156.109386
_cell_angle_gamma 90.000000
_cell_volume 2558.276553
_symmetry_space_group_name_H-M "C 2/M"
_symmetry_group_IT_number 12
_symmetry_cell_setting 'monoclinic'
loop_
_space_group_symop_operation_xyz
x,y,z
-x,y,-z
-x,-y,-z
x,-y,z
1/2+x,1/2+y,z
1/2-x,1/2+y,-z
1/2-x,1/2-y,-z
1/2+x,1/2-y,z
loop_
_atom_site_type_symbol
_atom_site_label
_atom_site_fract_x
_atom_site_fract_y
_atom_site_fract_z
Si Si1 0.592030 0.177569 0.513067
Si Si2 0.935242 0.585385 0.854157
Si Si3 0.848301 0.416733 0.187866
Si Si4 0.737598 0.584405 0.911874
Si Si5 0.568616 0.653738 0.485161
Si Si6 0.806252 0.922293 0.809597
O O1 0.500000 0.159049 0.500000
O O2 0.509441 0.137116 0.357943
O O3 0.603709 0.261795 0.508384
O O4 0.771732 0.139040 0.710995
O O5 0.912519 0.500000 0.832257
O O6 0.748870 0.616547 0.647848
O O7 0.000000 0.614701 0.000000
O O8 0.080285 0.609589 0.940033
O O9 0.910849 0.500000 0.247387
O O10 0.730698 0.398344 0.141272
O O11 0.743857 0.398550 0.007151
O O12 0.707167 0.500000 0.862925
O O13 0.577676 0.628517 0.719053
O O14 0.500000 0.635381 0.500000
O O15 0.711546 0.000000 0.697397
O O16 0.000000 0.938715 0.000000
#
# Coordination Sequence:
#
# PCOD8099344 Si02
#       6
#     8   8   8   8   8   8
#     4   9  19  34  53  79 106 142 177 212 266 324
#     4  10  20  35  56  79 103 141 188 227 265 312
#     4   9  18  36  57  78 107 140 175 220 270 315
#     4  10  21  37  57  80 108 142 181 226 270 314
#     4  11  21  35  55  81 110 142 181 222 268 319
#     4   9  17  33  58  84 106 136 179 221 262 317
#
# _framework density 18.762630999999999
#
# number of rings (size 3 to 8) (size 9 to 14) (size 15 to 20)
#    0.000    2.333    1.667    1.000    0.000    4.000 
#    6.000    0.833    0.000    0.000    0.000    0.000 
#    0.000    0.000    0.000    0.000    0.000    0.000 
#
# Total GULP energy -297387.513740 kJ/mol
# GULP energy per Si atom -12391.146406 kJ/mol
# Density = 1.871993 g / cm^3
# Si number density = 18.762631 Si / 1000 Ang^3
#
#
#
# Elastic Constant Matrix: (Units=GPa)
#
#
# Indices 1 2 3 4 5 6 
#
# 1 68.0985 39.6257 57.9538 -0.0168 -7.3265 -0.0022
# 2 39.6257 94.9513 69.8072 -0.0280 -10.4999 -0.0111
# 3 57.9538 69.8072 148.1750 -0.0290 -6.1272 -0.0117
# 4 -0.0168 -0.0280 -0.0290 4.8710 -0.0230 -7.8911
# 5 -7.3265 -10.4999 -6.1272 -0.0230 32.2486 -0.0070
# 6 -0.0022 -0.0111 -0.0117 -7.8911 -0.0070 16.5109
#
#
#
# Elastic Compliance Matrix: (Units=1/GPa)
#
#
# Indices 1 2 3 4 5 6 
#
# 1 0.023469 -0.004343 -0.007026 0.000092 0.002583 0.000040
# 2 -0.004343 0.017401 -0.006355 0.000339 0.003472 0.000170
# 3 -0.007026 -0.006355 0.012437 0.000053 -0.001302 0.000028
# 4 0.000092 0.000339 0.000053 0.909420 0.000885 0.434639
# 5 0.002583 0.003472 -0.001302 0.000885 0.032479 0.000438
# 6 0.000040 0.000170 0.000028 0.434639 0.000438 0.268293
#
#
# Mechanical properties :
#
#
# Convention : Reuss Voigt Hill
#
# Bulk Modulus (GPa) = 55.99870 71.77759 63.88814
# Shear Modulus (GPa) = 3.83171 20.31532 12.07352
#
# Velocity S-wave (km/s) = 1.43061 3.29409 2.53946
# Velocity P-wave (km/s) = 5.71310 7.26682 6.53629
#
# Compressibility (1/GPa) = 0.01785756
#
# Stress axis : x y z
#
# Youngs Moduli (GPa) = 42.60884 57.46935 80.40400
#
# Poissons Ratio (x) = 0.24959 0.56495
# Poissons Ratio (y) = 0.18505 0.51100
# Poissons Ratio (z) = 0.29939 0.36524
#
# Static dielectric constant tensor:
#      x y z
#    x 3.320570 0.000000 -0.058870 
#    y 0.000000 3.408560 0.000000 
#    z -0.058870 0.000000 3.474430 
# 
# 
# High freq. dielectric constant tensor:
#      x y z
#    x 1.708800 0.000000 -0.004790 
#    y 0.000000 1.725920 0.000000 
#    z -0.004790 0.000000 1.732830 
# 
# From -- ./inp_files/75113.got.cif
#   From: 2010.06.25/outbox.cif.g09.slc.cpg/sg12_38_cif.got.tgz:75113.got - 2010.06.28 00:19:55.
