data_PCOD8099886
_publ_section_title
;
Structure prediction by ZEFSAII (Michael W. Deem and Ramdas Pophale) SiO2 
 PCOD8099886
Probable space group: C 2/M
;
_chemical_formula_sum "Si O2"
_cell_formula_units_Z 56
_cell_length_a 21.999630
_cell_length_b 9.150160
_cell_length_c 14.682335
_cell_angle_alpha 90.000000
_cell_angle_beta 108.467539
_cell_angle_gamma 90.000000
_cell_volume 2803.354547
_symmetry_space_group_name_H-M "C 2/M"
_symmetry_group_IT_number 12
_symmetry_cell_setting 'monoclinic'
loop_
_space_group_symop_operation_xyz
x,y,z
-x,y,-z
-x,-y,-z
x,-y,z
1/2+x,1/2+y,z
1/2-x,1/2+y,-z
1/2-x,1/2-y,-z
1/2+x,1/2-y,z
loop_
_atom_site_type_symbol
_atom_site_label
_atom_site_fract_x
_atom_site_fract_y
_atom_site_fract_z
Si Si1 0.876566 0.669440 0.848676
Si Si2 0.765583 0.172713 0.242030
Si Si3 0.196322 0.827420 0.536963
Si Si4 0.929193 0.660678 0.055743
Si Si5 0.951848 0.172928 0.557943
Si Si6 0.795434 0.661514 0.087454
Si Si7 0.976623 0.330084 0.752538
O O1 0.869659 0.500000 0.871358
O O2 0.805796 0.736332 0.809426
O O3 0.906368 0.689971 0.762893
O O4 0.920266 0.738527 0.951822
O O5 0.788590 0.216831 0.352681
O O6 0.809113 0.253666 0.188367
O O7 0.770319 0.000000 0.229916
O O8 0.250000 0.750000 0.500000
O O9 0.122531 0.774486 0.486437
O O10 0.202749 0.000000 0.523447
O O11 0.960707 0.500000 0.056887
O O12 0.860943 0.645178 0.067361
O O13 0.975385 0.742046 0.149640
O O14 0.981916 0.240940 0.662674
O O15 0.000000 0.224210 0.500000
O O16 0.953343 0.000000 0.566471
O O17 0.766789 0.500000 0.093132
O O18 0.750000 0.750000 0.000000
O O19 0.992254 0.500000 0.739304
#
# Coordination Sequence:
#
# PCOD8099886 Si02
#       7
#     8   8   8   8   8   8   8
#     4   9  16  31  55  83 113 140 173 225 280 329
#     4  10  20  35  57  83 111 146 188 230 281 341
#     4  10  22  40  63  89 117 153 198 247 297 351
#     4   9  18  32  53  83 114 142 180 229 275 324
#     4  10  23  42  59  81 119 159 191 235 300 357
#     4  11  21  35  54  80 114 150 186 230 280 335
#     4  10  20  35  60  86 107 143 193 236 276 328
#
# _framework density 19.976065999999999
#
# number of rings (size 3 to 8) (size 9 to 14) (size 15 to 20)
#    0.000    2.143    1.429    1.714    2.000    4.286 
#    0.000    1.429    0.000    0.857    0.000    0.000 
#    0.000    0.000    0.000    0.000    0.000    0.000 
#
# Total GULP energy -346971.054841 kJ/mol
# GULP energy per Si atom -12391.823387 kJ/mol
# Density = 1.993060 g / cm^3
# Si number density = 19.976066 Si / 1000 Ang^3
#
#
#
# Elastic Constant Matrix: (Units=GPa)
#
#
# Indices 1 2 3 4 5 6 
#
# 1 92.9822 23.2326 46.4111 0.0000 -9.4723 0.0000
# 2 23.2326 38.6688 33.8342 0.0000 -9.0301 0.0000
# 3 46.4111 33.8342 152.0804 0.0000 -12.9304 0.0000
# 4 0.0000 0.0000 0.0000 25.2652 0.0000 -3.2697
# 5 -9.4723 -9.0301 -12.9304 0.0000 40.3842 0.0000
# 6 0.0000 0.0000 0.0000 -3.2697 0.0000 21.8206
#
#
#
# Elastic Compliance Matrix: (Units=1/GPa)
#
#
# Indices 1 2 3 4 5 6 
#
# 1 0.013654 -0.005448 -0.002864 0.000000 0.001067 0.000000
# 2 -0.005448 0.035311 -0.005788 0.000000 0.004765 0.000000
# 3 -0.002864 -0.005788 0.008810 0.000000 0.000855 0.000000
# 4 0.000000 0.000000 0.000000 0.040363 0.000000 0.006048
# 5 0.001067 0.004765 0.000855 0.000000 0.026352 0.000000
# 6 0.000000 0.000000 0.000000 0.006048 0.000000 0.046735
#
#
# Mechanical properties :
#
#
# Convention : Reuss Voigt Hill
#
# Bulk Modulus (GPa) = 33.81315 54.52078 44.16696
# Shear Modulus (GPa) = 23.89103 29.51091 26.70097
#
# Velocity S-wave (km/s) = 3.46205 3.84775 3.65999
# Velocity P-wave (km/s) = 5.73974 6.86240 6.32603
#
# Compressibility (1/GPa) = 0.02957429
#
# Stress axis : x y z
#
# Youngs Moduli (GPa) = 73.23646 28.31970 113.50885
#
# Poissons Ratio (x) = 0.15430 0.32510
# Poissons Ratio (y) = 0.39902 0.65699
# Poissons Ratio (z) = 0.20976 0.16392
#
# Static dielectric constant tensor:
#      x y z
#    x 3.191980 0.000000 -0.064150 
#    y 0.000000 3.233110 0.000000 
#    z -0.064150 0.000000 3.836820 
# 
# 
# High freq. dielectric constant tensor:
#      x y z
#    x 1.791390 0.000000 -0.003070 
#    y 0.000000 1.731470 0.000000 
#    z -0.003070 0.000000 1.796560 
# 
# From -- ./inp_files/237495.got.cif
#   From: 2010.06.25/outbox.cif.g09.slc.cpg/sg12_119_cif.got.tgz:237495.got - 2010.06.28 00:19:55.
