data_PCOD8099791
_publ_section_title
;
Structure prediction by ZEFSAII (Michael W. Deem and Ramdas Pophale) SiO2 
 PCOD8099791
Probable space group: C 2/M
;
_chemical_formula_sum "Si O2"
_cell_formula_units_Z 56
_cell_length_a 15.330343
_cell_length_b 9.089070
_cell_length_c 22.545410
_cell_angle_alpha 90.000000
_cell_angle_beta 69.826421
_cell_angle_gamma 90.000000
_cell_volume 2948.724088
_symmetry_space_group_name_H-M "C 2/M"
_symmetry_group_IT_number 12
_symmetry_cell_setting 'monoclinic'
loop_
_space_group_symop_operation_xyz
x,y,z
-x,y,-z
-x,-y,-z
x,-y,z
1/2+x,1/2+y,z
1/2-x,1/2+y,-z
1/2-x,1/2-y,-z
1/2+x,1/2-y,z
loop_
_atom_site_type_symbol
_atom_site_label
_atom_site_fract_x
_atom_site_fract_y
_atom_site_fract_z
Si Si1 0.400831 0.824864 0.503494
Si Si2 0.629406 0.325581 0.921089
Si Si3 0.609659 0.171493 0.282017
Si Si4 0.765597 0.673153 0.636648
Si Si5 0.097346 0.671608 0.630003
Si Si6 0.316368 0.324910 0.848635
Si Si7 0.073412 0.173895 0.063141
O O1 0.500000 0.759689 0.500000
O O2 0.323202 0.764464 0.566844
O O3 0.379423 0.771823 0.441832
O O4 0.405443 0.000000 0.505443
O O5 0.645480 0.500000 0.912377
O O6 0.713466 0.241791 0.870056
O O7 0.534566 0.276562 0.909964
O O8 0.622766 0.272696 0.991072
O O9 0.683665 0.216790 0.314609
O O10 0.508426 0.209547 0.330456
O O11 0.626278 0.271188 0.221137
O O12 0.618740 0.000000 0.263177
O O13 0.754439 0.500000 0.634385
O O14 0.664001 0.745516 0.660544
O O15 0.116489 0.500000 0.631553
O O16 0.310270 0.500000 0.850237
O O17 0.370499 0.263167 0.893890
O O18 0.075039 0.000000 0.063129
#
# Coordination Sequence:
#
# PCOD8099791 Si02
#       7
#     8   8   8   8   8   8   8
#     4   9  15  30  57  82 104 135 174 217 263 319
#     4   9  17  35  60  82 106 140 178 212 254 320
#     4  10  22  39  54  72 102 147 188 214 252 319
#     4  10  20  35  57  80 104 137 178 219 266 321
#     4  10  20  35  57  81 106 136 176 223 269 315
#     4  11  22  35  53  80 111 140 174 222 270 304
#     4   8  17  34  57  82 108 139 175 214 260 313
#
# _framework density 18.991264999999999
#
# number of rings (size 3 to 8) (size 9 to 14) (size 15 to 20)
#    0.000    2.429    1.429    2.143    0.000    2.286 
#    0.000    7.857    0.000    0.857    0.000    0.000 
#    0.000    0.000    0.000    0.000    0.000    0.000 
#
# Total GULP energy -347201.407377 kJ/mol
# GULP energy per Si atom -12400.050263 kJ/mol
# Density = 1.894804 g / cm^3
# Si number density = 18.991265 Si / 1000 Ang^3
#
#
#
# Elastic Constant Matrix: (Units=GPa)
#
#
# Indices 1 2 3 4 5 6 
#
# 1 113.2737 30.0816 22.1056 0.0000 6.5873 0.0000
# 2 30.0816 35.7797 26.5450 0.0000 0.8939 0.0000
# 3 22.1056 26.5450 74.0455 0.0000 9.3489 0.0000
# 4 0.0000 0.0000 0.0000 27.8903 0.0000 -0.6566
# 5 6.5873 0.8939 9.3489 0.0000 14.6743 0.0000
# 6 0.0000 0.0000 0.0000 -0.6566 0.0000 27.1815
#
#
#
# Elastic Compliance Matrix: (Units=1/GPa)
#
#
# Indices 1 2 3 4 5 6 
#
# 1 0.011712 -0.010365 0.000874 0.000000 -0.005183 0.000000
# 2 -0.010365 0.047910 -0.015551 0.000000 0.011642 0.000000
# 3 0.000874 -0.015551 0.020389 0.000000 -0.012435 0.000000
# 4 0.000000 0.000000 0.000000 0.035875 0.000000 0.000867
# 5 -0.005183 0.011642 -0.012435 0.000000 0.077685 0.000000
# 6 0.000000 0.000000 0.000000 0.000867 0.000000 0.036811
#
#
# Mechanical properties :
#
#
# Convention : Reuss Voigt Hill
#
# Bulk Modulus (GPa) = 33.41576 42.28481 37.85029
# Shear Modulus (GPa) = 17.21514 23.57368 20.39441
#
# Velocity S-wave (km/s) = 3.01404 3.52702 3.28057
# Velocity P-wave (km/s) = 5.45400 6.23700 5.85860
#
# Compressibility (1/GPa) = 0.02992600
#
# Stress axis : x y z
#
# Youngs Moduli (GPa) = 85.38457 20.87257 49.04551
#
# Poissons Ratio (x) = 0.21635 -0.04286
# Poissons Ratio (y) = 0.88505 0.76270
# Poissons Ratio (z) = -0.07462 0.32459
#
# Static dielectric constant tensor:
#      x y z
#    x 3.700350 0.000000 0.110520 
#    y 0.000000 3.053270 0.000000 
#    z 0.110520 0.000000 3.544550 
# 
# 
# High freq. dielectric constant tensor:
#      x y z
#    x 1.752830 0.000000 -0.001290 
#    y 0.000000 1.700970 0.000000 
#    z -0.001290 0.000000 1.738020 
# 
# From -- ./inp_files/338530.got.cif
#   From: 2010.06.25/outbox.cif.g09.slc.cpg/sg12_170_cif.got.tgz:338530.got - 2010.06.28 00:19:55.
