data_PCOD8099850
_publ_section_title
;
Structure prediction by ZEFSAII (Michael W. Deem and Ramdas Pophale) SiO2 
 PCOD8099850
Probable space group: C 2/M
;
_chemical_formula_sum "Si O2"
_cell_formula_units_Z 48
_cell_length_a 20.521941
_cell_length_b 18.700639
_cell_length_c 9.769372
_cell_angle_alpha 90.000000
_cell_angle_beta 40.724247
_cell_angle_gamma 90.000000
_cell_volume 2446.066437
_symmetry_space_group_name_H-M "C 2/M"
_symmetry_group_IT_number 12
_symmetry_cell_setting 'monoclinic'
loop_
_space_group_symop_operation_xyz
x,y,z
-x,y,-z
-x,-y,-z
x,-y,z
1/2+x,1/2+y,z
1/2-x,1/2+y,-z
1/2-x,1/2-y,-z
1/2+x,1/2-y,z
loop_
_atom_site_type_symbol
_atom_site_label
_atom_site_fract_x
_atom_site_fract_y
_atom_site_fract_z
Si Si1 0.399853 0.419234 0.607191
Si Si2 0.698652 0.648421 0.010059
Si Si3 0.385149 0.660143 0.143132
Si Si4 0.597471 0.206338 0.250225
Si Si5 0.403927 0.822353 0.064278
Si Si6 0.723250 0.585860 0.444438
O O1 0.500000 0.378906 0.500000
O O2 0.426499 0.500000 0.528966
O O3 0.359494 0.385307 0.531245
O O4 0.316485 0.416101 0.858872
O O5 0.642966 0.627660 0.959103
O O6 0.817512 0.659769 0.807274
O O7 0.642419 0.714788 0.171012
O O8 0.362631 0.744761 0.176383
O O9 0.307581 0.620707 0.364401
O O10 0.500000 0.643434 0.000000
O O11 0.500000 0.202917 0.500000
O O12 0.573864 0.177354 0.134352
O O13 0.327779 0.884446 0.224603
O O14 0.500000 0.841044 0.000000
O O15 0.729832 0.500000 0.444243
#
# Coordination Sequence:
#
# PCOD8099850 Si02
#       6
#     8   8   8   8   8   8
#     4  10  20  35  57  82 113 155 193 236 291 351
#     4  10  20  36  57  85 117 148 184 246 289 348
#     4  10  22  38  59  92 118 154 197 245 301 350
#     4  10  21  36  59  89 114 148 192 240 299 343
#     4  10  22  40  61  87 119 157 198 246 292 351
#     4  11  23  39  60  86 122 159 199 244 291 356
#
# _framework density 19.623343999999999
#
# number of rings (size 3 to 8) (size 9 to 14) (size 15 to 20)
#    0.000    1.833    1.667    2.000    2.333    4.000 
#    0.000    0.000    0.000    1.000    0.000    0.000 
#    0.000    0.000    0.000    0.000    0.000    0.000 
#
# Total GULP energy -297463.943928 kJ/mol
# GULP energy per Si atom -12394.330997 kJ/mol
# Density = 1.957868 g / cm^3
# Si number density = 19.623344 Si / 1000 Ang^3
#
#
#
# Elastic Constant Matrix: (Units=GPa)
#
#
# Indices 1 2 3 4 5 6 
#
# 1 133.3286 26.5265 44.7665 0.0000 5.6648 0.0000
# 2 26.5265 51.0054 40.1480 0.0000 2.5485 0.0000
# 3 44.7665 40.1480 136.8687 0.0000 -0.9862 0.0000
# 4 0.0000 0.0000 0.0000 26.9193 0.0000 -1.3866
# 5 5.6648 2.5485 -0.9862 0.0000 34.4935 0.0000
# 6 0.0000 0.0000 0.0000 -1.3866 0.0000 12.3188
#
#
#
# Elastic Compliance Matrix: (Units=1/GPa)
#
#
# Indices 1 2 3 4 5 6 
#
# 1 0.008820 -0.002918 -0.002038 0.000000 -0.001291 0.000000
# 2 -0.002918 0.026610 -0.006863 0.000000 -0.001683 0.000000
# 3 -0.002038 -0.006863 0.009994 0.000000 0.001128 0.000000
# 4 0.000000 0.000000 0.000000 0.037365 0.000000 0.004206
# 5 -0.001291 -0.001683 0.001128 0.000000 0.029360 0.000000
# 6 0.000000 0.000000 0.000000 0.004206 0.000000 0.081650
#
#
# Mechanical properties :
#
#
# Convention : Reuss Voigt Hill
#
# Bulk Modulus (GPa) = 45.90325 60.45387 53.17856
# Shear Modulus (GPa) = 22.25195 28.73042 25.49119
#
# Velocity S-wave (km/s) = 3.37108 3.83050 3.60811
# Velocity P-wave (km/s) = 6.21250 7.10195 6.67206
#
# Compressibility (1/GPa) = 0.02178495
#
# Stress axis : x y z
#
# Youngs Moduli (GPa) = 113.37796 37.58020 100.05812
#
# Poissons Ratio (x) = 0.10967 0.20393
# Poissons Ratio (y) = 0.33087 0.68671
# Poissons Ratio (z) = 0.23108 0.25792
#
# Static dielectric constant tensor:
#      x y z
#    x 4.078060 0.000000 -0.018990 
#    y 0.000000 3.346130 0.000000 
#    z -0.018990 0.000000 3.429660 
# 
# 
# High freq. dielectric constant tensor:
#      x y z
#    x 1.787290 0.000000 0.005310 
#    y 0.000000 1.739200 0.000000 
#    z 0.005310 0.000000 1.759680 
# 
# From -- ./inp_files/63334.got.cif
#   From: 2010.06.25/outbox.cif.g09.slc.cpg/sg12_32_cif.got.tgz:63334.got - 2010.06.28 00:19:55.
