data_PCOD8099525
_publ_section_title
;
Structure prediction by ZEFSAII (Michael W. Deem and Ramdas Pophale) SiO2 
 PCOD8099525
Probable space group: C 2/M
;
_chemical_formula_sum "Si O2"
_cell_formula_units_Z 48
_cell_length_a 11.167353
_cell_length_b 12.738313
_cell_length_c 17.362085
_cell_angle_alpha 90.000000
_cell_angle_beta 102.154395
_cell_angle_gamma 90.000000
_cell_volume 2414.448966
_symmetry_space_group_name_H-M "C 2/M"
_symmetry_group_IT_number 12
_symmetry_cell_setting 'monoclinic'
loop_
_space_group_symop_operation_xyz
x,y,z
-x,y,-z
-x,-y,-z
x,-y,z
1/2+x,1/2+y,z
1/2-x,1/2+y,-z
1/2-x,1/2-y,-z
1/2+x,1/2-y,z
loop_
_atom_site_type_symbol
_atom_site_label
_atom_site_fract_x
_atom_site_fract_y
_atom_site_fract_z
Si Si1 0.528028 0.755023 0.194333
Si Si2 0.188438 0.618513 0.326774
Si Si3 0.626799 0.119932 0.948798
Si Si4 0.109014 0.738795 0.453652
Si Si5 0.539305 0.378280 0.672116
Si Si6 0.885382 0.816033 0.945551
O O1 0.635997 0.818337 0.248525
O O2 0.435824 0.830590 0.135493
O O3 0.456173 0.684743 0.246944
O O4 0.598172 0.680906 0.143768
O O5 0.166226 0.500000 0.301614
O O6 0.114239 0.641935 0.395060
O O7 0.333234 0.643024 0.355501
O O8 0.769793 0.115722 0.950939
O O9 0.581844 0.000000 0.958288
O O10 0.613329 0.193492 0.022964
O O11 0.250000 0.750000 0.500000
O O12 0.000000 0.714420 0.500000
O O13 0.070003 0.842021 0.399688
O O14 0.518952 0.500000 0.687964
O O15 0.000000 0.874731 0.000000
#
# Coordination Sequence:
#
# PCOD8099525 Si02
#       6
#     8   8   8   8   8   8
#     4  10  20  36  57  82 116 149 192 246 295 345
#     4  10  21  37  59  87 118 154 195 238 295 356
#     4  10  20  35  56  81 111 150 195 244 299 350
#     4  11  22  40  65  90 121 156 194 248 292 346
#     4  10  22  39  61  87 117 159 199 235 293 362
#     4   9  20  36  53  79 112 150 194 245 292 348
#
# _framework density 19.880310999999999
#
# number of rings (size 3 to 8) (size 9 to 14) (size 15 to 20)
#    0.000    2.000    1.667    1.500    0.000    6.000 
#    0.000   10.000    0.000    0.000    0.000    0.000 
#    0.000    0.000    0.000    0.000    0.000    0.000 
#
# Total GULP energy -297378.605049 kJ/mol
# GULP energy per Si atom -12390.775210 kJ/mol
# Density = 1.983506 g / cm^3
# Si number density = 19.880311 Si / 1000 Ang^3
#
#
#
# Elastic Constant Matrix: (Units=GPa)
#
#
# Indices 1 2 3 4 5 6 
#
# 1 129.4569 27.6902 52.6789 0.0000 -3.0611 0.0000
# 2 27.6902 84.6765 27.5847 0.0000 -0.8729 0.0000
# 3 52.6789 27.5847 115.2778 0.0000 -4.6623 0.0000
# 4 0.0000 0.0000 0.0000 17.9545 0.0000 2.4709
# 5 -3.0611 -0.8729 -4.6623 0.0000 42.9658 0.0000
# 6 0.0000 0.0000 0.0000 2.4709 0.0000 20.9527
#
#
#
# Elastic Compliance Matrix: (Units=1/GPa)
#
#
# Indices 1 2 3 4 5 6 
#
# 1 0.009761 -0.001887 -0.004000 0.000000 0.000223 0.000000
# 2 -0.001887 0.013173 -0.002295 0.000000 -0.000116 0.000000
# 3 -0.004000 -0.002295 0.011087 0.000000 0.000871 0.000000
# 4 0.000000 0.000000 0.000000 0.056615 0.000000 -0.006677
# 5 0.000223 -0.000116 0.000871 0.000000 0.023382 0.000000
# 6 0.000000 0.000000 0.000000 -0.006677 0.000000 0.048514
#
#
# Mechanical properties :
#
#
# Convention : Reuss Voigt Hill
#
# Bulk Modulus (GPa) = 56.63082 60.59096 58.61089
# Shear Modulus (GPa) = 27.05901 31.13843 29.09872
#
# Velocity S-wave (km/s) = 3.69331 3.96194 3.82998
# Velocity P-wave (km/s) = 6.83630 7.17449 7.00744
#
# Compressibility (1/GPa) = 0.01765823
#
# Stress axis : x y z
#
# Youngs Moduli (GPa) = 102.44726 75.91330 90.19589
#
# Poissons Ratio (x) = 0.14322 0.36079
# Poissons Ratio (y) = 0.19328 0.20697
# Poissons Ratio (z) = 0.40980 0.17420
#
# Static dielectric constant tensor:
#      x y z
#    x 3.956440 0.000000 0.010900 
#    y 0.000000 3.381870 0.000000 
#    z 0.010900 0.000000 3.741870 
# 
# 
# High freq. dielectric constant tensor:
#      x y z
#    x 1.793700 0.000000 0.000150 
#    y 0.000000 1.755550 0.000000 
#    z 0.000150 0.000000 1.782370 
# 
# From -- ./inp_files/261615.got.cif
#   From: 2010.06.25/outbox.cif.g09.slc.cpg/sg12_131_cif.got.tgz:261615.got - 2010.06.28 00:19:55.
