data_PCOD8099615
_publ_section_title
;
Structure prediction by ZEFSAII (Michael W. Deem and Ramdas Pophale) SiO2 
 PCOD8099615
Probable space group: C 2/M
;
_chemical_formula_sum "Si O2"
_cell_formula_units_Z 32
_cell_length_a 29.860037
_cell_length_b 10.479611
_cell_length_c 16.351624
_cell_angle_alpha 90.000000
_cell_angle_beta 162.452372
_cell_angle_gamma 90.000000
_cell_volume 1542.700191
_symmetry_space_group_name_H-M "C 2/M"
_symmetry_group_IT_number 12
_symmetry_cell_setting 'monoclinic'
loop_
_space_group_symop_operation_xyz
x,y,z
-x,y,-z
-x,-y,-z
x,-y,z
1/2+x,1/2+y,z
1/2-x,1/2+y,-z
1/2-x,1/2-y,-z
1/2+x,1/2-y,z
loop_
_atom_site_type_symbol
_atom_site_label
_atom_site_fract_x
_atom_site_fract_y
_atom_site_fract_z
Si Si1 0.413445 0.646835 0.933042
Si Si2 0.930856 0.642908 0.683882
Si Si3 0.710322 0.862237 0.847874
Si Si4 0.472395 0.790082 0.321611
O O1 0.430182 0.500000 0.994216
O O2 0.478715 0.748651 0.110667
O O3 0.500000 0.665252 0.000000
O O4 0.242127 0.680802 0.618093
O O5 0.952149 0.500000 0.759251
O O6 0.989246 0.633750 0.693017
O O7 0.619829 0.763443 0.632322
O O8 0.651460 0.862834 0.838786
O O9 0.677059 0.000000 0.751192
O O10 0.887473 0.841007 0.150987
#
# Coordination Sequence:
#
# PCOD8099615 Si02
#       4
#     8   8   8   8
#     4  10  23  42  62  86 116 149 187 235 290 347
#     4  11  22  37  60  88 117 149 191 238 284 340
#     4  10  20  37  56  76 114 155 188 231 278 325
#     4  10  20  35  56  83 111 149 193 231 277 330
#
# _framework density 20.742851000000002
#
# number of rings (size 3 to 8) (size 9 to 14) (size 15 to 20)
#    0.000    1.750    0.000    5.250    0.000    4.500 
#    0.000   15.000    0.000    0.000    0.000    0.000 
#    0.000    0.000    0.000    0.000    0.000    0.000 
#
# Total GULP energy -198231.007687 kJ/mol
# GULP energy per Si atom -12389.437980 kJ/mol
# Density = 2.069564 g / cm^3
# Si number density = 20.742851 Si / 1000 Ang^3
#
#
#
# Elastic Constant Matrix: (Units=GPa)
#
#
# Indices 1 2 3 4 5 6 
#
# 1 74.7159 24.5018 19.3875 0.0000 -2.1638 0.0000
# 2 24.5018 93.2269 51.0986 0.0000 -10.6310 0.0000
# 3 19.3875 51.0986 109.6639 0.0000 -1.8664 0.0000
# 4 0.0000 0.0000 0.0000 26.5768 0.0000 -6.9614
# 5 -2.1638 -10.6310 -1.8664 0.0000 29.3684 0.0000
# 6 0.0000 0.0000 0.0000 -6.9614 0.0000 15.0659
#
#
#
# Elastic Compliance Matrix: (Units=1/GPa)
#
#
# Indices 1 2 3 4 5 6 
#
# 1 0.014741 -0.003310 -0.001067 0.000000 -0.000180 0.000000
# 2 -0.003310 0.015856 -0.006717 0.000000 0.005069 0.000000
# 3 -0.001067 -0.006717 0.012408 0.000000 -0.001721 0.000000
# 4 0.000000 0.000000 0.000000 0.042808 0.000000 0.019780
# 5 -0.000180 0.005069 -0.001721 0.000000 0.035762 0.000000
# 6 0.000000 0.000000 0.000000 0.019780 0.000000 0.075515
#
#
# Mechanical properties :
#
#
# Convention : Reuss Voigt Hill
#
# Bulk Modulus (GPa) = 48.03601 51.95360 49.99481
# Shear Modulus (GPa) = 22.10272 26.37681 24.23977
#
# Velocity S-wave (km/s) = 3.26783 3.56983 3.42216
# Velocity P-wave (km/s) = 6.11935 6.48787 6.30630
#
# Compressibility (1/GPa) = 0.02081771
#
# Stress axis : x y z
#
# Youngs Moduli (GPa) = 67.83757 63.06767 80.59455
#
# Poissons Ratio (x) = 0.20875 0.08598
# Poissons Ratio (y) = 0.22454 0.54133
# Poissons Ratio (z) = 0.07237 0.42361
#
# Static dielectric constant tensor:
#      x y z
#    x 3.751670 0.000000 0.151940 
#    y 0.000000 3.802990 0.000000 
#    z 0.151940 0.000000 3.898080 
# 
# 
# High freq. dielectric constant tensor:
#      x y z
#    x 1.815260 0.000000 0.010530 
#    y 0.000000 1.796390 0.000000 
#    z 0.010530 0.000000 1.818020 
# 
# From -- ./inp_files/193411.got.cif
#   From: 2010.06.25/outbox.cif.g09.slc.cpg/sg12_97_cif.got.tgz:193411.got - 2010.06.28 00:19:55.
