data_PCOD8099776
_publ_section_title
;
Structure prediction by ZEFSAII (Michael W. Deem and Ramdas Pophale) SiO2 
 PCOD8099776
Probable space group: C 2/M
;
_chemical_formula_sum "Si O2"
_cell_formula_units_Z 56
_cell_length_a 17.320706
_cell_length_b 14.945302
_cell_length_c 21.102727
_cell_angle_alpha 90.000000
_cell_angle_beta 29.930438
_cell_angle_gamma 90.000000
_cell_volume 2725.613856
_symmetry_space_group_name_H-M "C 2/M"
_symmetry_group_IT_number 12
_symmetry_cell_setting 'monoclinic'
loop_
_space_group_symop_operation_xyz
x,y,z
-x,y,-z
-x,-y,-z
x,-y,z
1/2+x,1/2+y,z
1/2-x,1/2+y,-z
1/2-x,1/2-y,-z
1/2+x,1/2-y,z
loop_
_atom_site_type_symbol
_atom_site_label
_atom_site_fract_x
_atom_site_fract_y
_atom_site_fract_z
Si Si1 0.602605 0.352556 0.658404
Si Si2 0.620333 0.398712 0.784792
Si Si3 0.894855 0.651921 0.382454
Si Si4 0.443361 0.103677 0.608020
Si Si5 0.399119 0.276757 0.011304
Si Si6 0.751504 0.398210 0.076981
Si Si7 0.825451 0.597176 0.880581
O O1 0.674671 0.386046 0.673593
O O2 0.721998 0.388027 0.518779
O O3 0.612291 0.246444 0.647550
O O4 0.427449 0.387921 0.774992
O O5 0.552938 0.500000 0.839752
O O6 0.757502 0.385303 0.737775
O O7 0.490514 0.322453 0.887637
O O8 0.984659 0.660776 0.386056
O O9 0.990169 0.591026 0.264693
O O10 0.500000 0.140363 0.500000
O O11 0.490262 0.000000 0.584245
O O12 0.500000 0.298593 0.000000
O O13 0.363817 0.170866 0.033590
O O14 0.236632 0.329947 0.125940
O O15 0.803907 0.500000 0.054626
O O16 0.780612 0.373910 0.983193
O O17 0.752954 0.500000 0.918383
#
# Coordination Sequence:
#
# PCOD8099776 Si02
#       7
#     8   8   8   8   8   8   8
#     4  11  22  38  60  86 120 160 204 244 291 351
#     4  11  22  37  61  92 125 163 195 237 306 373
#     4  11  22  36  58  89 126 158 197 246 293 355
#     4  10  20  35  56  87 129 163 193 237 301 375
#     4  12  24  39  61  88 122 156 201 253 298 354
#     4  11  24  44  65  83 116 165 209 250 298 352
#     4  11  22  38  63  92 122 154 191 246 306 359
#
# _framework density 20.545829999999999
#
# number of rings (size 3 to 8) (size 9 to 14) (size 15 to 20)
#    0.000    1.000    4.286    3.429    0.000    4.286 
#    0.000    0.000    0.000    0.000    0.000    0.000 
#    0.000    8.857    0.000    0.000    0.000    0.000 
#
# Total GULP energy -346938.672736 kJ/mol
# GULP energy per Si atom -12390.666883 kJ/mol
# Density = 2.049907 g / cm^3
# Si number density = 20.545830 Si / 1000 Ang^3
#
#
#
# Elastic Constant Matrix: (Units=GPa)
#
#
# Indices 1 2 3 4 5 6 
#
# 1 44.2687 22.5725 15.7996 0.0036 -4.3685 0.0019
# 2 22.5725 92.7884 24.7641 -0.0094 -5.9649 0.0001
# 3 15.7996 24.7641 141.8888 0.0111 -4.6155 0.0004
# 4 0.0036 -0.0094 0.0111 14.2818 -0.0037 -7.7745
# 5 -4.3685 -5.9649 -4.6155 -0.0037 18.0744 -0.0011
# 6 0.0019 0.0001 0.0004 -7.7745 -0.0011 15.2995
#
#
#
# Elastic Compliance Matrix: (Units=1/GPa)
#
#
# Indices 1 2 3 4 5 6 
#
# 1 0.026555 -0.005711 -0.001828 -0.000013 0.004067 -0.000010
# 2 -0.005711 0.012725 -0.001506 0.000017 0.002435 0.000009
# 3 -0.001828 -0.001506 0.007546 -0.000008 0.000988 -0.000004
# 4 -0.000013 0.000017 -0.000008 0.096794 0.000023 0.049186
# 5 0.004067 0.002435 0.000988 0.000023 0.057365 0.000015
# 6 -0.000010 0.000009 -0.000004 0.049186 0.000015 0.090355
#
#
# Mechanical properties :
#
#
# Convention : Reuss Voigt Hill
#
# Bulk Modulus (GPa) = 34.79817 45.02425 39.91121
# Shear Modulus (GPa) = 15.67356 23.91847 19.79601
#
# Velocity S-wave (km/s) = 2.76499 3.41567 3.10741
# Velocity P-wave (km/s) = 5.21221 6.12514 5.68702
#
# Compressibility (1/GPa) = 0.02873715
#
# Stress axis : x y z
#
# Youngs Moduli (GPa) = 37.65779 78.58644 132.51570
#
# Poissons Ratio (x) = 0.44878 0.24223
# Poissons Ratio (y) = 0.21505 0.19954
# Poissons Ratio (z) = 0.06884 0.11834
#
# Static dielectric constant tensor:
#      x y z
#    x 3.418200 0.000000 -0.089860 
#    y 0.000000 3.631940 0.000020 
#    z -0.089860 0.000020 4.192610 
# 
# 
# High freq. dielectric constant tensor:
#      x y z
#    x 1.769290 0.000000 -0.004640 
#    y 0.000000 1.791050 0.000000 
#    z -0.004640 0.000000 1.830760 
# 
# From -- ./inp_files/316717.got.cif
#   From: 2010.06.25/outbox.cif.g09.slc.cpg/sg12_159_cif.got.tgz:316717.got - 2010.06.28 00:19:55.
