data_PCOD8099798
_publ_section_title
;
Structure prediction by ZEFSAII (Michael W. Deem and Ramdas Pophale) SiO2 
 PCOD8099798
Probable space group: C 2/M
;
_chemical_formula_sum "Si O2"
_cell_formula_units_Z 32
_cell_length_a 14.107531
_cell_length_b 29.342851
_cell_length_c 10.653804
_cell_angle_alpha 90.000000
_cell_angle_beta 163.545034
_cell_angle_gamma 90.000000
_cell_volume 1249.239703
_symmetry_space_group_name_H-M "C 2/M"
_symmetry_group_IT_number 12
_symmetry_cell_setting 'monoclinic'
loop_
_space_group_symop_operation_xyz
x,y,z
-x,y,-z
-x,-y,-z
x,-y,z
1/2+x,1/2+y,z
1/2-x,1/2+y,-z
1/2-x,1/2-y,-z
1/2+x,1/2-y,z
loop_
_atom_site_type_symbol
_atom_site_label
_atom_site_fract_x
_atom_site_fract_y
_atom_site_fract_z
Si Si1 0.891379 0.950603 0.499895
Si Si2 0.248389 0.136065 0.564059
Si Si3 0.892648 0.325864 0.500131
Si Si4 0.102995 0.223945 0.494327
O O1 0.971581 0.910568 0.704525
O O2 0.000000 0.934196 0.500000
O O3 0.059321 0.000000 0.748273
O O4 0.500000 0.958354 0.000000
O O5 0.454888 0.139034 0.695215
O O6 0.008497 0.181664 0.277306
O O7 0.500000 0.135893 0.000000
O O8 0.049275 0.274898 0.733046
O O9 0.000000 0.345539 0.500000
O O10 0.500000 0.319098 0.000000
O O11 0.000000 0.207728 0.500000
O O12 0.500000 0.229565 0.000000
#
# Coordination Sequence:
#
# PCOD8099798 Si02
#       4
#     8   8   8   8
#     4   9  18  32  51  78 107 131 163 215 268 304
#     4  10  20  35  57  81 103 135 181 219 253 306
#     4  10  22  37  52  74 110 145 171 209 263 311
#     4   9  18  32  50  75 104 136 173 213 255 302
#
# _framework density 25.615580999999999
#
# number of rings (size 3 to 8) (size 9 to 14) (size 15 to 20)
#    0.000    2.500    0.000    1.500    0.000    8.000 
#    0.000   15.000    0.000    1.500    0.000    0.000 
#    0.000    0.000    0.000    0.000    0.000    0.000 
#
# Total GULP energy -198237.969632 kJ/mol
# GULP energy per Si atom -12389.873102 kJ/mol
# Density = 2.555728 g / cm^3
# Si number density = 25.615581 Si / 1000 Ang^3
#
#
#
# Elastic Constant Matrix: (Units=GPa)
#
#
# Indices 1 2 3 4 5 6 
#
# 1 266.5456 98.9908 30.0340 -0.0794 -8.3265 -0.1050
# 2 98.9908 202.6128 22.6328 0.0491 -12.3074 0.0223
# 3 30.0340 22.6328 37.1023 -0.0301 -8.7367 -0.0332
# 4 -0.0794 0.0491 -0.0301 16.1329 -0.0479 1.0430
# 5 -8.3265 -12.3074 -8.7367 -0.0479 39.0545 -0.0806
# 6 -0.1050 0.0223 -0.0332 1.0430 -0.0806 47.4823
#
#
#
# Elastic Compliance Matrix: (Units=1/GPa)
#
#
# Indices 1 2 3 4 5 6 
#
# 1 0.004815 -0.002066 -0.002691 0.000024 -0.000226 0.000009
# 2 -0.002066 0.006220 -0.001862 -0.000029 0.001103 -0.000006
# 3 -0.002691 -0.001862 0.031661 0.000067 0.005922 0.000026
# 4 0.000024 -0.000029 0.000067 0.062074 0.000084 -0.001363
# 5 -0.000226 0.001103 0.005922 0.000084 0.027230 0.000047
# 6 0.000009 -0.000006 0.000026 -0.001363 0.000047 0.021091
#
#
# Mechanical properties :
#
#
# Convention : Reuss Voigt Hill
#
# Bulk Modulus (GPa) = 33.94600 89.95286 61.94943
# Shear Modulus (GPa) = 28.38532 44.17416 36.27974
#
# Velocity S-wave (km/s) = 3.33247 4.15722 3.76748
# Velocity P-wave (km/s) = 5.29981 7.63125 6.56978
#
# Compressibility (1/GPa) = 0.02945855
#
# Stress axis : x y z
#
# Youngs Moduli (GPa) = 207.68456 160.77766 31.58414
#
# Poissons Ratio (x) = 0.33211 0.08499
# Poissons Ratio (y) = 0.42900 0.05882
# Poissons Ratio (z) = 0.55886 0.29942
#
# Static dielectric constant tensor:
#      x y z
#    x 5.340350 -0.000130 0.330660 
#    y -0.000130 7.440950 0.000570 
#    z 0.330660 0.000570 4.685870 
# 
# 
# High freq. dielectric constant tensor:
#      x y z
#    x 2.042620 0.000020 0.042210 
#    y 0.000020 2.019370 0.000020 
#    z 0.042210 0.000020 2.022280 
# 
# From -- ./inp_files/3912.got.cif
#   From: 2010.06.25/outbox.cif.g09.slc.cpg/sg12_2_cif.got.tgz:3912.got - 2010.06.28 00:19:55.
