data_PCOD8099780
_publ_section_title
;
Structure prediction by ZEFSAII (Michael W. Deem and Ramdas Pophale) SiO2 
 PCOD8099780
Probable space group: C 2/M
;
_chemical_formula_sum "Si O2"
_cell_formula_units_Z 48
_cell_length_a 8.484295
_cell_length_b 18.044830
_cell_length_c 25.935141
_cell_angle_alpha 90.000000
_cell_angle_beta 149.365218
_cell_angle_gamma 90.000000
_cell_volume 2023.279002
_symmetry_space_group_name_H-M "C 2/M"
_symmetry_group_IT_number 12
_symmetry_cell_setting 'monoclinic'
loop_
_space_group_symop_operation_xyz
x,y,z
-x,y,-z
-x,-y,-z
x,-y,z
1/2+x,1/2+y,z
1/2-x,1/2+y,-z
1/2-x,1/2-y,-z
1/2+x,1/2-y,z
loop_
_atom_site_type_symbol
_atom_site_label
_atom_site_fract_x
_atom_site_fract_y
_atom_site_fract_z
Si Si1 0.475070 0.650501 0.936378
Si Si2 0.842377 0.915905 0.798136
Si Si3 0.985158 0.809792 0.418944
Si Si4 0.162824 0.314655 0.115863
Si Si5 0.058052 0.184020 0.322575
Si Si6 0.433497 0.085924 0.589441
O O1 0.278280 0.600307 0.840710
O O2 0.309844 0.729995 0.895354
O O3 0.500000 0.612989 0.000000
O O4 0.818853 0.656722 0.009924
O O5 0.530476 0.902275 0.676834
O O6 0.107867 0.861163 0.854569
O O7 0.955625 0.000000 0.822332
O O8 0.674681 0.769954 0.352434
O O9 0.250000 0.750000 0.500000
O O10 0.948347 0.833887 0.349220
O O11 0.090562 0.880790 0.482607
O O12 0.255732 0.323006 0.201907
O O13 0.319633 0.125981 0.378561
O O14 0.426940 0.000000 0.572818
#
# Coordination Sequence:
#
# PCOD8099780 Si02
#       6
#     8   8   8   8   8   8
#     4  11  23  37  61  95 125 155 205 267 316 358
#     4  10  22  42  65  90 125 170 209 249 312 380
#     4  10  20  35  56  89 116 154 200 246 294 352
#     4  10  22  39  61  91 124 164 208 253 306 376
#     4  10  22  35  59  89 120 157 201 248 299 358
#     4   9  19  37  61  87 118 159 205 250 297 359
#
# _framework density 23.723863999999999
#
# number of rings (size 3 to 8) (size 9 to 14) (size 15 to 20)
#    0.000    2.000    0.000    4.500    9.333    3.000 
#    0.000    0.000    0.000    9.000    0.000    0.000 
#    0.000    0.000    0.000    0.000    0.000    0.000 
#
# Total GULP energy -297589.392895 kJ/mol
# GULP energy per Si atom -12399.558037 kJ/mol
# Density = 2.366987 g / cm^3
# Si number density = 23.723864 Si / 1000 Ang^3
#
#
#
# Elastic Constant Matrix: (Units=GPa)
#
#
# Indices 1 2 3 4 5 6 
#
# 1 89.4561 31.8911 50.9631 -0.0048 -47.3133 0.0061
# 2 31.8911 128.1919 62.8029 -0.0022 -11.9000 0.0039
# 3 50.9631 62.8029 118.9285 0.0590 -40.6808 -0.0459
# 4 -0.0048 -0.0022 0.0590 -7.9162 -0.0068 38.1526
# 5 -47.3133 -11.9000 -40.6808 -0.0068 46.8519 0.0072
# 6 0.0061 0.0039 -0.0459 38.1526 0.0072 -19.7984
#
#
#
# Elastic Compliance Matrix: (Units=1/GPa)
#
#
# Indices 1 2 3 4 5 6 
#
# 1 0.025986 -0.003852 -0.000654 -0.000005 0.024696 0.000007
# 2 -0.003852 0.011412 -0.006707 -0.000003 -0.006815 0.000009
# 3 -0.000654 -0.006707 0.016247 0.000007 0.011743 -0.000022
# 4 -0.000005 -0.000003 0.000007 0.015242 -0.000003 0.029373
# 5 0.024696 -0.006815 0.011743 -0.000003 0.054748 -0.000006
# 6 0.000007 0.000009 -0.000022 0.029373 -0.000006 0.006095
#
#
# Mechanical properties :
#
#
# Convention : Reuss Voigt Hill
#
# Bulk Modulus (GPa) = 32.03075 69.76566 50.89821
# Shear Modulus (GPa) = 30.75726 16.55543 23.65634
#
# Velocity S-wave (km/s) = 3.60456 2.64453 3.16120
# Velocity P-wave (km/s) = 5.55469 6.22864 5.90129
#
# Compressibility (1/GPa) = 0.03122000
#
# Stress axis : x y z
#
# Youngs Moduli (GPa) = 38.48241 87.62497 61.54838
#
# Poissons Ratio (x) = 0.33751 0.04025
# Poissons Ratio (y) = 0.14823 0.41280
# Poissons Ratio (z) = 0.02517 0.58770
#
# Static dielectric constant tensor:
#      x y z
#    x 4.080760 0.000000 -0.322030 
#    y 0.000000 4.231780 -0.000010 
#    z -0.322030 -0.000010 4.808820 
# 
# 
# High freq. dielectric constant tensor:
#      x y z
#    x 1.932120 0.000000 -0.021290 
#    y 0.000000 1.916460 0.000000 
#    z -0.021290 0.000000 1.961890 
# 
# From -- ./inp_files/356962.got.cif
#   From: 2010.06.25/outbox.cif.g09.slc.cpg/sg12_179_cif.got.tgz:356962.got - 2010.06.28 00:19:55.
