data_PCOD8099784
_publ_section_title
;
Structure prediction by ZEFSAII (Michael W. Deem and Ramdas Pophale) SiO2 
 PCOD8099784
Probable space group: C 2/M
;
_chemical_formula_sum "Si O2"
_cell_formula_units_Z 64
_cell_length_a 14.601260
_cell_length_b 18.640185
_cell_length_c 18.901279
_cell_angle_alpha 90.000000
_cell_angle_beta 38.214131
_cell_angle_gamma 90.000000
_cell_volume 3182.315262
_symmetry_space_group_name_H-M "C 2/M"
_symmetry_group_IT_number 12
_symmetry_cell_setting 'monoclinic'
loop_
_space_group_symop_operation_xyz
x,y,z
-x,y,-z
-x,-y,-z
x,-y,z
1/2+x,1/2+y,z
1/2-x,1/2+y,-z
1/2-x,1/2-y,-z
1/2+x,1/2-y,z
loop_
_atom_site_type_symbol
_atom_site_label
_atom_site_fract_x
_atom_site_fract_y
_atom_site_fract_z
Si Si1 0.659634 0.919336 0.582909
Si Si2 0.842757 0.582352 0.112247
Si Si3 0.371847 0.126810 0.246694
Si Si4 0.390065 0.414648 0.859097
Si Si5 0.433646 0.202118 0.708005
Si Si6 0.663071 0.757225 0.382967
Si Si7 0.138757 0.833653 0.634264
Si Si8 0.301042 0.823472 0.933958
O O1 0.657446 0.925458 0.669577
O O2 0.521581 0.871510 0.642004
O O3 0.811776 0.883531 0.461631
O O4 0.645080 0.000000 0.561369
O O5 0.854316 0.500000 0.083323
O O6 0.803270 0.590756 0.218568
O O7 0.713703 0.614821 0.142213
O O8 0.000000 0.620358 0.000000
O O9 0.287584 0.198613 0.316290
O O10 0.543404 0.146486 0.130594
O O11 0.404454 0.500000 0.855522
O O12 0.546888 0.379509 0.747010
O O13 0.322540 0.384012 0.973358
O O14 0.335747 0.215740 0.698259
O O15 0.549535 0.265524 0.657363
O O16 0.314012 0.190344 0.842584
O O17 0.500000 0.728181 0.500000
O O18 0.711421 0.814700 0.413034
O O19 0.250000 0.750000 0.000000
#
# Coordination Sequence:
#
# PCOD8099784 Si02
#       8
#     8   8   8   8   8   8   8   8
#     4  11  23  40  63  93 130 171 214 272 331 383
#     4  10  20  35  56  90 127 163 204 248 317 398
#     4  11  22  36  62  94 126 165 209 272 324 387
#     4  11  23  40  66  93 132 175 210 267 329 391
#     4  11  23  41  68  94 129 171 221 272 325 389
#     4  12  23  40  67  96 126 169 222 276 329 379
#     4  12  22  45  65  95 129 170 227 265 326 396
#     4  11  21  39  59  91 127 167 210 258 315 387
#
# _framework density 20.111143999999999
#
# number of rings (size 3 to 8) (size 9 to 14) (size 15 to 20)
#    0.000    0.875    6.250    2.625    0.000    2.000 
#    0.000    3.750    0.000    4.500    0.000    0.000 
#    0.000    0.000    0.000    0.000    0.000    0.000 
#
# Total GULP energy -396729.218876 kJ/mol
# GULP energy per Si atom -12397.788090 kJ/mol
# Density = 2.006537 g / cm^3
# Si number density = 20.111144 Si / 1000 Ang^3
#
#
#
# Elastic Constant Matrix: (Units=GPa)
#
#
# Indices 1 2 3 4 5 6 
#
# 1 56.5842 15.8940 10.3028 -0.0005 13.9540 0.0005
# 2 15.8940 105.5900 32.9319 0.0002 -3.3796 0.0001
# 3 10.3028 32.9319 116.4617 0.0022 1.1136 -0.0004
# 4 -0.0005 0.0002 0.0022 27.7769 0.0000 7.6469
# 5 13.9540 -3.3796 1.1136 0.0000 29.8154 -0.0004
# 6 0.0005 0.0001 -0.0004 7.6469 -0.0004 19.0140
#
#
#
# Elastic Compliance Matrix: (Units=1/GPa)
#
#
# Indices 1 2 3 4 5 6 
#
# 1 0.021287 -0.003265 -0.000861 0.000001 -0.010301 -0.000001
# 2 -0.003265 0.010937 -0.002831 0.000000 0.002874 0.000000
# 3 -0.000861 -0.002831 0.009466 -0.000001 -0.000271 0.000001
# 4 0.000001 0.000000 -0.000001 0.040483 -0.000001 -0.016281
# 5 -0.010301 0.002874 -0.000271 -0.000001 0.038696 0.000001
# 6 -0.000001 0.000000 0.000001 -0.016281 0.000001 0.059141
#
#
# Mechanical properties :
#
#
# Convention : Reuss Voigt Hill
#
# Bulk Modulus (GPa) = 36.00470 44.09926 40.05198
# Shear Modulus (GPa) = 24.60820 29.95509 27.28164
#
# Velocity S-wave (km/s) = 3.50181 3.86356 3.68712
# Velocity P-wave (km/s) = 5.85593 6.47134 6.17131
#
# Compressibility (1/GPa) = 0.02777415
#
# Stress axis : x y z
#
# Youngs Moduli (GPa) = 46.97706 91.43173 105.64222
#
# Poissons Ratio (x) = 0.29855 0.09099
# Poissons Ratio (y) = 0.15339 0.29911
# Poissons Ratio (z) = 0.04046 0.25887
#
# Static dielectric constant tensor:
#      x y z
#    x 3.620550 0.000000 0.175820 
#    y 0.000000 3.553400 0.000000 
#    z 0.175820 0.000000 3.975660 
# 
# 
# High freq. dielectric constant tensor:
#      x y z
#    x 1.763900 0.000000 0.008610 
#    y 0.000000 1.776580 0.000000 
#    z 0.008610 0.000000 1.806740 
# 
# From -- ./inp_files/271728.got.cif
#   From: 2010.06.25/outbox.cif.g09.slc.cpg/sg12_136_cif.got.tgz:271728.got - 2010.06.28 00:19:55.
