data_PCOD8099333
_publ_section_title
;
Structure prediction by ZEFSAII (Michael W. Deem and Ramdas Pophale) SiO2 
 PCOD8099333
Probable space group: C 2/M
;
_chemical_formula_sum "Si O2"
_cell_formula_units_Z 48
_cell_length_a 30.579648
_cell_length_b 8.972007
_cell_length_c 17.574389
_cell_angle_alpha 90.000000
_cell_angle_beta 148.185168
_cell_angle_gamma 90.000000
_cell_volume 2541.895990
_symmetry_space_group_name_H-M "C 2/M"
_symmetry_group_IT_number 12
_symmetry_cell_setting 'monoclinic'
loop_
_space_group_symop_operation_xyz
x,y,z
-x,y,-z
-x,-y,-z
x,-y,z
1/2+x,1/2+y,z
1/2-x,1/2+y,-z
1/2-x,1/2-y,-z
1/2+x,1/2-y,z
loop_
_atom_site_type_symbol
_atom_site_label
_atom_site_fract_x
_atom_site_fract_y
_atom_site_fract_z
Si Si1 0.875846 0.672590 0.681661
Si Si2 0.021356 0.323524 0.649492
Si Si3 0.226524 0.827791 0.347595
Si Si4 0.957955 0.677165 0.151218
Si Si5 0.283920 0.176678 0.828013
Si Si6 0.367814 0.176339 0.324282
O O1 0.878826 0.500000 0.710054
O O2 0.851113 0.766526 0.719159
O O3 0.811294 0.698574 0.518311
O O4 0.964858 0.732243 0.785413
O O5 0.018825 0.500000 0.649594
O O6 0.035133 0.254146 0.753522
O O7 0.096888 0.276119 0.706060
O O8 0.933405 0.270058 0.485422
O O9 0.236017 0.739306 0.284044
O O10 0.211261 0.000000 0.306907
O O11 0.960148 0.500000 0.160322
O O12 0.874009 0.733856 0.987945
O O13 0.217726 0.237221 0.790597
O O14 0.279923 0.000000 0.819898
O O15 0.352253 0.000000 0.306613
#
# Coordination Sequence:
#
# PCOD8099333 Si02
#       6
#     8   8   8   8   8   8
#     4   9  18  35  58  78  97 127 169 211 249 294
#     4   8  15  31  55  78  98 128 172 212 247 295
#     4  10  20  35  56  78 100 128 166 212 255 295
#     4   9  18  32  50  73 102 137 171 201 242 302
#     4  11  22  33  48  73 106 139 168 202 247 300
#     4   9  17  32  56  79  98 127 170 216 254 291
#
# _framework density 18.883541999999998
#
# number of rings (size 3 to 8) (size 9 to 14) (size 15 to 20)
#    0.000    2.667    0.000    3.000    0.000    4.667 
#    0.000    6.667    0.000    4.000    0.000    0.000 
#    0.000    0.000    0.000    0.000    0.000    0.000 
#
# Total GULP energy -297603.875888 kJ/mol
# GULP energy per Si atom -12400.161495 kJ/mol
# Density = 1.884056 g / cm^3
# Si number density = 18.883542 Si / 1000 Ang^3
#
#
#
# Elastic Constant Matrix: (Units=GPa)
#
#
# Indices 1 2 3 4 5 6 
#
# 1 103.4010 28.3717 43.8817 0.0000 31.6807 0.0000
# 2 28.3717 48.2160 27.5768 0.0000 9.8121 0.0000
# 3 43.8817 27.5768 72.5238 0.0000 30.9161 0.0000
# 4 0.0000 0.0000 0.0000 19.9095 0.0000 5.5620
# 5 31.6807 9.8121 30.9161 0.0000 32.8394 0.0000
# 6 0.0000 0.0000 0.0000 5.5620 0.0000 29.5107
#
#
#
# Elastic Compliance Matrix: (Units=1/GPa)
#
#
# Indices 1 2 3 4 5 6 
#
# 1 0.015672 -0.005414 -0.002787 0.000000 -0.010878 0.000000
# 2 -0.005414 0.028510 -0.010290 0.000000 0.006392 0.000000
# 3 -0.002787 -0.010290 0.028280 0.000000 -0.020861 0.000000
# 4 0.000000 0.000000 0.000000 0.053019 0.000000 -0.009993
# 5 -0.010878 0.006392 -0.020861 0.000000 0.058675 0.000000
# 6 0.000000 0.000000 0.000000 -0.009993 0.000000 0.035769
#
#
# Mechanical properties :
#
#
# Convention : Reuss Voigt Hill
#
# Bulk Modulus (GPa) = 28.18395 47.08902 37.63649
# Shear Modulus (GPa) = 18.60574 24.73930 21.67252
#
# Velocity S-wave (km/s) = 3.14234 3.62345 3.39144
# Velocity P-wave (km/s) = 5.30314 6.51894 5.94221
#
# Compressibility (1/GPa) = 0.03548118
#
# Stress axis : x y z
#
# Youngs Moduli (GPa) = 63.80707 35.07500 35.36055
#
# Poissons Ratio (x) = 0.18991 0.09854
# Poissons Ratio (y) = 0.34548 0.36384
# Poissons Ratio (z) = 0.17782 0.36091
#
# Static dielectric constant tensor:
#      x y z
#    x 3.711120 0.000000 0.008720 
#    y 0.000000 3.119960 0.000000 
#    z 0.008720 0.000000 3.533100 
# 
# 
# High freq. dielectric constant tensor:
#      x y z
#    x 1.749920 0.000000 0.005490 
#    y 0.000000 1.697790 0.000000 
#    z 0.005490 0.000000 1.729270 
# 
# From -- ./inp_files/274048.got.cif
#   From: 2010.06.25/outbox.cif.g09.slc.cpg/sg12_138_cif.got.tgz:274048.got - 2010.06.28 00:19:55.
