data_PCOD8099245
_publ_section_title
;
Structure prediction by ZEFSAII (Michael W. Deem and Ramdas Pophale) SiO2 
 PCOD8099245
Probable space group: C 2/M
;
_chemical_formula_sum "Si O2"
_cell_formula_units_Z 56
_cell_length_a 17.596302
_cell_length_b 8.629888
_cell_length_c 19.230410
_cell_angle_alpha 90.000000
_cell_angle_beta 112.136762
_cell_angle_gamma 90.000000
_cell_volume 2704.959092
_symmetry_space_group_name_H-M "C 2/M"
_symmetry_group_IT_number 12
_symmetry_cell_setting 'monoclinic'
loop_
_space_group_symop_operation_xyz
x,y,z
-x,y,-z
-x,-y,-z
x,-y,z
1/2+x,1/2+y,z
1/2-x,1/2+y,-z
1/2-x,1/2-y,-z
1/2+x,1/2-y,z
loop_
_atom_site_type_symbol
_atom_site_label
_atom_site_fract_x
_atom_site_fract_y
_atom_site_fract_z
Si Si1 0.918128 0.319563 0.012007
Si Si2 0.102606 0.179096 0.850438
Si Si3 0.230207 0.821724 0.586943
Si Si4 0.812165 0.675624 0.749850
Si Si5 0.725776 0.678660 0.121902
Si Si6 0.527400 0.823208 0.286351
Si Si7 0.119848 0.175378 0.432801
O O1 0.898912 0.500000 0.994488
O O2 0.930271 0.282643 0.097212
O O3 0.842956 0.218805 0.958150
O O4 0.000000 0.270492 0.000000
O O5 0.196316 0.214762 0.865188
O O6 0.047787 0.217814 0.764386
O O7 0.094050 0.000000 0.867003
O O8 0.233286 0.798013 0.671703
O O9 0.139155 0.792445 0.522044
O O10 0.293174 0.701569 0.574754
O O11 0.258127 0.000000 0.580710
O O12 0.813456 0.500000 0.779203
O O13 0.808453 0.792157 0.812708
O O14 0.894149 0.710801 0.734781
O O15 0.750356 0.500000 0.121948
O O16 0.549856 0.782832 0.374433
O O17 0.499216 0.000000 0.272950
O O18 0.091044 0.000000 0.411264
#
# Coordination Sequence:
#
# PCOD8099245 Si02
#       7
#     8   8   8   8   8   8   8
#     4  11  24  43  66  90 117 147 179 221 273 325
#     4  12  25  41  61  84 113 148 187 229 274 328
#     4   8  15  27  45  72 108 146 183 229 282 331
#     4   9  18  34  55  80 112 149 187 229 279 331
#     4  12  25  40  59  84 115 149 187 229 274 327
#     4  10  20  35  55  81 114 149 186 231 282 333
#     4   9  15  25  45  75 108 143 185 230 278 330
#
# _framework density 20.702717
#
# number of rings (size 3 to 8) (size 9 to 14) (size 15 to 20)
#    0.000    1.857    0.000    6.000    0.000    8.000 
#    0.000    0.000    0.000    0.857    0.000    6.000 
#    0.000    0.000    0.000    0.000    0.000    0.000 
#
# Total GULP energy -347158.014655 kJ/mol
# GULP energy per Si atom -12398.500523 kJ/mol
# Density = 2.065560 g / cm^3
# Si number density = 20.702717 Si / 1000 Ang^3
#
#
#
# Elastic Constant Matrix: (Units=GPa)
#
#
# Indices 1 2 3 4 5 6 
#
# 1 55.5482 19.5290 17.6291 0.0000 19.3005 0.0000
# 2 19.5290 71.2712 23.5553 0.0000 6.1753 0.0000
# 3 17.6291 23.5553 100.5106 0.0000 34.2379 0.0000
# 4 0.0000 0.0000 0.0000 34.9237 0.0000 4.6330
# 5 19.3005 6.1753 34.2379 0.0000 22.5693 0.0000
# 6 0.0000 0.0000 0.0000 4.6330 0.0000 23.7510
#
#
#
# Elastic Compliance Matrix: (Units=1/GPa)
#
#
# Indices 1 2 3 4 5 6 
#
# 1 0.031758 -0.008566 0.010120 0.000000 -0.040166 0.000000
# 2 -0.008566 0.017592 -0.007193 0.000000 0.013424 0.000000
# 3 0.010120 -0.007193 0.025117 0.000000 -0.044788 0.000000
# 4 0.000000 0.000000 0.000000 0.029394 0.000000 -0.005734
# 5 -0.040166 0.013424 -0.044788 0.000000 0.142927 0.000000
# 6 0.000000 0.000000 0.000000 -0.005734 0.000000 0.043222
#
#
# Mechanical properties :
#
#
# Convention : Reuss Voigt Hill
#
# Bulk Modulus (GPa) = 15.82605 38.75075 27.28840
# Shear Modulus (GPa) = 15.51093 27.35659 21.43376
#
# Velocity S-wave (km/s) = 2.74016 3.63905 3.22112
# Velocity P-wave (km/s) = 4.20385 6.03451 5.20037
#
# Compressibility (1/GPa) = 0.06318695
#
# Stress axis : x y z
#
# Youngs Moduli (GPa) = 31.48777 56.84264 39.81428
#
# Poissons Ratio (x) = 0.48694 -0.40290
# Poissons Ratio (y) = 0.26974 0.28640
# Poissons Ratio (z) = -0.31864 0.40889
#
# Static dielectric constant tensor:
#      x y z
#    x 3.296580 0.000000 0.210560 
#    y 0.000000 3.653510 0.000000 
#    z 0.210560 0.000000 4.189770 
# 
# 
# High freq. dielectric constant tensor:
#      x y z
#    x 1.763230 0.000000 0.021800 
#    y 0.000000 1.811660 0.000000 
#    z 0.021800 0.000000 1.832850 
# 
# From -- ./inp_files/275672.got.cif
#   From: 2010.06.25/outbox.cif.g09.slc.cpg/sg12_138_cif.got.tgz:275672.got - 2010.06.28 00:19:55.
