data_PCOD8099744
_publ_section_title
;
Structure prediction by ZEFSAII (Michael W. Deem and Ramdas Pophale) SiO2 
 PCOD8099744
Probable space group: C 2/M
;
_chemical_formula_sum "Si O2"
_cell_formula_units_Z 48
_cell_length_a 22.945843
_cell_length_b 9.088797
_cell_length_c 12.094741
_cell_angle_alpha 90.000000
_cell_angle_beta 69.140056
_cell_angle_gamma 90.000000
_cell_volume 2357.028079
_symmetry_space_group_name_H-M "C 2/M"
_symmetry_group_IT_number 12
_symmetry_cell_setting 'monoclinic'
loop_
_space_group_symop_operation_xyz
x,y,z
-x,y,-z
-x,-y,-z
x,-y,z
1/2+x,1/2+y,z
1/2-x,1/2+y,-z
1/2-x,1/2-y,-z
1/2+x,1/2-y,z
loop_
_atom_site_type_symbol
_atom_site_label
_atom_site_fract_x
_atom_site_fract_y
_atom_site_fract_z
Si Si1 0.070117 0.169678 0.477021
Si Si2 0.302078 0.674118 0.226285
Si Si3 0.392546 0.174044 0.331130
Si Si4 0.817221 0.833384 0.752793
Si Si5 0.637476 0.329994 0.043571
Si Si6 0.987020 0.672804 0.886727
O O1 0.103306 0.266755 0.547904
O O2 0.112538 0.190350 0.339614
O O3 0.000000 0.227342 0.500000
O O4 0.067496 0.000000 0.517447
O O5 0.306192 0.500000 0.237276
O O6 0.335139 0.750610 0.307275
O O7 0.230031 0.722579 0.275200
O O8 0.332631 0.729479 0.090391
O O9 0.456145 0.220695 0.228389
O O10 0.381905 0.000000 0.338321
O O11 0.815930 0.803361 0.885386
O O12 0.795285 0.000000 0.742936
O O13 0.620388 0.500000 0.042491
O O14 0.575151 0.244568 0.117424
O O15 0.976932 0.500000 0.895250
O O16 0.000000 0.734665 0.000000
#
# Coordination Sequence:
#
# PCOD8099744 Si02
#       6
#     8   8   8   8   8   8
#     4  10  22  42  66  89 117 153 195 243 292 348
#     4  11  23  38  59  89 121 155 198 244 292 348
#     4  11  23  39  61  88 121 158 196 242 294 348
#     4  10  22  40  61  86 118 157 197 239 294 351
#     4  10  21  37  60  89 119 155 198 243 292 349
#     4  10  20  35  56  85 119 153 190 235 292 348
#
# _framework density 20.364626999999999
#
# number of rings (size 3 to 8) (size 9 to 14) (size 15 to 20)
#    0.000    1.667    1.667    2.500    0.000    6.000 
#    0.000    0.000    0.000    0.000    0.000    0.000 
#    0.000    0.000    0.000    0.000    0.000    0.000 
#
# Total GULP energy -297705.566066 kJ/mol
# GULP energy per Si atom -12404.398586 kJ/mol
# Density = 2.031828 g / cm^3
# Si number density = 20.364627 Si / 1000 Ang^3
#
#
#
# Elastic Constant Matrix: (Units=GPa)
#
#
# Indices 1 2 3 4 5 6 
#
# 1 121.7933 39.6274 26.4742 0.0000 4.8074 0.0000
# 2 39.6274 54.6053 22.6374 0.0000 4.7442 0.0000
# 3 26.4742 22.6374 77.4949 0.0000 14.3537 0.0000
# 4 0.0000 0.0000 0.0000 25.7451 0.0000 0.1562
# 5 4.8074 4.7442 14.3537 0.0000 32.2636 0.0000
# 6 0.0000 0.0000 0.0000 0.1562 0.0000 40.0240
#
#
#
# Elastic Compliance Matrix: (Units=1/GPa)
#
#
# Indices 1 2 3 4 5 6 
#
# 1 0.010923 -0.007261 -0.001642 0.000000 0.000171 0.000000
# 2 -0.007261 0.025668 -0.004924 0.000000 -0.000502 0.000000
# 3 -0.001642 -0.004924 0.016046 0.000000 -0.006170 0.000000
# 4 0.000000 0.000000 0.000000 0.038843 0.000000 -0.000152
# 5 0.000171 -0.000502 -0.006170 0.000000 0.033788 0.000000
# 6 0.000000 0.000000 0.000000 -0.000152 0.000000 0.024986
#
#
# Mechanical properties :
#
#
# Convention : Reuss Voigt Hill
#
# Bulk Modulus (GPa) = 40.02895 47.93016 43.97955
# Shear Modulus (GPa) = 26.84744 30.61683 28.73214
#
# Velocity S-wave (km/s) = 3.63483 3.88162 3.76025
# Velocity P-wave (km/s) = 6.10858 6.60881 6.36361
#
# Compressibility (1/GPa) = 0.02498192
#
# Stress axis : x y z
#
# Youngs Moduli (GPa) = 91.54648 38.95937 62.31919
#
# Poissons Ratio (x) = 0.28289 0.10234
# Poissons Ratio (y) = 0.66474 0.30689
# Poissons Ratio (z) = 0.15034 0.19185
#
# Static dielectric constant tensor:
#      x y z
#    x 3.592540 0.000000 0.008640 
#    y 0.000000 3.561570 0.000000 
#    z 0.008640 0.000000 3.737240 
# 
# 
# High freq. dielectric constant tensor:
#      x y z
#    x 1.799880 0.000000 0.002270 
#    y 0.000000 1.789240 0.000000 
#    z 0.002270 0.000000 1.798300 
# 
# From -- ./inp_files/172912.got.cif
#   From: 2010.06.25/outbox.cif.g09.slc.cpg/sg12_87_cif.got.tgz:172912.got - 2010.06.28 00:19:55.
