data_PCOD8099677
_publ_section_title
;
Structure prediction by ZEFSAII (Michael W. Deem and Ramdas Pophale) SiO2 
 PCOD8099677
Probable space group: C 2/M
;
_chemical_formula_sum "Si O2"
_cell_formula_units_Z 60
_cell_length_a 23.505342
_cell_length_b 12.145918
_cell_length_c 16.463188
_cell_angle_alpha 90.000000
_cell_angle_beta 42.645355
_cell_angle_gamma 90.000000
_cell_volume 3184.150008
_symmetry_space_group_name_H-M "C 2/M"
_symmetry_group_IT_number 12
_symmetry_cell_setting 'monoclinic'
loop_
_space_group_symop_operation_xyz
x,y,z
-x,y,-z
-x,-y,-z
x,-y,z
1/2+x,1/2+y,z
1/2-x,1/2+y,-z
1/2-x,1/2-y,-z
1/2+x,1/2-y,z
loop_
_atom_site_type_symbol
_atom_site_label
_atom_site_fract_x
_atom_site_fract_y
_atom_site_fract_z
Si Si1 0.389426 0.759742 0.392772
Si Si2 0.344124 0.622907 0.860648
Si Si3 0.500000 0.273573 0.000000
Si Si4 0.823840 0.713671 0.023198
Si Si5 0.170651 0.872844 0.846027
Si Si6 0.995287 0.127568 0.412024
Si Si7 0.002216 0.626939 0.852447
Si Si8 0.222709 0.872269 0.613518
O O1 0.428686 0.696603 0.428734
O O2 0.462434 0.825913 0.269385
O O3 0.319729 0.845231 0.496273
O O4 0.342740 0.677015 0.381449
O O5 0.354596 0.500000 0.885416
O O6 0.250660 0.633737 0.924051
O O7 0.411357 0.644295 0.719896
O O8 0.359794 0.709993 0.914286
O O9 0.570877 0.354469 0.960418
O O10 0.540201 0.196610 0.887419
O O11 0.786752 0.792983 0.132573
O O12 0.901390 0.636659 0.966618
O O13 0.201348 0.832215 0.726304
O O14 0.193561 0.000000 0.839233
O O15 0.000000 0.170365 0.500000
O O16 0.967002 0.000000 0.438879
O O17 0.028860 0.500000 0.832996
O O18 0.208233 0.000000 0.620885
#
# Coordination Sequence:
#
# PCOD8099677 Si02
#       8
#     8   8   4   8   8   8   8   8
#     4  11  21  39  61  83 113 150 192 236 283 342
#     4  10  20  37  58  82 110 146 189 233 280 333
#     4  10  20  36  54  84 112 150 182 228 278 336
#     4  10  21  35  56  84 114 149 182 229 283 340
#     4  10  20  35  56  84 114 144 183 232 284 340
#     4  10  22  39  61  86 112 147 192 242 288 334
#     4  11  21  36  56  82 115 151 185 227 279 340
#     4  10  22  38  59  84 114 149 187 234 284 338
#
# _framework density 18.843333999999999
#
# number of rings (size 3 to 8) (size 9 to 14) (size 15 to 20)
#    0.000    1.733    2.667    2.000    1.867    0.000 
#    0.000    0.000    0.000    1.600    0.000    0.000 
#    0.000    0.000    0.000    0.000    0.000    0.000 
#
# Total GULP energy -371991.268402 kJ/mol
# GULP energy per Si atom -12399.708947 kJ/mol
# Density = 1.880045 g / cm^3
# Si number density = 18.843334 Si / 1000 Ang^3
#
#
#
# Elastic Constant Matrix: (Units=GPa)
#
#
# Indices 1 2 3 4 5 6 
#
# 1 61.3582 15.2977 25.3808 0.0000 12.0580 0.0000
# 2 15.2977 42.5611 21.7400 0.0000 7.4035 0.0000
# 3 25.3808 21.7400 87.3027 0.0000 12.9366 0.0000
# 4 0.0000 0.0000 0.0000 18.3615 0.0000 10.5145
# 5 12.0580 7.4035 12.9366 0.0000 33.6651 0.0000
# 6 0.0000 0.0000 0.0000 10.5145 0.0000 0.0097
#
#
#
# Elastic Compliance Matrix: (Units=1/GPa)
#
#
# Indices 1 2 3 4 5 6 
#
# 1 0.019955 -0.004299 -0.004042 0.000000 -0.004649 0.000000
# 2 -0.004299 0.028251 -0.005400 0.000000 -0.002598 0.000000
# 3 -0.004042 -0.005400 0.014404 0.000000 -0.002900 0.000000
# 4 0.000000 0.000000 0.000000 -0.000088 0.000000 0.095261
# 5 -0.004649 -0.002598 -0.002900 0.000000 0.033055 0.000000
# 6 0.000000 0.000000 0.000000 0.095261 0.000000 -0.166354
#
#
# Mechanical properties :
#
#
# Convention : Reuss Voigt Hill
#
# Bulk Modulus (GPa) = 28.46776 35.11767 31.79271
# Shear Modulus (GPa) = -158.30477 18.99417 -69.65530
#
# Velocity S-wave (km/s) = -9.17570 3.17835 -6.08652
# Velocity P-wave (km/s) = 9.85482 5.66978 5.69961
#
# Compressibility (1/GPa) = 0.03512746
#
# Stress axis : x y z
#
# Youngs Moduli (GPa) = 50.11247 35.39672 69.42550
#
# Poissons Ratio (x) = 0.15218 0.28061
# Poissons Ratio (y) = 0.21544 0.37492
# Poissons Ratio (z) = 0.20255 0.19115
#
# Static dielectric constant tensor:
#      x y z
#    x 3.402590 0.000000 0.149560 
#    y 0.000000 3.349970 0.000000 
#    z 0.149560 0.000000 3.516690 
# 
# 
# High freq. dielectric constant tensor:
#      x y z
#    x 1.728100 0.000000 0.006820 
#    y 0.000000 1.730680 0.000000 
#    z 0.006820 0.000000 1.738020 
# 
# From -- ./inp_files/289374.got.cif
#   From: 2010.06.25/outbox.cif.g09.slc.cpg/sg12_145_cif.got.tgz:289374.got - 2010.06.28 00:19:55.
