data_PCOD8099060
_publ_section_title
;
Structure prediction by ZEFSAII (Michael W. Deem and Ramdas Pophale) SiO2 
 PCOD8099060
Probable space group: C 2/M
;
_chemical_formula_sum "Si O2"
_cell_formula_units_Z 64
_cell_length_a 9.092746
_cell_length_b 22.220547
_cell_length_c 15.537265
_cell_angle_alpha 90.000000
_cell_angle_beta 93.377160
_cell_angle_gamma 90.000000
_cell_volume 3133.787346
_symmetry_space_group_name_H-M "C 2/M"
_symmetry_group_IT_number 12
_symmetry_cell_setting 'monoclinic'
loop_
_space_group_symop_operation_xyz
x,y,z
-x,y,-z
-x,-y,-z
x,-y,z
1/2+x,1/2+y,z
1/2-x,1/2+y,-z
1/2-x,1/2-y,-z
1/2+x,1/2-y,z
loop_
_atom_site_type_symbol
_atom_site_label
_atom_site_fract_x
_atom_site_fract_y
_atom_site_fract_z
Si Si1 0.249167 0.934024 0.648266
Si Si2 0.342322 0.432816 0.535840
Si Si3 0.484622 0.821079 0.099544
Si Si4 0.277927 0.266135 0.817556
Si Si5 0.518479 0.067610 0.781905
Si Si6 0.268871 0.137564 0.310400
Si Si7 0.341144 0.689803 0.329641
Si Si8 0.474323 0.211436 0.597572
O O1 0.275691 0.925869 0.546179
O O2 0.405418 0.928415 0.698926
O O3 0.136770 0.882436 0.677846
O O4 0.176810 0.000000 0.663332
O O5 0.500000 0.419532 0.500000
O O6 0.333966 0.500000 0.574758
O O7 0.315535 0.384318 0.608723
O O8 0.586581 0.765802 0.132129
O O9 0.318107 0.801318 0.114723
O O10 0.526908 0.883785 0.147415
O O11 0.500000 0.833273 0.000000
O O12 0.332792 0.315657 0.747980
O O13 0.178289 0.216120 0.766577
O O14 0.679904 0.082186 0.748442
O O15 0.519815 0.000000 0.821405
O O16 0.420098 0.172331 0.337721
O O17 0.479035 0.718870 0.384728
O O18 0.193964 0.702115 0.381565
O O19 0.500000 0.193461 0.500000
#
# Coordination Sequence:
#
# PCOD8099060 Si02
#       8
#     8   8   8   8   8   8   8   8
#     4  10  20  35  55  77 110 154 193 234 276 319
#     4  10  22  36  50  77 115 156 205 244 272 315
#     4  11  22  40  64  90 115 141 179 232 291 355
#     4  10  21  38  57  87 116 146 182 224 287 351
#     4  10  20  37  59  84 113 146 188 232 285 338
#     4  10  20  35  57  79 113 152 194 231 280 327
#     4  11  20  37  54  77 113 146 189 233 280 333
#     4  11  22  33  50  80 112 152 194 237 278 319
#
# _framework density 20.422573
#
# number of rings (size 3 to 8) (size 9 to 14) (size 15 to 20)
#    0.000    1.625    2.500    3.375    0.000    4.750 
#    0.000    1.875    0.000    0.000    0.000    0.000 
#    0.000    8.250    0.000    0.000    0.000    0.000 
#
# Total GULP energy -396677.857426 kJ/mol
# GULP energy per Si atom -12396.183045 kJ/mol
# Density = 2.037609 g / cm^3
# Si number density = 20.422573 Si / 1000 Ang^3
#
#
#
# Elastic Constant Matrix: (Units=GPa)
#
#
# Indices 1 2 3 4 5 6 
#
# 1 43.2169 34.6516 32.6327 0.0000 2.0087 0.0000
# 2 34.6516 159.2769 50.2643 0.0000 -4.1355 0.0000
# 3 32.6327 50.2643 123.6905 0.0000 -7.4149 0.0000
# 4 0.0000 0.0000 0.0000 24.0735 0.0000 1.5951
# 5 2.0087 -4.1355 -7.4149 0.0000 25.4983 0.0000
# 6 0.0000 0.0000 0.0000 1.5951 0.0000 22.4808
#
#
#
# Elastic Compliance Matrix: (Units=1/GPa)
#
#
# Indices 1 2 3 4 5 6 
#
# 1 0.032649 -0.005073 -0.006875 0.000000 -0.005394 0.000000
# 2 -0.005073 0.007993 -0.001840 0.000000 0.001161 0.000000
# 3 -0.006875 -0.001840 0.010850 0.000000 0.003398 0.000000
# 4 0.000000 0.000000 0.000000 0.041736 0.000000 -0.002961
# 5 -0.005394 0.001161 0.003398 0.000000 0.040820 0.000000
# 6 0.000000 0.000000 0.000000 -0.002961 0.000000 0.044692
#
#
# Mechanical properties :
#
#
# Convention : Reuss Voigt Hill
#
# Bulk Modulus (GPa) = 41.81536 62.36463 52.08999
# Shear Modulus (GPa) = 23.33293 28.31956 25.82624
#
# Velocity S-wave (km/s) = 3.38377 3.72785 3.55997
# Velocity P-wave (km/s) = 5.98214 7.00946 6.51608
#
# Compressibility (1/GPa) = 0.02391466
#
# Stress axis : x y z
#
# Youngs Moduli (GPa) = 30.62858 125.11065 92.16545
#
# Poissons Ratio (x) = 0.63473 0.63367
# Poissons Ratio (y) = 0.15539 0.16959
# Poissons Ratio (z) = 0.21058 0.23021
#
# Static dielectric constant tensor:
#      x y z
#    x 3.486240 0.000000 0.089460 
#    y 0.000000 4.219900 0.000000 
#    z 0.089460 0.000000 3.523890 
# 
# 
# High freq. dielectric constant tensor:
#      x y z
#    x 1.781890 0.000000 0.003310 
#    y 0.000000 1.817500 0.000000 
#    z 0.003310 0.000000 1.769570 
# 
# From -- ./inp_files/198874.got.cif
#   From: 2010.06.25/outbox.cif.g09.slc.cpg/sg12_100_cif.got.tgz:198874.got - 2010.06.28 00:19:55.
