data_PCOD8099779
_publ_section_title
;
Structure prediction by ZEFSAII (Michael W. Deem and Ramdas Pophale) SiO2 
 PCOD8099779
Probable space group: C 2/M
;
_chemical_formula_sum "Si O2"
_cell_formula_units_Z 56
_cell_length_a 12.185035
_cell_length_b 19.130091
_cell_length_c 12.884886
_cell_angle_alpha 90.000000
_cell_angle_beta 66.884927
_cell_angle_gamma 90.000000
_cell_volume 2762.353168
_symmetry_space_group_name_H-M "C 2/M"
_symmetry_group_IT_number 12
_symmetry_cell_setting 'monoclinic'
loop_
_space_group_symop_operation_xyz
x,y,z
-x,y,-z
-x,-y,-z
x,-y,z
1/2+x,1/2+y,z
1/2-x,1/2+y,-z
1/2-x,1/2-y,-z
1/2+x,1/2-y,z
loop_
_atom_site_type_symbol
_atom_site_label
_atom_site_fract_x
_atom_site_fract_y
_atom_site_fract_z
Si Si1 0.657834 0.418539 0.180994
Si Si2 0.256543 0.576389 0.440455
Si Si3 0.362165 0.170989 0.027853
Si Si4 0.134222 0.140157 0.414871
Si Si5 0.757208 0.692897 0.846605
Si Si6 0.631202 0.208639 0.412104
Si Si7 0.589593 0.420852 0.815605
O O1 0.657726 0.500000 0.206646
O O2 0.783836 0.396790 0.085191
O O3 0.640268 0.375601 0.291908
O O4 0.550519 0.400084 0.139739
O O5 0.194909 0.500000 0.448622
O O6 0.301568 0.580503 0.541821
O O7 0.168368 0.640413 0.460568
O O8 0.364242 0.584839 0.319496
O O9 0.320008 0.236873 0.112077
O O10 0.500000 0.154882 0.000000
O O11 0.342844 0.183572 0.913187
O O12 0.195646 0.216876 0.413028
O O13 0.000000 0.141788 0.500000
O O14 0.850233 0.695128 0.717171
O O15 0.661774 0.630118 0.865518
O O16 0.500000 0.221577 0.500000
O O17 0.604807 0.500000 0.852815
#
# Coordination Sequence:
#
# PCOD8099779 Si02
#       7
#     8   8   8   8   8   8   8
#     4  11  23  40  64  95 128 164 215 263 316 378
#     4  10  20  35  56  88 129 169 204 249 310 369
#     4  11  26  43  63  90 125 170 212 257 317 384
#     4  11  20  35  59  91 129 162 198 255 318 367
#     4  10  23  43  66  90 125 168 211 261 318 371
#     4  10  22  39  62  94 123 162 210 256 304 375
#     4   9  20  38  64  94 122 159 211 269 312 364
#
# _framework density 20.272570999999999
#
# number of rings (size 3 to 8) (size 9 to 14) (size 15 to 20)
#    0.000    1.714    2.857    0.857    4.000    2.857 
#    2.571    1.429    0.000    0.000    0.000    0.000 
#    0.000    0.000    0.000    0.000    0.000    0.000 
#
# Total GULP energy -347000.861117 kJ/mol
# GULP energy per Si atom -12392.887897 kJ/mol
# Density = 2.022643 g / cm^3
# Si number density = 20.272571 Si / 1000 Ang^3
#
#
#
# Elastic Constant Matrix: (Units=GPa)
#
#
# Indices 1 2 3 4 5 6 
#
# 1 100.5810 45.4678 30.2947 0.0000 -5.5850 0.0000
# 2 45.4678 127.7050 15.2705 0.0000 0.6795 0.0000
# 3 30.2947 15.2705 77.4202 0.0000 -6.0325 0.0000
# 4 0.0000 0.0000 0.0000 19.2170 0.0000 -0.5512
# 5 -5.5850 0.6795 -6.0325 0.0000 26.4253 0.0000
# 6 0.0000 0.0000 0.0000 -0.5512 0.0000 35.7240
#
#
#
# Elastic Compliance Matrix: (Units=1/GPa)
#
#
# Indices 1 2 3 4 5 6 
#
# 1 0.013218 -0.004215 -0.004189 0.000000 0.001946 0.000000
# 2 -0.004215 0.009373 -0.000293 0.000000 -0.001199 0.000000
# 3 -0.004189 -0.000293 0.014808 0.000000 0.002503 0.000000
# 4 0.000000 0.000000 0.000000 0.052060 0.000000 0.000803
# 5 0.001946 -0.001199 0.002503 0.000000 0.038856 0.000000
# 6 0.000000 0.000000 0.000000 0.000803 0.000000 0.028005
#
#
# Mechanical properties :
#
#
# Convention : Reuss Voigt Hill
#
# Bulk Modulus (GPa) = 49.98825 54.19692 52.09258
# Shear Modulus (GPa) = 27.71895 30.58480 29.15187
#
# Velocity S-wave (km/s) = 3.70173 3.88839 3.79621
# Velocity P-wave (km/s) = 6.55607 6.85212 6.70573
#
# Compressibility (1/GPa) = 0.02000470
#
# Stress axis : x y z
#
# Youngs Moduli (GPa) = 75.65693 106.69225 67.52919
#
# Poissons Ratio (x) = 0.44975 0.28288
# Poissons Ratio (y) = 0.31892 0.01976
# Poissons Ratio (z) = 0.31693 0.03122
#
# Static dielectric constant tensor:
#      x y z
#    x 3.322280 0.000000 -0.113330 
#    y 0.000000 4.002690 0.000000 
#    z -0.113330 0.000000 3.479560 
# 
# 
# High freq. dielectric constant tensor:
#      x y z
#    x 1.768110 0.000000 0.008320 
#    y 0.000000 1.808540 0.000000 
#    z 0.008320 0.000000 1.795970 
# 
# From -- ./inp_files/206558.got.cif
#   From: 2010.06.25/outbox.cif.g09.slc.cpg/sg12_104_cif.got.tgz:206558.got - 2010.06.28 00:19:55.
