data_PCOD8099355
_publ_section_title
;
Structure prediction by ZEFSAII (Michael W. Deem and Ramdas Pophale) SiO2 
 PCOD8099355
Probable space group: C 2/M
;
_chemical_formula_sum "Si O2"
_cell_formula_units_Z 56
_cell_length_a 18.835764
_cell_length_b 8.987079
_cell_length_c 19.867414
_cell_angle_alpha 90.000000
_cell_angle_beta 117.885981
_cell_angle_gamma 90.000000
_cell_volume 2972.600151
_symmetry_space_group_name_H-M "C 2/M"
_symmetry_group_IT_number 12
_symmetry_cell_setting 'monoclinic'
loop_
_space_group_symop_operation_xyz
x,y,z
-x,y,-z
-x,-y,-z
x,-y,z
1/2+x,1/2+y,z
1/2-x,1/2+y,-z
1/2-x,1/2-y,-z
1/2+x,1/2-y,z
loop_
_atom_site_type_symbol
_atom_site_label
_atom_site_fract_x
_atom_site_fract_y
_atom_site_fract_z
Si Si1 0.210417 0.326067 0.581543
Si Si2 0.763292 0.174459 0.855081
Si Si3 0.394452 0.173443 0.134528
Si Si4 0.677147 0.330641 0.700529
Si Si5 0.638895 0.173901 0.406953
Si Si6 0.983796 0.830711 0.287435
Si Si7 0.911868 0.326542 0.987507
O O1 0.218520 0.500000 0.598011
O O2 0.167042 0.250678 0.625118
O O3 0.299006 0.258798 0.613322
O O4 0.156742 0.289484 0.492639
O O5 0.695065 0.214702 0.879904
O O6 0.744235 0.250709 0.775486
O O7 0.848690 0.232706 0.917202
O O8 0.768458 0.000000 0.845094
O O9 0.461029 0.266431 0.204384
O O10 0.412515 0.000000 0.153830
O O11 0.403232 0.220189 0.061216
O O12 0.704359 0.500000 0.701478
O O13 0.591710 0.320103 0.697571
O O14 0.550882 0.230206 0.351221
O O15 0.646064 0.000000 0.395159
O O16 0.013640 0.000000 0.292256
O O17 0.892799 0.500000 0.969133
O O18 0.000000 0.285787 0.000000
#
# Coordination Sequence:
#
# PCOD8099355 Si02
#       7
#     8   8   8   8   8   8   8
#     4  10  21  37  57  81 109 143 184 226 269 323
#     4  10  20  35  56  79 105 139 179 223 267 318
#     4   9  19  36  56  77 104 141 181 220 269 325
#     4  10  21  37  57  81 110 144 181 224 275 326
#     4  10  21  37  57  80 110 147 182 221 272 326
#     4  10  21  36  56  82 110 142 183 229 272 320
#     4  10  21  36  54  78 108 140 175 218 269 325
#
# _framework density 18.838726000000001
#
# number of rings (size 3 to 8) (size 9 to 14) (size 15 to 20)
#    0.000    2.143    0.000    2.571    0.000    6.571 
#    0.000    7.143    0.000    0.000    0.000    0.000 
#    0.000    0.000    0.000    0.000    0.000    0.000 
#
# Total GULP energy -347341.489178 kJ/mol
# GULP energy per Si atom -12405.053185 kJ/mol
# Density = 1.879585 g / cm^3
# Si number density = 18.838726 Si / 1000 Ang^3
#
#
#
# Elastic Constant Matrix: (Units=GPa)
#
#
# Indices 1 2 3 4 5 6 
#
# 1 54.7109 26.5723 33.5390 0.0000 16.8592 0.0000
# 2 26.5723 75.3015 28.2749 0.0000 19.2960 0.0000
# 3 33.5390 28.2749 68.6167 0.0000 23.9844 0.0000
# 4 0.0000 0.0000 0.0000 37.3300 0.0000 2.8116
# 5 16.8592 19.2960 23.9844 0.0000 23.9775 0.0000
# 6 0.0000 0.0000 0.0000 2.8116 0.0000 32.3600
#
#
#
# Elastic Compliance Matrix: (Units=1/GPa)
#
#
# Indices 1 2 3 4 5 6 
#
# 1 0.028556 -0.004755 -0.009714 0.000000 -0.006535 0.000000
# 2 -0.004755 0.018042 -0.001851 0.000000 -0.009325 0.000000
# 3 -0.009714 -0.001851 0.026411 0.000000 -0.018098 0.000000
# 4 0.000000 0.000000 0.000000 0.026965 0.000000 -0.002343
# 5 -0.006535 -0.009325 -0.018098 0.000000 0.071908 0.000000
# 6 0.000000 0.000000 0.000000 -0.002343 0.000000 0.031106
#
#
# Mechanical properties :
#
#
# Convention : Reuss Voigt Hill
#
# Bulk Modulus (GPa) = 24.77164 41.71127 33.24146
# Shear Modulus (GPa) = 20.07350 26.08305 23.07828
#
# Velocity S-wave (km/s) = 3.26781 3.72498 3.50386
# Velocity P-wave (km/s) = 5.23603 6.37887 5.83549
#
# Compressibility (1/GPa) = 0.04036874
#
# Stress axis : x y z
#
# Youngs Moduli (GPa) = 35.01895 55.42518 37.86308
#
# Poissons Ratio (x) = 0.26352 0.36781
# Poissons Ratio (y) = 0.16650 0.07010
# Poissons Ratio (z) = 0.34019 0.10261
#
# Static dielectric constant tensor:
#      x y z
#    x 3.371320 0.000000 -0.069230 
#    y 0.000000 3.591570 0.000000 
#    z -0.069230 0.000000 3.495670 
# 
# 
# High freq. dielectric constant tensor:
#      x y z
#    x 1.726110 0.000000 -0.000420 
#    y 0.000000 1.743280 0.000000 
#    z -0.000420 0.000000 1.738470 
# 
# From -- ./inp_files/275502.got.cif
#   From: 2010.06.25/outbox.cif.g09.slc.cpg/sg12_138_cif.got.tgz:275502.got - 2010.06.28 00:19:55.
