data_PCOD8099278
_publ_section_title
;
Structure prediction by ZEFSAII (Michael W. Deem and Ramdas Pophale) SiO2 
 PCOD8099278
Probable space group: C 2/M
;
_chemical_formula_sum "Si O2"
_cell_formula_units_Z 64
_cell_length_a 17.608891
_cell_length_b 14.980395
_cell_length_c 23.867520
_cell_angle_alpha 90.000000
_cell_angle_beta 29.034621
_cell_angle_gamma 90.000000
_cell_volume 3055.673024
_symmetry_space_group_name_H-M "C 2/M"
_symmetry_group_IT_number 12
_symmetry_cell_setting 'monoclinic'
loop_
_space_group_symop_operation_xyz
x,y,z
-x,y,-z
-x,-y,-z
x,-y,z
1/2+x,1/2+y,z
1/2-x,1/2+y,-z
1/2-x,1/2-y,-z
1/2+x,1/2-y,z
loop_
_atom_site_type_symbol
_atom_site_label
_atom_site_fract_x
_atom_site_fract_y
_atom_site_fract_z
Si Si1 0.834734 0.104256 0.954366
Si Si2 0.902396 0.787061 0.372223
Si Si3 0.192845 0.403008 0.435336
Si Si4 0.449779 0.782891 0.823405
Si Si5 0.216992 0.163936 0.353199
Si Si6 0.993991 0.099389 0.413341
Si Si7 0.640394 0.843788 0.352092
Si Si8 0.581094 0.600773 0.893489
O O1 0.887673 0.181562 0.876264
O O2 0.963077 0.102511 0.918926
O O3 0.816849 0.000000 0.942558
O O4 0.673536 0.138747 0.085456
O O5 0.750000 0.750000 0.500000
O O6 0.840982 0.846925 0.359884
O O7 0.007916 0.714836 0.270573
O O8 0.008729 0.838684 0.348785
O O9 0.214387 0.500000 0.447781
O O10 0.190227 0.412606 0.369176
O O11 0.029189 0.364161 0.564767
O O12 0.599161 0.814137 0.764365
O O13 0.158303 0.096100 0.342250
O O14 0.123455 0.251505 0.395293
O O15 0.154113 0.131442 0.453819
O O16 0.957342 0.000000 0.416054
O O17 0.764535 0.843208 0.221644
O O18 0.633363 0.500000 0.874441
O O19 0.500000 0.645605 0.000000
#
# Coordination Sequence:
#
# PCOD8099278 Si02
#       8
#     8   8   8   8   8   8   8   8
#     4  10  23  43  65  91 120 161 219 269 317 379
#     4  12  22  41  59  91 129 163 205 255 323 385
#     4  11  21  32  55  87 121 155 197 248 307 379
#     4  11  23  42  68  92 123 171 214 267 326 375
#     4  11  20  40  63  86 121 167 215 247 310 382
#     4  11  24  39  61  93 132 170 210 260 314 386
#     4  11  19  35  57  86 117 162 199 243 307 375
#     4  10  20  35  55  82 118 154 196 252 309 369
#
# _framework density 20.944649999999999
#
# number of rings (size 3 to 8) (size 9 to 14) (size 15 to 20)
#    0.000    1.125    3.750    4.875    0.000    5.000 
#    0.000    1.250    0.000    0.000    0.000    2.625 
#    0.000    0.000    0.000    0.000    0.000    0.000 
#
# Total GULP energy -396483.072324 kJ/mol
# GULP energy per Si atom -12390.096010 kJ/mol
# Density = 2.089698 g / cm^3
# Si number density = 20.944650 Si / 1000 Ang^3
#
#
#
# Elastic Constant Matrix: (Units=GPa)
#
#
# Indices 1 2 3 4 5 6 
#
# 1 57.8913 -2.9936 21.6419 -0.0056 4.8878 0.0042
# 2 -2.9936 86.6436 23.9151 -0.0012 -1.4879 0.0056
# 3 21.6419 23.9151 131.8689 -0.0032 5.0826 0.0170
# 4 -0.0056 -0.0012 -0.0032 28.7610 0.0050 -5.8134
# 5 4.8878 -1.4879 5.0826 0.0050 28.2325 -0.0073
# 6 0.0042 0.0056 0.0170 -5.8134 -0.0073 31.4119
#
#
#
# Elastic Compliance Matrix: (Units=1/GPa)
#
#
# Indices 1 2 3 4 5 6 
#
# 1 0.018787 0.001503 -0.003256 0.000004 -0.002587 -0.000001
# 2 0.001503 0.012301 -0.002510 0.000000 0.000840 -0.000001
# 3 -0.003256 -0.002510 0.008616 0.000000 -0.001120 -0.000004
# 4 0.000004 0.000000 0.000000 0.036121 -0.000005 0.006685
# 5 -0.002587 0.000840 -0.001120 -0.000005 0.036114 0.000008
# 6 -0.000001 -0.000001 -0.000004 0.006685 0.000008 0.033072
#
#
# Mechanical properties :
#
#
# Convention : Reuss Voigt Hill
#
# Bulk Modulus (GPa) = 32.07332 40.17007 36.12169
# Shear Modulus (GPa) = 30.50103 33.27043 31.88573
#
# Velocity S-wave (km/s) = 3.82025 3.98991 3.90600
# Velocity P-wave (km/s) = 5.89963 6.35977 6.13402
#
# Compressibility (1/GPa) = 0.03117856
#
# Stress axis : x y z
#
# Youngs Moduli (GPa) = 53.22763 81.29632 116.06267
#
# Poissons Ratio (x) = -0.12223 0.37793
# Poissons Ratio (y) = -0.08003 0.29131
# Poissons Ratio (z) = 0.17332 0.20405
#
# Static dielectric constant tensor:
#      x y z
#    x 3.871440 0.000000 -0.033260 
#    y 0.000000 4.119480 0.000010 
#    z -0.033260 0.000010 3.844900 
# 
# 
# High freq. dielectric constant tensor:
#      x y z
#    x 1.808270 0.000000 -0.004690 
#    y 0.000000 1.816910 0.000000 
#    z -0.004690 0.000000 1.814430 
# 
# From -- ./inp_files/344047.got.cif
#   From: 2010.06.25/outbox.cif.g09.slc.cpg/sg12_173_cif.got.tgz:344047.got - 2010.06.28 00:19:55.
