data_PCOD8099663
_publ_section_title
;
Structure prediction by ZEFSAII (Michael W. Deem and Ramdas Pophale) SiO2 
 PCOD8099663
Probable space group: C 2/M
;
_chemical_formula_sum "Si O2"
_cell_formula_units_Z 56
_cell_length_a 26.987061
_cell_length_b 9.475296
_cell_length_c 18.482689
_cell_angle_alpha 90.000000
_cell_angle_beta 143.914899
_cell_angle_gamma 90.000000
_cell_volume 2783.675931
_symmetry_space_group_name_H-M "C 2/M"
_symmetry_group_IT_number 12
_symmetry_cell_setting 'monoclinic'
loop_
_space_group_symop_operation_xyz
x,y,z
-x,y,-z
-x,-y,-z
x,-y,z
1/2+x,1/2+y,z
1/2-x,1/2+y,-z
1/2-x,1/2-y,-z
1/2+x,1/2-y,z
loop_
_atom_site_type_symbol
_atom_site_label
_atom_site_fract_x
_atom_site_fract_y
_atom_site_fract_z
Si Si1 0.335460 0.165158 0.116540
Si Si2 0.616441 0.343081 0.320710
Si Si3 0.777490 0.836546 0.687754
Si Si4 0.956390 0.657354 0.133681
Si Si5 0.377906 0.339182 0.505848
Si Si6 0.978279 0.336141 0.391273
Si Si7 0.906740 0.344704 0.917716
O O1 0.402306 0.219991 0.135867
O O2 0.380947 0.190690 0.249371
O O3 0.314426 0.000000 0.081608
O O4 0.250000 0.250000 0.000000
O O5 0.584760 0.500000 0.264128
O O6 0.696948 0.306865 0.365624
O O7 0.540011 0.241181 0.213818
O O8 0.643627 0.332822 0.435322
O O9 0.697171 0.747435 0.619691
O O10 0.853470 0.785774 0.826842
O O11 0.758066 0.000000 0.679486
O O12 0.985281 0.500000 0.188771
O O13 0.899077 0.658458 0.995071
O O14 0.381307 0.500000 0.481066
O O15 0.465280 0.261953 0.593102
O O16 0.001045 0.500000 0.405118
O O17 0.000000 0.294650 0.500000
O O18 0.875229 0.500000 0.853073
O O19 0.000000 0.319675 0.000000
#
# Coordination Sequence:
#
# PCOD8099663 Si02
#       7
#     8   8   8   8   8   8   8
#     4  10  22  40  63  90 119 153 196 247 302 363
#     4  10  21  36  57  86 116 152 198 242 288 345
#     4  11  23  37  56  85 122 161 201 245 294 351
#     4  10  20  36  60  86 113 152 195 238 292 350
#     4  11  23  39  60  87 119 156 200 248 298 353
#     4  10  22  42  67  93 122 156 200 253 314 372
#     4  10  20  35  56  83 116 154 196 242 293 350
#
# _framework density 20.117284999999999
#
# number of rings (size 3 to 8) (size 9 to 14) (size 15 to 20)
#    0.000    1.714    2.857    1.286    0.000    4.571 
#    0.000    2.857    0.000    0.000    0.000    0.000 
#    0.000    0.000    0.000    0.000    0.000    0.000 
#
# Total GULP energy -347074.497000 kJ/mol
# GULP energy per Si atom -12395.517750 kJ/mol
# Density = 2.007150 g / cm^3
# Si number density = 20.117285 Si / 1000 Ang^3
#
#
#
# Elastic Constant Matrix: (Units=GPa)
#
#
# Indices 1 2 3 4 5 6 
#
# 1 54.0794 29.7106 31.5588 0.0000 -1.6376 0.0000
# 2 29.7106 104.9836 57.5892 0.0000 18.0526 0.0000
# 3 31.5588 57.5892 104.8278 0.0000 2.8225 0.0000
# 4 0.0000 0.0000 0.0000 38.0864 0.0000 3.8453
# 5 -1.6376 18.0526 2.8225 0.0000 32.3661 0.0000
# 6 0.0000 0.0000 0.0000 3.8453 0.0000 25.8085
#
#
#
# Elastic Compliance Matrix: (Units=1/GPa)
#
#
# Indices 1 2 3 4 5 6 
#
# 1 0.024085 -0.005063 -0.004589 0.000000 0.004443 0.000000
# 2 -0.005063 0.016470 -0.007287 0.000000 -0.008807 0.000000
# 3 -0.004589 -0.007287 0.014856 0.000000 0.002536 0.000000
# 4 0.000000 0.000000 0.000000 0.026657 0.000000 -0.003972
# 5 0.004443 -0.008807 0.002536 0.000000 0.035812 0.000000
# 6 0.000000 0.000000 0.000000 -0.003972 0.000000 0.039339
#
#
# Mechanical properties :
#
#
# Convention : Reuss Voigt Hill
#
# Bulk Modulus (GPa) = 46.43915 55.73422 51.08668
# Shear Modulus (GPa) = 25.21765 28.92102 27.06933
#
# Velocity S-wave (km/s) = 3.54437 3.79571 3.67219
# Velocity P-wave (km/s) = 6.31541 6.85381 6.59011
#
# Compressibility (1/GPa) = 0.02153356
#
# Stress axis : x y z
#
# Youngs Moduli (GPa) = 41.51896 60.71819 67.31359
#
# Poissons Ratio (x) = 0.30739 0.30892
# Poissons Ratio (y) = 0.21020 0.49049
# Poissons Ratio (z) = 0.19054 0.44243
#
# Static dielectric constant tensor:
#      x y z
#    x 3.633410 0.000000 -0.156420 
#    y 0.000000 3.712930 0.000000 
#    z -0.156420 0.000000 3.557200 
# 
# 
# High freq. dielectric constant tensor:
#      x y z
#    x 1.776090 0.000000 -0.006870 
#    y 0.000000 1.787390 0.000000 
#    z -0.006870 0.000000 1.780800 
# 
# From -- ./inp_files/329727.got.cif
#   From: 2010.06.25/outbox.cif.g09.slc.cpg/sg12_165_cif.got.tgz:329727.got - 2010.06.28 00:19:55.
