data_PCOD8099433
_publ_section_title
;
Structure prediction by ZEFSAII (Michael W. Deem and Ramdas Pophale) SiO2 
 PCOD8099433
Probable space group: C 2/M
;
_chemical_formula_sum "Si O2"
_cell_formula_units_Z 64
_cell_length_a 11.833463
_cell_length_b 15.757665
_cell_length_c 24.564039
_cell_angle_alpha 90.000000
_cell_angle_beta 137.536136
_cell_angle_gamma 90.000000
_cell_volume 3092.343569
_symmetry_space_group_name_H-M "C 2/M"
_symmetry_group_IT_number 12
_symmetry_cell_setting 'monoclinic'
loop_
_space_group_symop_operation_xyz
x,y,z
-x,y,-z
-x,-y,-z
x,-y,z
1/2+x,1/2+y,z
1/2-x,1/2+y,-z
1/2-x,1/2-y,-z
1/2+x,1/2-y,z
loop_
_atom_site_type_symbol
_atom_site_label
_atom_site_fract_x
_atom_site_fract_y
_atom_site_fract_z
Si Si1 0.781761 0.600021 0.540185
Si Si2 0.410608 0.837581 0.410649
Si Si3 0.229179 0.658763 0.344682
Si Si4 0.335582 0.592741 0.977577
Si Si5 0.954001 0.101856 0.853351
Si Si6 0.510608 0.597429 0.640676
Si Si7 0.428168 0.594669 0.725372
Si Si8 0.866883 0.601924 0.192866
O O1 0.812505 0.500000 0.543188
O O2 0.722654 0.618330 0.580356
O O3 0.635398 0.636785 0.449228
O O4 0.950967 0.651861 0.587305
O O5 0.500000 0.845649 0.500000
O O6 0.303586 0.752246 0.366161
O O7 0.272612 0.910832 0.354854
O O8 0.311404 0.604664 0.325285
O O9 0.030815 0.655265 0.265961
O O10 0.267241 0.500000 0.969299
O O11 0.192541 0.634615 0.888620
O O12 0.500000 0.581950 0.000000
O O13 0.393974 0.639475 0.054544
O O14 0.972965 0.140086 0.798949
O O15 0.772776 0.128024 0.812455
O O16 0.963325 0.000000 0.857386
O O17 0.464263 0.500000 0.633434
O O18 0.510072 0.640588 0.701005
O O19 0.499413 0.500000 0.755365
O O20 0.899374 0.500000 0.205476
#
# Coordination Sequence:
#
# PCOD8099433 Si02
#       8
#     8   8   8   8   8   8   8   8
#     4  11  23  41  62  80 104 148 201 243 282 333
#     4  12  25  38  58  80 113 146 190 239 291 328
#     4  12  25  36  55  81 117 149 184 232 286 337
#     4   7  11  22  47  81 113 139 172 229 282 319
#     4   8  14  28  53  86 112 136 182 235 278 323
#     4  10  21  37  56  76 105 146 190 231 278 332
#     4  10  20  35  56  80 108 143 184 231 280 333
#     4   9  16  30  52  81 115 148 185 228 277 334
#
# _framework density 20.696278
#
# number of rings (size 3 to 8) (size 9 to 14) (size 15 to 20)
#    0.000    2.125    1.250    4.875    1.750    3.500 
#    0.000    0.000    0.000    1.500    0.000    4.375 
#    0.000    0.000    0.000    0.000    0.000    3.375 
#
# Total GULP energy -396445.785937 kJ/mol
# GULP energy per Si atom -12388.930811 kJ/mol
# Density = 2.064917 g / cm^3
# Si number density = 20.696278 Si / 1000 Ang^3
#
#
#
# Elastic Constant Matrix: (Units=GPa)
#
#
# Indices 1 2 3 4 5 6 
#
# 1 145.3076 13.4362 64.1544 0.0000 -34.5602 0.0000
# 2 13.4362 35.6250 17.6351 0.0000 -2.2104 0.0000
# 3 64.1544 17.6351 132.5416 0.0000 -42.4210 0.0000
# 4 0.0000 0.0000 0.0000 4.9281 0.0000 8.7865
# 5 -34.5602 -2.2104 -42.4210 0.0000 34.8681 0.0000
# 6 0.0000 0.0000 0.0000 8.7865 0.0000 22.4149
#
#
#
# Elastic Compliance Matrix: (Units=1/GPa)
#
#
# Indices 1 2 3 4 5 6 
#
# 1 0.009667 -0.002116 -0.002250 0.000000 0.006710 0.000000
# 2 -0.002116 0.031021 -0.005151 0.000000 -0.006397 0.000000
# 3 -0.002250 -0.005151 0.013922 0.000000 0.014381 0.000000
# 4 0.000000 0.000000 0.000000 0.673911 0.000000 -0.264168
# 5 0.006710 -0.006397 0.014381 0.000000 0.052421 0.000000
# 6 0.000000 0.000000 0.000000 -0.264168 0.000000 0.148165
#
#
# Mechanical properties :
#
#
# Convention : Reuss Voigt Hill
#
# Bulk Modulus (GPa) = 28.10827 55.99174 42.05000
# Shear Modulus (GPa) = 5.20834 26.99212 16.10023
#
# Velocity S-wave (km/s) = 1.58809 3.61529 2.79216
# Velocity P-wave (km/s) = 4.11989 6.67382 5.54587
#
# Compressibility (1/GPa) = 0.03557672
#
# Stress axis : x y z
#
# Youngs Moduli (GPa) = 103.44565 32.23628 71.82926
#
# Poissons Ratio (x) = 0.06821 0.16161
# Poissons Ratio (y) = 0.21887 0.36997
# Poissons Ratio (z) = 0.23275 0.16604
#
# Static dielectric constant tensor:
#      x y z
#    x 3.890440 0.000000 -0.377930 
#    y 0.000000 3.294410 0.000000 
#    z -0.377930 0.000000 4.133260 
# 
# 
# High freq. dielectric constant tensor:
#      x y z
#    x 1.804430 0.000000 -0.021120 
#    y 0.000000 1.764720 0.000000 
#    z -0.021120 0.000000 1.812190 
# 
# From -- ./inp_files/358453.got.cif
#   From: 2010.06.25/outbox.cif.g09.slc.cpg/sg12_180_cif.got.tgz:358453.got - 2010.06.28 00:19:55.
