data_PCOD8099239
_publ_section_title
;
Structure prediction by ZEFSAII (Michael W. Deem and Ramdas Pophale) SiO2 
 PCOD8099239
Probable space group: C 2/M
;
_chemical_formula_sum "Si O2"
_cell_formula_units_Z 64
_cell_length_a 15.491396
_cell_length_b 8.901677
_cell_length_c 24.077325
_cell_angle_alpha 90.000000
_cell_angle_beta 90.334924
_cell_angle_gamma 90.000000
_cell_volume 3320.192028
_symmetry_space_group_name_H-M "C 2/M"
_symmetry_group_IT_number 12
_symmetry_cell_setting 'monoclinic'
loop_
_space_group_symop_operation_xyz
x,y,z
-x,y,-z
-x,-y,-z
x,-y,z
1/2+x,1/2+y,z
1/2-x,1/2+y,-z
1/2-x,1/2-y,-z
1/2+x,1/2-y,z
loop_
_atom_site_type_symbol
_atom_site_label
_atom_site_fract_x
_atom_site_fract_y
_atom_site_fract_z
Si Si1 0.470209 0.822330 0.940736
Si Si2 0.774388 0.321065 0.941566
Si Si3 0.628467 0.178726 0.867253
Si Si4 0.977953 0.828721 0.675625
Si Si5 0.129419 0.677548 0.741094
Si Si6 0.787775 0.821577 0.671318
Si Si7 0.279913 0.175335 0.443991
Si Si8 0.045680 0.170596 0.556975
O O1 0.372464 0.771422 0.926113
O O2 0.538706 0.766667 0.894882
O O3 0.473265 0.000000 0.944399
O O4 0.500000 0.753736 0.000000
O O5 0.766337 0.500000 0.945676
O O6 0.710758 0.257953 0.894806
O O7 0.750000 0.250000 0.000000
O O8 0.624665 0.235428 0.804002
O O9 0.640213 0.000000 0.872775
O O10 0.882365 0.773530 0.692991
O O11 0.045580 0.725623 0.707033
O O12 0.981546 0.814741 0.608809
O O13 0.994576 0.000000 0.694000
O O14 0.132830 0.500000 0.740302
O O15 0.215306 0.745648 0.712429
O O16 0.773769 0.761066 0.608653
O O17 0.779516 0.000000 0.669774
O O18 0.250000 0.250000 0.500000
O O19 0.378627 0.212650 0.431862
O O20 0.266591 0.000000 0.450809
O O21 0.000000 0.218706 0.500000
O O22 0.081112 0.000000 0.551817
#
# Coordination Sequence:
#
# PCOD8099239 Si02
#       8
#     8   8   8   8   8   8   8   8
#     4   9  17  33  56  80 112 152 184 220 282 341
#     4  11  21  35  58  85 116 151 190 234 281 338
#     4  10  21  38  59  83 113 152 192 231 279 337
#     4  10  20  36  59  81 109 149 189 228 280 342
#     4  10  21  39  60  82 113 150 192 235 278 332
#     4   9  19  37  58  80 111 152 184 226 290 341
#     4  11  21  35  56  81 114 147 187 234 288 350
#     4  10  20  35  55  81 113 147 187 234 288 346
#
# _framework density 19.275993
#
# number of rings (size 3 to 8) (size 9 to 14) (size 15 to 20)
#    0.000    2.000    2.500    1.500    0.000    3.750 
#    0.000    5.000    0.000    0.000    0.000    0.000 
#    0.000    0.000    0.000    0.000    0.000    0.000 
#
# Total GULP energy -396758.194331 kJ/mol
# GULP energy per Si atom -12398.693573 kJ/mol
# Density = 1.923212 g / cm^3
# Si number density = 19.275993 Si / 1000 Ang^3
#
#
#
# Elastic Constant Matrix: (Units=GPa)
#
#
# Indices 1 2 3 4 5 6 
#
# 1 161.9233 19.7665 73.5261 0.0000 -7.1179 0.0000
# 2 19.7665 29.0592 24.3532 0.0000 -1.6776 0.0000
# 3 73.5261 24.3532 144.0620 0.0000 -4.9015 0.0000
# 4 0.0000 0.0000 0.0000 22.8428 0.0000 5.0077
# 5 -7.1179 -1.6776 -4.9015 0.0000 32.5649 0.0000
# 6 0.0000 0.0000 0.0000 5.0077 0.0000 31.2579
#
#
#
# Elastic Compliance Matrix: (Units=1/GPa)
#
#
# Indices 1 2 3 4 5 6 
#
# 1 0.008220 -0.002380 -0.003755 0.000000 0.001109 0.000000
# 2 -0.002380 0.040818 -0.005660 0.000000 0.000730 0.000000
# 3 -0.003755 -0.005660 0.009827 0.000000 0.000367 0.000000
# 4 0.000000 0.000000 0.000000 0.045371 0.000000 -0.007269
# 5 0.001109 0.000730 0.000367 0.000000 0.031043 0.000000
# 6 0.000000 0.000000 0.000000 -0.007269 0.000000 0.033156
#
#
# Mechanical properties :
#
#
# Convention : Reuss Voigt Hill
#
# Bulk Modulus (GPa) = 28.35013 63.37066 45.86040
# Shear Modulus (GPa) = 24.53559 31.82637 28.18098
#
# Velocity S-wave (km/s) = 3.57158 4.06777 3.82772
# Velocity P-wave (km/s) = 5.63451 7.41681 6.58623
#
# Compressibility (1/GPa) = 0.03527320
#
# Stress axis : x y z
#
# Youngs Moduli (GPa) = 121.64978 24.49926 101.75592
#
# Poissons Ratio (x) = 0.05832 0.38213
# Poissons Ratio (y) = 0.28957 0.57597
# Poissons Ratio (z) = 0.45684 0.13867
#
# Static dielectric constant tensor:
#      x y z
#    x 3.984710 0.000000 -0.271920 
#    y 0.000000 3.372200 0.000000 
#    z -0.271920 0.000000 3.829080 
# 
# 
# High freq. dielectric constant tensor:
#      x y z
#    x 1.763940 0.000000 -0.003890 
#    y 0.000000 1.718500 0.000000 
#    z -0.003890 0.000000 1.753740 
# 
# From -- ./inp_files/338908.got.cif
#   From: 2010.06.25/outbox.cif.g09.slc.cpg/sg12_170_cif.got.tgz:338908.got - 2010.06.28 00:19:55.
