data_PCOD8099474
_publ_section_title
;
Structure prediction by ZEFSAII (Michael W. Deem and Ramdas Pophale) SiO2 
 PCOD8099474
Probable space group: C 2/M
;
_chemical_formula_sum "Si O2"
_cell_formula_units_Z 64
_cell_length_a 14.803404
_cell_length_b 9.199068
_cell_length_c 30.285040
_cell_angle_alpha 90.000000
_cell_angle_beta 126.825101
_cell_angle_gamma 90.000000
_cell_volume 3301.246978
_symmetry_space_group_name_H-M "C 2/M"
_symmetry_group_IT_number 12
_symmetry_cell_setting 'monoclinic'
loop_
_space_group_symop_operation_xyz
x,y,z
-x,y,-z
-x,-y,-z
x,-y,z
1/2+x,1/2+y,z
1/2-x,1/2+y,-z
1/2-x,1/2-y,-z
1/2+x,1/2-y,z
loop_
_atom_site_type_symbol
_atom_site_label
_atom_site_fract_x
_atom_site_fract_y
_atom_site_fract_z
Si Si1 0.550533 0.170732 0.635336
Si Si2 0.369585 0.329000 0.166714
Si Si3 0.922593 0.663725 0.047333
Si Si4 0.296303 0.167304 0.555338
Si Si5 0.279263 0.664341 0.942466
Si Si6 0.062524 0.832408 0.154862
Si Si7 0.402146 0.668422 0.438895
Si Si8 0.322525 0.169806 0.239684
O O1 0.421381 0.220225 0.604341
O O2 0.601692 0.246575 0.607695
O O3 0.621048 0.221203 0.698358
O O4 0.561292 0.000000 0.631272
O O5 0.345916 0.500000 0.162010
O O6 0.262590 0.251577 0.112573
O O7 0.484405 0.293607 0.173919
O O8 0.382219 0.262943 0.219031
O O9 0.955379 0.500000 0.043267
O O10 0.817503 0.662908 0.049417
O O11 0.028887 0.738603 0.102226
O O12 0.889518 0.754388 0.993935
O O13 0.250000 0.250000 0.500000
O O14 0.218956 0.196617 0.574931
O O15 0.295381 0.000000 0.541536
O O16 0.311471 0.500000 0.938034
O O17 0.190165 0.794985 0.204905
O O18 0.046116 0.000000 0.136978
O O19 0.500000 0.728767 0.500000
O O20 0.425413 0.500000 0.435722
O O21 0.344360 0.000000 0.236657
#
# Coordination Sequence:
#
# PCOD8099474 Si02
#       8
#     8   8   8   8   8   8   8   8
#     4  10  22  38  57  82 111 145 186 228 269 321
#     4  10  20  35  56  81 107 141 185 231 276 325
#     4   9  16  27  48  79 110 139 179 229 276 327
#     4  10  20  35  56  83 114 146 179 218 267 321
#     4   9  16  28  49  77 109 145 180 220 278 338
#     4   9  19  36  56  76 106 146 183 223 277 335
#     4  10  20  35  56  83 115 147 178 218 270 323
#     4  10  22  40  57  77 109 146 185 228 274 326
#
# _framework density 19.386613000000001
#
# number of rings (size 3 to 8) (size 9 to 14) (size 15 to 20)
#    0.000    2.375    1.250    1.125    0.000    6.250 
#    0.000    0.625    0.000    3.750    0.000    0.000 
#    0.000    0.000    0.000    0.000    0.000    0.000 
#
# Total GULP energy -396902.001449 kJ/mol
# GULP energy per Si atom -12403.187545 kJ/mol
# Density = 1.934249 g / cm^3
# Si number density = 19.386613 Si / 1000 Ang^3
#
#
#
# Elastic Constant Matrix: (Units=GPa)
#
#
# Indices 1 2 3 4 5 6 
#
# 1 68.1574 30.7288 45.9816 0.0000 7.4445 0.0000
# 2 30.7288 80.8382 53.7305 0.0000 2.4871 0.0000
# 3 45.9816 53.7305 149.2979 0.0000 7.7087 0.0000
# 4 0.0000 0.0000 0.0000 34.0147 0.0000 -8.1634
# 5 7.4445 2.4871 7.7087 0.0000 29.9926 0.0000
# 6 0.0000 0.0000 0.0000 -8.1634 0.0000 25.3736
#
#
#
# Elastic Compliance Matrix: (Units=1/GPa)
#
#
# Indices 1 2 3 4 5 6 
#
# 1 0.020066 -0.004643 -0.004329 0.000000 -0.003483 0.000000
# 2 -0.004643 0.017335 -0.004858 0.000000 0.000964 0.000000
# 3 -0.004329 -0.004858 0.009834 0.000000 -0.001050 0.000000
# 4 0.000000 0.000000 0.000000 0.031859 0.000000 0.010250
# 5 -0.003483 0.000964 -0.001050 0.000000 0.034396 0.000000
# 6 0.000000 0.000000 0.000000 0.010250 0.000000 0.042709
#
#
# Mechanical properties :
#
#
# Convention : Reuss Voigt Hill
#
# Bulk Modulus (GPa) = 51.08861 62.13058 56.60959
# Shear Modulus (GPa) = 26.26253 29.06636 27.66444
#
# Velocity S-wave (km/s) = 3.68458 3.87628 3.78165
# Velocity P-wave (km/s) = 6.67168 7.22162 6.95209
#
# Compressibility (1/GPa) = 0.01957383
#
# Stress axis : x y z
#
# Youngs Moduli (GPa) = 49.83451 57.68713 101.68708
#
# Poissons Ratio (x) = 0.26784 0.44024
# Poissons Ratio (y) = 0.23138 0.49404
# Poissons Ratio (z) = 0.21575 0.28027
#
# Static dielectric constant tensor:
#      x y z
#    x 3.454390 0.000000 0.071440 
#    y 0.000000 3.571180 0.000000 
#    z 0.071440 0.000000 3.575930 
# 
# 
# High freq. dielectric constant tensor:
#      x y z
#    x 1.751770 0.000000 0.001730 
#    y 0.000000 1.753920 0.000000 
#    z 0.001730 0.000000 1.751990 
# 
# From -- ./inp_files/375684.got.cif
#   From: 2010.06.25/outbox.cif.g09.slc.cpg/sg12_188_cif.got.tgz:375684.got - 2010.06.28 00:19:55.
