data_PCOD8099755
_publ_section_title
;
Structure prediction by ZEFSAII (Michael W. Deem and Ramdas Pophale) SiO2 
 PCOD8099755
Probable space group: C 2/M
;
_chemical_formula_sum "Si O2"
_cell_formula_units_Z 64
_cell_length_a 9.147074
_cell_length_b 15.635800
_cell_length_c 26.528830
_cell_angle_alpha 90.000000
_cell_angle_beta 53.642322
_cell_angle_gamma 90.000000
_cell_volume 3055.591579
_symmetry_space_group_name_H-M "C 2/M"
_symmetry_group_IT_number 12
_symmetry_cell_setting 'monoclinic'
loop_
_space_group_symop_operation_xyz
x,y,z
-x,y,-z
-x,-y,-z
x,-y,z
1/2+x,1/2+y,z
1/2-x,1/2+y,-z
1/2-x,1/2-y,-z
1/2+x,1/2-y,z
loop_
_atom_site_type_symbol
_atom_site_label
_atom_site_fract_x
_atom_site_fract_y
_atom_site_fract_z
Si Si1 0.266234 0.842765 0.242693
Si Si2 0.462326 0.601309 0.120974
Si Si3 0.487293 0.404654 0.622654
Si Si4 0.065850 0.170071 0.761654
Si Si5 0.658536 0.101809 0.003678
Si Si6 0.810208 0.596299 0.630870
Si Si7 0.540726 0.755309 0.548024
Si Si8 0.134254 0.401480 0.120755
O O1 0.171714 0.902706 0.303368
O O2 0.331898 0.759832 0.259085
O O3 0.436892 0.892142 0.185032
O O4 0.127479 0.819847 0.226253
O O5 0.451832 0.500000 0.128300
O O6 0.465857 0.640230 0.175462
O O7 0.290589 0.638747 0.124670
O O8 0.645733 0.631295 0.056216
O O9 0.487338 0.500000 0.598702
O O10 0.678807 0.384914 0.610452
O O11 0.455770 0.333543 0.586097
O O12 0.195475 0.103981 0.705822
O O13 0.636106 0.140605 0.064647
O O14 0.643094 0.000000 0.008180
O O15 0.500000 0.138951 0.000000
O O16 0.889932 0.500000 0.612123
O O17 0.972999 0.665230 0.596393
O O18 0.500000 0.775967 0.500000
O O19 0.750000 0.750000 0.500000
O O20 0.183884 0.500000 0.104342
#
# Coordination Sequence:
#
# PCOD8099755 Si02
#       8
#     8   8   8   8   8   8   8   8
#     4  11  22  38  62  86 120 162 207 260 321 375
#     4  10  20  35  56  86 121 158 204 259 315 376
#     4  10  22  42  67  95 129 169 215 262 316 380
#     4  11  22  38  62  87 120 160 208 262 318 378
#     4   9  17  31  54  83 118 159 206 256 311 376
#     4  10  22  42  68  95 126 172 217 258 314 386
#     4  12  24  42  69  97 134 169 207 262 316 374
#     4  10  20  35  56  86 121 159 204 257 317 375
#
# _framework density 20.945208000000001
#
# number of rings (size 3 to 8) (size 9 to 14) (size 15 to 20)
#    0.000    1.625    2.500    2.625    0.000    5.000 
#    2.250    0.625    0.000    0.000    0.000    0.000 
#    0.000    0.000    0.000    0.000    0.000    0.000 
#
# Total GULP energy -396730.032625 kJ/mol
# GULP energy per Si atom -12397.813520 kJ/mol
# Density = 2.089754 g / cm^3
# Si number density = 20.945208 Si / 1000 Ang^3
#
#
#
# Elastic Constant Matrix: (Units=GPa)
#
#
# Indices 1 2 3 4 5 6 
#
# 1 107.3877 5.8528 32.8578 -0.0001 -18.3837 0.0001
# 2 5.8528 81.8465 25.4507 -0.0001 -7.0743 0.0000
# 3 32.8578 25.4507 116.9211 -0.0003 -13.9308 0.0001
# 4 -0.0001 -0.0001 -0.0003 25.3710 -0.0001 -1.1564
# 5 -18.3837 -7.0743 -13.9308 -0.0001 37.2882 -0.0001
# 6 0.0001 0.0000 0.0001 -1.1564 -0.0001 27.8261
#
#
#
# Elastic Compliance Matrix: (Units=1/GPa)
#
#
# Indices 1 2 3 4 5 6 
#
# 1 0.010850 0.000421 -0.002610 0.000000 0.004454 0.000000
# 2 0.000421 0.013201 -0.002793 0.000000 0.001668 0.000000
# 3 -0.002610 -0.002793 0.010129 0.000000 0.001967 0.000000
# 4 0.000000 0.000000 0.000000 0.039490 0.000000 0.001641
# 5 0.004454 0.001668 0.001967 0.000000 0.030066 0.000000
# 6 0.000000 0.000000 0.000000 0.001641 0.000000 0.036006
#
#
# Mechanical properties :
#
#
# Convention : Reuss Voigt Hill
#
# Bulk Modulus (GPa) = 41.29681 48.27531 44.78606
# Shear Modulus (GPa) = 31.69037 34.23000 32.96018
#
# Velocity S-wave (km/s) = 3.89397 4.04699 3.97121
# Velocity P-wave (km/s) = 6.32271 6.70343 6.51585
#
# Compressibility (1/GPa) = 0.02421495
#
# Stress axis : x y z
#
# Youngs Moduli (GPa) = 92.16398 75.75429 98.73021
#
# Poissons Ratio (x) = -0.03187 0.25769
# Poissons Ratio (y) = -0.03877 0.27574
# Poissons Ratio (z) = 0.24056 0.21157
#
# Static dielectric constant tensor:
#      x y z
#    x 3.861530 0.000000 0.044650 
#    y 0.000000 0.000330 -0.000010 
#    z 0.044650 -0.000010 3.908740 
# 
# 
# High freq. dielectric constant tensor:
#      x y z
#    x 1.819450 0.000000 -0.001680 
#    y 0.000000 1.806320 0.000000 
#    z -0.001680 0.000000 1.833160 
# 
# From -- ./inp_files/372572.got.cif
#   From: 2010.06.25/outbox.cif.g09.slc.cpg/sg12_187_cif.got.tgz:372572.got - 2010.06.28 00:19:55.
