data_PCOD8099280
_publ_section_title
;
Structure prediction by ZEFSAII (Michael W. Deem and Ramdas Pophale) SiO2 
 PCOD8099280
Probable space group: C 2/M
;
_chemical_formula_sum "Si O2"
_cell_formula_units_Z 44
_cell_length_a 14.590710
_cell_length_b 13.694305
_cell_length_c 12.074394
_cell_angle_alpha 90.000000
_cell_angle_beta 112.526673
_cell_angle_gamma 90.000000
_cell_volume 2228.503452
_symmetry_space_group_name_H-M "C 2/M"
_symmetry_group_IT_number 12
_symmetry_cell_setting 'monoclinic'
loop_
_space_group_symop_operation_xyz
x,y,z
-x,y,-z
-x,-y,-z
x,-y,z
1/2+x,1/2+y,z
1/2-x,1/2+y,-z
1/2-x,1/2-y,-z
1/2+x,1/2-y,z
loop_
_atom_site_type_symbol
_atom_site_label
_atom_site_fract_x
_atom_site_fract_y
_atom_site_fract_z
Si Si1 0.825192 0.762071 0.192463
Si Si2 0.809749 0.109988 0.985157
Si Si3 0.275589 0.888467 0.673208
Si Si4 0.500000 0.305773 0.000000
Si Si5 0.919351 0.109948 0.554120
Si Si6 0.537269 0.232277 0.257943
O O1 0.777608 0.674232 0.103714
O O2 0.756342 0.802394 0.257892
O O3 0.933098 0.719521 0.277051
O O4 0.839563 0.856873 0.121925
O O5 0.906202 0.123025 0.954535
O O6 0.771810 0.000000 0.968723
O O7 0.194029 0.885887 0.539584
O O8 0.386166 0.857062 0.684147
O O9 0.281245 0.000000 0.723741
O O10 0.510408 0.238372 0.114477
O O11 0.917707 0.169606 0.667762
O O12 0.000000 0.148335 0.500000
O O13 0.950391 0.000000 0.599209
#
# Coordination Sequence:
#
# PCOD8099280 Si02
#       6
#     8   8   8   4   8   8
#     4  10  21  37  57  84 121 159 198 242 297 355
#     4  10  20  35  55  82 119 158 198 241 293 354
#     4  11  22  40  62  89 119 158 202 244 296 356
#     4  10  21  36  59  90 118 150 195 238 305 350
#     4  10  21  38  64  90 114 154 204 247 296 350
#     4  11  22  39  62  88 124 153 196 247 297 352
#
# _framework density 19.744192999999999
#
# number of rings (size 3 to 8) (size 9 to 14) (size 15 to 20)
#    0.000    1.636    3.636    1.364    0.000    4.364 
#    0.000    0.455    0.000    0.545    0.000    0.000 
#    0.000    0.000    0.000    0.000    0.000    0.000 
#
# Total GULP energy -272590.104982 kJ/mol
# GULP energy per Si atom -12390.459317 kJ/mol
# Density = 1.969925 g / cm^3
# Si number density = 19.744193 Si / 1000 Ang^3
#
#
#
# Elastic Constant Matrix: (Units=GPa)
#
#
# Indices 1 2 3 4 5 6 
#
# 1 94.4859 40.9858 17.2423 0.0000 24.5956 0.0000
# 2 40.9858 86.3794 22.8662 0.0000 14.6798 0.0000
# 3 17.2423 22.8662 62.6867 0.0000 13.2912 0.0000
# 4 0.0000 0.0000 0.0000 16.8121 0.0000 4.0644
# 5 24.5956 14.6798 13.2912 0.0000 30.7409 0.0000
# 6 0.0000 0.0000 0.0000 4.0644 0.0000 27.7240
#
#
#
# Elastic Compliance Matrix: (Units=1/GPa)
#
#
# Indices 1 2 3 4 5 6 
#
# 1 0.015618 -0.005722 -0.000152 0.000000 -0.009697 0.000000
# 2 -0.005722 0.015505 -0.003834 0.000000 -0.001168 0.000000
# 3 -0.000152 -0.003834 0.018692 0.000000 -0.006129 0.000000
# 4 0.000000 0.000000 0.000000 0.061666 0.000000 -0.009041
# 5 -0.009697 -0.001168 -0.006129 0.000000 0.043497 0.000000
# 6 0.000000 0.000000 0.000000 -0.009041 0.000000 0.037395
#
#
# Mechanical properties :
#
#
# Convention : Reuss Voigt Hill
#
# Bulk Modulus (GPa) = 32.89684 45.08228 38.98956
# Shear Modulus (GPa) = 22.53022 25.88592 24.20807
#
# Velocity S-wave (km/s) = 3.38169 3.62479 3.50535
# Velocity P-wave (km/s) = 5.65203 6.35622 6.01444
#
# Compressibility (1/GPa) = 0.03039806
#
# Stress axis : x y z
#
# Youngs Moduli (GPa) = 64.02945 64.49349 53.49767
#
# Poissons Ratio (x) = 0.36904 0.00816
# Poissons Ratio (y) = 0.36638 0.20513
# Poissons Ratio (z) = 0.00976 0.24729
#
# Static dielectric constant tensor:
#      x y z
#    x 3.777270 0.000000 0.162260 
#    y 0.000000 3.438330 0.000000 
#    z 0.162260 0.000000 3.527630 
# 
# 
# High freq. dielectric constant tensor:
#      x y z
#    x 1.776730 0.000000 0.019420 
#    y 0.000000 1.748480 0.000000 
#    z 0.019420 0.000000 1.762470 
# 
# From -- ./inp_files/143294.got.cif
#   From: 2010.06.25/outbox.cif.g09.slc.cpg/sg12_72_cif.got.tgz:143294.got - 2010.06.28 00:19:55.
