data_PCOD8099371
_publ_section_title
;
Structure prediction by ZEFSAII (Michael W. Deem and Ramdas Pophale) SiO2 
 PCOD8099371
Probable space group: C 2/M
;
_chemical_formula_sum "Si O2"
_cell_formula_units_Z 64
_cell_length_a 29.894975
_cell_length_b 12.690273
_cell_length_c 17.170941
_cell_angle_alpha 90.000000
_cell_angle_beta 149.893004
_cell_angle_gamma 90.000000
_cell_volume 3267.645672
_symmetry_space_group_name_H-M "C 2/M"
_symmetry_group_IT_number 12
_symmetry_cell_setting 'monoclinic'
loop_
_space_group_symop_operation_xyz
x,y,z
-x,y,-z
-x,-y,-z
x,-y,z
1/2+x,1/2+y,z
1/2-x,1/2+y,-z
1/2-x,1/2-y,-z
1/2+x,1/2-y,z
loop_
_atom_site_type_symbol
_atom_site_label
_atom_site_fract_x
_atom_site_fract_y
_atom_site_fract_z
Si Si1 0.105317 0.209482 0.495059
Si Si2 0.595114 0.811925 0.636303
Si Si3 0.283929 0.619194 0.935544
Si Si4 0.619314 0.785455 0.345701
Si Si5 0.033199 0.619891 0.970183
Si Si6 0.425817 0.620404 0.281134
Si Si7 0.693334 0.624341 0.341398
Si Si8 0.703012 0.752065 0.199443
O O1 0.107120 0.303470 0.561227
O O2 0.087418 0.249036 0.381919
O O3 0.209457 0.172972 0.655004
O O4 0.026340 0.127831 0.396815
O O5 0.500000 0.872993 0.500000
O O6 0.678627 0.872497 0.801255
O O7 0.585648 0.696079 0.661907
O O8 0.306037 0.500000 0.945131
O O9 0.298282 0.693993 0.884563
O O10 0.349963 0.653718 0.104485
O O11 0.543792 0.867286 0.208484
O O12 0.624440 0.685069 0.294780
O O13 0.708945 0.853382 0.477729
O O14 0.056186 0.500000 0.020740
O O15 0.122090 0.669937 0.072455
O O16 0.000000 0.674416 0.000000
O O17 0.411118 0.500000 0.286331
O O18 0.671341 0.500000 0.309694
O O19 0.689373 0.666999 0.247474
#
# Coordination Sequence:
#
# PCOD8099371 Si02
#       8
#     8   8   8   8   8   8   8   8
#     4   9  20  35  56  78 108 146 182 231 280 318
#     4   9  19  36  57  82 111 146 182 227 277 331
#     4  10  20  35  59  84 112 148 183 228 280 330
#     4  10  20  37  54  79 112 143 189 238 274 335
#     4  11  22  37  57  80 110 152 189 228 286 340
#     4  10  20  35  56  83 113 147 182 223 281 339
#     4  10  20  35  56  79 107 148 188 233 284 328
#     4  10  20  38  56  82 114 144 188 237 275 332
#
# _framework density 19.585965999999999
#
# number of rings (size 3 to 8) (size 9 to 14) (size 15 to 20)
#    0.000    2.125    1.250    1.875    0.000    3.500 
#    0.000    4.375    0.000   11.250    0.000    0.000 
#    0.000    0.000    0.000    0.000    0.000    0.000 
#
# Total GULP energy -396507.634113 kJ/mol
# GULP energy per Si atom -12390.863566 kJ/mol
# Density = 1.954139 g / cm^3
# Si number density = 19.585966 Si / 1000 Ang^3
#
#
#
# Elastic Constant Matrix: (Units=GPa)
#
#
# Indices 1 2 3 4 5 6 
#
# 1 90.6783 19.3911 28.6345 0.0000 -2.3987 0.0000
# 2 19.3911 64.1076 22.9611 0.0000 3.2244 0.0000
# 3 28.6345 22.9611 113.6063 0.0000 4.9733 0.0000
# 4 0.0000 0.0000 0.0000 5.9721 0.0000 5.3702
# 5 -2.3987 3.2244 4.9733 0.0000 28.2130 0.0000
# 6 0.0000 0.0000 0.0000 5.3702 0.0000 20.7299
#
#
#
# Elastic Compliance Matrix: (Units=1/GPa)
#
#
# Indices 1 2 3 4 5 6 
#
# 1 0.012542 -0.002939 -0.002649 0.000000 0.001869 0.000000
# 2 -0.002939 0.017555 -0.002730 0.000000 -0.001775 0.000000
# 3 -0.002649 -0.002730 0.010096 0.000000 -0.001693 0.000000
# 4 0.000000 0.000000 0.000000 0.218294 0.000000 -0.056550
# 5 0.001869 -0.001775 -0.001693 0.000000 0.036105 0.000000
# 6 0.000000 0.000000 0.000000 -0.056550 0.000000 0.062889
#
#
# Mechanical properties :
#
#
# Convention : Reuss Voigt Hill
#
# Bulk Modulus (GPa) = 42.44910 45.59617 44.02263
# Shear Modulus (GPa) = 13.09007 24.14340 18.61673
#
# Velocity S-wave (km/s) = 2.58803 3.51478 3.08639
# Velocity P-wave (km/s) = 5.53632 6.30889 5.93519
#
# Compressibility (1/GPa) = 0.02355763
#
# Stress axis : x y z
#
# Youngs Moduli (GPa) = 79.72904 56.96500 99.05086
#
# Poissons Ratio (x) = 0.16742 0.26240
# Poissons Ratio (y) = 0.23432 0.27036
# Poissons Ratio (z) = 0.21122 0.15549
#
# Static dielectric constant tensor:
#      x y z
#    x 3.677250 0.000000 0.118760 
#    y 0.000000 3.190440 0.000000 
#    z 0.118760 0.000000 3.945290 
# 
# 
# High freq. dielectric constant tensor:
#      x y z
#    x 1.768040 0.000000 0.000510 
#    y 0.000000 1.729880 0.000000 
#    z 0.000510 0.000000 1.785940 
# 
# From -- ./inp_files/296518.got.cif
#   From: 2010.06.25/outbox.cif.g09.slc.cpg/sg12_149_cif.got.tgz:296518.got - 2010.06.28 00:19:55.
