data_PCOD8099125
_publ_section_title
;
Structure prediction by ZEFSAII (Michael W. Deem and Ramdas Pophale) SiO2 
 PCOD8099125
Probable space group: C 2/M
;
_chemical_formula_sum "Si O2"
_cell_formula_units_Z 56
_cell_length_a 20.568524
_cell_length_b 8.951394
_cell_length_c 26.840712
_cell_angle_alpha 90.000000
_cell_angle_beta 143.720951
_cell_angle_gamma 90.000000
_cell_volume 2924.172153
_symmetry_space_group_name_H-M "C 2/M"
_symmetry_group_IT_number 12
_symmetry_cell_setting 'monoclinic'
loop_
_space_group_symop_operation_xyz
x,y,z
-x,y,-z
-x,-y,-z
x,-y,z
1/2+x,1/2+y,z
1/2-x,1/2+y,-z
1/2-x,1/2-y,-z
1/2+x,1/2-y,z
loop_
_atom_site_type_symbol
_atom_site_label
_atom_site_fract_x
_atom_site_fract_y
_atom_site_fract_z
Si Si1 0.707001 0.169667 0.748146
Si Si2 0.166976 0.833495 0.884360
Si Si3 0.864376 0.174427 0.559395
Si Si4 0.062684 0.676483 0.089666
Si Si5 0.121495 0.832708 0.972030
Si Si6 0.973539 0.823473 0.427054
Si Si7 0.466468 0.167821 0.272591
O O1 0.815335 0.260199 0.829708
O O2 0.638680 0.244288 0.660498
O O3 0.635200 0.172017 0.753129
O O4 0.736605 0.000000 0.750863
O O5 0.149103 0.841568 0.931528
O O6 0.071268 0.729434 0.803884
O O7 0.164067 0.000000 0.859143
O O8 0.283892 0.761574 0.941954
O O9 0.750000 0.250000 0.500000
O O10 0.922867 0.225586 0.543694
O O11 0.939887 0.220705 0.651892
O O12 0.844834 0.000000 0.547034
O O13 0.067797 0.500000 0.099046
O O14 0.993484 0.748695 0.091816
O O15 0.000000 0.723110 0.000000
O O16 0.117280 0.000000 0.992104
O O17 0.000000 0.774256 0.500000
O O18 0.954020 0.000000 0.411005
O O19 0.512972 0.000000 0.295492
#
# Coordination Sequence:
#
# PCOD8099125 Si02
#       7
#     8   8   8   8   8   8   8
#     4  10  21  36  56  83 113 145 184 229 275 330
#     4  10  20  35  55  79 107 141 181 223 272 326
#     4  10  20  36  58  84 114 145 184 233 283 339
#     4  11  23  37  55  80 110 146 187 230 276 325
#     4  10  21  36  54  77 108 143 181 225 272 323
#     4   9  19  38  62  85 111 148 191 234 285 340
#     4  10  20  35  57  82 108 142 183 223 272 328
#
# _framework density 19.150721000000001
#
# number of rings (size 3 to 8) (size 9 to 14) (size 15 to 20)
#    0.000    2.000    0.000    3.429    0.000    7.714 
#    2.571    0.000    0.000    0.000    0.000    0.000 
#    0.000    0.000    0.000    0.000    0.000    0.000 
#
# Total GULP energy -347186.316529 kJ/mol
# GULP energy per Si atom -12399.511305 kJ/mol
# Density = 1.910713 g / cm^3
# Si number density = 19.150721 Si / 1000 Ang^3
#
#
#
# Elastic Constant Matrix: (Units=GPa)
#
#
# Indices 1 2 3 4 5 6 
#
# 1 42.8096 40.2952 46.0252 0.0000 14.8777 0.0001
# 2 40.2952 110.4920 53.7083 0.0000 6.8990 0.0003
# 3 46.0252 53.7083 123.4620 0.0000 7.6127 0.0000
# 4 0.0000 0.0000 0.0000 40.6298 0.0000 5.5172
# 5 14.8777 6.8990 7.6127 0.0000 30.5472 0.0000
# 6 0.0001 0.0003 0.0000 5.5172 0.0000 27.4655
#
#
#
# Elastic Compliance Matrix: (Units=1/GPa)
#
#
# Indices 1 2 3 4 5 6 
#
# 1 0.059738 -0.012979 -0.015244 0.000000 -0.022365 0.000000
# 2 -0.012979 0.014354 -0.001621 0.000000 0.003484 0.000000
# 3 -0.015244 -0.001621 0.014226 0.000000 0.004245 0.000000
# 4 0.000000 0.000000 0.000000 0.025303 0.000000 -0.005083
# 5 -0.022365 0.003484 0.004245 0.000000 0.041784 0.000000
# 6 0.000000 0.000000 0.000000 -0.005083 0.000000 0.037430
#
#
# Mechanical properties :
#
#
# Convention : Reuss Voigt Hill
#
# Bulk Modulus (GPa) = 34.92915 61.86902 48.39908
# Shear Modulus (GPa) = 19.07910 28.84415 23.96162
#
# Velocity S-wave (km/s) = 3.15978 3.88514 3.54109
# Velocity P-wave (km/s) = 5.62059 7.24585 6.48434
#
# Compressibility (1/GPa) = 0.02862938
#
# Stress axis : x y z
#
# Youngs Moduli (GPa) = 16.73970 69.66660 70.29483
#
# Poissons Ratio (x) = 0.90423 1.07161
# Poissons Ratio (y) = 0.21727 0.11391
# Poissons Ratio (z) = 0.25519 0.11290
#
# Static dielectric constant tensor:
#      x y z
#    x -3.888800 0.000010 -19.624160 
#    y 0.000010 3.855450 0.000020 
#    z -19.624160 0.000020 -49.503590 
# 
# 
# High freq. dielectric constant tensor:
#      x y z
#    x 1.730690 0.000000 0.002730 
#    y 0.000000 1.761240 0.000000 
#    z 0.002730 0.000000 1.745760 
# 
# From -- ./inp_files/363230.got.cif
#   From: 2010.06.25/outbox.cif.g09.slc.cpg/sg12_182_cif.got.tgz:363230.got - 2010.06.28 00:19:55.
