data_PCOD8099324
_publ_section_title
;
Structure prediction by ZEFSAII (Michael W. Deem and Ramdas Pophale) SiO2 
 PCOD8099324
Probable space group: C 2/M
;
_chemical_formula_sum "Si O2"
_cell_formula_units_Z 40
_cell_length_a 15.732538
_cell_length_b 8.772817
_cell_length_c 31.034403
_cell_angle_alpha 90.000000
_cell_angle_beta 152.677427
_cell_angle_gamma 90.000000
_cell_volume 1966.045533
_symmetry_space_group_name_H-M "C 2/M"
_symmetry_group_IT_number 12
_symmetry_cell_setting 'monoclinic'
loop_
_space_group_symop_operation_xyz
x,y,z
-x,y,-z
-x,-y,-z
x,-y,z
1/2+x,1/2+y,z
1/2-x,1/2+y,-z
1/2-x,1/2-y,-z
1/2+x,1/2-y,z
loop_
_atom_site_type_symbol
_atom_site_label
_atom_site_fract_x
_atom_site_fract_y
_atom_site_fract_z
Si Si1 0.302980 0.174939 0.889232
Si Si2 0.613192 0.178041 0.404490
Si Si3 0.203813 0.819211 0.598815
Si Si4 0.473384 0.819446 0.793133
Si Si5 0.700650 0.679566 0.205870
O O1 0.320332 0.241160 0.849343
O O2 0.160066 0.269403 0.853722
O O3 0.237897 0.000000 0.857510
O O4 0.500000 0.191250 0.000000
O O5 0.750000 0.250000 0.500000
O O6 0.664856 0.239254 0.380369
O O7 0.399904 0.221371 0.316528
O O8 0.646159 0.000000 0.422014
O O9 0.296435 0.765389 0.685086
O O10 0.000000 0.747031 0.500000
O O11 0.190124 0.000000 0.592349
O O12 0.456048 0.740909 0.832075
O O13 0.478291 0.000000 0.801408
O O14 0.677771 0.500000 0.188794
#
# Coordination Sequence:
#
# PCOD8099324 Si02
#       5
#     8   8   8   8   8
#     4  11  25  45  68  94 125 164 212 266 323 381
#     4  10  20  35  55  86 125 166 209 255 310 370
#     4   9  17  32  55  84 122 163 204 249 304 367
#     4  11  22  40  66  94 127 168 210 261 320 374
#     4  11  23  41  64  93 130 168 211 262 314 378
#
# _framework density 20.345407999999999
#
# number of rings (size 3 to 8) (size 9 to 14) (size 15 to 20)
#    0.000    1.600    2.000    3.000    0.000    5.600 
#    0.000    0.000    0.000    4.200    0.000    0.000 
#    0.000    0.000    0.000    0.000    0.000    0.000 
#
# Total GULP energy -248012.568929 kJ/mol
# GULP energy per Si atom -12400.628446 kJ/mol
# Density = 2.029910 g / cm^3
# Si number density = 20.345408 Si / 1000 Ang^3
#
#
#
# Elastic Constant Matrix: (Units=GPa)
#
#
# Indices 1 2 3 4 5 6 
#
# 1 133.6288 20.6590 34.1429 -0.0001 -10.9217 0.0001
# 2 20.6590 56.8586 38.8897 -0.0002 -13.2656 0.0005
# 3 34.1429 38.8897 85.9672 0.0006 -6.7107 0.0000
# 4 -0.0001 -0.0002 0.0006 30.8947 0.0001 -1.7289
# 5 -10.9217 -13.2656 -6.7107 0.0001 27.5450 -0.0001
# 6 0.0001 0.0005 0.0000 -1.7289 -0.0001 32.4594
#
#
#
# Elastic Compliance Matrix: (Units=1/GPa)
#
#
# Indices 1 2 3 4 5 6 
#
# 1 0.008516 -0.000502 -0.002967 0.000000 0.002412 0.000000
# 2 -0.000502 0.028284 -0.011772 0.000000 0.010554 0.000000
# 3 -0.002967 -0.011772 0.017943 0.000000 -0.002474 0.000000
# 4 0.000000 0.000000 0.000000 0.032465 0.000000 0.001729
# 5 0.002412 0.010554 -0.002474 0.000000 0.041741 0.000000
# 6 0.000000 0.000000 0.000000 0.001729 0.000000 0.030900
#
#
# Mechanical properties :
#
#
# Convention : Reuss Voigt Hill
#
# Bulk Modulus (GPa) = 41.21783 51.53753 46.37768
# Shear Modulus (GPa) = 25.19946 30.36402 27.78174
#
# Velocity S-wave (km/s) = 3.52317 3.86738 3.69928
# Velocity P-wave (km/s) = 6.07069 6.73264 6.41022
#
# Compressibility (1/GPa) = 0.02426135
#
# Stress axis : x y z
#
# Youngs Moduli (GPa) = 117.42255 35.35580 55.73282
#
# Poissons Ratio (x) = 0.01776 0.16535
# Poissons Ratio (y) = 0.05899 0.65607
# Poissons Ratio (z) = 0.34837 0.41620
#
# Static dielectric constant tensor:
#      x y z
#    x 4.047830 0.000000 -0.011170 
#    y 0.000000 3.557230 0.000000 
#    z -0.011170 0.000000 3.795960 
# 
# 
# High freq. dielectric constant tensor:
#      x y z
#    x 1.810740 0.000000 -0.000160 
#    y 0.000000 1.781050 0.000000 
#    z -0.000160 0.000000 1.797490 
# 
# From -- ./inp_files/211174.got.cif
#   From: 2010.06.25/outbox.cif.g09.slc.cpg/sg12_106_cif.got.tgz:211174.got - 2010.06.28 00:19:55.
