data_PCOD8099161
_publ_section_title
;
Structure prediction by ZEFSAII (Michael W. Deem and Ramdas Pophale) SiO2 
 PCOD8099161
Probable space group: C 2/M
;
_chemical_formula_sum "Si O2"
_cell_formula_units_Z 56
_cell_length_a 18.499314
_cell_length_b 8.962432
_cell_length_c 29.196334
_cell_angle_alpha 90.000000
_cell_angle_beta 37.020020
_cell_angle_gamma 90.000000
_cell_volume 2914.567717
_symmetry_space_group_name_H-M "C 2/M"
_symmetry_group_IT_number 12
_symmetry_cell_setting 'monoclinic'
loop_
_space_group_symop_operation_xyz
x,y,z
-x,y,-z
-x,-y,-z
x,-y,z
1/2+x,1/2+y,z
1/2-x,1/2+y,-z
1/2-x,1/2-y,-z
1/2+x,1/2-y,z
loop_
_atom_site_type_symbol
_atom_site_label
_atom_site_fract_x
_atom_site_fract_y
_atom_site_fract_z
Si Si1 0.862048 0.668234 0.562706
Si Si2 0.824930 0.673346 0.001977
Si Si3 0.263707 0.675183 0.128230
Si Si4 0.394362 0.172701 0.145655
Si Si5 0.341899 0.328321 0.264233
Si Si6 0.988061 0.673838 0.267452
Si Si7 0.718392 0.172343 0.562584
O O1 0.841644 0.500000 0.554386
O O2 0.788608 0.689877 0.646766
O O3 0.820754 0.788304 0.546883
O O4 0.000000 0.702258 0.500000
O O5 0.790216 0.500000 0.022046
O O6 0.964188 0.695809 0.920719
O O7 0.750000 0.750000 0.000000
O O8 0.795202 0.749577 0.064687
O O9 0.288421 0.500000 0.111898
O O10 0.347847 0.741906 0.124669
O O11 0.125219 0.709172 0.210116
O O12 0.332214 0.238849 0.222029
O O13 0.359850 0.000000 0.158105
O O14 0.372601 0.500000 0.238291
O O15 0.446879 0.264860 0.243644
O O16 0.967531 0.500000 0.266490
O O17 0.910057 0.722806 0.351268
O O18 0.750000 0.250000 0.500000
O O19 0.718499 0.000000 0.552035
#
# Coordination Sequence:
#
# PCOD8099161 Si02
#       7
#     8   8   8   8   8   8   8
#     4   9  19  36  56  79 110 145 181 226 278 327
#     4  11  24  41  61  85 113 147 184 222 270 325
#     4  11  23  39  60  85 112 144 184 228 274 323
#     4  11  24  40  57  81 116 150 179 221 276 326
#     4  10  20  35  58  84 108 142 188 229 268 324
#     4   9  20  38  57  79 110 146 181 224 278 328
#     4  10  20  35  55  79 110 145 183 227 273 325
#
# _framework density 19.213826999999998
#
# number of rings (size 3 to 8) (size 9 to 14) (size 15 to 20)
#    0.000    1.857    0.000    3.429    0.000   11.143 
#    0.000    5.714    0.000    0.000    0.000    0.000 
#    0.000    0.000    0.000    0.000    0.000    0.000 
#
# Total GULP energy -347288.503500 kJ/mol
# GULP energy per Si atom -12403.160839 kJ/mol
# Density = 1.917010 g / cm^3
# Si number density = 19.213827 Si / 1000 Ang^3
#
#
#
# Elastic Constant Matrix: (Units=GPa)
#
#
# Indices 1 2 3 4 5 6 
#
# 1 110.4026 61.5122 56.3215 -0.0001 13.2397 -0.0014
# 2 61.5122 102.8776 56.2563 -0.0004 8.3135 -0.0022
# 3 56.3215 56.2563 101.2464 0.0000 16.4196 0.0000
# 4 -0.0001 -0.0004 0.0000 34.7585 0.0001 6.2546
# 5 13.2397 8.3135 16.4196 0.0001 38.3337 -0.0001
# 6 -0.0014 -0.0022 0.0000 6.2546 -0.0001 39.2706
#
#
#
# Elastic Compliance Matrix: (Units=1/GPa)
#
#
# Indices 1 2 3 4 5 6 
#
# 1 0.015205 -0.006437 -0.004574 0.000000 -0.001896 0.000000
# 2 -0.006437 0.016691 -0.005875 0.000000 0.001120 0.000001
# 3 -0.004574 -0.005875 0.016359 0.000000 -0.004153 -0.000001
# 4 0.000000 0.000000 0.000000 0.029619 0.000000 -0.004717
# 5 -0.001896 0.001120 -0.004153 0.000000 0.028278 0.000000
# 6 0.000000 0.000001 -0.000001 -0.004717 0.000000 0.026216
#
#
# Mechanical properties :
#
#
# Convention : Reuss Voigt Hill
#
# Bulk Modulus (GPa) = 69.04511 73.63406 71.33958
# Shear Modulus (GPa) = 29.24523 31.83501 30.54012
#
# Velocity S-wave (km/s) = 3.90563 4.07490 3.99116
# Velocity P-wave (km/s) = 7.50678 7.78115 7.64520
#
# Compressibility (1/GPa) = 0.01448329
#
# Stress axis : x y z
#
# Youngs Moduli (GPa) = 65.76774 59.91190 61.12659
#
# Poissons Ratio (x) = 0.38564 0.27961
# Poissons Ratio (y) = 0.42333 0.35913
# Poissons Ratio (z) = 0.30084 0.35199
#
# Static dielectric constant tensor:
#      x y z
#    x 3.247830 -0.000020 -0.228670 
#    y -0.000020 3.813040 0.000000 
#    z -0.228670 0.000000 3.565470 
# 
# 
# High freq. dielectric constant tensor:
#      x y z
#    x 1.744580 0.000000 0.001110 
#    y 0.000000 1.760140 0.000000 
#    z 0.001110 0.000000 1.761880 
# 
# From -- ./inp_files/363030.got.cif
#   From: 2010.06.25/outbox.cif.g09.slc.cpg/sg12_182_cif.got.tgz:363030.got - 2010.06.28 00:19:55.
