data_PCOD8099888
_publ_section_title
;
Structure prediction by ZEFSAII (Michael W. Deem and Ramdas Pophale) SiO2 
 PCOD8099888
Probable space group: C 2/M
;
_chemical_formula_sum "Si O2"
_cell_formula_units_Z 56
_cell_length_a 18.341880
_cell_length_b 8.761262
_cell_length_c 29.106800
_cell_angle_alpha 90.000000
_cell_angle_beta 142.348230
_cell_angle_gamma 90.000000
_cell_volume 2857.243342
_symmetry_space_group_name_H-M "C 2/M"
_symmetry_group_IT_number 12
_symmetry_cell_setting 'monoclinic'
loop_
_space_group_symop_operation_xyz
x,y,z
-x,y,-z
-x,-y,-z
x,-y,z
1/2+x,1/2+y,z
1/2-x,1/2+y,-z
1/2-x,1/2-y,-z
1/2+x,1/2-y,z
loop_
_atom_site_type_symbol
_atom_site_label
_atom_site_fract_x
_atom_site_fract_y
_atom_site_fract_z
Si Si1 0.705681 0.677532 0.298111
Si Si2 0.960039 0.821987 0.429066
Si Si3 0.841409 0.324420 0.141819
Si Si4 0.879555 0.679113 0.568160
Si Si5 0.990672 0.676580 0.857675
Si Si6 0.592214 0.174938 0.005268
Si Si7 0.464350 0.322687 0.702760
O O1 0.738676 0.500000 0.311382
O O2 0.823149 0.778375 0.353684
O O3 0.621643 0.721828 0.213523
O O4 0.639216 0.717102 0.312520
O O5 0.000000 0.777793 0.500000
O O6 0.042068 0.727807 0.435818
O O7 0.976997 0.000000 0.427409
O O8 0.854819 0.500000 0.162898
O O9 0.703954 0.280518 0.071758
O O10 0.897684 0.293548 0.120018
O O11 0.907506 0.222858 0.212933
O O12 0.864263 0.500000 0.559843
O O13 0.750000 0.750000 0.500000
O O14 0.943890 0.727591 0.646850
O O15 0.951444 0.500000 0.837515
O O16 0.029085 0.731041 0.927212
O O17 0.634781 0.000000 0.021329
O O18 0.500000 0.195531 0.000000
O O19 0.465296 0.500000 0.690712
#
# Coordination Sequence:
#
# PCOD8099888 Si02
#       7
#     8   8   8   8   8   8   8
#     4  10  21  37  60  88 116 149 190 239 290 341
#     4  11  24  41  62  87 117 155 195 236 284 338
#     4  10  20  35  57  83 111 146 189 236 284 339
#     4  12  25  41  62  88 119 153 192 237 286 341
#     4   9  19  36  57  80 109 148 191 234 284 343
#     4  10  21  36  54  78 110 148 188 234 288 343
#     4  10  21  39  62  87 117 152 191 236 288 345
#
# _framework density 19.599311
#
# number of rings (size 3 to 8) (size 9 to 14) (size 15 to 20)
#    0.000    1.714    0.000    4.286    0.000    7.714 
#    0.000    4.286    0.000    0.000    0.000    0.000 
#    0.000    0.000    0.000    0.000    0.000    0.000 
#
# Total GULP energy -347382.812506 kJ/mol
# GULP energy per Si atom -12406.529018 kJ/mol
# Density = 1.955470 g / cm^3
# Si number density = 19.599311 Si / 1000 Ang^3
#
#
#
# Elastic Constant Matrix: (Units=GPa)
#
#
# Indices 1 2 3 4 5 6 
#
# 1 95.1355 51.0003 68.6249 0.0000 -5.4044 0.0000
# 2 51.0003 98.8162 49.5139 0.0000 -5.1205 -0.0001
# 3 68.6249 49.5139 124.4168 0.0000 -6.3918 0.0000
# 4 0.0000 0.0000 0.0000 32.5444 0.0000 1.2940
# 5 -5.4044 -5.1205 -6.3918 0.0000 34.7536 0.0000
# 6 0.0000 -0.0001 0.0000 1.2940 0.0000 30.4199
#
#
#
# Elastic Compliance Matrix: (Units=1/GPa)
#
#
# Indices 1 2 3 4 5 6 
#
# 1 0.019938 -0.005950 -0.008597 0.000000 0.000643 0.000000
# 2 -0.005950 0.014447 -0.002429 0.000000 0.000757 0.000000
# 3 -0.008597 -0.002429 0.013789 0.000000 0.000841 0.000000
# 4 0.000000 0.000000 0.000000 0.030779 0.000000 -0.001309
# 5 0.000643 0.000757 0.000841 0.000000 0.029140 0.000000
# 6 0.000000 0.000000 0.000000 -0.001309 0.000000 0.032929
#
#
# Mechanical properties :
#
#
# Convention : Reuss Voigt Hill
#
# Bulk Modulus (GPa) = 70.30427 72.96074 71.63251
# Shear Modulus (GPa) = 27.82198 29.49223 28.65710
#
# Velocity S-wave (km/s) = 3.77176 3.88333 3.82795
# Velocity P-wave (km/s) = 7.41060 7.57720 7.49436
#
# Compressibility (1/GPa) = 0.01422389
#
# Stress axis : x y z
#
# Youngs Moduli (GPa) = 50.15433 69.22009 72.52136
#
# Poissons Ratio (x) = 0.41183 0.62345
# Poissons Ratio (y) = 0.29840 0.17614
# Poissons Ratio (z) = 0.43116 0.16812
#
# Static dielectric constant tensor:
#      x y z
#    x 3.525100 0.000000 -0.114700 
#    y 0.000000 3.645500 0.000000 
#    z -0.114700 0.000000 3.656280 
# 
# 
# High freq. dielectric constant tensor:
#      x y z
#    x 1.763070 0.000000 -0.001800 
#    y 0.000000 1.770950 0.000000 
#    z -0.001800 0.000000 1.776230 
# 
# From -- ./inp_files/275518.got.cif
#   From: 2010.06.25/outbox.cif.g09.slc.cpg/sg12_138_cif.got.tgz:275518.got - 2010.06.28 00:19:55.
