data_PCOD8099002
_publ_section_title
;
Structure prediction by ZEFSAII (Michael W. Deem and Ramdas Pophale) SiO2 
 PCOD8099002
Probable space group: C 2/M
;
_chemical_formula_sum "Si O2"
_cell_formula_units_Z 56
_cell_length_a 29.495621
_cell_length_b 8.871837
_cell_length_c 21.581936
_cell_angle_alpha 90.000000
_cell_angle_beta 149.659512
_cell_angle_gamma 90.000000
_cell_volume 2852.799228
_symmetry_space_group_name_H-M "C 2/M"
_symmetry_group_IT_number 12
_symmetry_cell_setting 'monoclinic'
loop_
_space_group_symop_operation_xyz
x,y,z
-x,y,-z
-x,-y,-z
x,-y,z
1/2+x,1/2+y,z
1/2-x,1/2+y,-z
1/2-x,1/2-y,-z
1/2+x,1/2-y,z
loop_
_atom_site_type_symbol
_atom_site_label
_atom_site_fract_x
_atom_site_fract_y
_atom_site_fract_z
Si Si1 0.621600 0.822524 0.284769
Si Si2 0.468767 0.325161 0.032015
Si Si3 0.220464 0.177134 0.871024
Si Si4 0.778228 0.826609 0.378388
Si Si5 0.262038 0.676688 0.794534
Si Si6 0.073666 0.173779 0.348403
Si Si7 0.386423 0.822794 0.150607
O O1 0.523824 0.779021 0.143729
O O2 0.697570 0.766717 0.326652
O O3 0.636062 0.736462 0.366661
O O4 0.628089 0.000000 0.304087
O O5 0.484437 0.500000 0.067196
O O6 0.500000 0.288537 0.000000
O O7 0.365955 0.276888 0.917049
O O8 0.212904 0.243699 0.793561
O O9 0.138892 0.243480 0.814850
O O10 0.208070 0.000000 0.852993
O O11 0.315195 0.223864 0.013625
O O12 0.783945 0.729230 0.323157
O O13 0.872570 0.806392 0.524410
O O14 0.760480 0.000000 0.339907
O O15 0.248959 0.500000 0.785732
O O16 0.983137 0.269059 0.242958
O O17 0.050337 0.000000 0.308459
O O18 0.386799 0.000000 0.161959
#
# Coordination Sequence:
#
# PCOD8099002 Si02
#       7
#     8   8   8   8   8   8   8
#     4  11  22  36  57  84 113 151 196 241 285 333
#     4  10  20  35  54  81 115 150 187 230 282 337
#     4  10  21  38  62  89 119 150 181 227 287 344
#     4  10  23  40  56  79 114 155 196 237 283 337
#     4  11  22  36  58  85 116 153 192 235 284 337
#     4  11  23  39  59  82 113 153 193 236 287 339
#     4  10  21  39  63  91 117 144 186 235 283 336
#
# _framework density 19.629843999999999
#
# number of rings (size 3 to 8) (size 9 to 14) (size 15 to 20)
#    0.000    1.571    1.429    3.429    0.000    7.143 
#    0.000    0.714    0.000    4.286    0.000    0.000 
#    0.000    0.000    0.000    0.000    0.000    0.000 
#
# Total GULP energy -347388.524032 kJ/mol
# GULP energy per Si atom -12406.733001 kJ/mol
# Density = 1.958517 g / cm^3
# Si number density = 19.629844 Si / 1000 Ang^3
#
#
#
# Elastic Constant Matrix: (Units=GPa)
#
#
# Indices 1 2 3 4 5 6 
#
# 1 117.1294 38.4665 25.2057 0.0000 -19.5541 0.0000
# 2 38.4665 73.7051 25.9671 0.0000 -11.8979 0.0000
# 3 25.2057 25.9671 58.2179 0.0000 -9.7260 0.0000
# 4 0.0000 0.0000 0.0000 25.8648 0.0000 -6.8886
# 5 -19.5541 -11.8979 -9.7260 0.0000 26.4040 0.0000
# 6 0.0000 0.0000 0.0000 -6.8886 0.0000 35.0306
#
#
#
# Elastic Compliance Matrix: (Units=1/GPa)
#
#
# Indices 1 2 3 4 5 6 
#
# 1 0.011335 -0.004272 -0.002047 0.000000 0.005715 0.000000
# 2 -0.004272 0.018328 -0.005833 0.000000 0.002946 0.000000
# 3 -0.002047 -0.005833 0.021282 0.000000 0.003695 0.000000
# 4 0.000000 0.000000 0.000000 0.040799 0.000000 0.008023
# 5 0.005715 0.002946 0.003695 0.000000 0.044794 0.000000
# 6 0.000000 0.000000 0.000000 0.008023 0.000000 0.030124
#
#
# Mechanical properties :
#
#
# Convention : Reuss Voigt Hill
#
# Bulk Modulus (GPa) = 37.53667 47.59234 42.56450
# Shear Modulus (GPa) = 25.01902 28.08743 26.55322
#
# Velocity S-wave (km/s) = 3.57394 3.78677 3.68189
# Velocity P-wave (km/s) = 6.01619 6.58916 6.30918
#
# Compressibility (1/GPa) = 0.02664062
#
# Stress axis : x y z
#
# Youngs Moduli (GPa) = 88.22026 54.56211 46.98753
#
# Poissons Ratio (x) = 0.23308 0.09620
# Poissons Ratio (y) = 0.37687 0.27408
# Poissons Ratio (z) = 0.18062 0.31826
#
# Static dielectric constant tensor:
#      x y z
#    x 3.609380 0.000000 -0.064530 
#    y 0.000000 3.541440 0.000000 
#    z -0.064530 0.000000 3.448750 
# 
# 
# High freq. dielectric constant tensor:
#      x y z
#    x 1.769990 0.000000 -0.007880 
#    y 0.000000 1.771250 0.000000 
#    z -0.007880 0.000000 1.754620 
# 
# From -- ./inp_files/238268.got.cif
#   From: 2010.06.25/outbox.cif.g09.slc.cpg/sg12_120_cif.got.tgz:238268.got - 2010.06.28 00:19:55.
