data_PCOD8099456
_publ_section_title
;
Structure prediction by ZEFSAII (Michael W. Deem and Ramdas Pophale) SiO2 
 PCOD8099456
Probable space group: C 2/M
;
_chemical_formula_sum "Si O2"
_cell_formula_units_Z 56
_cell_length_a 15.784620
_cell_length_b 18.542841
_cell_length_c 18.849683
_cell_angle_alpha 90.000000
_cell_angle_beta 148.282656
_cell_angle_gamma 90.000000
_cell_volume 2900.524484
_symmetry_space_group_name_H-M "C 2/M"
_symmetry_group_IT_number 12
_symmetry_cell_setting 'monoclinic'
loop_
_space_group_symop_operation_xyz
x,y,z
-x,y,-z
-x,-y,-z
x,-y,z
1/2+x,1/2+y,z
1/2-x,1/2+y,-z
1/2-x,1/2-y,-z
1/2+x,1/2-y,z
loop_
_atom_site_type_symbol
_atom_site_label
_atom_site_fract_x
_atom_site_fract_y
_atom_site_fract_z
Si Si1 0.510400 0.919095 0.341748
Si Si2 0.693138 0.218960 0.149849
Si Si3 0.389166 0.920850 0.852884
Si Si4 0.657078 0.155394 0.653052
Si Si5 0.110283 0.189740 0.848512
Si Si6 0.574847 0.157153 0.860447
Si Si7 0.333301 0.416835 0.651491
O O1 0.398802 0.902945 0.329409
O O2 0.468390 0.866571 0.248742
O O3 0.696587 0.908370 0.494889
O O4 0.476062 0.000000 0.292526
O O5 0.739251 0.141306 0.218476
O O6 0.748129 0.280018 0.242864
O O7 0.788839 0.224122 0.144668
O O8 0.500000 0.223886 0.000000
O O9 0.485998 0.892345 0.853966
O O10 0.312350 0.000000 0.780388
O O11 0.500000 0.931064 0.000000
O O12 0.500000 0.186180 0.500000
O O13 0.777041 0.112969 0.687126
O O14 0.026424 0.257543 0.829517
O O15 0.982251 0.131262 0.730668
O O16 0.233484 0.149987 0.989662
O O17 0.386093 0.500000 0.697288
#
# Coordination Sequence:
#
# PCOD8099456 Si02
#       7
#     8   8   8   8   8   8   8
#     4  10  21  39  62  89 121 158 197 242 297 357
#     4  11  21  41  60  85 119 154 199 248 288 350
#     4  10  20  35  56  80 110 153 195 234 285 346
#     4  10  21  40  63  89 117 158 199 238 296 360
#     4  11  23  38  59  92 119 155 195 249 302 345
#     4  11  21  38  59  88 119 151 203 245 293 352
#     4  10  23  40  61  89 123 156 195 247 298 353
#
# _framework density 19.306853
#
# number of rings (size 3 to 8) (size 9 to 14) (size 15 to 20)
#    0.000    1.571    4.286    1.714    2.000    4.000 
#    2.571    0.000    0.000    3.000    0.000    0.000 
#    0.000    0.000    0.000    0.000    0.000    0.000 
#
# Total GULP energy -347066.970377 kJ/mol
# GULP energy per Si atom -12395.248942 kJ/mol
# Density = 1.926291 g / cm^3
# Si number density = 19.306853 Si / 1000 Ang^3
#
#
#
# Elastic Constant Matrix: (Units=GPa)
#
#
# Indices 1 2 3 4 5 6 
#
# 1 77.4897 17.9319 34.0067 0.0080 -8.0524 0.0013
# 2 17.9319 114.7210 50.4321 0.0074 0.1343 0.0015
# 3 34.0067 50.4321 77.9049 0.0292 -8.5145 0.0104
# 4 0.0080 0.0074 0.0292 28.9093 0.0112 -2.6814
# 5 -8.0524 0.1343 -8.5145 0.0112 24.8645 0.0022
# 6 0.0013 0.0015 0.0104 -2.6814 0.0022 31.7371
#
#
#
# Elastic Compliance Matrix: (Units=1/GPa)
#
#
# Indices 1 2 3 4 5 6 
#
# 1 0.016196 0.000614 -0.007162 0.000002 0.002789 0.000002
# 2 0.000614 0.012408 -0.008608 0.000007 -0.002816 0.000003
# 3 -0.007162 -0.008608 0.022115 -0.000021 0.005300 -0.000009
# 4 0.000002 0.000007 -0.000021 0.034864 -0.000023 0.002946
# 5 0.002789 -0.002816 0.005300 -0.000023 0.042951 -0.000007
# 6 0.000002 0.000003 -0.000009 0.002946 -0.000007 0.031758
#
#
# Mechanical properties :
#
#
# Convention : Reuss Voigt Hill
#
# Bulk Modulus (GPa) = 49.00721 52.76186 50.88454
# Shear Modulus (GPa) = 25.32831 28.28517 26.80674
#
# Velocity S-wave (km/s) = 3.62592 3.83173 3.73024
# Velocity P-wave (km/s) = 6.55501 6.85300 6.70566
#
# Compressibility (1/GPa) = 0.02040516
#
# Stress axis : x y z
#
# Youngs Moduli (GPa) = 61.74386 80.59025 45.21920
#
# Poissons Ratio (x) = -0.04946 0.32387
# Poissons Ratio (y) = -0.03790 0.38926
# Poissons Ratio (z) = 0.44223 0.69375
#
# Static dielectric constant tensor:
#      x y z
#    x 3.762620 -0.000020 -0.141730 
#    y -0.000020 3.878530 -0.000020 
#    z -0.141730 -0.000020 3.426040 
# 
# 
# High freq. dielectric constant tensor:
#      x y z
#    x 1.754200 0.000000 -0.014380 
#    y 0.000000 1.766380 0.000000 
#    z -0.014380 0.000000 1.729970 
# 
# From -- ./inp_files/272405.got.cif
#   From: 2010.06.25/outbox.cif.g09.slc.cpg/sg12_137_cif.got.tgz:272405.got - 2010.06.28 00:19:55.
