data_PCOD8099148
_publ_section_title
;
Structure prediction by ZEFSAII (Michael W. Deem and Ramdas Pophale) SiO2 
 PCOD8099148
Probable space group: C 2/M
;
_chemical_formula_sum "Si O2"
_cell_formula_units_Z 48
_cell_length_a 18.483387
_cell_length_b 8.816645
_cell_length_c 15.534811
_cell_angle_alpha 90.000000
_cell_angle_beta 90.001509
_cell_angle_gamma 90.000000
_cell_volume 2531.575505
_symmetry_space_group_name_H-M "C 2/M"
_symmetry_group_IT_number 12
_symmetry_cell_setting 'monoclinic'
loop_
_space_group_symop_operation_xyz
x,y,z
-x,y,-z
-x,-y,-z
x,-y,z
1/2+x,1/2+y,z
1/2-x,1/2+y,-z
1/2-x,1/2-y,-z
1/2+x,1/2-y,z
loop_
_atom_site_type_symbol
_atom_site_label
_atom_site_fract_x
_atom_site_fract_y
_atom_site_fract_z
Si Si1 0.456117 0.680382 0.918621
Si Si2 0.790809 0.180241 0.919331
Si Si3 0.042552 0.675349 0.581328
Si Si4 0.711120 0.176739 0.580524
Si Si5 0.044365 0.178613 0.756800
Si Si6 0.789620 0.820408 0.240774
O O1 0.459915 0.500000 0.918630
O O2 0.373691 0.736010 0.923062
O O3 0.494416 0.744673 0.832816
O O4 0.500000 0.746021 0.000000
O O5 0.757357 0.239400 0.831273
O O6 0.785003 0.000000 0.923543
O O7 0.750000 0.250000 0.000000
O O8 0.023686 0.500000 0.591842
O O9 0.126664 0.704798 0.566489
O O10 0.014689 0.756138 0.667403
O O11 0.000000 0.745078 0.500000
O O12 0.750000 0.250000 0.500000
O O13 0.737718 0.260816 0.666872
O O14 0.730461 0.000000 0.587775
O O15 0.127108 0.227916 0.773843
O O16 0.038545 0.000000 0.751496
O O17 0.778977 0.000000 0.235168
#
# Coordination Sequence:
#
# PCOD8099148 Si02
#       6
#     8   8   8   8   8   8
#     4   9  18  34  55  78 104 135 172 213 257 308
#     4  11  22  36  56  81 109 140 175 217 264 315
#     4   9  19  35  53  75 105 139 172 213 267 315
#     4  10  20  35  55  79 109 143 179 219 263 314
#     4   9  18  34  56  78 100 134 178 218 257 305
#     4  10  20  36  57  79 106 140 178 220 265 314
#
# _framework density 18.960525000000001
#
# number of rings (size 3 to 8) (size 9 to 14) (size 15 to 20)
#    0.000    2.333    0.000    2.500    0.000    5.667 
#    0.000    5.000    0.000    3.500    0.000    0.000 
#    0.000    0.000    0.000    0.000    0.000    0.000 
#
# Total GULP energy -297651.693482 kJ/mol
# GULP energy per Si atom -12402.153895 kJ/mol
# Density = 1.891737 g / cm^3
# Si number density = 18.960525 Si / 1000 Ang^3
#
#
#
# Elastic Constant Matrix: (Units=GPa)
#
#
# Indices 1 2 3 4 5 6 
#
# 1 114.1929 40.6512 99.6265 0.0000 0.1638 0.0000
# 2 40.6512 51.0688 44.1647 0.0000 -0.7071 0.0000
# 3 99.6265 44.1647 198.7140 0.0000 -0.6586 0.0000
# 4 0.0000 0.0000 0.0000 36.6775 0.0000 3.1033
# 5 0.1638 -0.7071 -0.6586 0.0000 44.1313 0.0000
# 6 0.0000 0.0000 0.0000 3.1033 0.0000 20.7165
#
#
#
# Elastic Compliance Matrix: (Units=1/GPa)
#
#
# Indices 1 2 3 4 5 6 
#
# 1 0.017880 -0.008026 -0.007181 0.000000 -0.000302 0.000000
# 2 -0.008026 0.027848 -0.002164 0.000000 0.000444 0.000000
# 3 -0.007181 -0.002164 0.009114 0.000000 0.000128 0.000000
# 4 0.000000 0.000000 0.000000 0.027615 0.000000 -0.004137
# 5 -0.000302 0.000444 0.000128 0.000000 0.022670 0.000000
# 6 0.000000 0.000000 0.000000 -0.004137 0.000000 0.048890
#
#
# Mechanical properties :
#
#
# Convention : Reuss Voigt Hill
#
# Bulk Modulus (GPa) = 49.75354 81.42893 65.59124
# Shear Modulus (GPa) = 25.58068 32.27394 28.92731
#
# Velocity S-wave (km/s) = 3.67707 4.13021 3.91021
# Velocity P-wave (km/s) = 6.65773 8.11077 7.41990
#
# Compressibility (1/GPa) = 0.02009907
#
# Stress axis : x y z
#
# Youngs Moduli (GPa) = 55.92760 35.90941 109.71948
#
# Poissons Ratio (x) = 0.28822 0.78795
# Poissons Ratio (y) = 0.44890 0.23740
# Poissons Ratio (z) = 0.40164 0.07770
#
# Static dielectric constant tensor:
#      x y z
#    x 3.558080 0.000000 -0.057570 
#    y 0.000000 3.353940 0.000000 
#    z -0.057570 0.000000 3.550550 
# 
# 
# High freq. dielectric constant tensor:
#      x y z
#    x 1.734670 0.000000 0.000070 
#    y 0.000000 1.723690 0.000000 
#    z 0.000070 0.000000 1.755940 
# 
# From -- ./inp_files/221543.got.cif
#   From: 2010.06.25/outbox.cif.g09.slc.cpg/sg12_111_cif.got.tgz:221543.got - 2010.06.28 00:19:55.
