data_PCOD8099724
_publ_section_title
;
Structure prediction by ZEFSAII (Michael W. Deem and Ramdas Pophale) SiO2 
 PCOD8099724
Probable space group: C 2/M
;
_chemical_formula_sum "Si O2"
_cell_formula_units_Z 48
_cell_length_a 33.594541
_cell_length_b 13.648195
_cell_length_c 10.441956
_cell_angle_alpha 90.000000
_cell_angle_beta 148.450410
_cell_angle_gamma 90.000000
_cell_volume 2505.092033
_symmetry_space_group_name_H-M "C 2/M"
_symmetry_group_IT_number 12
_symmetry_cell_setting 'monoclinic'
loop_
_space_group_symop_operation_xyz
x,y,z
-x,y,-z
-x,-y,-z
x,-y,z
1/2+x,1/2+y,z
1/2-x,1/2+y,-z
1/2-x,1/2-y,-z
1/2+x,1/2-y,z
loop_
_atom_site_type_symbol
_atom_site_label
_atom_site_fract_x
_atom_site_fract_y
_atom_site_fract_z
Si Si1 0.937396 0.114507 0.223378
Si Si2 0.553346 0.385980 0.035979
Si Si3 0.305617 0.267548 0.536828
Si Si4 0.803307 0.769744 0.978357
Si Si5 0.414078 0.888285 0.736993
Si Si6 0.322995 0.886310 0.234656
O O1 0.000000 0.139406 0.500000
O O2 0.915448 0.000000 0.163737
O O3 0.969201 0.146845 0.170614
O O4 0.863024 0.176855 0.050740
O O5 0.542108 0.500000 0.017237
O O6 0.641847 0.362538 0.301553
O O7 0.500000 0.335600 0.000000
O O8 0.250000 0.250000 0.500000
O O9 0.258971 0.284615 0.279337
O O10 0.359907 0.173067 0.680723
O O11 0.760408 0.852867 0.944235
O O12 0.844067 0.685662 0.174767
O O13 0.389680 0.872690 0.522268
O O14 0.402570 0.000000 0.746674
O O15 0.500000 0.854435 0.000000
O O16 0.317964 0.000000 0.177470
#
# Coordination Sequence:
#
# PCOD8099724 Si02
#       6
#     8   8   8   8   8   8
#     4  10  21  37  58  82 113 151 193 239 292 351
#     4  10  22  39  59  85 119 155 193 241 293 346
#     4  11  21  35  56  85 115 147 187 234 285 340
#     4  10  20  35  56  85 113 151 190 232 290 344
#     4   9  19  36  58  82 109 149 193 229 275 336
#     4   9  19  35  57  84 116 148 186 235 285 343
#
# _framework density 19.160972000000001
#
# number of rings (size 3 to 8) (size 9 to 14) (size 15 to 20)
#    0.000    2.167    1.667    1.000    0.000    7.333 
#    0.000    1.667    0.000    0.500    0.000    0.000 
#    0.000    0.000    0.000    0.000    0.000    0.000 
#
# Total GULP energy -297547.792102 kJ/mol
# GULP energy per Si atom -12397.824671 kJ/mol
# Density = 1.911736 g / cm^3
# Si number density = 19.160972 Si / 1000 Ang^3
#
#
#
# Elastic Constant Matrix: (Units=GPa)
#
#
# Indices 1 2 3 4 5 6 
#
# 1 140.4457 37.7550 54.8651 0.0000 -5.0819 0.0000
# 2 37.7550 57.5676 41.6808 0.0000 -9.5137 0.0000
# 3 54.8651 41.6808 121.4034 0.0000 -4.2480 0.0000
# 4 0.0000 0.0000 0.0000 32.7152 0.0000 2.2331
# 5 -5.0819 -9.5137 -4.2480 0.0000 26.4176 0.0000
# 6 0.0000 0.0000 0.0000 2.2331 0.0000 18.4873
#
#
#
# Elastic Compliance Matrix: (Units=1/GPa)
#
#
# Indices 1 2 3 4 5 6 
#
# 1 0.009313 -0.004098 -0.002807 0.000000 -0.000136 0.000000
# 2 -0.004098 0.026321 -0.006919 0.000000 0.007578 0.000000
# 3 -0.002807 -0.006919 0.011841 0.000000 -0.001128 0.000000
# 4 0.000000 0.000000 0.000000 0.030821 0.000000 -0.003723
# 5 -0.000136 0.007578 -0.001128 0.000000 0.040375 0.000000
# 6 0.000000 0.000000 0.000000 -0.003723 0.000000 0.054541
#
#
# Mechanical properties :
#
#
# Convention : Reuss Voigt Hill
#
# Bulk Modulus (GPa) = 50.43593 65.33537 57.88565
# Shear Modulus (GPa) = 24.09981 27.86507 25.98244
#
# Velocity S-wave (km/s) = 3.55033 3.81762 3.68640
# Velocity P-wave (km/s) = 6.57159 7.32150 6.95666
#
# Compressibility (1/GPa) = 0.01982714
#
# Stress axis : x y z
#
# Youngs Moduli (GPa) = 107.37175 37.99266 84.44893
#
# Poissons Ratio (x) = 0.15571 0.23702
# Poissons Ratio (y) = 0.44006 0.58432
# Poissons Ratio (z) = 0.30135 0.26288
#
# Static dielectric constant tensor:
#      x y z
#    x 3.546860 0.000000 -0.134800 
#    y 0.000000 3.477770 0.000000 
#    z -0.134800 0.000000 3.655760 
# 
# 
# High freq. dielectric constant tensor:
#      x y z
#    x 1.738490 0.000000 -0.006540 
#    y 0.000000 1.742460 0.000000 
#    z -0.006540 0.000000 1.751780 
# 
# From -- ./inp_files/111782.got.cif
#   From: 2010.06.25/outbox.cif.g09.slc.cpg/sg12_56_cif.got.tgz:111782.got - 2010.06.28 00:19:55.
