data_PCOD8099876
_publ_section_title
;
Structure prediction by ZEFSAII (Michael W. Deem and Ramdas Pophale) SiO2 
 PCOD8099876
Probable space group: C 2/M
;
_chemical_formula_sum "Si O2"
_cell_formula_units_Z 64
_cell_length_a 20.597978
_cell_length_b 8.938121
_cell_length_c 24.158495
_cell_angle_alpha 90.000000
_cell_angle_beta 132.706445
_cell_angle_gamma 90.000000
_cell_volume 3268.379538
_symmetry_space_group_name_H-M "C 2/M"
_symmetry_group_IT_number 12
_symmetry_cell_setting 'monoclinic'
loop_
_space_group_symop_operation_xyz
x,y,z
-x,y,-z
-x,-y,-z
x,-y,z
1/2+x,1/2+y,z
1/2-x,1/2+y,-z
1/2-x,1/2-y,-z
1/2+x,1/2-y,z
loop_
_atom_site_type_symbol
_atom_site_label
_atom_site_fract_x
_atom_site_fract_y
_atom_site_fract_z
Si Si1 0.743501 0.829192 0.656053
Si Si2 0.407719 0.823518 0.920004
Si Si3 0.072185 0.828682 0.185771
Si Si4 0.431277 0.323000 0.193019
Si Si5 0.182212 0.674290 0.500157
Si Si6 0.734628 0.176311 0.854959
Si Si7 0.478521 0.334349 0.642676
Si Si8 0.166962 0.165394 0.711265
O O1 0.849038 0.811583 0.724101
O O2 0.710713 0.776150 0.577578
O O3 0.693806 0.715258 0.666530
O O4 0.715056 0.000000 0.651767
O O5 0.406653 0.771107 0.855457
O O6 0.332494 0.747769 0.915133
O O7 0.393513 0.000000 0.913001
O O8 0.500000 0.775014 0.000000
O O9 0.981763 0.779597 0.165216
O O10 0.064029 0.000000 0.161091
O O11 0.414810 0.500000 0.188045
O O12 0.334908 0.243752 0.140353
O O13 0.492036 0.271818 0.280016
O O14 0.189254 0.500000 0.497208
O O15 0.250000 0.750000 0.500000
O O16 0.085055 0.723402 0.426320
O O17 0.701893 0.212349 0.774481
O O18 0.741239 0.000000 0.868389
O O19 0.435499 0.500000 0.624854
O O20 0.562265 0.344168 0.651367
O O21 0.206830 0.000000 0.748026
#
# Coordination Sequence:
#
# PCOD8099876 Si02
#       8
#     8   8   8   8   8   8   8   8
#     4  10  21  36  55  81 112 147 189 240 291 340
#     4  11  24  41  62  89 121 154 190 236 289 345
#     4  10  20  37  62  89 116 150 194 243 293 346
#     4   9  19  37  61  87 119 158 196 240 292 341
#     4  11  23  37  53  75 108 149 192 238 293 346
#     4  11  21  36  60  89 120 154 195 237 283 345
#     4   9  19  36  55  78 112 150 191 236 287 341
#     4  10  20  35  57  83 110 147 190 237 290 342
#
# _framework density 19.581568999999998
#
# number of rings (size 3 to 8) (size 9 to 14) (size 15 to 20)
#    0.000    1.875    1.250    3.750    0.000    7.500 
#    0.000    4.375    0.000    0.000    0.000    0.000 
#    0.000    0.000    0.000    0.000    0.000    0.000 
#
# Total GULP energy -396727.268595 kJ/mol
# GULP energy per Si atom -12397.727144 kJ/mol
# Density = 1.953700 g / cm^3
# Si number density = 19.581569 Si / 1000 Ang^3
#
#
#
# Elastic Constant Matrix: (Units=GPa)
#
#
# Indices 1 2 3 4 5 6 
#
# 1 99.7046 30.9386 12.9340 0.0000 7.3098 0.0000
# 2 30.9386 62.4835 10.8829 0.0000 4.8853 0.0000
# 3 12.9340 10.8829 58.7251 0.0000 17.4980 0.0000
# 4 0.0000 0.0000 0.0000 25.6495 0.0000 2.8378
# 5 7.3098 4.8853 17.4980 0.0000 23.7716 0.0000
# 6 0.0000 0.0000 0.0000 2.8378 0.0000 35.6990
#
#
#
# Elastic Compliance Matrix: (Units=1/GPa)
#
#
# Indices 1 2 3 4 5 6 
#
# 1 0.012049 -0.005640 -0.001089 0.000000 -0.001745 0.000000
# 2 -0.005640 0.019218 -0.002125 0.000000 -0.000651 0.000000
# 3 -0.001089 -0.002125 0.022330 0.000000 -0.015665 0.000000
# 4 0.000000 0.000000 0.000000 0.039333 0.000000 -0.003127
# 5 -0.001745 -0.000651 -0.015665 0.000000 0.054268 0.000000
# 6 0.000000 0.000000 0.000000 -0.003127 0.000000 0.028261
#
#
# Mechanical properties :
#
#
# Convention : Reuss Voigt Hill
#
# Bulk Modulus (GPa) = 27.86409 36.71381 32.28895
# Shear Modulus (GPa) = 24.37487 28.10119 26.23803
#
# Velocity S-wave (km/s) = 3.53198 3.79236 3.66448
# Velocity P-wave (km/s) = 5.55822 6.16164 5.86769
#
# Compressibility (1/GPa) = 0.03588849
#
# Stress axis : x y z
#
# Youngs Moduli (GPa) = 82.99547 52.03484 44.78318
#
# Poissons Ratio (x) = 0.29347 0.04876
# Poissons Ratio (y) = 0.46809 0.09518
# Poissons Ratio (z) = 0.09036 0.11059
#
# Static dielectric constant tensor:
#      x y z
#    x 3.706280 0.000000 0.095640 
#    y 0.000000 3.537210 0.000000 
#    z 0.095640 0.000000 3.304390 
# 
# 
# High freq. dielectric constant tensor:
#      x y z
#    x 1.774890 0.000000 0.010450 
#    y 0.000000 1.761950 0.000000 
#    z 0.010450 0.000000 1.744450 
# 
# From -- ./inp_files/346296.got.cif
#   From: 2010.06.25/outbox.cif.g09.slc.cpg/sg12_174_cif.got.tgz:346296.got - 2010.06.28 00:19:55.
