data_PCOD8099478
_publ_section_title
;
Structure prediction by ZEFSAII (Michael W. Deem and Ramdas Pophale) SiO2 
 PCOD8099478
Probable space group: C 2/M
;
_chemical_formula_sum "Si O2"
_cell_formula_units_Z 40
_cell_length_a 18.415016
_cell_length_b 8.998124
_cell_length_c 15.650464
_cell_angle_alpha 90.000000
_cell_angle_beta 126.389906
_cell_angle_gamma 90.000000
_cell_volume 2087.595112
_symmetry_space_group_name_H-M "C 2/M"
_symmetry_group_IT_number 12
_symmetry_cell_setting 'monoclinic'
loop_
_space_group_symop_operation_xyz
x,y,z
-x,y,-z
-x,-y,-z
x,-y,z
1/2+x,1/2+y,z
1/2-x,1/2+y,-z
1/2-x,1/2-y,-z
1/2+x,1/2-y,z
loop_
_atom_site_type_symbol
_atom_site_label
_atom_site_fract_x
_atom_site_fract_y
_atom_site_fract_z
Si Si1 0.275666 0.176110 0.208826
Si Si2 0.584213 0.323716 0.006133
Si Si3 0.230907 0.173112 0.620245
Si Si4 0.120740 0.171101 0.377157
Si Si5 0.580443 0.326227 0.808779
O O1 0.176465 0.233240 0.113156
O O2 0.302107 0.243932 0.318326
O O3 0.345037 0.230808 0.186594
O O4 0.280017 0.000000 0.217590
O O5 0.579832 0.500000 0.005939
O O6 0.500000 0.255972 0.000000
O O7 0.578190 0.269507 0.904509
O O8 0.156293 0.208834 0.496360
O O9 0.328327 0.231114 0.657964
O O10 0.238223 0.000000 0.645094
O O11 0.015403 0.207823 0.301646
O O12 0.139282 0.000000 0.365976
O O13 0.604999 0.500000 0.819850
#
# Coordination Sequence:
#
# PCOD8099478 Si02
#       5
#     8   8   8   8   8
#     4  11  22  35  53  79 111 143 177 217 263 316
#     4   9  18  34  57  80 102 135 178 220 264 315
#     4  10  20  35  56  81 108 139 178 221 264 313
#     4   9  19  36  58  81 105 138 179 221 265 314
#     4  10  20  36  57  79 107 141 177 219 266 315
#
# _framework density 19.160802
#
# number of rings (size 3 to 8) (size 9 to 14) (size 15 to 20)
#    0.000    2.200    0.000    3.000    0.000    5.600 
#    0.000    5.000    0.000    4.200    0.000    0.000 
#    0.000    0.000    0.000    0.000    0.000    0.000 
#
# Total GULP energy -248082.113377 kJ/mol
# GULP energy per Si atom -12404.105669 kJ/mol
# Density = 1.911719 g / cm^3
# Si number density = 19.160802 Si / 1000 Ang^3
#
#
#
# Elastic Constant Matrix: (Units=GPa)
#
#
# Indices 1 2 3 4 5 6 
#
# 1 150.2055 49.8194 72.0471 0.0000 -12.3777 0.0000
# 2 49.8194 63.8597 40.5913 0.0000 -5.2009 0.0000
# 3 72.0471 40.5913 112.4169 0.0000 -10.7741 0.0000
# 4 0.0000 0.0000 0.0000 21.7942 0.0000 -4.0533
# 5 -12.3777 -5.2009 -10.7741 0.0000 31.3895 0.0000
# 6 0.0000 0.0000 0.0000 -4.0533 0.0000 37.5836
#
#
#
# Elastic Compliance Matrix: (Units=1/GPa)
#
#
# Indices 1 2 3 4 5 6 
#
# 1 0.010900 -0.005227 -0.004932 0.000000 0.001739 0.000000
# 2 -0.005227 0.022854 -0.004898 0.000000 0.000044 0.000000
# 3 -0.004932 -0.004898 0.014022 0.000000 0.002057 0.000000
# 4 0.000000 0.000000 0.000000 0.046823 0.000000 0.005050
# 5 0.001739 0.000044 0.002057 0.000000 0.033257 0.000000
# 6 0.000000 0.000000 0.000000 0.005050 0.000000 0.027152
#
#
# Mechanical properties :
#
#
# Convention : Reuss Voigt Hill
#
# Bulk Modulus (GPa) = 56.61682 72.37753 64.49717
# Shear Modulus (GPa) = 26.17681 29.08839 27.63260
#
# Velocity S-wave (km/s) = 3.70018 3.90053 3.80167
# Velocity P-wave (km/s) = 6.91863 7.62504 7.28041
#
# Compressibility (1/GPa) = 0.01766259
#
# Stress axis : x y z
#
# Youngs Moduli (GPa) = 91.74210 43.75583 71.31788
#
# Poissons Ratio (x) = 0.22872 0.35172
# Poissons Ratio (y) = 0.47955 0.34930
# Poissons Ratio (z) = 0.45244 0.21431
#
# Static dielectric constant tensor:
#      x y z
#    x 3.510200 0.000000 0.027410 
#    y 0.000000 3.302520 0.000000 
#    z 0.027410 0.000000 3.713930 
# 
# 
# High freq. dielectric constant tensor:
#      x y z
#    x 1.749140 0.000000 -0.002060 
#    y 0.000000 1.725720 0.000000 
#    z -0.002060 0.000000 1.759490 
# 
# From -- ./inp_files/211244.got.cif
#   From: 2010.06.25/outbox.cif.g09.slc.cpg/sg12_106_cif.got.tgz:211244.got - 2010.06.28 00:19:55.
