data_PCOD8099415
_publ_section_title
;
Structure prediction by ZEFSAII (Michael W. Deem and Ramdas Pophale) SiO2 
 PCOD8099415
Probable space group: C 2/M
;
_chemical_formula_sum "Si O2"
_cell_formula_units_Z 56
_cell_length_a 18.657880
_cell_length_b 8.675360
_cell_length_c 25.389396
_cell_angle_alpha 90.000000
_cell_angle_beta 43.770298
_cell_angle_gamma 90.000000
_cell_volume 2842.910699
_symmetry_space_group_name_H-M "C 2/M"
_symmetry_group_IT_number 12
_symmetry_cell_setting 'monoclinic'
loop_
_space_group_symop_operation_xyz
x,y,z
-x,y,-z
-x,-y,-z
x,-y,z
1/2+x,1/2+y,z
1/2-x,1/2+y,-z
1/2-x,1/2-y,-z
1/2+x,1/2-y,z
loop_
_atom_site_type_symbol
_atom_site_label
_atom_site_fract_x
_atom_site_fract_y
_atom_site_fract_z
Si Si1 0.493542 0.822131 0.189995
Si Si2 0.479531 0.319714 0.933535
Si Si3 0.099926 0.819216 0.480715
Si Si4 0.683974 0.679606 0.653002
Si Si5 0.869790 0.677390 0.781244
Si Si6 0.153197 0.679878 0.910865
Si Si7 0.548874 0.320093 0.625609
O O1 0.534650 0.721475 0.119781
O O2 0.379543 0.769601 0.268526
O O3 0.574490 0.790453 0.193236
O O4 0.488811 0.000000 0.176149
O O5 0.498907 0.500000 0.930440
O O6 0.577406 0.227058 0.903883
O O7 0.376339 0.271438 0.020144
O O8 0.197275 0.729139 0.405485
O O9 0.085024 0.767465 0.548893
O O10 0.000000 0.771412 0.500000
O O11 0.122254 0.000000 0.464658
O O12 0.672989 0.500000 0.670710
O O13 0.639973 0.721405 0.618412
O O14 0.838816 0.500000 0.790800
O O15 0.768568 0.781406 0.831916
O O16 0.945340 0.726023 0.693873
O O17 0.142189 0.500000 0.927953
O O18 0.521341 0.500000 0.641828
#
# Coordination Sequence:
#
# PCOD8099415 Si02
#       7
#     8   8   8   8   8   8   8
#     4  10  21  38  59  83 112 146 185 228 279 335
#     4  11  22  38  59  83 113 146 186 232 276 327
#     4  10  21  36  54  78 109 143 180 224 274 330
#     4  10  20  35  56  80 107 141 182 227 274 326
#     4  10  21  37  58  84 112 144 186 234 279 326
#     4  11  22  38  59  82 113 151 188 225 274 333
#     4   9  19  36  56  78 106 143 184 225 275 332
#
# _framework density 19.698121
#
# number of rings (size 3 to 8) (size 9 to 14) (size 15 to 20)
#    0.000    1.857    0.000    5.143    0.000    4.857 
#    0.000    4.286    0.000    0.000    0.000    0.000 
#    0.000    0.000    0.000    0.000    0.000    0.000 
#
# Total GULP energy -347363.744983 kJ/mol
# GULP energy per Si atom -12405.848035 kJ/mol
# Density = 1.965329 g / cm^3
# Si number density = 19.698121 Si / 1000 Ang^3
#
#
#
# Elastic Constant Matrix: (Units=GPa)
#
#
# Indices 1 2 3 4 5 6 
#
# 1 30.9560 10.8650 7.3446 0.0000 -9.3506 -0.0002
# 2 10.8650 69.2665 15.3388 0.0002 -6.1918 -0.0002
# 3 7.3446 15.3388 53.6561 0.0000 -17.9173 -0.0001
# 4 0.0000 0.0002 0.0000 38.1651 0.0000 -1.0803
# 5 -9.3506 -6.1918 -17.9173 0.0000 35.9057 0.0000
# 6 -0.0002 -0.0002 -0.0001 -1.0803 0.0000 27.8741
#
#
#
# Elastic Compliance Matrix: (Units=1/GPa)
#
#
# Indices 1 2 3 4 5 6 
#
# 1 0.036709 -0.004823 -0.000878 0.000000 0.008290 0.000000
# 2 -0.004823 0.016055 -0.004109 0.000000 -0.000538 0.000000
# 3 -0.000878 -0.004109 0.023542 0.000000 0.010810 0.000000
# 4 0.000000 0.000000 0.000000 0.026231 0.000000 0.001017
# 5 0.008290 -0.000538 0.010810 0.000000 0.035311 0.000000
# 6 0.000000 0.000000 0.000000 0.001017 0.000000 0.035915
#
#
# Mechanical properties :
#
#
# Convention : Reuss Voigt Hill
#
# Bulk Modulus (GPa) = 17.64080 24.55282 21.09681
# Shear Modulus (GPa) = 23.55397 28.41100 25.98249
#
# Velocity S-wave (km/s) = 3.46171 3.80191 3.63579
# Velocity P-wave (km/s) = 4.99529 5.63598 5.32528
#
# Compressibility (1/GPa) = 0.05668677
#
# Stress axis : x y z
#
# Youngs Moduli (GPa) = 27.24135 62.28448 42.47726
#
# Poissons Ratio (x) = 0.30038 0.03729
# Poissons Ratio (y) = 0.13137 0.17455
# Poissons Ratio (z) = 0.02392 0.25594
#
# Static dielectric constant tensor:
#      x y z
#    x 3.500120 0.000000 0.056330 
#    y 0.000000 3.595460 0.000000 
#    z 0.056330 0.000000 3.594300 
# 
# 
# High freq. dielectric constant tensor:
#      x y z
#    x 1.758340 0.000000 0.000650 
#    y 0.000000 1.775500 0.000000 
#    z 0.000650 0.000000 1.775200 
# 
# From -- ./inp_files/363031.got.cif
#   From: 2010.06.25/outbox.cif.g09.slc.cpg/sg12_182_cif.got.tgz:363031.got - 2010.06.28 00:19:55.
