data_PCOD8099678
_publ_section_title
;
Structure prediction by ZEFSAII (Michael W. Deem and Ramdas Pophale) SiO2 
 PCOD8099678
Probable space group: C 2/M
;
_chemical_formula_sum "Si O2"
_cell_formula_units_Z 56
_cell_length_a 28.470598
_cell_length_b 18.289738
_cell_length_c 7.880315
_cell_angle_alpha 90.000000
_cell_angle_beta 135.293550
_cell_angle_gamma 90.000000
_cell_volume 2886.663388
_symmetry_space_group_name_H-M "C 2/M"
_symmetry_group_IT_number 12
_symmetry_cell_setting 'monoclinic'
loop_
_space_group_symop_operation_xyz
x,y,z
-x,y,-z
-x,-y,-z
x,-y,z
1/2+x,1/2+y,z
1/2-x,1/2+y,-z
1/2-x,1/2-y,-z
1/2+x,1/2-y,z
loop_
_atom_site_type_symbol
_atom_site_label
_atom_site_fract_x
_atom_site_fract_y
_atom_site_fract_z
Si Si1 0.933784 0.920585 0.715743
Si Si2 0.133193 0.415108 0.030485
Si Si3 0.777943 0.586347 0.435424
Si Si4 0.631484 0.914853 0.644456
Si Si5 0.001716 0.656858 0.811608
Si Si6 0.990518 0.813860 0.287206
Si Si7 0.130304 0.085585 0.115578
O O1 0.872616 0.904104 0.686618
O O2 0.943176 0.860068 0.594791
O O3 0.923774 0.000000 0.603272
O O4 0.000000 0.920147 0.000000
O O5 0.123999 0.500000 0.044343
O O6 0.160305 0.401706 0.908471
O O7 0.060946 0.379662 0.859884
O O8 0.183083 0.381073 0.300149
O O9 0.775049 0.500000 0.446917
O O10 0.813115 0.610026 0.350270
O O11 0.702064 0.615328 0.238563
O O12 0.566827 0.864795 0.455097
O O13 0.612322 0.000000 0.568420
O O14 0.014076 0.743950 0.846117
O O15 0.000000 0.628118 0.000000
O O16 0.000000 0.784062 0.500000
O O17 0.925195 0.864660 0.115766
O O18 0.117947 0.000000 0.037478
#
# Coordination Sequence:
#
# PCOD8099678 Si02
#       7
#     8   8   8   8   8   8   8
#     4   8  15  31  54  75  98 133 175 220 269 320
#     4  10  20  35  56  84 114 145 185 228 273 324
#     4   9  18  35  57  82 114 149 180 220 275 331
#     4  10  20  35  57  86 116 143 183 230 270 326
#     4  12  22  35  58  78 108 149 188 229 280 324
#     4  11  22  35  53  80 113 140 184 236 279 324
#     4   9  18  36  59  81 109 144 182 223 274 334
#
# _framework density 19.399560000000001
#
# number of rings (size 3 to 8) (size 9 to 14) (size 15 to 20)
#    0.000    2.143    1.429    4.286    0.000    2.857 
#    2.571    0.714    0.000    1.714    0.000    0.000 
#    0.000    0.000    0.000    0.000    0.000    0.000 
#
# Total GULP energy -347109.584087 kJ/mol
# GULP energy per Si atom -12396.770860 kJ/mol
# Density = 1.935541 g / cm^3
# Si number density = 19.399560 Si / 1000 Ang^3
#
#
#
# Elastic Constant Matrix: (Units=GPa)
#
#
# Indices 1 2 3 4 5 6 
#
# 1 140.9358 34.2953 55.0837 0.0000 3.1666 0.0000
# 2 34.2953 58.0414 23.8733 0.0000 3.6309 0.0000
# 3 55.0837 23.8733 64.1156 0.0000 0.3055 0.0000
# 4 0.0000 0.0000 0.0000 13.2517 0.0000 -10.5517
# 5 3.1666 3.6309 0.3055 0.0000 39.5062 0.0000
# 6 0.0000 0.0000 0.0000 -10.5517 0.0000 8.1313
#
#
#
# Elastic Compliance Matrix: (Units=1/GPa)
#
#
# Indices 1 2 3 4 5 6 
#
# 1 0.011154 -0.003089 -0.008430 0.000000 -0.000545 0.000000
# 2 -0.003089 0.021331 -0.005280 0.000000 -0.001672 0.000000
# 3 -0.008430 -0.005280 0.024801 0.000000 0.000969 0.000000
# 4 0.000000 0.000000 0.000000 -2.268707 0.000000 -2.944023
# 5 -0.000545 -0.001672 0.000969 0.000000 0.025502 0.000000
# 6 0.000000 0.000000 0.000000 -2.944023 0.000000 -3.697374
#
#
# Mechanical properties :
#
#
# Convention : Reuss Voigt Hill
#
# Bulk Modulus (GPa) = 42.21816 54.39972 48.30894
# Shear Modulus (GPa) = -0.85590 22.16720 10.65565
#
# Velocity S-wave (km/s) = -0.66495 3.38400 2.34620
# Velocity P-wave (km/s) = 4.60653 6.58568 5.68293
#
# Compressibility (1/GPa) = 0.02368649
#
# Stress axis : x y z
#
# Youngs Moduli (GPa) = 89.65182 46.88017 40.32106
#
# Poissons Ratio (x) = 0.14483 0.33991
# Poissons Ratio (y) = 0.27696 0.21291
# Poissons Ratio (z) = 0.75577 0.24755
#
# Static dielectric constant tensor:
#      x y z
#    x 3.972920 0.000000 -0.011770 
#    y 0.000000 3.331600 0.000000 
#    z -0.011770 0.000000 3.309040 
# 
# 
# High freq. dielectric constant tensor:
#      x y z
#    x 1.771130 0.000000 -0.008130 
#    y 0.000000 1.733420 0.000000 
#    z -0.008130 0.000000 1.724880 
# 
# From -- ./inp_files/112637.got.cif
#   From: 2010.06.25/outbox.cif.g09.slc.cpg/sg12_57_cif.got.tgz:112637.got - 2010.06.28 00:19:55.
