data_PCOD8099902
_publ_section_title
;
Structure prediction by ZEFSAII (Michael W. Deem and Ramdas Pophale) SiO2 
 PCOD8099902
Probable space group: C 2/M
;
_chemical_formula_sum "Si O2"
_cell_formula_units_Z 48
_cell_length_a 26.240814
_cell_length_b 10.275832
_cell_length_c 14.037443
_cell_angle_alpha 90.000000
_cell_angle_beta 40.418561
_cell_angle_gamma 90.000000
_cell_volume 2454.160247
_symmetry_space_group_name_H-M "C 2/M"
_symmetry_group_IT_number 12
_symmetry_cell_setting 'monoclinic'
loop_
_space_group_symop_operation_xyz
x,y,z
-x,y,-z
-x,-y,-z
x,-y,z
1/2+x,1/2+y,z
1/2-x,1/2+y,-z
1/2-x,1/2-y,-z
1/2+x,1/2-y,z
loop_
_atom_site_type_symbol
_atom_site_label
_atom_site_fract_x
_atom_site_fract_y
_atom_site_fract_z
Si Si1 0.178262 0.858205 0.185463
Si Si2 0.062224 0.148766 0.827614
Si Si3 0.978126 0.354985 0.275986
Si Si4 0.858524 0.350595 0.608185
Si Si5 0.850554 0.722663 0.959836
Si Si6 0.687516 0.350946 0.793667
O O1 0.140358 0.743990 0.302649
O O2 0.152351 0.838816 0.113092
O O3 0.147338 0.000000 0.262935
O O4 0.272893 0.863742 0.056560
O O5 0.044168 0.247143 0.768914
O O6 0.147617 0.187109 0.749797
O O7 0.061491 0.000000 0.789826
O O8 0.000000 0.166091 0.000000
O O9 0.952625 0.500000 0.277667
O O10 0.933550 0.319720 0.437060
O O11 0.070513 0.359698 0.167649
O O12 0.858828 0.500000 0.644743
O O13 0.780494 0.322741 0.656422
O O14 0.854096 0.775405 0.061684
O O15 0.668966 0.500000 0.841428
#
# Coordination Sequence:
#
# PCOD8099902 Si02
#       6
#     8   8   8   8   8   8
#     4  10  21  37  59  85 109 142 189 232 273 324
#     4  10  20  35  57  85 112 143 184 227 273 323
#     4  11  23  38  56  83 114 146 183 226 278 330
#     4   9  21  39  57  78 113 153 184 221 275 332
#     4  10  20  35  57  83 113 143 180 230 279 325
#     4   9  17  35  58  79 109 149 186 220 268 327
#
# _framework density 19.558624999999999
#
# number of rings (size 3 to 8) (size 9 to 14) (size 15 to 20)
#    0.000    2.167    1.667    1.000    0.000    7.667 
#    0.000    3.333    0.000    0.000    0.000    0.000 
#    0.000    0.000    0.000    0.000    0.000    0.000 
#
# Total GULP energy -297527.632408 kJ/mol
# GULP energy per Si atom -12396.984684 kJ/mol
# Density = 1.951411 g / cm^3
# Si number density = 19.558625 Si / 1000 Ang^3
#
#
#
# Elastic Constant Matrix: (Units=GPa)
#
#
# Indices 1 2 3 4 5 6 
#
# 1 72.6120 42.8824 25.8696 0.0000 8.8198 0.0000
# 2 42.8824 121.8477 45.3906 0.0003 18.9824 -0.0002
# 3 25.8696 45.3906 108.7905 0.0000 0.5028 0.0000
# 4 0.0000 0.0003 0.0000 25.1595 0.0000 6.5700
# 5 8.8198 18.9824 0.5028 0.0000 20.5897 0.0000
# 6 0.0000 -0.0002 0.0000 6.5700 0.0000 16.5937
#
#
#
# Elastic Compliance Matrix: (Units=1/GPa)
#
#
# Indices 1 2 3 4 5 6 
#
# 1 0.017863 -0.005029 -0.002136 0.000000 -0.002963 0.000000
# 2 -0.005029 0.013072 -0.004213 0.000000 -0.009795 0.000000
# 3 -0.002136 -0.004213 0.011437 0.000000 0.004519 0.000000
# 4 0.000000 0.000000 0.000000 0.044330 0.000000 -0.017552
# 5 -0.002963 -0.009795 0.004519 0.000000 0.058756 0.000000
# 6 0.000000 0.000000 0.000000 -0.017552 0.000000 0.067213
#
#
# Mechanical properties :
#
#
# Convention : Reuss Voigt Hill
#
# Bulk Modulus (GPa) = 50.97893 59.05947 55.01920
# Shear Modulus (GPa) = 20.66411 25.07577 22.86994
#
# Velocity S-wave (km/s) = 3.25394 3.58450 3.42322
# Velocity P-wave (km/s) = 6.34341 6.88427 6.61937
#
# Compressibility (1/GPa) = 0.01961595
#
# Stress axis : x y z
#
# Youngs Moduli (GPa) = 55.98248 76.49791 87.43829
#
# Poissons Ratio (x) = 0.38474 0.18673
# Poissons Ratio (y) = 0.28156 0.36837
# Poissons Ratio (z) = 0.11955 0.32228
#
# Static dielectric constant tensor:
#      x y z
#    x 3.798590 0.000000 -0.238730 
#    y 0.000000 3.426600 0.000000 
#    z -0.238730 0.000000 3.524970 
# 
# 
# High freq. dielectric constant tensor:
#      x y z
#    x 1.762690 0.000000 -0.011910 
#    y 0.000000 1.756080 0.000000 
#    z -0.011910 0.000000 1.752490 
# 
# From -- ./inp_files/244626.got.cif
#   From: 2010.06.25/outbox.cif.g09.slc.cpg/sg12_123_cif.got.tgz:244626.got - 2010.06.28 00:19:55.
