data_PCOD8099166
_publ_section_title
;
Structure prediction by ZEFSAII (Michael W. Deem and Ramdas Pophale) SiO2 
 PCOD8099166
Probable space group: C 2/M
;
_chemical_formula_sum "Si O2"
_cell_formula_units_Z 40
_cell_length_a 19.096931
_cell_length_b 8.732992
_cell_length_c 26.308684
_cell_angle_alpha 90.000000
_cell_angle_beta 28.852029
_cell_angle_gamma 90.000000
_cell_volume 2117.226847
_symmetry_space_group_name_H-M "C 2/M"
_symmetry_group_IT_number 12
_symmetry_cell_setting 'monoclinic'
loop_
_space_group_symop_operation_xyz
x,y,z
-x,y,-z
-x,-y,-z
x,-y,z
1/2+x,1/2+y,z
1/2-x,1/2+y,-z
1/2-x,1/2-y,-z
1/2+x,1/2-y,z
loop_
_atom_site_type_symbol
_atom_site_label
_atom_site_fract_x
_atom_site_fract_y
_atom_site_fract_z
Si Si1 0.698211 0.179138 0.439475
Si Si2 0.016744 0.678621 0.705339
Si Si3 0.097719 0.679115 0.111172
Si Si4 0.687506 0.320869 0.744150
Si Si5 0.080730 0.180686 0.334375
O O1 0.824324 0.246243 0.394819
O O2 0.730316 0.216225 0.360534
O O3 0.547254 0.256670 0.548967
O O4 0.686096 0.000000 0.457775
O O5 0.037420 0.500000 0.682214
O O6 0.930579 0.713066 0.811703
O O7 0.925070 0.752058 0.718441
O O8 0.095437 0.500000 0.100674
O O9 0.976620 0.760933 0.153897
O O10 0.250000 0.750000 0.000000
O O11 0.687098 0.500000 0.756379
O O12 0.766685 0.231921 0.738982
O O13 0.071434 0.000000 0.337724
#
# Coordination Sequence:
#
# PCOD8099166 Si02
#       5
#     8   8   8   8   8
#     4  10  20  35  55  79 110 149 187 221 263 318
#     4  10  21  37  56  80 110 144 183 223 266 319
#     4  10  21  39  63  85 106 137 177 223 273 326
#     4  10  21  37  57  81 110 144 183 225 268 319
#     4  12  23  34  52  80 115 149 181 223 270 316
#
# _framework density 18.892637000000001
#
# number of rings (size 3 to 8) (size 9 to 14) (size 15 to 20)
#    0.000    1.600    0.000    5.400    0.000    7.200 
#    0.000    1.000    0.000    6.000    0.000    0.000 
#    0.000    0.000    0.000    0.000    0.000    0.000 
#
# Total GULP energy -248129.776213 kJ/mol
# GULP energy per Si atom -12406.488811 kJ/mol
# Density = 1.884964 g / cm^3
# Si number density = 18.892637 Si / 1000 Ang^3
#
#
#
# Elastic Constant Matrix: (Units=GPa)
#
#
# Indices 1 2 3 4 5 6 
#
# 1 140.6914 57.9152 39.4471 0.0002 -20.2096 -0.0004
# 2 57.9152 120.8942 38.7633 -0.0006 -10.7301 -0.0009
# 3 39.4471 38.7633 88.5657 -0.0021 -25.2141 0.0002
# 4 0.0002 -0.0006 -0.0021 33.6356 0.0002 -5.6424
# 5 -20.2096 -10.7301 -25.2141 0.0002 20.5822 0.0001
# 6 -0.0004 -0.0009 0.0002 -5.6424 0.0001 36.7797
#
#
#
# Elastic Compliance Matrix: (Units=1/GPa)
#
#
# Indices 1 2 3 4 5 6 
#
# 1 0.009897 -0.003891 -0.000792 0.000000 0.006718 0.000000
# 2 -0.003891 0.011152 -0.003963 0.000000 -0.002861 0.000000
# 3 -0.000792 -0.003963 0.019300 0.000001 0.020799 0.000000
# 4 0.000000 0.000000 0.000001 0.030516 0.000001 0.004681
# 5 0.006718 -0.002861 0.020799 0.000001 0.079171 0.000000
# 6 0.000000 0.000000 0.000000 0.004681 0.000000 0.027907
#
#
# Mechanical properties :
#
#
# Convention : Reuss Voigt Hill
#
# Bulk Modulus (GPa) = 43.37028 69.15585 56.26306
# Shear Modulus (GPa) = 24.64033 32.46789 28.55411
#
# Velocity S-wave (km/s) = 3.61533 4.15003 3.89188
# Velocity P-wave (km/s) = 6.35873 7.72320 7.07394
#
# Compressibility (1/GPa) = 0.02305727
#
# Stress axis : x y z
#
# Youngs Moduli (GPa) = 101.04521 89.66845 51.81425
#
# Poissons Ratio (x) = 0.34887 0.04106
# Poissons Ratio (y) = 0.39313 0.20532
# Poissons Ratio (z) = 0.08007 0.35532
#
# Static dielectric constant tensor:
#      x y z
#    x 3.581000 0.000000 -0.040910 
#    y 0.000000 3.637310 0.000000 
#    z -0.040910 0.000000 3.300260 
# 
# 
# High freq. dielectric constant tensor:
#      x y z
#    x 1.742970 0.000000 -0.006230 
#    y 0.000000 1.754100 0.000000 
#    z -0.006230 0.000000 1.718100 
# 
# From -- ./inp_files/151646.got.cif
#   From: 2010.06.25/outbox.cif.g09.slc.cpg/sg12_76_cif.got.tgz:151646.got - 2010.06.28 00:19:55.
