data_PCOD8099307
_publ_section_title
;
Structure prediction by ZEFSAII (Michael W. Deem and Ramdas Pophale) SiO2 
 PCOD8099307
Probable space group: C 2/M
;
_chemical_formula_sum "Si O2"
_cell_formula_units_Z 56
_cell_length_a 27.383910
_cell_length_b 13.856879
_cell_length_c 7.019301
_cell_angle_alpha 90.000000
_cell_angle_beta 98.240095
_cell_angle_gamma 90.000000
_cell_volume 2636.014934
_symmetry_space_group_name_H-M "C 2/M"
_symmetry_group_IT_number 12
_symmetry_cell_setting 'monoclinic'
loop_
_space_group_symop_operation_xyz
x,y,z
-x,y,-z
-x,-y,-z
x,-y,z
1/2+x,1/2+y,z
1/2-x,1/2+y,-z
1/2-x,1/2-y,-z
1/2+x,1/2-y,z
loop_
_atom_site_type_symbol
_atom_site_label
_atom_site_fract_x
_atom_site_fract_y
_atom_site_fract_z
Si Si1 0.913419 0.613973 0.642256
Si Si2 0.945311 0.232300 0.928253
Si Si3 0.108148 0.739837 0.703646
Si Si4 0.617255 0.614547 0.391596
Si Si5 0.690259 0.109054 0.262639
Si Si6 0.727537 0.609874 0.429813
Si Si7 0.712929 0.177606 0.881481
O O1 0.923069 0.500000 0.662713
O O2 0.951311 0.671442 0.799609
O O3 0.915658 0.648586 0.423909
O O4 0.860749 0.653202 0.691102
O O5 0.916175 0.147748 0.803441
O O6 0.917646 0.255835 0.108207
O O7 0.000000 0.193636 0.000000
O O8 0.098181 0.837436 0.577406
O O9 0.167077 0.729974 0.756618
O O10 0.613487 0.500000 0.409535
O O11 0.672953 0.654412 0.382237
O O12 0.738241 0.161965 0.386850
O O13 0.690470 0.000000 0.339309
O O14 0.691742 0.109466 0.036033
O O15 0.719161 0.500000 0.487197
O O16 0.756506 0.612932 0.247577
O O17 0.750000 0.250000 0.000000
#
# Coordination Sequence:
#
# PCOD8099307 Si02
#       7
#     8   8   8   8   8   8   8
#     4  10  22  40  64  93 126 163 206 250 306 376
#     4  11  25  46  67  93 124 160 210 270 324 371
#     4  11  23  40  64  92 124 166 209 262 313 370
#     4  10  24  44  65  92 127 165 211 262 315 371
#     4  10  20  35  55  84 122 165 205 242 290 361
#     4  10  21  37  57  86 126 166 204 249 298 364
#     4  12  22  31  56  88 123 166 208 243 301 367
#
# _framework density 21.24419
#
# number of rings (size 3 to 8) (size 9 to 14) (size 15 to 20)
#    0.000    1.429    2.857    2.143    2.000    5.714 
#    0.000    5.000    0.000    0.000    0.000    0.000 
#    0.000    0.000    0.000    0.000    0.000    0.000 
#
# Total GULP energy -347169.555971 kJ/mol
# GULP energy per Si atom -12398.912713 kJ/mol
# Density = 2.119584 g / cm^3
# Si number density = 21.244190 Si / 1000 Ang^3
#
#
#
# Elastic Constant Matrix: (Units=GPa)
#
#
# Indices 1 2 3 4 5 6 
#
# 1 80.3919 13.9322 20.2819 0.0000 25.8272 0.0000
# 2 13.9322 66.7354 28.7499 0.0000 4.0558 0.0000
# 3 20.2819 28.7499 130.8635 0.0000 12.1531 0.0000
# 4 0.0000 0.0000 0.0000 24.6704 0.0000 3.6176
# 5 25.8272 4.0558 12.1531 0.0000 27.9886 0.0000
# 6 0.0000 0.0000 0.0000 3.6176 0.0000 20.7445
#
#
#
# Elastic Compliance Matrix: (Units=1/GPa)
#
#
# Indices 1 2 3 4 5 6 
#
# 1 0.018255 -0.002493 -0.000782 0.000000 -0.016144 0.000000
# 2 -0.002493 0.016911 -0.003454 0.000000 0.001350 0.000000
# 3 -0.000782 -0.003454 0.008761 0.000000 -0.002582 0.000000
# 4 0.000000 0.000000 0.000000 0.041598 0.000000 -0.007254
# 5 -0.016144 0.001350 -0.002582 0.000000 0.051552 0.000000
# 6 0.000000 0.000000 0.000000 -0.007254 0.000000 0.049471
#
#
# Mechanical properties :
#
#
# Convention : Reuss Voigt Hill
#
# Bulk Modulus (GPa) = 32.82049 44.87985 38.85017
# Shear Modulus (GPa) = 23.79103 29.01584 26.40343
#
# Velocity S-wave (km/s) = 3.35010 3.69972 3.52924
# Velocity P-wave (km/s) = 5.51787 6.27870 5.91054
#
# Compressibility (1/GPa) = 0.03046877
#
# Stress axis : x y z
#
# Youngs Moduli (GPa) = 54.77926 59.13289 114.13643
#
# Poissons Ratio (x) = 0.14741 0.08929
# Poissons Ratio (y) = 0.13656 0.39425
# Poissons Ratio (z) = 0.04285 0.20426
#
# Static dielectric constant tensor:
#      x y z
#    x 3.872930 0.000000 0.212980 
#    y 0.000000 3.643890 0.000000 
#    z 0.212980 0.000000 4.507780 
# 
# 
# High freq. dielectric constant tensor:
#      x y z
#    x 1.822140 0.000000 0.010870 
#    y 0.000000 1.826950 0.000000 
#    z 0.010870 0.000000 1.846730 
# 
# From -- ./inp_files/31508.got.cif
#   From: 2010.06.25/outbox.cif.g09.slc.cpg/sg12_16_cif.got.tgz:31508.got - 2010.06.28 00:19:55.
