data_PCOD8099040
_publ_section_title
;
Structure prediction by ZEFSAII (Michael W. Deem and Ramdas Pophale) SiO2 
 PCOD8099040
Probable space group: C 2/M
;
_chemical_formula_sum "Si O2"
_cell_formula_units_Z 56
_cell_length_a 14.196101
_cell_length_b 9.282317
_cell_length_c 31.485793
_cell_angle_alpha 90.000000
_cell_angle_beta 132.047355
_cell_angle_gamma 90.000000
_cell_volume 3080.988707
_symmetry_space_group_name_H-M "C 2/M"
_symmetry_group_IT_number 12
_symmetry_cell_setting 'monoclinic'
loop_
_space_group_symop_operation_xyz
x,y,z
-x,y,-z
-x,-y,-z
x,-y,z
1/2+x,1/2+y,z
1/2-x,1/2+y,-z
1/2-x,1/2-y,-z
1/2+x,1/2-y,z
loop_
_atom_site_type_symbol
_atom_site_label
_atom_site_fract_x
_atom_site_fract_y
_atom_site_fract_z
Si Si1 0.838117 0.830154 0.059495
Si Si2 0.681602 0.666603 0.850390
Si Si3 0.874764 0.167494 0.849736
Si Si4 0.693832 0.668800 0.641983
Si Si5 0.798042 0.164418 0.453806
Si Si6 0.388885 0.665958 0.756445
Si Si7 0.553687 0.832900 0.435150
O O1 0.796485 0.784974 0.094367
O O2 0.983289 0.782912 0.095111
O O3 0.823553 0.000000 0.049067
O O4 0.750000 0.750000 0.000000
O O5 0.714190 0.500000 0.855140
O O6 0.773417 0.751838 0.847432
O O7 0.536913 0.696843 0.793681
O O8 0.849450 0.201173 0.792758
O O9 0.858987 0.000000 0.854061
O O10 0.678305 0.500000 0.646193
O O11 0.714751 0.703906 0.599021
O O12 0.814628 0.727251 0.703378
O O13 0.568980 0.751858 0.620203
O O14 0.661578 0.192719 0.432979
O O15 0.904381 0.264617 0.507257
O O16 0.842122 0.000000 0.474118
O O17 0.356900 0.500000 0.736050
O O18 0.523076 0.000000 0.433050
#
# Coordination Sequence:
#
# PCOD8099040 Si02
#       7
#     8   8   8   8   8   8   8
#     4   9  19  35  53  78 111 142 173 212 256 303
#     4   9  19  36  56  77 104 138 175 215 258 302
#     4   9  19  36  56  76 103 139 174 211 258 306
#     4  11  22  35  53  77 104 134 169 211 258 306
#     4   9  20  37  53  73 104 136 166 206 256 308
#     4   9  20  38  54  72 102 136 171 213 257 304
#     4  10  20  35  55  77 102 134 170 208 254 308
#
# _framework density 18.175982999999999
#
# number of rings (size 3 to 8) (size 9 to 14) (size 15 to 20)
#    0.000    2.571    0.000    3.000    0.000    7.429 
#    0.000   10.000    0.000    0.000    0.000    0.000 
#    0.000    0.000    0.000    0.000    0.000    0.000 
#
# Total GULP energy -347248.679815 kJ/mol
# GULP energy per Si atom -12401.738565 kJ/mol
# Density = 1.813461 g / cm^3
# Si number density = 18.175983 Si / 1000 Ang^3
#
#
#
# Elastic Constant Matrix: (Units=GPa)
#
#
# Indices 1 2 3 4 5 6 
#
# 1 117.5118 53.6119 46.5240 0.0000 -0.8446 0.0000
# 2 53.6119 83.9368 56.7650 0.0000 4.3624 0.0000
# 3 46.5240 56.7650 110.3227 0.0000 8.5884 0.0000
# 4 0.0000 0.0000 0.0000 39.5476 0.0000 1.9522
# 5 -0.8446 4.3624 8.5884 0.0000 15.8006 0.0000
# 6 0.0000 0.0000 0.0000 1.9522 0.0000 34.9285
#
#
#
# Elastic Compliance Matrix: (Units=1/GPa)
#
#
# Indices 1 2 3 4 5 6 
#
# 1 0.012422 -0.006731 -0.002058 0.000000 0.003641 0.000000
# 2 -0.006731 0.021919 -0.008291 0.000000 -0.001905 0.000000
# 3 -0.002058 -0.008291 0.014649 0.000000 -0.005783 0.000000
# 4 0.000000 0.000000 0.000000 0.025356 0.000000 -0.001417
# 5 0.003641 -0.001905 -0.005783 0.000000 0.067153 0.000000
# 6 0.000000 0.000000 0.000000 -0.001417 0.000000 0.028709
#
#
# Mechanical properties :
#
#
# Convention : Reuss Voigt Hill
#
# Bulk Modulus (GPa) = 67.44020 69.50813 68.47417
# Shear Modulus (GPa) = 23.88767 28.38001 26.13384
#
# Velocity S-wave (km/s) = 3.62918 3.95574 3.79598
# Velocity P-wave (km/s) = 7.39904 7.69342 7.54767
#
# Compressibility (1/GPa) = 0.01482795
#
# Stress axis : x y z
#
# Youngs Moduli (GPa) = 80.50319 45.62156 68.26482
#
# Poissons Ratio (x) = 0.30709 0.14052
# Poissons Ratio (y) = 0.54189 0.56601
# Poissons Ratio (z) = 0.16571 0.37827
#
# Static dielectric constant tensor:
#      x y z
#    x 3.414100 0.000000 0.034150 
#    y 0.000000 3.308190 0.000000 
#    z 0.034150 0.000000 3.332860 
# 
# 
# High freq. dielectric constant tensor:
#      x y z
#    x 1.711760 0.000000 0.003090 
#    y 0.000000 1.704750 0.000000 
#    z 0.003090 0.000000 1.703200 
# 
# From -- ./inp_files/338149.got.cif
#   From: 2010.06.25/outbox.cif.g09.slc.cpg/sg12_170_cif.got.tgz:338149.got - 2010.06.28 00:19:55.
