data_PCOD8099898
_publ_section_title
;
Structure prediction by ZEFSAII (Michael W. Deem and Ramdas Pophale) SiO2 
 PCOD8099898
Probable space group: C 2/M
;
_chemical_formula_sum "Si O2"
_cell_formula_units_Z 40
_cell_length_a 19.718768
_cell_length_b 12.739802
_cell_length_c 18.491619
_cell_angle_alpha 90.000000
_cell_angle_beta 26.434957
_cell_angle_gamma 90.000000
_cell_volume 2068.019274
_symmetry_space_group_name_H-M "C 2/M"
_symmetry_group_IT_number 12
_symmetry_cell_setting 'monoclinic'
loop_
_space_group_symop_operation_xyz
x,y,z
-x,y,-z
-x,-y,-z
x,-y,z
1/2+x,1/2+y,z
1/2-x,1/2+y,-z
1/2-x,1/2-y,-z
1/2+x,1/2-y,z
loop_
_atom_site_type_symbol
_atom_site_label
_atom_site_fract_x
_atom_site_fract_y
_atom_site_fract_z
Si Si1 0.004305 0.875641 0.910921
Si Si2 0.494979 0.384358 0.421135
Si Si3 0.924414 0.379671 0.842849
Si Si4 0.714879 0.752347 0.135755
Si Si5 0.291747 0.225601 0.376713
O O1 0.144531 0.824274 0.731556
O O2 0.017004 0.000000 0.887124
O O3 0.000000 0.846354 0.000000
O O4 0.844768 0.834308 0.032856
O O5 0.500000 0.403338 0.500000
O O6 0.505792 0.500000 0.373266
O O7 0.643299 0.311830 0.269613
O O8 0.345846 0.325968 0.534752
O O9 0.906646 0.500000 0.841682
O O10 0.926569 0.315877 0.765167
O O11 0.073145 0.359812 0.749182
O O12 0.773705 0.338556 0.026441
O O13 0.250000 0.250000 0.500000
#
# Coordination Sequence:
#
# PCOD8099898 Si02
#       5
#     8   8   8   8   8
#     4  10  22  40  62  87 120 162 202 246 305 368
#     4  11  23  39  60  87 122 161 198 245 305 363
#     4  10  20  35  57  83 112 149 193 242 296 349
#     4  10  20  37  57  84 116 151 196 243 289 353
#     4  11  22  40  59  89 121 157 200 255 301 357
#
# _framework density 19.342179999999999
#
# number of rings (size 3 to 8) (size 9 to 14) (size 15 to 20)
#    0.000    1.600    2.000    3.000    0.000    1.600 
#    0.000    0.000    0.000   13.800    0.000    0.000 
#    0.000    0.000    0.000    0.000    0.000    0.000 
#
# Total GULP energy -247833.473240 kJ/mol
# GULP energy per Si atom -12391.673662 kJ/mol
# Density = 1.929816 g / cm^3
# Si number density = 19.342180 Si / 1000 Ang^3
#
#
#
# Elastic Constant Matrix: (Units=GPa)
#
#
# Indices 1 2 3 4 5 6 
#
# 1 93.3971 41.1447 38.1864 -0.0011 1.4539 0.0005
# 2 41.1447 136.1279 62.2783 -0.0014 6.6845 0.0008
# 3 38.1864 62.2783 74.8933 -0.0009 6.0928 0.0006
# 4 -0.0011 -0.0014 -0.0009 25.7750 0.0009 1.3615
# 5 1.4539 6.6845 6.0928 0.0009 37.3150 -0.0005
# 6 0.0005 0.0008 0.0006 1.3615 -0.0005 26.5181
#
#
#
# Elastic Compliance Matrix: (Units=1/GPa)
#
#
# Indices 1 2 3 4 5 6 
#
# 1 0.013738 -0.001543 -0.005778 0.000000 0.000684 0.000000
# 2 -0.001543 0.012040 -0.009177 0.000000 -0.000598 0.000000
# 3 -0.005778 -0.009177 0.024097 0.000000 -0.002066 0.000000
# 4 0.000000 0.000000 0.000000 0.038903 -0.000001 -0.001997
# 5 0.000684 -0.000598 -0.002066 -0.000001 0.027217 0.000001
# 6 0.000000 0.000000 0.000000 -0.001997 0.000001 0.037813
#
#
# Mechanical properties :
#
#
# Convention : Reuss Voigt Hill
#
# Bulk Modulus (GPa) = 59.23704 65.29303 62.26504
# Shear Modulus (GPa) = 25.98363 28.77555 27.37959
#
# Velocity S-wave (km/s) = 3.66917 3.86127 3.76645
# Velocity P-wave (km/s) = 6.97444 7.32866 7.15374
#
# Compressibility (1/GPa) = 0.01688133
#
# Stress axis : x y z
#
# Youngs Moduli (GPa) = 72.78988 83.05614 41.49847
#
# Poissons Ratio (x) = 0.12813 0.23976
# Poissons Ratio (y) = 0.11230 0.38082
# Poissons Ratio (z) = 0.42055 0.76219
#
# Static dielectric constant tensor:
#      x y z
#    x 3.642070 0.000000 0.036820 
#    y 0.000000 3.667280 0.000000 
#    z 0.036820 0.000000 3.615490 
# 
# 
# High freq. dielectric constant tensor:
#      x y z
#    x 1.757690 0.000000 -0.004990 
#    y 0.000000 1.761340 0.000000 
#    z -0.004990 0.000000 1.754170 
# 
# From -- ./inp_files/71219.got.cif
#   From: 2010.06.25/outbox.cif.g09.slc.cpg/sg12_36_cif.got.tgz:71219.got - 2010.06.28 00:19:55.
