data_PCOD8099714
_publ_section_title
;
Structure prediction by ZEFSAII (Michael W. Deem and Ramdas Pophale) SiO2 
 PCOD8099714
Probable space group: C 2/M
;
_chemical_formula_sum "Si O2"
_cell_formula_units_Z 64
_cell_length_a 29.410795
_cell_length_b 23.507564
_cell_length_c 8.786580
_cell_angle_alpha 90.000000
_cell_angle_beta 31.007904
_cell_angle_gamma 90.000000
_cell_volume 3129.487984
_symmetry_space_group_name_H-M "C 2/M"
_symmetry_group_IT_number 12
_symmetry_cell_setting 'monoclinic'
loop_
_space_group_symop_operation_xyz
x,y,z
-x,y,-z
-x,-y,-z
x,-y,z
1/2+x,1/2+y,z
1/2-x,1/2+y,-z
1/2-x,1/2-y,-z
1/2+x,1/2-y,z
loop_
_atom_site_type_symbol
_atom_site_label
_atom_site_fract_x
_atom_site_fract_y
_atom_site_fract_z
Si Si1 0.906409 0.151008 0.692721
Si Si2 0.372930 0.770594 0.259820
Si Si3 0.063621 0.373423 0.087680
Si Si4 0.190408 0.827795 0.732050
Si Si5 0.783705 0.563577 0.493861
Si Si6 0.732792 0.435594 0.983880
Si Si7 0.353581 0.245286 0.668953
Si Si8 0.380897 0.129254 0.733774
O O1 0.908698 0.197839 0.552482
O O2 0.000000 0.136179 0.500000
O O3 0.843882 0.178505 0.998985
O O4 0.863944 0.093170 0.748192
O O5 0.284366 0.798533 0.452085
O O6 0.376934 0.704864 0.188607
O O7 0.377866 0.769860 0.426288
O O8 0.446315 0.811734 0.970573
O O9 0.118682 0.371360 0.085981
O O10 0.966896 0.398492 0.405416
O O11 0.116398 0.417795 0.830961
O O12 0.207918 0.894533 0.640513
O O13 0.764458 0.500000 0.488636
O O14 0.780440 0.566509 0.685155
O O15 0.720126 0.500000 0.077801
O O16 0.792368 0.401458 0.932914
O O17 0.387179 0.195325 0.678177
O O18 0.250000 0.250000 0.000000
#
# Coordination Sequence:
#
# PCOD8099714 Si02
#       8
#     8   8   8   8   8   8   8   8
#     4  11  23  38  58  88 120 157 203 256 307 355
#     4  10  20  35  56  84 118 160 198 234 298 363
#     4  10  23  37  59  87 127 159 193 241 298 370
#     4   9  18  34  56  81 114 153 195 245 292 357
#     4   9  19  36  58  83 111 152 200 245 293 348
#     4  10  22  42  64  85 115 160 210 256 301 356
#     4  12  22  36  59  85 120 154 195 245 301 362
#     4  11  23  39  57  90 124 161 196 242 304 370
#
# _framework density 20.45063
#
# number of rings (size 3 to 8) (size 9 to 14) (size 15 to 20)
#    0.000    1.750    2.500    2.250    7.000    3.250 
#    0.000    2.500    0.000    0.000    0.000    0.000 
#    0.000   13.000    0.000    0.000    0.000    0.000 
#
# Total GULP energy -396621.750594 kJ/mol
# GULP energy per Si atom -12394.429706 kJ/mol
# Density = 2.040408 g / cm^3
# Si number density = 20.450630 Si / 1000 Ang^3
#
#
#
# Elastic Constant Matrix: (Units=GPa)
#
#
# Indices 1 2 3 4 5 6 
#
# 1 90.2645 44.7618 28.0694 0.0000 -12.1181 0.0000
# 2 44.7618 138.3958 29.0627 0.0000 -4.1772 0.0000
# 3 28.0694 29.0627 49.9439 0.0000 -4.5785 0.0000
# 4 0.0000 0.0000 0.0000 17.1356 0.0000 3.3545
# 5 -12.1181 -4.1772 -4.5785 0.0000 26.5825 0.0000
# 6 0.0000 0.0000 0.0000 3.3545 0.0000 21.7420
#
#
#
# Elastic Compliance Matrix: (Units=1/GPa)
#
#
# Indices 1 2 3 4 5 6 
#
# 1 0.015479 -0.003554 -0.006132 0.000000 0.005441 0.000000
# 2 -0.003554 0.009054 -0.003342 0.000000 -0.000773 0.000000
# 3 -0.006132 -0.003342 0.025512 0.000000 0.001074 0.000000
# 4 0.000000 0.000000 0.000000 0.060175 0.000000 -0.009284
# 5 0.005441 -0.000773 0.001074 0.000000 0.040163 0.000000
# 6 0.000000 0.000000 0.000000 -0.009284 0.000000 0.047426
#
#
# Mechanical properties :
#
#
# Convention : Reuss Voigt Hill
#
# Bulk Modulus (GPa) = 41.68791 53.59911 47.64351
# Shear Modulus (GPa) = 21.56470 24.87273 23.21872
#
# Velocity S-wave (km/s) = 3.25079 3.49124 3.37316
# Velocity P-wave (km/s) = 5.87530 6.52055 6.20631
#
# Compressibility (1/GPa) = 0.02398777
#
# Stress axis : x y z
#
# Youngs Moduli (GPa) = 64.60562 110.45285 39.19760
#
# Poissons Ratio (x) = 0.39258 0.24036
# Poissons Ratio (y) = 0.22963 0.13099
# Poissons Ratio (z) = 0.39617 0.36910
#
# Static dielectric constant tensor:
#      x y z
#    x 3.556500 0.000000 0.016510 
#    y 0.000000 4.093950 0.000000 
#    z 0.016510 0.000000 3.873600 
# 
# 
# High freq. dielectric constant tensor:
#      x y z
#    x 1.785880 0.000000 0.008180 
#    y 0.000000 1.791660 0.000000 
#    z 0.008180 0.000000 1.796100 
# 
# From -- ./inp_files/113618.got.cif
#   From: 2010.06.25/outbox.cif.g09.slc.cpg/sg12_57_cif.got.tgz:113618.got - 2010.06.28 00:19:55.
