data_PCOD8099771
_publ_section_title
;
Structure prediction by ZEFSAII (Michael W. Deem and Ramdas Pophale) SiO2 
 PCOD8099771
Probable space group: C 2/M
;
_chemical_formula_sum "Si O2"
_cell_formula_units_Z 56
_cell_length_a 21.361746
_cell_length_b 13.332062
_cell_length_c 15.110793
_cell_angle_alpha 90.000000
_cell_angle_beta 38.118544
_cell_angle_gamma 90.000000
_cell_volume 2656.506894
_symmetry_space_group_name_H-M "C 2/M"
_symmetry_group_IT_number 12
_symmetry_cell_setting 'monoclinic'
loop_
_space_group_symop_operation_xyz
x,y,z
-x,y,-z
-x,-y,-z
x,-y,z
1/2+x,1/2+y,z
1/2-x,1/2+y,-z
1/2-x,1/2-y,-z
1/2+x,1/2-y,z
loop_
_atom_site_type_symbol
_atom_site_label
_atom_site_fract_x
_atom_site_fract_y
_atom_site_fract_z
Si Si1 0.919685 0.111863 0.013627
Si Si2 0.766285 0.886454 0.565643
Si Si3 0.061578 0.607420 0.697695
Si Si4 0.583761 0.110325 0.471264
Si Si5 0.584810 0.616774 0.330675
Si Si6 0.251368 0.736565 0.751946
Si Si7 0.984481 0.180606 0.262650
O O1 0.841008 0.204039 0.100100
O O2 0.871713 0.000000 0.081530
O O3 0.976506 0.106080 0.855904
O O4 0.000000 0.135513 0.000000
O O5 0.681308 0.883296 0.584587
O O6 0.720081 0.834690 0.705041
O O7 0.866122 0.833666 0.416398
O O8 0.796633 0.000000 0.557770
O O9 0.021970 0.500000 0.782758
O O10 0.040903 0.602896 0.616768
O O11 0.002166 0.706913 0.794605
O O12 0.500000 0.160590 0.500000
O O13 0.681633 0.177536 0.365498
O O14 0.611313 0.000000 0.403290
O O15 0.500000 0.631145 0.500000
O O16 0.607422 0.500000 0.289363
O O17 0.689324 0.671224 0.241062
O O18 0.547726 0.667319 0.281627
#
# Coordination Sequence:
#
# PCOD8099771 Si02
#       7
#     8   8   8   8   8   8   8
#     4  11  27  45  63  91 131 178 219 259 318 389
#     4  11  22  36  63  96 123 161 216 273 322 372
#     4  10  21  35  58  93 123 157 211 267 323 374
#     4  10  20  35  56  87 122 159 204 259 318 374
#     4  11  22  39  67 100 129 162 212 269 325 382
#     4  12  22  39  62  92 127 167 210 264 317 378
#     4  12  22  42  65  91 129 170 212 265 321 381
#
# _framework density 21.080313
#
# number of rings (size 3 to 8) (size 9 to 14) (size 15 to 20)
#    0.000    1.000    2.857    4.714    2.000    0.571 
#    0.000    2.143    0.000    3.857    0.000    0.000 
#    0.000    0.000    0.000    0.000    0.000    0.000 
#
# Total GULP energy -347081.523275 kJ/mol
# GULP energy per Si atom -12395.768688 kJ/mol
# Density = 2.103233 g / cm^3
# Si number density = 21.080313 Si / 1000 Ang^3
#
#
#
# Elastic Constant Matrix: (Units=GPa)
#
#
# Indices 1 2 3 4 5 6 
#
# 1 119.8407 37.8423 24.8451 0.0000 4.8292 0.0000
# 2 37.8423 154.1423 30.1197 0.0000 -12.0384 0.0000
# 3 24.8451 30.1197 61.0827 0.0000 5.1562 0.0000
# 4 0.0000 0.0000 0.0000 31.9799 0.0000 -7.1865
# 5 4.8292 -12.0384 5.1562 0.0000 24.4241 0.0000
# 6 0.0000 0.0000 0.0000 -7.1865 0.0000 43.3569
#
#
#
# Elastic Compliance Matrix: (Units=1/GPa)
#
#
# Indices 1 2 3 4 5 6 
#
# 1 0.009640 -0.002014 -0.002732 0.000000 -0.002322 0.000000
# 2 -0.002014 0.008088 -0.003603 0.000000 0.005145 0.000000
# 3 -0.002732 -0.003603 0.019715 0.000000 -0.005398 0.000000
# 4 0.000000 0.000000 0.000000 0.032479 0.000000 0.005384
# 5 -0.002322 0.005145 -0.005398 0.000000 0.045078 0.000000
# 6 0.000000 0.000000 0.000000 0.005384 0.000000 0.023957
#
#
# Mechanical properties :
#
#
# Convention : Reuss Voigt Hill
#
# Bulk Modulus (GPa) = 48.20582 57.85331 53.02956
# Shear Modulus (GPa) = 30.75580 36.10276 33.42928
#
# Velocity S-wave (km/s) = 3.82381 4.14288 3.98654
# Velocity P-wave (km/s) = 6.51250 7.09848 6.81180
#
# Compressibility (1/GPa) = 0.02074439
#
# Stress axis : x y z
#
# Youngs Moduli (GPa) = 103.72993 123.64075 50.72330
#
# Poissons Ratio (x) = 0.24905 0.13857
# Poissons Ratio (y) = 0.20894 0.18277
# Poissons Ratio (z) = 0.28338 0.44550
#
# Static dielectric constant tensor:
#      x y z
#    x 3.875230 0.000000 0.054260 
#    y 0.000000 4.533190 0.000000 
#    z 0.054260 0.000000 3.364670 
# 
# 
# High freq. dielectric constant tensor:
#      x y z
#    x 1.840130 0.000000 0.007330 
#    y 0.000000 1.862610 0.000000 
#    z 0.007330 0.000000 1.768840 
# 
# From -- ./inp_files/233676.got.cif
#   From: 2010.06.25/outbox.cif.g09.slc.cpg/sg12_117_cif.got.tgz:233676.got - 2010.06.28 00:19:55.
