data_PCOD8099620
_publ_section_title
;
Structure prediction by ZEFSAII (Michael W. Deem and Ramdas Pophale) SiO2 
 PCOD8099620
Probable space group: C 2/M
;
_chemical_formula_sum "Si O2"
_cell_formula_units_Z 64
_cell_length_a 26.937034
_cell_length_b 9.340923
_cell_length_c 15.346080
_cell_angle_alpha 90.000000
_cell_angle_beta 121.229823
_cell_angle_gamma 90.000000
_cell_volume 3301.802870
_symmetry_space_group_name_H-M "C 2/M"
_symmetry_group_IT_number 12
_symmetry_cell_setting 'monoclinic'
loop_
_space_group_symop_operation_xyz
x,y,z
-x,y,-z
-x,-y,-z
x,-y,z
1/2+x,1/2+y,z
1/2-x,1/2+y,-z
1/2-x,1/2-y,-z
1/2+x,1/2-y,z
loop_
_atom_site_type_symbol
_atom_site_label
_atom_site_fract_x
_atom_site_fract_y
_atom_site_fract_z
Si Si1 0.611089 0.661702 0.225784
Si Si2 0.706606 0.166343 0.898041
Si Si3 0.921849 0.334684 0.151346
Si Si4 0.058734 0.667166 0.503058
Si Si5 0.741255 0.336405 0.404820
Si Si6 0.936135 0.332470 0.966939
Si Si7 0.470433 0.329966 0.690947
Si Si8 0.317292 0.168754 0.314827
O O1 0.596819 0.500000 0.185667
O O2 0.674395 0.675930 0.321881
O O3 0.609318 0.757046 0.137925
O O4 0.564709 0.715296 0.254794
O O5 0.641829 0.191099 0.871600
O O6 0.708083 0.227756 0.800178
O O7 0.723886 0.000000 0.917420
O O8 0.750000 0.250000 0.000000
O O9 0.941298 0.500000 0.178921
O O10 0.965475 0.237144 0.246404
O O11 0.922420 0.284776 0.052048
O O12 0.059224 0.500000 0.477786
O O13 0.063499 0.762415 0.421142
O O14 0.114513 0.706864 0.613038
O O15 0.000000 0.707836 0.500000
O O16 0.760121 0.500000 0.438494
O O17 0.750000 0.250000 0.500000
O O18 0.780064 0.269215 0.361866
O O19 0.928975 0.500000 0.946948
O O20 0.000000 0.278875 0.000000
O O21 0.473991 0.500000 0.682523
O O22 0.309233 0.000000 0.304601
#
# Coordination Sequence:
#
# PCOD8099620 Si02
#       8
#     8   8   8   8   8   8   8   8
#     4  10  22  36  53  80 114 148 184 228 287 346
#     4  10  22  40  61  85 114 149 192 237 281 334
#     4  10  21  38  58  81 114 151 190 236 280 332
#     4  10  20  36  60  84 107 143 188 230 279 336
#     4  10  21  38  58  82 112 149 189 231 280 336
#     4  10  20  35  56  83 112 146 190 236 280 332
#     4  11  22  35  54  84 116 145 180 229 287 343
#     4   9  19  37  59  82 110 148 191 229 275 340
#
# _framework density 19.38335
#
# number of rings (size 3 to 8) (size 9 to 14) (size 15 to 20)
#    0.000    2.000    1.250    1.875    1.750    4.500 
#    0.000    1.250    0.000    0.000    0.000    0.000 
#    0.000    0.000    0.000    0.000    0.000    0.000 
#
# Total GULP energy -396866.763565 kJ/mol
# GULP energy per Si atom -12402.086361 kJ/mol
# Density = 1.933923 g / cm^3
# Si number density = 19.383350 Si / 1000 Ang^3
#
#
#
# Elastic Constant Matrix: (Units=GPa)
#
#
# Indices 1 2 3 4 5 6 
#
# 1 94.2820 30.6523 52.3316 0.0000 -10.7876 0.0000
# 2 30.6523 53.4397 52.4518 0.0000 -3.3441 0.0000
# 3 52.3316 52.4518 145.7661 0.0000 -15.9568 0.0000
# 4 0.0000 0.0000 0.0000 32.6438 0.0000 -5.8231
# 5 -10.7876 -3.3441 -15.9568 0.0000 32.0793 0.0000
# 6 0.0000 0.0000 0.0000 -5.8231 0.0000 16.8103
#
#
#
# Elastic Compliance Matrix: (Units=1/GPa)
#
#
# Indices 1 2 3 4 5 6 
#
# 1 0.014224 -0.005057 -0.002983 0.000000 0.002772 0.000000
# 2 -0.005057 0.030888 -0.009659 0.000000 -0.003285 0.000000
# 3 -0.002983 -0.009659 0.011831 0.000000 0.003875 0.000000
# 4 0.000000 0.000000 0.000000 0.032651 0.000000 0.011310
# 5 0.002772 -0.003285 0.003875 0.000000 0.033690 0.000000
# 6 0.000000 0.000000 0.000000 0.011310 0.000000 0.063405
#
#
# Mechanical properties :
#
#
# Convention : Reuss Voigt Hill
#
# Bulk Modulus (GPa) = 46.41494 62.70656 54.56075
# Shear Modulus (GPa) = 21.80850 26.84346 24.32598
#
# Velocity S-wave (km/s) = 3.35791 3.72542 3.54643
# Velocity P-wave (km/s) = 6.24755 7.13625 6.70663
#
# Compressibility (1/GPa) = 0.02154479
#
# Stress axis : x y z
#
# Youngs Moduli (GPa) = 70.30564 32.37527 84.52313
#
# Poissons Ratio (x) = 0.16371 0.25216
# Poissons Ratio (y) = 0.35552 0.81638
# Poissons Ratio (z) = 0.20975 0.31270
#
# Static dielectric constant tensor:
#      x y z
#    x 3.684630 0.000000 -0.135890 
#    y 0.000000 3.366470 0.000000 
#    z -0.135890 0.000000 3.594850 
# 
# 
# High freq. dielectric constant tensor:
#      x y z
#    x 1.764650 0.000000 -0.004160 
#    y 0.000000 1.730860 0.000000 
#    z -0.004160 0.000000 1.766320 
# 
# From -- ./inp_files/249924.got.cif
#   From: 2010.06.25/outbox.cif.g09.slc.cpg/sg12_125_cif.got.tgz:249924.got - 2010.06.28 00:19:55.
