data_PCOD8099932
_publ_section_title
;
Structure prediction by ZEFSAII (Michael W. Deem and Ramdas Pophale) SiO2 
 PCOD8099932
Probable space group: C 2/M
;
_chemical_formula_sum "Si O2"
_cell_formula_units_Z 44
_cell_length_a 13.421083
_cell_length_b 18.283649
_cell_length_c 11.993957
_cell_angle_alpha 90.000000
_cell_angle_beta 47.234200
_cell_angle_gamma 90.000000
_cell_volume 2160.672918
_symmetry_space_group_name_H-M "C 2/M"
_symmetry_group_IT_number 12
_symmetry_cell_setting 'monoclinic'
loop_
_space_group_symop_operation_xyz
x,y,z
-x,y,-z
-x,-y,-z
x,-y,z
1/2+x,1/2+y,z
1/2-x,1/2+y,-z
1/2-x,1/2-y,-z
1/2+x,1/2-y,z
loop_
_atom_site_type_symbol
_atom_site_label
_atom_site_fract_x
_atom_site_fract_y
_atom_site_fract_z
Si Si1 0.782292 0.625438 0.990687
Si Si2 0.709231 0.078882 0.770032
Si Si3 0.786555 0.000000 0.105448
Si Si4 0.978537 0.845774 0.275153
Si Si5 0.031007 0.711195 0.849251
Si Si6 0.079216 0.000000 0.771111
Si Si7 0.000000 0.872973 0.500000
O O1 0.793106 0.571624 0.876298
O O2 0.892462 0.689435 0.889945
O O3 0.822062 0.584044 0.074681
O O4 0.632004 0.657623 0.113588
O O5 0.637923 0.144710 0.758153
O O6 0.870512 0.077714 0.627962
O O7 0.653082 0.000000 0.771673
O O8 0.800334 0.000000 0.228783
O O9 0.934229 0.000000 0.938647
O O10 0.969915 0.824581 0.412572
O O11 0.903598 0.782144 0.261308
O O12 0.909191 0.925877 0.311232
O O13 0.000000 0.732493 0.000000
#
# Coordination Sequence:
#
# PCOD8099932 Si02
#       7
#     8   8   4   8   8   4   4
#     4   9  18  32  56  82 114 145 174 224 274 336
#     4  10  20  35  57  84 109 145 188 227 274 321
#     4   9  16  30  51  77 113 142 174 212 272 331
#     4  10  21  37  55  83 110 144 188 224 276 321
#     4  10  22  34  55  85 118 144 174 227 281 334
#     4   9  20  31  52  81 105 144 179 227 269 314
#     4  10  23  38  62  76 107 146 192 239 262 320
#
# _framework density 20.364025999999999
#
# number of rings (size 3 to 8) (size 9 to 14) (size 15 to 20)
#    0.000    2.364    0.909    0.818   11.455    1.818 
#    0.000    0.000    0.000    0.000    0.000    1.909 
#    0.000    0.000    0.000    0.000    0.000    0.000 
#
# Total GULP energy -272688.214667 kJ/mol
# GULP energy per Si atom -12394.918849 kJ/mol
# Density = 2.031768 g / cm^3
# Si number density = 20.364026 Si / 1000 Ang^3
#
#
#
# Elastic Constant Matrix: (Units=GPa)
#
#
# Indices 1 2 3 4 5 6 
#
# 1 91.5733 56.6256 21.9886 0.0001 25.2569 -0.0001
# 2 56.6256 162.8326 36.7606 0.0000 21.0358 -0.0001
# 3 21.9886 36.7606 53.5278 0.0001 17.0653 -0.0001
# 4 0.0001 0.0000 0.0001 9.5446 -0.0001 5.9924
# 5 25.2569 21.0358 17.0653 -0.0001 29.1871 0.0001
# 6 -0.0001 -0.0001 -0.0001 5.9924 0.0001 31.3540
#
#
#
# Elastic Compliance Matrix: (Units=1/GPa)
#
#
# Indices 1 2 3 4 5 6 
#
# 1 0.016750 -0.004298 -0.000363 0.000000 -0.011184 0.000000
# 2 -0.004298 0.008569 -0.004101 0.000000 -0.000059 0.000000
# 3 -0.000363 -0.004101 0.025326 -0.000001 -0.011538 0.000000
# 4 0.000000 0.000000 -0.000001 0.119058 0.000001 -0.022755
# 5 -0.011184 -0.000059 -0.011538 0.000001 0.050729 0.000000
# 6 0.000000 0.000000 0.000000 -0.022755 0.000000 0.036243
#
#
# Mechanical properties :
#
#
# Convention : Reuss Voigt Hill
#
# Bulk Modulus (GPa) = 30.19220 59.85369 45.02294
# Shear Modulus (GPa) = 17.52921 26.85439 22.19180
#
# Velocity S-wave (km/s) = 2.93711 3.63535 3.30473
# Velocity P-wave (km/s) = 5.13426 6.86125 6.05959
#
# Compressibility (1/GPa) = 0.03312114
#
# Stress axis : x y z
#
# Youngs Moduli (GPa) = 59.70180 116.69575 39.48577
#
# Poissons Ratio (x) = 0.50155 0.01435
# Poissons Ratio (y) = 0.25659 0.16191
# Poissons Ratio (z) = 0.02169 0.47852
#
# Static dielectric constant tensor:
#      x y z
#    x 3.786590 0.000000 0.106150 
#    y 0.000000 3.657730 0.000000 
#    z 0.106150 0.000000 3.367270 
# 
# 
# High freq. dielectric constant tensor:
#      x y z
#    x 1.789890 0.000000 0.009990 
#    y 0.000000 1.794310 0.000000 
#    z 0.009990 0.000000 1.751280 
# 
# From -- ./inp_files/145361.got.cif
#   From: 2010.06.25/outbox.cif.g09.slc.cpg/sg12_73_cif.got.tgz:145361.got - 2010.06.28 00:19:55.
