data_PCOD8099788
_publ_section_title
;
Structure prediction by ZEFSAII (Michael W. Deem and Ramdas Pophale) SiO2 
 PCOD8099788
Probable space group: C 2/M
;
_chemical_formula_sum "Si O2"
_cell_formula_units_Z 56
_cell_length_a 19.516662
_cell_length_b 9.112046
_cell_length_c 27.424679
_cell_angle_alpha 90.000000
_cell_angle_beta 141.471006
_cell_angle_gamma 90.000000
_cell_volume 3038.006583
_symmetry_space_group_name_H-M "C 2/M"
_symmetry_group_IT_number 12
_symmetry_cell_setting 'monoclinic'
loop_
_space_group_symop_operation_xyz
x,y,z
-x,y,-z
-x,-y,-z
x,-y,z
1/2+x,1/2+y,z
1/2-x,1/2+y,-z
1/2-x,1/2-y,-z
1/2+x,1/2-y,z
loop_
_atom_site_type_symbol
_atom_site_label
_atom_site_fract_x
_atom_site_fract_y
_atom_site_fract_z
Si Si1 0.246270 0.327528 0.225657
Si Si2 0.344446 0.326181 0.022248
Si Si3 0.376326 0.671651 0.667636
Si Si4 0.925340 0.829134 0.804285
Si Si5 0.511090 0.670205 0.650210
Si Si6 0.125924 0.330774 0.059316
Si Si7 0.200912 0.829017 0.519176
O O1 0.243714 0.500000 0.234410
O O2 0.177980 0.253292 0.230503
O O3 0.369933 0.260265 0.295127
O O4 0.195418 0.288626 0.145211
O O5 0.331004 0.500000 0.018213
O O6 0.461640 0.273368 0.108795
O O7 0.250000 0.250000 0.000000
O O8 0.332400 0.274102 0.960159
O O9 0.353441 0.500000 0.647441
O O10 0.430902 0.705915 0.749906
O O11 0.457464 0.733700 0.670414
O O12 0.257423 0.754080 0.597810
O O13 0.908561 0.000000 0.804915
O O14 0.531190 0.500000 0.671652
O O15 0.431338 0.694425 0.558748
O O16 0.143329 0.500000 0.053717
O O17 0.000000 0.296418 0.000000
O O18 0.250000 0.750000 0.500000
O O19 0.230385 0.000000 0.534862
#
# Coordination Sequence:
#
# PCOD8099788 Si02
#       7
#     8   8   8   8   8   8   8
#     4  10  20  35  57  79 106 143 181 220 262 319
#     4  11  24  39  58  81 110 144 181 226 273 323
#     4   9  18  34  55  77 104 139 179 219 266 318
#     4  10  22  38  55  77 109 145 176 219 274 322
#     4   8  16  31  54  79 101 134 178 217 257 312
#     4  10  20  36  58  82 108 142 183 223 266 320
#     4   9  16  30  52  78 107 137 175 218 263 315
#
# _framework density 18.433140000000002
#
# number of rings (size 3 to 8) (size 9 to 14) (size 15 to 20)
#    0.000    2.429    1.429    1.714    2.000    2.000 
#    0.000    4.286    0.000    4.286    0.000    0.000 
#    0.000    0.000    0.000    0.000    0.000    0.000 
#
# Total GULP energy -347120.147989 kJ/mol
# GULP energy per Si atom -12397.148142 kJ/mol
# Density = 1.839119 g / cm^3
# Si number density = 18.433140 Si / 1000 Ang^3
#
#
#
# Elastic Constant Matrix: (Units=GPa)
#
#
# Indices 1 2 3 4 5 6 
#
# 1 86.3436 29.4861 38.0017 0.0000 11.8967 0.0000
# 2 29.4861 49.6216 28.7297 0.0000 4.2091 0.0001
# 3 38.0017 28.7297 93.1845 0.0000 22.7286 0.0000
# 4 0.0000 0.0000 0.0000 26.5459 0.0000 -2.6509
# 5 11.8967 4.2091 22.7286 0.0000 28.8722 0.0000
# 6 0.0000 0.0001 0.0000 -2.6509 0.0000 31.1592
#
#
#
# Elastic Compliance Matrix: (Units=1/GPa)
#
#
# Indices 1 2 3 4 5 6 
#
# 1 0.016010 -0.007162 -0.003672 0.000000 -0.002663 0.000000
# 2 -0.007162 0.027939 -0.006707 0.000000 0.004158 0.000000
# 3 -0.003672 -0.006707 0.016942 0.000000 -0.010846 0.000000
# 4 0.000000 0.000000 0.000000 0.037993 0.000000 0.003232
# 5 -0.002663 0.004158 -0.010846 0.000000 0.043665 0.000000
# 6 0.000000 0.000000 0.000000 0.003232 0.000000 0.032368
#
#
# Mechanical properties :
#
#
# Convention : Reuss Voigt Hill
#
# Bulk Modulus (GPa) = 38.74532 46.84275 42.79403
# Shear Modulus (GPa) = 22.87253 26.17761 24.52507
#
# Velocity S-wave (km/s) = 3.52637 3.77256 3.65154
# Velocity P-wave (km/s) = 6.13559 6.66661 6.40660
#
# Compressibility (1/GPa) = 0.02580957
#
# Stress axis : x y z
#
# Youngs Moduli (GPa) = 62.46006 35.79232 59.02401
#
# Poissons Ratio (x) = 0.25634 0.21672
# Poissons Ratio (y) = 0.44733 0.39590
# Poissons Ratio (z) = 0.22933 0.24007
#
# Static dielectric constant tensor:
#      x y z
#    x 3.205010 0.000000 0.191180 
#    y 0.000000 3.334000 0.000000 
#    z 0.191180 0.000000 3.794320 
# 
# 
# High freq. dielectric constant tensor:
#      x y z
#    x 1.697990 0.000000 0.001820 
#    y 0.000000 1.699050 0.000000 
#    z 0.001820 0.000000 1.730990 
# 
# From -- ./inp_files/280406.got.cif
#   From: 2010.06.25/outbox.cif.g09.slc.cpg/sg12_141_cif.got.tgz:280406.got - 2010.06.28 00:19:55.
