data_PCOD8099964
_publ_section_title
;
Structure prediction by ZEFSAII (Michael W. Deem and Ramdas Pophale) SiO2 
 PCOD8099964
Probable space group: C 2/M
;
_chemical_formula_sum "Si O2"
_cell_formula_units_Z 56
_cell_length_a 9.931838
_cell_length_b 18.363774
_cell_length_c 14.997614
_cell_angle_alpha 90.000000
_cell_angle_beta 89.701985
_cell_angle_gamma 90.000000
_cell_volume 2735.318252
_symmetry_space_group_name_H-M "C 2/M"
_symmetry_group_IT_number 12
_symmetry_cell_setting 'monoclinic'
loop_
_space_group_symop_operation_xyz
x,y,z
-x,y,-z
-x,-y,-z
x,-y,z
1/2+x,1/2+y,z
1/2-x,1/2+y,-z
1/2-x,1/2-y,-z
1/2+x,1/2-y,z
loop_
_atom_site_type_symbol
_atom_site_label
_atom_site_fract_x
_atom_site_fract_y
_atom_site_fract_z
Si Si1 0.927520 0.584341 0.594315
Si Si2 0.997610 0.082748 0.179946
Si Si3 0.966772 0.211683 0.696873
Si Si4 0.020976 0.642853 0.775811
Si Si5 0.218407 0.413930 0.103439
Si Si6 0.763712 0.784640 0.404876
Si Si7 0.726776 0.917340 0.906549
O O1 0.886588 0.500000 0.604978
O O2 0.792763 0.632862 0.598507
O O3 0.000000 0.598628 0.500000
O O4 0.024686 0.608594 0.675794
O O5 0.040916 0.130998 0.263934
O O6 0.860349 0.115549 0.139897
O O7 0.112320 0.086370 0.104192
O O8 0.978946 0.000000 0.214305
O O9 0.005644 0.270160 0.772783
O O10 0.079351 0.214280 0.619526
O O11 0.820161 0.232652 0.660781
O O12 0.158626 0.627539 0.827250
O O13 0.897377 0.608880 0.829636
O O14 0.228684 0.500000 0.095841
O O15 0.190379 0.383722 0.003630
O O16 0.750000 0.750000 0.500000
O O17 0.673562 0.000000 0.899253
#
# Coordination Sequence:
#
# PCOD8099964 Si02
#       7
#     8   8   8   8   8   8   8
#     4  10  21  37  60  89 117 148 189 235 285 340
#     4  10  21  38  57  79 112 150 187 231 282 338
#     4  11  23  38  59  84 112 148 192 232 283 346
#     4  11  21  36  57  84 115 146 187 238 283 329
#     4  10  20  36  58  82 112 153 194 230 277 339
#     4  11  22  40  61  83 115 152 188 234 288 340
#     4  10  20  35  57  84 114 149 189 233 283 337
#
# _framework density 20.472937999999999
#
# number of rings (size 3 to 8) (size 9 to 14) (size 15 to 20)
#    0.000    1.571    0.000    6.857    0.000    4.571 
#    0.000    6.429    0.000    1.714    0.000    0.000 
#    0.000    0.000    0.000    0.000    0.000    0.000 
#
# Total GULP energy -347248.237627 kJ/mol
# GULP energy per Si atom -12401.722772 kJ/mol
# Density = 2.042634 g / cm^3
# Si number density = 20.472938 Si / 1000 Ang^3
#
#
#
# Elastic Constant Matrix: (Units=GPa)
#
#
# Indices 1 2 3 4 5 6 
#
# 1 63.3770 -5.6519 12.9298 0.0000 2.2141 0.0000
# 2 -5.6519 62.4278 25.7625 0.0000 19.1420 0.0000
# 3 12.9298 25.7625 114.3758 0.0000 1.1722 0.0000
# 4 0.0000 0.0000 0.0000 22.5281 0.0000 2.3888
# 5 2.2141 19.1420 1.1722 0.0000 27.7409 0.0000
# 6 0.0000 0.0000 0.0000 2.3888 0.0000 23.6995
#
#
#
# Elastic Compliance Matrix: (Units=1/GPa)
#
#
# Indices 1 2 3 4 5 6 
#
# 1 0.016812 0.003833 -0.002724 0.000000 -0.003872 0.000000
# 2 0.003833 0.023719 -0.005608 0.000000 -0.016436 0.000000
# 3 -0.002724 -0.005608 0.010277 0.000000 0.003653 0.000000
# 4 0.000000 0.000000 0.000000 0.044869 0.000000 -0.004522
# 5 -0.003872 -0.016436 0.003653 0.000000 0.047544 0.000000
# 6 0.000000 0.000000 0.000000 -0.004522 0.000000 0.042651
#
#
# Mechanical properties :
#
#
# Convention : Reuss Voigt Hill
#
# Bulk Modulus (GPa) = 23.91721 34.02905 28.97313
# Shear Modulus (GPa) = 23.94586 28.60306 26.27446
#
# Velocity S-wave (km/s) = 3.42370 3.74186 3.58631
# Velocity P-wave (km/s) = 5.22845 5.94359 5.59745
#
# Compressibility (1/GPa) = 0.04181089
#
# Stress axis : x y z
#
# Youngs Moduli (GPa) = 59.48307 42.15966 97.30741
#
# Poissons Ratio (x) = -0.16162 0.26509
# Poissons Ratio (y) = -0.22803 0.54566
# Poissons Ratio (z) = 0.16205 0.23641
#
# Static dielectric constant tensor:
#      x y z
#    x 3.895750 0.000000 0.002680 
#    y 0.000000 3.750280 0.000000 
#    z 0.002680 0.000000 3.818680 
# 
# 
# High freq. dielectric constant tensor:
#      x y z
#    x 1.804320 0.000000 -0.003750 
#    y 0.000000 1.792920 0.000000 
#    z -0.003750 0.000000 1.805290 
# 
# From -- ./inp_files/197512.got.cif
#   From: 2010.06.25/outbox.cif.g09.slc.cpg/sg12_99_cif.got.tgz:197512.got - 2010.06.28 00:19:55.
