data_PCOD8099892
_publ_section_title
;
Structure prediction by ZEFSAII (Michael W. Deem and Ramdas Pophale) SiO2 
 PCOD8099892
Probable space group: C 2/M
;
_chemical_formula_sum "Si O2"
_cell_formula_units_Z 48
_cell_length_a 20.237118
_cell_length_b 8.947973
_cell_length_c 20.169549
_cell_angle_alpha 90.000000
_cell_angle_beta 37.506987
_cell_angle_gamma 90.000000
_cell_volume 2223.748432
_symmetry_space_group_name_H-M "C 2/M"
_symmetry_group_IT_number 12
_symmetry_cell_setting 'monoclinic'
loop_
_space_group_symop_operation_xyz
x,y,z
-x,y,-z
-x,-y,-z
x,-y,z
1/2+x,1/2+y,z
1/2-x,1/2+y,-z
1/2-x,1/2-y,-z
1/2+x,1/2-y,z
loop_
_atom_site_type_symbol
_atom_site_label
_atom_site_fract_x
_atom_site_fract_y
_atom_site_fract_z
Si Si1 0.230212 0.334872 0.082141
Si Si2 0.938596 0.830689 0.217085
Si Si3 0.804382 0.171119 0.203153
Si Si4 0.518228 0.835496 0.688875
Si Si5 0.058874 0.321075 0.387665
Si Si6 0.593865 0.176620 0.988876
O O1 0.283369 0.500000 0.038288
O O2 0.281868 0.234801 0.099508
O O3 0.103971 0.351863 0.191192
O O4 0.250000 0.250000 0.000000
O O5 0.826459 0.821744 0.264779
O O6 0.918745 0.761779 0.306082
O O7 0.976717 0.000000 0.197196
O O8 0.029555 0.748540 0.100917
O O9 0.683601 0.236525 0.287334
O O10 0.907972 0.265557 0.087187
O O11 0.812864 0.000000 0.170623
O O12 0.511711 0.764198 0.619850
O O13 0.573235 0.000000 0.643075
O O14 0.061914 0.500000 0.384040
O O15 0.000000 0.259117 0.500000
O O16 0.579042 0.000000 0.002571
#
# Coordination Sequence:
#
# PCOD8099892 Si02
#       6
#     8   8   8   8   8   8
#     4  11  20  32  52  80 114 150 189 231 274 328
#     4  11  23  36  55  81 118 158 187 227 277 337
#     4  10  21  39  58  82 114 150 193 233 279 335
#     4  10  20  35  57  83 112 144 185 235 278 331
#     4   9  18  37  65  88 105 136 188 241 284 333
#     4  12  23  34  53  82 117 156 192 230 274 330
#
# _framework density 21.585175
#
# number of rings (size 3 to 8) (size 9 to 14) (size 15 to 20)
#    0.000    1.500    3.333    3.000    0.000    4.000 
#    0.000    0.833    0.000    2.000    0.000    0.000 
#    0.000    0.000    0.000    0.000    0.000    0.000 
#
# Total GULP energy -297320.929175 kJ/mol
# GULP energy per Si atom -12388.372049 kJ/mol
# Density = 2.153605 g / cm^3
# Si number density = 21.585175 Si / 1000 Ang^3
#
#
#
# Elastic Constant Matrix: (Units=GPa)
#
#
# Indices 1 2 3 4 5 6 
#
# 1 125.5300 41.8463 28.4828 -0.0001 40.2195 0.0001
# 2 41.8463 110.6785 22.0549 -0.0008 18.5432 0.0009
# 3 28.4828 22.0549 79.1204 -0.0001 30.0762 0.0001
# 4 -0.0001 -0.0008 -0.0001 14.2453 0.0001 6.6924
# 5 40.2195 18.5432 30.0762 0.0001 36.0061 -0.0001
# 6 0.0001 0.0009 0.0001 6.6924 -0.0001 32.7919
#
#
#
# Elastic Compliance Matrix: (Units=1/GPa)
#
#
# Indices 1 2 3 4 5 6 
#
# 1 0.013262 -0.002876 0.001605 0.000000 -0.014674 0.000000
# 2 -0.002876 0.010591 -0.001560 0.000001 -0.000939 0.000000
# 3 0.001605 -0.001560 0.018861 0.000000 -0.016745 0.000000
# 4 0.000000 0.000001 0.000000 0.077643 -0.000001 -0.015846
# 5 -0.014674 -0.000939 -0.016745 -0.000001 0.058635 0.000000
# 6 0.000000 0.000000 0.000000 -0.015846 0.000000 0.033729
#
#
# Mechanical properties :
#
#
# Convention : Reuss Voigt Hill
#
# Bulk Modulus (GPa) = 26.98813 55.56633 41.27723
# Shear Modulus (GPa) = 21.67012 31.47166 26.57089
#
# Velocity S-wave (km/s) = 3.17193 3.82255 3.51234
# Velocity P-wave (km/s) = 5.09363 6.72913 5.96768
#
# Compressibility (1/GPa) = 0.03705333
#
# Stress axis : x y z
#
# Youngs Moduli (GPa) = 75.40266 94.42332 53.01920
#
# Poissons Ratio (x) = 0.27153 -0.08512
# Poissons Ratio (y) = 0.21683 0.08271
# Poissons Ratio (z) = -0.12105 0.14730
#
# Static dielectric constant tensor:
#      x y z
#    x 4.391720 0.000000 0.181260 
#    y 0.000000 3.492720 0.000000 
#    z 0.181260 0.000000 3.410070 
# 
# 
# High freq. dielectric constant tensor:
#      x y z
#    x 1.882090 0.000000 0.012850 
#    y 0.000000 1.815070 0.000000 
#    z 0.012850 0.000000 1.813450 
# 
# From -- ./inp_files/348748.got.cif
#   From: 2010.06.25/outbox.cif.g09.slc.cpg/sg12_175_cif.got.tgz:348748.got - 2010.06.28 00:19:55.
