data_PCOD8099022
_publ_section_title
;
Structure prediction by ZEFSAII (Michael W. Deem and Ramdas Pophale) SiO2 
 PCOD8099022
Probable space group: C 2/M
;
_chemical_formula_sum "Si O2"
_cell_formula_units_Z 64
_cell_length_a 30.707341
_cell_length_b 9.268014
_cell_length_c 22.950691
_cell_angle_alpha 90.000000
_cell_angle_beta 30.947713
_cell_angle_gamma 90.000000
_cell_volume 3358.951328
_symmetry_space_group_name_H-M "C 2/M"
_symmetry_group_IT_number 12
_symmetry_cell_setting 'monoclinic'
loop_
_space_group_symop_operation_xyz
x,y,z
-x,y,-z
-x,-y,-z
x,-y,z
1/2+x,1/2+y,z
1/2-x,1/2+y,-z
1/2-x,1/2-y,-z
1/2+x,1/2-y,z
loop_
_atom_site_type_symbol
_atom_site_label
_atom_site_fract_x
_atom_site_fract_y
_atom_site_fract_z
Si Si1 0.599402 0.829546 0.947996
Si Si2 0.157300 0.336249 0.190897
Si Si3 0.979959 0.831259 0.586677
Si Si4 0.156261 0.168418 0.987535
Si Si5 0.945865 0.667479 0.804000
Si Si6 0.082813 0.834321 0.580189
Si Si7 0.262194 0.832095 0.425644
Si Si8 0.906848 0.330134 0.175506
O O1 0.617560 0.776543 0.861358
O O2 0.615448 0.000000 0.936622
O O3 0.662393 0.738712 0.916442
O O4 0.503660 0.788413 0.077262
O O5 0.138380 0.500000 0.231151
O O6 0.108268 0.235407 0.291865
O O7 0.126722 0.306971 0.160545
O O8 0.256255 0.301260 0.079729
O O9 0.000000 0.766666 0.500000
O O10 0.055827 0.793860 0.544912
O O11 0.964574 0.000000 0.599901
O O12 0.080908 0.248175 0.107688
O O13 0.135578 0.000000 0.006754
O O14 0.958903 0.500000 0.804385
O O15 0.034718 0.731146 0.680468
O O16 0.182348 0.808789 0.474392
O O17 0.057419 0.000000 0.622461
O O18 0.250000 0.750000 0.500000
O O19 0.343548 0.767238 0.297530
O O20 0.274437 0.000000 0.426535
O O21 0.896048 0.500000 0.187552
#
# Coordination Sequence:
#
# PCOD8099022 Si02
#       8
#     8   8   8   8   8   8   8   8
#     4   9  18  35  58  81 103 139 183 221 267 319
#     4   9  20  36  51  73 106 142 177 216 263 315
#     4   9  18  33  55  81 107 139 178 220 265 319
#     4  11  22  34  51  79 111 138 171 218 271 319
#     4  10  20  35  55  75 101 140 183 219 259 319
#     4   9  19  35  52  76 110 141 173 220 278 321
#     4  10  21  36  55  80 110 145 182 224 272 321
#     4   8  17  36  58  78 106 139 178 226 267 312
#
# _framework density 19.053566
#
# number of rings (size 3 to 8) (size 9 to 14) (size 15 to 20)
#    0.000    2.625    0.000    1.875    1.750    3.250 
#    0.000    4.375    0.000    0.000    0.000    0.000 
#    0.000    0.000    0.000    0.000    0.000    0.000 
#
# Total GULP energy -396778.134683 kJ/mol
# GULP energy per Si atom -12399.316709 kJ/mol
# Density = 1.901020 g / cm^3
# Si number density = 19.053566 Si / 1000 Ang^3
#
#
#
# Elastic Constant Matrix: (Units=GPa)
#
#
# Indices 1 2 3 4 5 6 
#
# 1 74.0801 29.4473 34.3865 0.0110 13.4479 -0.0038
# 2 29.4473 60.8272 32.7103 -0.0077 7.4104 -0.0044
# 3 34.3865 32.7103 94.4969 0.0005 17.2458 -0.0071
# 4 0.0110 -0.0077 0.0005 27.6007 -0.0043 2.2964
# 5 13.4479 7.4104 17.2458 -0.0043 29.5003 0.0063
# 6 -0.0038 -0.0044 -0.0071 2.2964 0.0063 26.7752
#
#
#
# Elastic Compliance Matrix: (Units=1/GPa)
#
#
# Indices 1 2 3 4 5 6 
#
# 1 0.018635 -0.006467 -0.003681 -0.000010 -0.004718 0.000003
# 2 -0.006467 0.022477 -0.005524 0.000009 0.000531 0.000000
# 3 -0.003681 -0.005524 0.014860 -0.000002 -0.005621 0.000004
# 4 -0.000010 0.000009 -0.000002 0.036491 0.000009 -0.003130
# 5 -0.004718 0.000531 -0.005621 0.000009 0.039202 -0.000012
# 6 0.000003 0.000000 0.000004 -0.003130 -0.000012 0.037616
#
#
# Mechanical properties :
#
#
# Convention : Reuss Voigt Hill
#
# Bulk Modulus (GPa) = 40.60617 46.94359 43.77488
# Shear Modulus (GPa) = 23.94238 25.63256 24.78747
#
# Velocity S-wave (km/s) = 3.54868 3.67180 3.61076
# Velocity P-wave (km/s) = 6.17646 6.53202 6.35673
#
# Compressibility (1/GPa) = 0.02462680
#
# Stress axis : x y z
#
# Youngs Moduli (GPa) = 53.66276 44.49069 67.29450
#
# Poissons Ratio (x) = 0.28772 0.24774
# Poissons Ratio (y) = 0.34703 0.37174
# Poissons Ratio (z) = 0.19756 0.24577
#
# Static dielectric constant tensor:
#      x y z
#    x 3.586510 -0.000010 0.055330 
#    y -0.000010 3.318390 0.000030 
#    z 0.055330 0.000030 3.576610 
# 
# 
# High freq. dielectric constant tensor:
#      x y z
#    x 1.748780 0.000000 0.001950 
#    y 0.000000 1.723070 0.000000 
#    z 0.001950 0.000000 1.733870 
# 
# From -- ./inp_files/353305.got.cif
#   From: 2010.06.25/outbox.cif.g09.slc.cpg/sg12_177_cif.got.tgz:353305.got - 2010.06.28 00:19:55.
