data_PCOD8099608
_publ_section_title
;
Structure prediction by ZEFSAII (Michael W. Deem and Ramdas Pophale) SiO2 
 PCOD8099608
Probable space group: C 2/M
;
_chemical_formula_sum "Si O2"
_cell_formula_units_Z 64
_cell_length_a 30.625847
_cell_length_b 9.122724
_cell_length_c 16.167285
_cell_angle_alpha 90.000000
_cell_angle_beta 135.460399
_cell_angle_gamma 90.000000
_cell_volume 3168.230595
_symmetry_space_group_name_H-M "C 2/M"
_symmetry_group_IT_number 12
_symmetry_cell_setting 'monoclinic'
loop_
_space_group_symop_operation_xyz
x,y,z
-x,y,-z
-x,-y,-z
x,-y,z
1/2+x,1/2+y,z
1/2-x,1/2+y,-z
1/2-x,1/2-y,-z
1/2+x,1/2-y,z
loop_
_atom_site_type_symbol
_atom_site_label
_atom_site_fract_x
_atom_site_fract_y
_atom_site_fract_z
Si Si1 0.994813 0.174300 0.260231
Si Si2 0.690206 0.165527 0.025549
Si Si3 0.677875 0.330498 0.734557
Si Si4 0.387203 0.168293 0.636262
Si Si5 0.598037 0.667908 0.004199
Si Si6 0.139990 0.830612 0.235139
Si Si7 0.222551 0.667560 0.634401
Si Si8 0.897998 0.327619 0.240920
O O1 0.959209 0.246655 0.289489
O O2 0.063836 0.239105 0.351515
O O3 0.997227 0.000000 0.275265
O O4 0.961505 0.222840 0.128729
O O5 0.764097 0.190002 0.124329
O O6 0.661806 0.258481 0.061534
O O7 0.672761 0.000000 0.023455
O O8 0.660057 0.208729 0.897432
O O9 0.658698 0.500000 0.700370
O O10 0.695326 0.271060 0.668321
O O11 0.619907 0.240000 0.694135
O O12 0.383888 0.229280 0.724171
O O13 0.320070 0.184736 0.503961
O O14 0.409010 0.000000 0.669016
O O15 0.608198 0.500000 0.997043
O O16 0.591343 0.693480 0.093516
O O17 0.208702 0.782229 0.299280
O O18 0.139766 0.000000 0.263822
O O19 0.223177 0.500000 0.667509
O O20 0.911359 0.500000 0.268138
#
# Coordination Sequence:
#
# PCOD8099608 Si02
#       8
#     8   8   8   8   8   8   8   8
#     4  10  21  39  60  83 114 151 192 236 279 331
#     4   9  18  31  50  81 118 152 184 224 276 334
#     4  11  21  33  54  86 118 149 188 231 280 336
#     4  11  24  40  59  83 111 150 194 236 283 337
#     4   9  18  33  57  85 114 149 186 228 280 337
#     4  10  20  37  61  87 114 145 185 234 287 340
#     4  10  22  40  60  83 114 150 190 234 284 337
#     4  10  20  35  56  82 116 154 189 228 277 334
#
# _framework density 20.20055
#
# number of rings (size 3 to 8) (size 9 to 14) (size 15 to 20)
#    0.000    2.000    1.250    2.250    0.000    4.000 
#    0.000    3.125    0.000    3.750    0.000    0.000 
#    0.000    0.000    0.000    0.000    0.000    0.000 
#
# Total GULP energy -396825.674438 kJ/mol
# GULP energy per Si atom -12400.802326 kJ/mol
# Density = 2.015457 g / cm^3
# Si number density = 20.200550 Si / 1000 Ang^3
#
#
#
# Elastic Constant Matrix: (Units=GPa)
#
#
# Indices 1 2 3 4 5 6 
#
# 1 94.8756 46.4063 1.4661 0.0000 3.2957 0.0000
# 2 46.4063 89.3776 7.3163 0.0000 2.8959 0.0000
# 3 1.4661 7.3163 22.6162 0.0000 8.5787 0.0000
# 4 0.0000 0.0000 0.0000 25.3549 0.0000 -0.5884
# 5 3.2957 2.8959 8.5787 0.0000 21.0676 0.0000
# 6 0.0000 0.0000 0.0000 -0.5884 0.0000 42.6929
#
#
#
# Elastic Compliance Matrix: (Units=1/GPa)
#
#
# Indices 1 2 3 4 5 6 
#
# 1 0.014259 -0.007524 0.002322 0.000000 -0.002142 0.000000
# 2 -0.007524 0.015463 -0.004914 0.000000 0.001052 0.000000
# 3 0.002322 -0.004914 0.053855 0.000000 -0.021618 0.000000
# 4 0.000000 0.000000 0.000000 0.039453 0.000000 0.000544
# 5 -0.002142 0.001052 -0.021618 0.000000 0.056459 0.000000
# 6 0.000000 0.000000 0.000000 0.000544 0.000000 0.023431
#
#
# Mechanical properties :
#
#
# Convention : Reuss Voigt Hill
#
# Bulk Modulus (GPa) = 15.78633 35.24965 25.51799
# Shear Modulus (GPa) = 20.46939 27.93511 24.20225
#
# Velocity S-wave (km/s) = 3.18670 3.72276 3.46511
# Velocity P-wave (km/s) = 4.62297 5.99719 5.35435
#
# Compressibility (1/GPa) = 0.06334595
#
# Stress axis : x y z
#
# Youngs Moduli (GPa) = 70.13156 64.66926 18.56829
#
# Poissons Ratio (x) = 0.48658 -0.04312
# Poissons Ratio (y) = 0.52768 0.09124
# Poissons Ratio (z) = -0.16286 0.31777
#
# Static dielectric constant tensor:
#      x y z
#    x 3.504180 0.000000 0.027410 
#    y 0.000000 3.663430 0.000000 
#    z 0.027410 0.000000 3.638060 
# 
# 
# High freq. dielectric constant tensor:
#      x y z
#    x 1.784140 0.000000 -0.001150 
#    y 0.000000 1.791890 0.000000 
#    z -0.001150 0.000000 1.777000 
# 
# From -- ./inp_files/295851.got.cif
#   From: 2010.06.25/outbox.cif.g09.slc.cpg/sg12_148_cif.got.tgz:295851.got - 2010.06.28 00:19:55.
