data_PCOD8099568
_publ_section_title
;
Structure prediction by ZEFSAII (Michael W. Deem and Ramdas Pophale) SiO2 
 PCOD8099568
Probable space group: C 2/M
;
_chemical_formula_sum "Si O2"
_cell_formula_units_Z 64
_cell_length_a 15.638719
_cell_length_b 23.947913
_cell_length_c 19.669555
_cell_angle_alpha 90.000000
_cell_angle_beta 153.200716
_cell_angle_gamma 90.000000
_cell_volume 3321.323979
_symmetry_space_group_name_H-M "C 2/M"
_symmetry_group_IT_number 12
_symmetry_cell_setting 'monoclinic'
loop_
_space_group_symop_operation_xyz
x,y,z
-x,y,-z
-x,-y,-z
x,-y,z
1/2+x,1/2+y,z
1/2-x,1/2+y,-z
1/2-x,1/2-y,-z
1/2+x,1/2-y,z
loop_
_atom_site_type_symbol
_atom_site_label
_atom_site_fract_x
_atom_site_fract_y
_atom_site_fract_z
Si Si1 0.888172 0.758521 0.194242
Si Si2 0.487765 0.729379 0.867118
Si Si3 0.484399 0.650753 0.375488
Si Si4 0.301903 0.935654 0.383830
Si Si5 0.011271 0.888528 0.930037
Si Si6 0.215036 0.665187 0.296389
Si Si7 0.942757 0.632284 0.209319
Si Si8 0.259183 0.433592 0.509692
O O1 0.952780 0.798515 0.300906
O O2 0.960250 0.694295 0.255044
O O3 0.962565 0.783866 0.176065
O O4 0.661611 0.757327 0.030801
O O5 0.423507 0.673020 0.858724
O O6 0.314552 0.771693 0.750007
O O7 0.300763 0.633979 0.291078
O O8 0.645996 0.670743 0.541340
O O9 0.551864 0.593951 0.387525
O O10 0.500000 0.907015 0.500000
O O11 0.246005 0.911193 0.417135
O O12 0.125573 0.929905 0.207661
O O13 0.345337 0.000000 0.425844
O O14 0.226642 0.889647 0.054537
O O15 0.000000 0.907160 0.000000
O O16 0.020636 0.636424 0.186251
O O17 0.066610 0.587531 0.337778
O O18 0.274484 0.500000 0.511891
#
# Coordination Sequence:
#
# PCOD8099568 Si02
#       8
#     8   8   8   8   8   8   8   8
#     4   9  18  33  55  76 108 149 181 223 275 331
#     4   9  19  33  49  79 111 141 181 221 271 334
#     4  10  20  35  56  82 111 149 190 229 276 331
#     4  10  22  40  58  79 108 144 187 232 281 334
#     4  11  22  34  55  85 112 144 186 231 276 334
#     4   9  20  35  51  80 115 147 185 221 272 338
#     4   9  20  37  55  80 116 146 186 231 277 338
#     4  10  21  38  60  82 108 146 192 237 281 327
#
# _framework density 19.269424000000001
#
# number of rings (size 3 to 8) (size 9 to 14) (size 15 to 20)
#    0.000    2.375    0.000    2.250    3.500    6.250 
#    2.250    5.000    0.000    0.000    0.000    3.500 
#    0.000    0.000    0.000    0.000    0.000    0.000 
#
# Total GULP energy -396617.273038 kJ/mol
# GULP energy per Si atom -12394.289782 kJ/mol
# Density = 1.922557 g / cm^3
# Si number density = 19.269424 Si / 1000 Ang^3
#
#
#
# Elastic Constant Matrix: (Units=GPa)
#
#
# Indices 1 2 3 4 5 6 
#
# 1 139.4133 43.8960 61.5537 0.0047 12.2810 -0.0017
# 2 43.8960 68.8930 28.2768 0.0145 -1.6629 0.0036
# 3 61.5537 28.2768 63.6494 0.0413 1.7296 0.0141
# 4 0.0047 0.0145 0.0413 28.5602 0.0212 -3.4208
# 5 12.2810 -1.6629 1.7296 0.0212 29.4719 0.0075
# 6 -0.0017 0.0036 0.0141 -3.4208 0.0075 20.5617
#
#
#
# Elastic Compliance Matrix: (Units=1/GPa)
#
#
# Indices 1 2 3 4 5 6 
#
# 1 0.014154 -0.004394 -0.011587 0.000023 -0.005466 0.000016
# 2 -0.004394 0.019180 -0.004357 -0.000005 0.003169 -0.000003
# 3 -0.011587 -0.004357 0.028774 -0.000043 0.002894 -0.000028
# 4 0.000023 -0.000005 -0.000043 0.035726 -0.000034 0.005944
# 5 -0.005466 0.003169 0.002894 -0.000034 0.036217 -0.000022
# 6 0.000016 -0.000003 -0.000028 0.005944 -0.000022 0.049623
#
#
# Mechanical properties :
#
#
# Convention : Reuss Voigt Hill
#
# Bulk Modulus (GPa) = 46.66316 59.93430 53.29873
# Shear Modulus (GPa) = 21.59867 24.93403 23.26635
#
# Velocity S-wave (km/s) = 3.35158 3.60108 3.47857
# Velocity P-wave (km/s) = 6.26468 6.96141 6.62221
#
# Compressibility (1/GPa) = 0.02143018
#
# Stress axis : x y z
#
# Youngs Moduli (GPa) = 70.65120 52.13710 34.75363
#
# Poissons Ratio (x) = 0.22911 0.40270
# Poissons Ratio (y) = 0.31047 0.15143
# Poissons Ratio (z) = 0.81865 0.22718
#
# Static dielectric constant tensor:
#      x y z
#    x 3.923760 -0.000010 0.112480 
#    y -0.000010 3.266610 -0.000030 
#    z 0.112480 -0.000030 3.504320 
# 
# 
# High freq. dielectric constant tensor:
#      x y z
#    x 1.762050 0.000000 0.002620 
#    y 0.000000 1.723600 0.000000 
#    z 0.002620 0.000000 1.746730 
# 
# From -- ./inp_files/272855.got.cif
#   From: 2010.06.25/outbox.cif.g09.slc.cpg/sg12_137_cif.got.tgz:272855.got - 2010.06.28 00:19:55.
