data_PCOD8099680
_publ_section_title
;
Structure prediction by ZEFSAII (Michael W. Deem and Ramdas Pophale) SiO2 
 PCOD8099680
Probable space group: C 2/M
;
_chemical_formula_sum "Si O2"
_cell_formula_units_Z 56
_cell_length_a 18.432609
_cell_length_b 13.512734
_cell_length_c 19.145454
_cell_angle_alpha 90.000000
_cell_angle_beta 142.792279
_cell_angle_gamma 90.000000
_cell_volume 2883.635124
_symmetry_space_group_name_H-M "C 2/M"
_symmetry_group_IT_number 12
_symmetry_cell_setting 'monoclinic'
loop_
_space_group_symop_operation_xyz
x,y,z
-x,y,-z
-x,-y,-z
x,-y,z
1/2+x,1/2+y,z
1/2-x,1/2+y,-z
1/2-x,1/2-y,-z
1/2+x,1/2-y,z
loop_
_atom_site_type_symbol
_atom_site_label
_atom_site_fract_x
_atom_site_fract_y
_atom_site_fract_z
Si Si1 0.367090 0.109006 0.221747
Si Si2 0.076269 0.611919 0.275334
Si Si3 0.964817 0.714101 0.552113
Si Si4 0.994521 0.885871 0.678978
Si Si5 0.269045 0.290965 0.090465
Si Si6 0.768270 0.615621 0.479151
Si Si7 0.472667 0.883575 0.055364
O O1 0.446870 0.117492 0.212901
O O2 0.450976 0.128033 0.352460
O O3 0.267409 0.194923 0.140599
O O4 0.308176 0.000000 0.182770
O O5 0.117997 0.500000 0.295289
O O6 0.176452 0.659611 0.404469
O O7 0.058230 0.660759 0.183759
O O8 0.828169 0.676707 0.461061
O O9 0.000000 0.727828 0.500000
O O10 0.988175 0.820942 0.604311
O O11 0.105490 0.850416 0.811032
O O12 0.874400 0.869542 0.632706
O O13 0.008441 0.000000 0.667295
O O14 0.165903 0.364667 0.034872
O O15 0.250000 0.250000 0.000000
O O16 0.803344 0.500000 0.499601
O O17 0.493817 0.000000 0.069557
O O18 0.500000 0.836724 0.000000
#
# Coordination Sequence:
#
# PCOD8099680 Si02
#       7
#     8   8   8   8   8   8   8
#     4   9  18  33  55  80 108 145 192 238 277 329
#     4   8  14  29  53  79 104 143 191 225 269 327
#     4  10  20  35  56  87 117 152 194 232 279 336
#     4  10  22  39  57  84 120 154 187 230 290 350
#     4  11  21  36  59  83 111 148 193 238 285 344
#     4   9  18  35  59  84 115 152 192 237 283 339
#     4  10  20  35  56  84 114 146 190 241 287 338
#
# _framework density 19.419933
#
# number of rings (size 3 to 8) (size 9 to 14) (size 15 to 20)
#    0.000    2.429    1.429    2.143    0.000    2.000 
#    5.143    0.000    0.000    0.429    0.000    0.000 
#    0.000    0.000    0.000    0.000    0.000    0.000 
#
# Total GULP energy -346943.456298 kJ/mol
# GULP energy per Si atom -12390.837725 kJ/mol
# Density = 1.937573 g / cm^3
# Si number density = 19.419933 Si / 1000 Ang^3
#
#
#
# Elastic Constant Matrix: (Units=GPa)
#
#
# Indices 1 2 3 4 5 6 
#
# 1 112.6533 25.8545 66.8313 0.0000 -15.7955 0.0000
# 2 25.8545 75.2851 20.8190 0.0000 -2.0482 0.0000
# 3 66.8313 20.8190 93.6186 0.0000 4.0857 0.0000
# 4 0.0000 0.0000 0.0000 17.8618 0.0000 2.9567
# 5 -15.7955 -2.0482 4.0857 0.0000 27.5436 0.0000
# 6 0.0000 0.0000 0.0000 2.9567 0.0000 20.7337
#
#
#
# Elastic Compliance Matrix: (Units=1/GPa)
#
#
# Indices 1 2 3 4 5 6 
#
# 1 0.019606 -0.002501 -0.014013 0.000000 0.013136 0.000000
# 2 -0.002501 0.014536 -0.001442 0.000000 -0.000139 0.000000
# 3 -0.014013 -0.001442 0.021500 0.000000 -0.011333 0.000000
# 4 0.000000 0.000000 0.000000 0.057339 0.000000 -0.008177
# 5 0.013136 -0.000139 -0.011333 0.000000 0.045510 0.000000
# 6 0.000000 0.000000 0.000000 -0.008177 0.000000 0.049397
#
#
# Mechanical properties :
#
#
# Convention : Reuss Voigt Hill
#
# Bulk Modulus (GPa) = 50.67871 56.50740 53.59306
# Shear Modulus (GPa) = 19.96998 24.43131 22.20064
#
# Velocity S-wave (km/s) = 3.21023 3.55075 3.38477
# Velocity P-wave (km/s) = 6.31614 6.78021 6.55229
#
# Compressibility (1/GPa) = 0.01973215
#
# Stress axis : x y z
#
# Youngs Moduli (GPa) = 51.00522 68.79273 46.51086
#
# Poissons Ratio (x) = 0.17202 0.65177
# Poissons Ratio (y) = 0.12754 0.06705
# Poissons Ratio (z) = 0.71475 0.09917
#
# Static dielectric constant tensor:
#      x y z
#    x 3.417660 0.000000 -0.021180 
#    y 0.000000 3.736240 0.000000 
#    z -0.021180 0.000000 3.734080 
# 
# 
# High freq. dielectric constant tensor:
#      x y z
#    x 1.718370 0.000000 -0.001280 
#    y 0.000000 1.759600 0.000000 
#    z -0.001280 0.000000 1.754160 
# 
# From -- ./inp_files/277863.got.cif
#   From: 2010.06.25/outbox.cif.g09.slc.cpg/sg12_139_cif.got.tgz:277863.got - 2010.06.28 00:19:55.
