data_PCOD8099930
_publ_section_title
;
Structure prediction by ZEFSAII (Michael W. Deem and Ramdas Pophale) SiO2 
 PCOD8099930
Probable space group: C 2/M
;
_chemical_formula_sum "Si O2"
_cell_formula_units_Z 40
_cell_length_a 9.688453
_cell_length_b 15.643112
_cell_length_c 23.860315
_cell_angle_alpha 90.000000
_cell_angle_beta 33.298001
_cell_angle_gamma 90.000000
_cell_volume 1985.276908
_symmetry_space_group_name_H-M "C 2/M"
_symmetry_group_IT_number 12
_symmetry_cell_setting 'monoclinic'
loop_
_space_group_symop_operation_xyz
x,y,z
-x,y,-z
-x,-y,-z
x,-y,z
1/2+x,1/2+y,z
1/2-x,1/2+y,-z
1/2-x,1/2-y,-z
1/2+x,1/2-y,z
loop_
_atom_site_type_symbol
_atom_site_label
_atom_site_fract_x
_atom_site_fract_y
_atom_site_fract_z
Si Si1 0.108046 0.000000 0.902318
Si Si2 0.694689 0.173738 0.199481
Si Si3 0.199872 0.000000 0.106093
Si Si4 0.781351 0.403907 0.411676
Si Si5 0.485424 0.678236 0.207239
Si Si6 0.966781 0.317078 0.445283
O O1 0.277120 0.915582 0.841934
O O2 0.902804 0.000000 0.922434
O O3 0.000000 0.000000 0.000000
O O4 0.443367 0.164020 0.321902
O O5 0.688675 0.251663 0.157690
O O6 0.927613 0.193266 0.161479
O O7 0.097766 0.917622 0.175450
O O8 0.500000 0.000000 0.000000
O O9 0.500000 0.369185 0.500000
O O10 0.809972 0.500000 0.378625
O O11 0.867879 0.403254 0.447573
O O12 0.243361 0.699481 0.327062
O O13 0.750000 0.250000 0.500000
O O14 0.000000 0.330190 0.500000
#
# Coordination Sequence:
#
# PCOD8099930 Si02
#       6
#     4   8   4   8   8   8
#     4  10  22  40  63  86 114 152 195 254 307 374
#     4  10  20  39  60  88 118 156 200 245 308 365
#     4  10  24  46  63  86 122 162 205 264 314 364
#     4  10  20  35  57  83 119 163 201 240 294 359
#     4  10  22  38  65  86 122 163 203 251 310 365
#     4  11  21  35  58  89 126 161 202 245 303 363
#
# _framework density 20.148322
#
# number of rings (size 3 to 8) (size 9 to 14) (size 15 to 20)
#    0.000    1.800    1.000    4.200    4.200    2.800 
#    0.000    4.000    0.000    0.000    0.000    0.000 
#    0.000    0.000    0.000    0.000    0.000    0.000 
#
# Total GULP energy -247802.594344 kJ/mol
# GULP energy per Si atom -12390.129717 kJ/mol
# Density = 2.010246 g / cm^3
# Si number density = 20.148322 Si / 1000 Ang^3
#
#
#
# Elastic Constant Matrix: (Units=GPa)
#
#
# Indices 1 2 3 4 5 6 
#
# 1 110.6318 67.3494 40.1945 0.0236 8.8366 0.0076
# 2 67.3494 152.3552 46.6644 -0.0084 2.3058 -0.0001
# 3 40.1945 46.6644 80.4736 0.0432 4.2687 0.0194
# 4 0.0236 -0.0084 0.0432 14.6756 0.0063 2.1937
# 5 8.8366 2.3058 4.2687 0.0063 35.2878 -0.0040
# 6 0.0076 -0.0001 0.0194 2.1937 -0.0040 39.1551
#
#
#
# Elastic Compliance Matrix: (Units=1/GPa)
#
#
# Indices 1 2 3 4 5 6 
#
# 1 0.013556 -0.004768 -0.003867 -0.000012 -0.002615 0.000000
# 2 -0.004768 0.009659 -0.003270 0.000022 0.000958 0.000001
# 3 -0.003867 -0.003270 0.016296 -0.000043 -0.000789 -0.000005
# 4 -0.000012 0.000022 -0.000043 0.068716 -0.000006 -0.003850
# 5 -0.002615 0.000958 -0.000789 -0.000006 0.029026 0.000004
# 6 0.000000 0.000001 -0.000005 -0.003850 0.000004 0.025755
#
#
# Mechanical properties :
#
#
# Convention : Reuss Voigt Hill
#
# Bulk Modulus (GPa) = 63.69556 72.43078 68.06317
# Shear Modulus (GPa) = 26.03477 30.44053 28.23765
#
# Velocity S-wave (km/s) = 3.59856 3.89115 3.74771
# Velocity P-wave (km/s) = 6.99629 7.49766 7.25131
#
# Compressibility (1/GPa) = 0.01569968
#
# Stress axis : x y z
#
# Youngs Moduli (GPa) = 73.76999 103.53572 61.36528
#
# Poissons Ratio (x) = 0.49370 0.23729
# Poissons Ratio (y) = 0.35176 0.20066
# Poissons Ratio (z) = 0.28526 0.33855
#
# Static dielectric constant tensor:
#      x y z
#    x 3.916010 0.001380 -0.059280 
#    y 0.001380 5.068600 -0.003970 
#    z -0.059280 -0.003970 3.562240 
# 
# 
# High freq. dielectric constant tensor:
#      x y z
#    x 1.791960 0.000000 -0.006030 
#    y 0.000000 1.792200 0.000000 
#    z -0.006030 0.000000 1.771430 
# 
# From -- ./inp_files/300589.got.cif
#   From: 2010.06.25/outbox.cif.g09.slc.cpg/sg12_151_cif.got.tgz:300589.got - 2010.06.28 00:19:55.
