data_PCOD8099814
_publ_section_title
;
Structure prediction by ZEFSAII (Michael W. Deem and Ramdas Pophale) SiO2 
 PCOD8099814
Probable space group: C 2/M
;
_chemical_formula_sum "Si O2"
_cell_formula_units_Z 64
_cell_length_a 17.581594
_cell_length_b 12.590298
_cell_length_c 19.903681
_cell_angle_alpha 90.000000
_cell_angle_beta 47.762138
_cell_angle_gamma 90.000000
_cell_volume 3261.902148
_symmetry_space_group_name_H-M "C 2/M"
_symmetry_group_IT_number 12
_symmetry_cell_setting 'monoclinic'
loop_
_space_group_symop_operation_xyz
x,y,z
-x,y,-z
-x,-y,-z
x,-y,z
1/2+x,1/2+y,z
1/2-x,1/2+y,-z
1/2-x,1/2-y,-z
1/2+x,1/2-y,z
loop_
_atom_site_type_symbol
_atom_site_label
_atom_site_fract_x
_atom_site_fract_y
_atom_site_fract_z
Si Si1 0.475034 0.245598 0.813566
Si Si2 0.675855 0.303201 0.492501
Si Si3 0.693791 0.241832 0.276154
Si Si4 0.616513 0.113484 0.442461
Si Si5 0.018723 0.879448 0.322694
Si Si6 0.949926 0.878685 0.958803
Si Si7 0.214560 0.377718 0.126484
Si Si8 0.322502 0.121686 0.291313
O O1 0.479308 0.334011 0.753468
O O2 0.490163 0.301947 0.876343
O O3 0.368954 0.178739 0.872280
O O4 0.569808 0.166301 0.745500
O O5 0.750000 0.250000 0.500000
O O6 0.617083 0.202632 0.498036
O O7 0.595056 0.378432 0.578124
O O8 0.736056 0.369354 0.400377
O O9 0.675125 0.150269 0.341152
O O10 0.593238 0.314266 0.327343
O O11 0.724108 0.184072 0.190302
O O12 0.787328 0.315725 0.245486
O O13 0.500000 0.088179 0.500000
O O14 0.667435 0.000000 0.434750
O O15 0.057675 0.000000 0.295914
O O16 0.985264 0.000000 0.924166
O O17 0.826866 0.871377 0.027768
O O18 0.000000 0.841277 0.000000
O O19 0.181418 0.500000 0.157707
O O20 0.337795 0.000000 0.262373
#
# Coordination Sequence:
#
# PCOD8099814 Si02
#       8
#     8   8   8   8   8   8   8   8
#     4  11  22  39  59  88 120 150 191 237 289 346
#     4  11  22  40  52  84 117 154 198 240 290 338
#     4  10  21  38  58  85 117 152 198 239 286 339
#     4  10  20  35  57  81 112 149 192 241 286 334
#     4  11  22  38  58  81 114 154 197 241 288 340
#     4  10  21  39  64  91 117 150 190 235 290 345
#     4  10  21  38  63  90 119 153 189 234 290 348
#     4  11  23  38  59  83 117 157 196 241 288 342
#
# _framework density 19.620453999999999
#
# number of rings (size 3 to 8) (size 9 to 14) (size 15 to 20)
#    0.000    1.500    2.500    3.000    0.000    1.000 
#    0.000    3.125    0.000    9.000    0.000    0.000 
#    0.000    0.000    0.000    0.000    0.000    0.000 
#
# Total GULP energy -396789.455102 kJ/mol
# GULP energy per Si atom -12399.670472 kJ/mol
# Density = 1.957580 g / cm^3
# Si number density = 19.620454 Si / 1000 Ang^3
#
#
#
# Elastic Constant Matrix: (Units=GPa)
#
#
# Indices 1 2 3 4 5 6 
#
# 1 85.0641 24.8727 21.5269 0.0000 3.1202 0.0000
# 2 24.8727 121.1629 31.9601 0.0000 3.7737 0.0000
# 3 21.5269 31.9601 64.2772 0.0000 -0.6217 0.0000
# 4 0.0000 0.0000 0.0000 20.0261 0.0000 -1.6499
# 5 3.1202 3.7737 -0.6217 0.0000 32.7279 0.0000
# 6 0.0000 0.0000 0.0000 -1.6499 0.0000 26.1636
#
#
#
# Elastic Compliance Matrix: (Units=1/GPa)
#
#
# Indices 1 2 3 4 5 6 
#
# 1 0.013208 -0.001734 -0.003572 0.000000 -0.001127 0.000000
# 2 -0.001734 0.009773 -0.004289 0.000000 -0.001043 0.000000
# 3 -0.003572 -0.004289 0.018898 0.000000 0.001194 0.000000
# 4 0.000000 0.000000 0.000000 0.050196 0.000000 0.003165
# 5 -0.001127 -0.001043 0.001194 0.000000 0.030805 0.000000
# 6 0.000000 0.000000 0.000000 0.003165 0.000000 0.038421
#
#
# Mechanical properties :
#
#
# Convention : Reuss Voigt Hill
#
# Bulk Modulus (GPa) = 44.07367 47.46927 45.77147
# Shear Modulus (GPa) = 26.58809 28.59315 27.59062
#
# Velocity S-wave (km/s) = 3.68519 3.82162 3.75402
# Velocity P-wave (km/s) = 6.37333 6.61206 6.49379
#
# Compressibility (1/GPa) = 0.02268928
#
# Stress axis : x y z
#
# Youngs Moduli (GPa) = 75.71044 102.32180 52.91564
#
# Poissons Ratio (x) = 0.17743 0.18903
# Poissons Ratio (y) = 0.13129 0.22694
# Poissons Ratio (z) = 0.27045 0.43883
#
# Static dielectric constant tensor:
#      x y z
#    x 3.634800 0.000000 0.003210 
#    y 0.000000 3.494290 0.000000 
#    z 0.003210 0.000000 3.343260 
# 
# 
# High freq. dielectric constant tensor:
#      x y z
#    x 1.773360 0.000000 -0.003900 
#    y 0.000000 1.774200 0.000000 
#    z -0.003900 0.000000 1.754410 
# 
# From -- ./inp_files/315687.got.cif
#   From: 2010.06.25/outbox.cif.g09.slc.cpg/sg12_158_cif.got.tgz:315687.got - 2010.06.28 00:19:55.
