data_PCOD8099643
_publ_section_title
;
Structure prediction by ZEFSAII (Michael W. Deem and Ramdas Pophale) SiO2 
 PCOD8099643
Probable space group: C 2/M
;
_chemical_formula_sum "Si O2"
_cell_formula_units_Z 52
_cell_length_a 11.638741
_cell_length_b 23.306829
_cell_length_c 10.085915
_cell_angle_alpha 90.000000
_cell_angle_beta 90.000082
_cell_angle_gamma 90.000000
_cell_volume 2735.926950
_symmetry_space_group_name_H-M "C 2/M"
_symmetry_group_IT_number 12
_symmetry_cell_setting 'monoclinic'
loop_
_space_group_symop_operation_xyz
x,y,z
-x,y,-z
-x,-y,-z
x,-y,z
1/2+x,1/2+y,z
1/2-x,1/2+y,-z
1/2-x,1/2-y,-z
1/2+x,1/2-y,z
loop_
_atom_site_type_symbol
_atom_site_label
_atom_site_fract_x
_atom_site_fract_y
_atom_site_fract_z
Si Si1 0.500000 0.871898 0.651831
Si Si2 0.253131 0.000000 0.849965
Si Si3 0.236373 0.317613 0.349314
Si Si4 0.133484 0.111380 0.151707
Si Si5 0.253128 0.000000 0.150036
Si Si6 0.000001 0.500000 0.750574
Si Si7 0.763627 0.317614 0.349315
Si Si8 0.866514 0.111380 0.151705
O O1 0.500000 0.855157 0.500000
O O2 0.385201 0.841473 0.710621
O O3 0.499999 0.941249 0.665558
O O4 0.614800 0.841474 0.710621
O O5 0.390002 0.000000 0.844260
O O6 0.200901 0.942945 0.785052
O O7 0.209575 0.000000 1.000000
O O8 0.254428 0.340864 0.500000
O O9 0.250001 0.250000 0.349443
O O10 0.336847 0.337003 0.250003
O O11 0.163152 0.162997 0.250005
O O12 0.999999 0.097832 0.156817
O O13 0.200898 0.057054 0.214949
O O14 0.171926 0.125376 0.000001
O O15 0.389999 0.000000 0.155741
#
# Coordination Sequence:
#
# PCOD8099643 Si02
#       8
#     8   4   8   8   4   4   8   8
#     4  10  21  37  57  86 117 152 189 236 296 344
#     4  10  20  35  56  83 114 148 189 233 285 346
#     4  10  22  39  60  84 114 152 194 237 285 341
#     4  10  21  38  59  83 114 151 190 234 286 340
#     4  10  20  35  56  83 114 148 189 233 285 346
#     4  12  18  34  60  84 114 152 188 240 286 356
#     4  10  22  39  60  84 114 152 194 237 285 341
#     4  10  21  38  59  83 114 151 190 234 286 340
#
# _framework density 19.006356
#
# number of rings (size 3 to 8) (size 9 to 14) (size 15 to 20)
#    0.000    1.846    3.077    0.923    2.154    3.077 
#    0.000    1.538    0.000    1.846    0.000    0.000 
#    0.000    0.000    0.000    0.000    0.000    0.000 
#
# Total GULP energy -322270.105542 kJ/mol
# GULP energy per Si atom -12395.004059 kJ/mol
# Density = 1.896310 g / cm^3
# Si number density = 19.006356 Si / 1000 Ang^3
#
#
#
# Elastic Constant Matrix: (Units=GPa)
#
#
# Indices 1 2 3 4 5 6 
#
# 1 111.1705 43.3389 35.9968 0.0000 -0.0001 0.0000
# 2 43.3389 100.1395 35.9817 0.0000 -0.0004 0.0000
# 3 35.9968 35.9817 73.1423 0.0000 0.0001 0.0000
# 4 0.0000 0.0000 0.0000 18.6027 0.0000 0.0003
# 5 -0.0001 -0.0004 0.0001 0.0000 28.6691 0.0000
# 6 0.0000 0.0000 0.0000 0.0003 0.0000 33.4219
#
#
#
# Elastic Compliance Matrix: (Units=1/GPa)
#
#
# Indices 1 2 3 4 5 6 
#
# 1 0.011698 -0.003637 -0.003968 0.000000 0.000000 0.000000
# 2 -0.003637 0.013261 -0.004734 0.000000 0.000000 0.000000
# 3 -0.003968 -0.004734 0.017953 0.000000 0.000000 0.000000
# 4 0.000000 0.000000 0.000000 0.053756 0.000000 -0.000001
# 5 0.000000 0.000000 0.000000 0.000000 0.034881 0.000000
# 6 0.000000 0.000000 0.000000 -0.000001 0.000000 0.029921
#
#
# Mechanical properties :
#
#
# Convention : Reuss Voigt Hill
#
# Bulk Modulus (GPa) = 54.83898 57.23189 56.03544
# Shear Modulus (GPa) = 26.01123 27.41439 26.71281
#
# Velocity S-wave (km/s) = 3.70341 3.80199 3.75302
# Velocity P-wave (km/s) = 6.87042 7.03213 6.95174
#
# Compressibility (1/GPa) = 0.01823520
#
# Stress axis : x y z
#
# Youngs Moduli (GPa) = 85.48605 75.40920 55.69947
#
# Poissons Ratio (x) = 0.27426 0.22101
# Poissons Ratio (y) = 0.31091 0.26367
# Poissons Ratio (z) = 0.33920 0.35697
#
# Static dielectric constant tensor:
#      x y z
#    x 3.566480 0.000000 0.000000 
#    y 0.000000 3.510980 0.000000 
#    z 0.000000 0.000000 3.327580 
# 
# 
# High freq. dielectric constant tensor:
#      x y z
#    x 1.748110 0.000000 0.000000 
#    y 0.000000 1.742960 0.000000 
#    z 0.000000 0.000000 1.716950 
# 
# From -- ./inp_files/52634.got.cif
#   From: 2010.06.25/outbox.cif.g09.slc.cpg/sg12_27_cif.got.tgz:52634.got - 2010.06.28 00:19:55.
