data_PCOD8099640
_publ_section_title
;
Structure prediction by ZEFSAII (Michael W. Deem and Ramdas Pophale) SiO2 
 PCOD8099640
Probable space group: C 2/M
;
_chemical_formula_sum "Si O2"
_cell_formula_units_Z 56
_cell_length_a 25.139520
_cell_length_b 14.027620
_cell_length_c 23.099018
_cell_angle_alpha 90.000000
_cell_angle_beta 159.470887
_cell_angle_gamma 90.000000
_cell_volume 2856.600749
_symmetry_space_group_name_H-M "C 2/M"
_symmetry_group_IT_number 12
_symmetry_cell_setting 'monoclinic'
loop_
_space_group_symop_operation_xyz
x,y,z
-x,y,-z
-x,-y,-z
x,-y,z
1/2+x,1/2+y,z
1/2-x,1/2+y,-z
1/2-x,1/2-y,-z
1/2+x,1/2-y,z
loop_
_atom_site_type_symbol
_atom_site_label
_atom_site_fract_x
_atom_site_fract_y
_atom_site_fract_z
Si Si1 0.596092 0.609661 0.485351
Si Si2 0.071249 0.209957 0.009147
Si Si3 0.926833 0.282133 0.365112
Si Si4 0.591027 0.281489 0.361958
Si Si5 0.918206 0.892262 0.755523
Si Si6 0.432839 0.896999 0.867108
Si Si7 0.063484 0.390782 0.402203
O O1 0.539763 0.500000 0.428889
O O2 0.471747 0.676252 0.389461
O O3 0.616302 0.643652 0.439904
O O4 0.752046 0.619923 0.680610
O O5 0.015888 0.123948 0.912665
O O6 0.013376 0.307656 0.918393
O O7 0.249474 0.212237 0.193850
O O8 0.000000 0.197542 0.000000
O O9 0.000000 0.307414 0.500000
O O10 0.981431 0.366108 0.378317
O O11 0.750000 0.250000 0.500000
O O12 0.510211 0.332132 0.225074
O O13 0.501471 0.185517 0.291188
O O14 0.742641 0.870072 0.591332
O O15 0.936208 0.000000 0.754223
O O16 0.469199 0.000000 0.874486
O O17 0.500000 0.898235 0.000000
O O18 0.028688 0.500000 0.348614
#
# Coordination Sequence:
#
# PCOD8099640 Si02
#       7
#     8   8   8   8   8   8   8
#     4  10  20  35  56  83 114 148 188 231 278 332
#     4  11  22  37  56  79 112 146 185 233 279 333
#     4  11  22  36  56  80 110 149 187 229 280 334
#     4   9  17  33  58  85 112 142 184 229 274 328
#     4  10  20  36  59  84 111 145 184 227 276 329
#     4   9  17  31  52  77 107 142 179 222 269 318
#     4   9  19  36  57  83 114 145 182 228 274 325
#
# _framework density 19.603719999999999
#
# number of rings (size 3 to 8) (size 9 to 14) (size 15 to 20)
#    0.000    2.143    0.000    5.571    0.000    2.571 
#    0.000    3.571    0.000    1.714    0.000    0.000 
#    0.000    0.000    0.000    0.000    0.000    0.000 
#
# Total GULP energy -346978.855808 kJ/mol
# GULP energy per Si atom -12392.101993 kJ/mol
# Density = 1.955910 g / cm^3
# Si number density = 19.603720 Si / 1000 Ang^3
#
#
#
# Elastic Constant Matrix: (Units=GPa)
#
#
# Indices 1 2 3 4 5 6 
#
# 1 127.0384 55.2362 48.6726 0.0031 0.3643 0.0013
# 2 55.2362 121.5368 38.7818 -0.0212 2.4951 -0.0118
# 3 48.6726 38.7818 99.1942 -0.0435 5.0261 -0.0219
# 4 0.0031 -0.0212 -0.0435 210.5055 -0.0011 87.0008
# 5 0.3643 2.4951 5.0261 -0.0011 23.7744 -0.0016
# 6 0.0013 -0.0118 -0.0219 87.0008 -0.0016 65.0693
#
#
#
# Elastic Compliance Matrix: (Units=1/GPa)
#
#
# Indices 1 2 3 4 5 6 
#
# 1 0.011036 -0.003762 -0.003999 -0.000001 0.001071 -0.000001
# 2 -0.003762 0.010684 -0.002302 0.000000 -0.000577 0.000001
# 3 -0.003999 -0.002302 0.013068 0.000002 -0.002460 0.000001
# 4 -0.000001 0.000000 0.000002 0.010618 -0.000001 -0.014197
# 5 0.001071 -0.000577 -0.002460 -0.000001 0.042626 0.000001
# 6 -0.000001 0.000001 0.000001 -0.014197 0.000001 0.034350
#
#
# Mechanical properties :
#
#
# Convention : Reuss Voigt Hill
#
# Bulk Modulus (GPa) = 68.19862 70.35009 69.27435
# Shear Modulus (GPa) = 33.92244 73.54175 53.73210
#
# Velocity S-wave (km/s) = 4.16433 6.13153 5.24105
# Velocity P-wave (km/s) = 7.61488 9.27855 8.48757
#
# Compressibility (1/GPa) = 0.01466305
#
# Stress axis : x y z
#
# Youngs Moduli (GPa) = 90.61046 93.59762 76.52255
#
# Poissons Ratio (x) = 0.35209 0.30600
# Poissons Ratio (y) = 0.34085 0.17616
# Poissons Ratio (z) = 0.36233 0.21547
#
# Static dielectric constant tensor:
#      x y z
#    x 3.774340 0.000000 -0.120250 
#    y 0.000000 4.155770 0.000000 
#    z -0.120250 0.000000 3.340390 
# 
# 
# High freq. dielectric constant tensor:
#      x y z
#    x 1.757380 0.000000 -0.006520 
#    y 0.000000 1.781810 0.000000 
#    z -0.006520 0.000000 1.736190 
# 
# From -- ./inp_files/349782.got.cif
#   From: 2010.06.25/outbox.cif.g09.slc.cpg/sg12_175_cif.got.tgz:349782.got - 2010.06.28 00:19:55.
