data_PCOD8099025
_publ_section_title
;
Structure prediction by ZEFSAII (Michael W. Deem and Ramdas Pophale) SiO2 
 PCOD8099025
Probable space group: C 2/M
;
_chemical_formula_sum "Si O2"
_cell_formula_units_Z 64
_cell_length_a 20.665131
_cell_length_b 9.111990
_cell_length_c 24.362213
_cell_angle_alpha 90.000000
_cell_angle_beta 126.808302
_cell_angle_gamma 90.000000
_cell_volume 3672.889759
_symmetry_space_group_name_H-M "C 2/M"
_symmetry_group_IT_number 12
_symmetry_cell_setting 'monoclinic'
loop_
_space_group_symop_operation_xyz
x,y,z
-x,y,-z
-x,-y,-z
x,-y,z
1/2+x,1/2+y,z
1/2-x,1/2+y,-z
1/2-x,1/2-y,-z
1/2+x,1/2-y,z
loop_
_atom_site_type_symbol
_atom_site_label
_atom_site_fract_x
_atom_site_fract_y
_atom_site_fract_z
Si Si1 0.194210 0.828131 0.345437
Si Si2 0.915158 0.326551 0.224437
Si Si3 0.138291 0.172750 0.200039
Si Si4 0.688694 0.170122 0.507801
Si Si5 0.311615 0.829308 0.990872
Si Si6 0.569657 0.827724 0.361771
Si Si7 0.525647 0.169218 0.862474
Si Si8 0.765834 0.174554 0.858608
O O1 0.188468 0.776712 0.279549
O O2 0.285166 0.791132 0.416012
O O3 0.126030 0.747927 0.345671
O O4 0.176469 0.000000 0.341181
O O5 0.908464 0.500000 0.216392
O O6 0.947454 0.264730 0.182763
O O7 0.826174 0.265786 0.192249
O O8 0.976979 0.277617 0.304462
O O9 0.189832 0.224392 0.174183
O O10 0.050751 0.244886 0.153116
O O11 0.125328 0.000000 0.192896
O O12 0.750000 0.250000 0.500000
O O13 0.598206 0.211378 0.439407
O O14 0.702413 0.000000 0.504802
O O15 0.309982 0.754463 0.930864
O O16 0.287675 0.000000 0.975111
O O17 0.250000 0.750000 0.000000
O O18 0.402168 0.809288 0.058220
O O19 0.576575 0.000000 0.354087
O O20 0.501179 0.000000 0.843786
O O21 0.769496 0.000000 0.869670
#
# Coordination Sequence:
#
# PCOD8099025 Si02
#       8
#     8   8   8   8   8   8   8   8
#     4   9  16  27  42  66  99 129 155 194 247 290
#     4   9  16  30  51  72  95 127 165 203 242 286
#     4  10  21  34  51  74 102 136 167 202 247 295
#     4   8  14  23  38  63  95 123 154 196 239 285
#     4  11  22  37  57  79 101 129 163 204 252 296
#     4   9  15  25  45  70  91 122 164 202 239 282
#     4  10  20  35  55  75  98 129 163 203 247 293
#     4  10  21  38  54  72 101 134 169 203 245 299
#
# _framework density 17.424970999999999
#
# number of rings (size 3 to 8) (size 9 to 14) (size 15 to 20)
#    0.000    2.500    2.500    0.375    0.000    2.000 
#    0.000    3.125    0.000    0.750    0.000    5.250 
#    0.000    0.000    0.000   20.625    0.000   15.250 
#
# Total GULP energy -396477.582286 kJ/mol
# GULP energy per Si atom -12389.924446 kJ/mol
# Density = 1.738531 g / cm^3
# Si number density = 17.424971 Si / 1000 Ang^3
#
#
#
# Elastic Constant Matrix: (Units=GPa)
#
#
# Indices 1 2 3 4 5 6 
#
# 1 111.9554 27.7758 67.9512 0.0000 0.4735 0.0000
# 2 27.7758 30.5345 35.8864 0.0000 -2.5959 0.0000
# 3 67.9512 35.8864 157.1307 0.0000 7.4549 0.0000
# 4 0.0000 0.0000 0.0000 21.5185 0.0000 0.5185
# 5 0.4735 -2.5959 7.4549 0.0000 23.5161 0.0000
# 6 0.0000 0.0000 0.0000 0.5185 0.0000 20.6885
#
#
#
# Elastic Compliance Matrix: (Units=1/GPa)
#
#
# Indices 1 2 3 4 5 6 
#
# 1 0.013186 -0.007190 -0.004071 0.000000 0.000231 0.000000
# 2 -0.007190 0.050344 -0.008791 0.000000 0.008489 0.000000
# 3 -0.004071 -0.008791 0.010330 0.000000 -0.004163 0.000000
# 4 0.000000 0.000000 0.000000 0.046500 0.000000 -0.001165
# 5 0.000231 0.008489 -0.004163 0.000000 0.044776 0.000000
# 6 0.000000 0.000000 0.000000 -0.001165 0.000000 0.048365
#
#
# Mechanical properties :
#
#
# Convention : Reuss Voigt Hill
#
# Bulk Modulus (GPa) = 29.62521 62.53860 46.08191
# Shear Modulus (GPa) = 18.87799 24.34510 21.61154
#
# Velocity S-wave (km/s) = 3.29506 3.74189 3.52556
# Velocity P-wave (km/s) = 5.61382 7.39169 6.56323
#
# Compressibility (1/GPa) = 0.03375503
#
# Stress axis : x y z
#
# Youngs Moduli (GPa) = 75.83799 19.86316 96.80565
#
# Poissons Ratio (x) = 0.14282 0.39410
# Poissons Ratio (y) = 0.54531 0.85104
# Poissons Ratio (z) = 0.30874 0.17462
#
# Static dielectric constant tensor:
#      x y z
#    x 3.015090 0.000000 0.158040 
#    y 0.000000 3.073000 0.000000 
#    z 0.158040 0.000000 3.992350 
# 
# 
# High freq. dielectric constant tensor:
#      x y z
#    x 1.636460 0.000000 0.014750 
#    y 0.000000 1.658200 0.000000 
#    z 0.014750 0.000000 1.700180 
# 
# From -- ./inp_files/345564.got.cif
#   From: 2010.06.25/outbox.cif.g09.slc.cpg/sg12_173_cif.got.tgz:345564.got - 2010.06.28 00:19:55.
