data_PCOD8099916
_publ_section_title
;
Structure prediction by ZEFSAII (Michael W. Deem and Ramdas Pophale) SiO2 
 PCOD8099916
Probable space group: C 2/M
;
_chemical_formula_sum "Si O2"
_cell_formula_units_Z 48
_cell_length_a 27.013014
_cell_length_b 9.278394
_cell_length_c 9.885901
_cell_angle_alpha 90.000000
_cell_angle_beta 75.577782
_cell_angle_gamma 90.000000
_cell_volume 2399.693365
_symmetry_space_group_name_H-M "C 2/M"
_symmetry_group_IT_number 12
_symmetry_cell_setting 'monoclinic'
loop_
_space_group_symop_operation_xyz
x,y,z
-x,y,-z
-x,-y,-z
x,-y,z
1/2+x,1/2+y,z
1/2-x,1/2+y,-z
1/2-x,1/2-y,-z
1/2+x,1/2-y,z
loop_
_atom_site_type_symbol
_atom_site_label
_atom_site_fract_x
_atom_site_fract_y
_atom_site_fract_z
Si Si1 0.572293 0.169073 0.314002
Si Si2 0.801423 0.164871 0.433155
Si Si3 0.402399 0.168607 0.411337
Si Si4 0.287609 0.661522 0.135631
Si Si5 0.677373 0.169068 0.128933
Si Si6 0.009258 0.329000 0.841738
O O1 0.562383 0.201970 0.479806
O O2 0.628579 0.230367 0.241419
O O3 0.531439 0.238524 0.237533
O O4 0.570102 0.000000 0.290815
O O5 0.750000 0.250000 0.500000
O O6 0.850543 0.241569 0.463649
O O7 0.810812 0.168386 0.267459
O O8 0.796871 0.000000 0.488626
O O9 0.434587 0.211665 0.255253
O O10 0.387383 0.000000 0.419183
O O11 0.289759 0.500000 0.074820
O O12 0.228372 0.714170 0.176256
O O13 0.322144 0.763855 0.020674
O O14 0.672708 0.000000 0.113629
O O15 0.003691 0.500000 0.850982
O O16 0.000000 0.265631 0.000000
#
# Coordination Sequence:
#
# PCOD8099916 Si02
#       6
#     8   8   8   8   8   8
#     4   9  17  31  52  79 113 147 184 231 281 327
#     4  11  23  38  57  81 113 148 186 230 278 333
#     4  10  20  35  57  83 114 151 188 230 283 331
#     4   9  19  34  49  73 109 142 176 223 277 328
#     4   9  17  30  52  76 102 139 182 224 270 326
#     4   9  18  31  52  85 116 145 189 238 278 327
#
# _framework density 20.002556999999999
#
# number of rings (size 3 to 8) (size 9 to 14) (size 15 to 20)
#    0.000    2.500    0.000    2.000    2.333    6.000 
#    0.000    4.167    0.000    3.500    0.000    0.000 
#    0.000    0.000    0.000    0.000    0.000    0.000 
#
# Total GULP energy -297468.792767 kJ/mol
# GULP energy per Si atom -12394.533032 kJ/mol
# Density = 1.995703 g / cm^3
# Si number density = 20.002557 Si / 1000 Ang^3
#
#
#
# Elastic Constant Matrix: (Units=GPa)
#
#
# Indices 1 2 3 4 5 6 
#
# 1 96.4968 32.9770 48.4964 0.0000 2.1446 0.0000
# 2 32.9770 48.6496 25.7322 0.0000 -2.5642 0.0000
# 3 48.4964 25.7322 108.8900 0.0000 -3.5664 0.0000
# 4 0.0000 0.0000 0.0000 22.3199 0.0000 -1.4793
# 5 2.1446 -2.5642 -3.5664 0.0000 31.7459 0.0000
# 6 0.0000 0.0000 0.0000 -1.4793 0.0000 20.5468
#
#
#
# Elastic Compliance Matrix: (Units=1/GPa)
#
#
# Indices 1 2 3 4 5 6 
#
# 1 0.015785 -0.008072 -0.005198 0.000000 -0.002302 0.000000
# 2 -0.008072 0.027671 -0.002864 0.000000 0.002459 0.000000
# 3 -0.005198 -0.002864 0.012224 0.000000 0.001493 0.000000
# 4 0.000000 0.000000 0.000000 0.045018 0.000000 0.003241
# 5 -0.002302 0.002459 0.001493 0.000000 0.032022 0.000000
# 6 0.000000 0.000000 0.000000 0.003241 0.000000 0.048903
#
#
# Mechanical properties :
#
#
# Convention : Reuss Voigt Hill
#
# Bulk Modulus (GPa) = 42.71086 52.04974 47.38030
# Shear Modulus (GPa) = 22.55361 24.71125 23.63243
#
# Velocity S-wave (km/s) = 3.36152 3.51865 3.44098
# Velocity P-wave (km/s) = 6.03867 6.52578 6.28695
#
# Compressibility (1/GPa) = 0.02341325
#
# Stress axis : x y z
#
# Youngs Moduli (GPa) = 63.35086 36.13916 81.80433
#
# Poissons Ratio (x) = 0.29171 0.42523
# Poissons Ratio (y) = 0.51135 0.23425
# Poissons Ratio (z) = 0.32931 0.10349
#
# Static dielectric constant tensor:
#      x y z
#    x 3.728660 0.000000 0.017420 
#    y 0.000000 3.250770 0.000000 
#    z 0.017420 0.000000 3.793750 
# 
# 
# High freq. dielectric constant tensor:
#      x y z
#    x 1.783030 0.000000 -0.000300 
#    y 0.000000 1.728290 0.000000 
#    z -0.000300 0.000000 1.790170 
# 
# From -- ./inp_files/94293.got.cif
#   From: 2010.06.25/outbox.cif.g09.slc.cpg/sg12_48_cif.got.tgz:94293.got - 2010.06.28 00:19:55.
