data_PCOD8099986
_publ_section_title
;
Structure prediction by ZEFSAII (Michael W. Deem and Ramdas Pophale) SiO2 
 PCOD8099986
Probable space group: C 2/M
;
_chemical_formula_sum "Si O2"
_cell_formula_units_Z 56
_cell_length_a 19.006952
_cell_length_b 22.321297
_cell_length_c 16.796561
_cell_angle_alpha 90.000000
_cell_angle_beta 24.682947
_cell_angle_gamma 90.000000
_cell_volume 2975.838012
_symmetry_space_group_name_H-M "C 2/M"
_symmetry_group_IT_number 12
_symmetry_cell_setting 'monoclinic'
loop_
_space_group_symop_operation_xyz
x,y,z
-x,y,-z
-x,-y,-z
x,-y,z
1/2+x,1/2+y,z
1/2-x,1/2+y,-z
1/2-x,1/2-y,-z
1/2+x,1/2-y,z
loop_
_atom_site_type_symbol
_atom_site_label
_atom_site_fract_x
_atom_site_fract_y
_atom_site_fract_z
Si Si1 0.135856 0.764996 0.540201
Si Si2 0.928305 0.327364 0.659488
Si Si3 0.014193 0.131166 0.757486
Si Si4 0.149047 0.568018 0.643772
Si Si5 0.322671 0.067263 0.870583
Si Si6 0.085340 0.670602 0.827428
Si Si7 0.929852 0.213840 0.982634
O O1 0.250000 0.750000 0.500000
O O2 0.000787 0.814617 0.707730
O O3 0.233126 0.795485 0.364751
O O4 0.054196 0.703493 0.593155
O O5 0.868766 0.392434 0.748273
O O6 0.000000 0.338526 0.500000
O O7 0.769619 0.284650 0.813724
O O8 0.188762 0.094465 0.569206
O O9 0.011681 0.159184 0.848978
O O10 0.850769 0.089829 0.909901
O O11 0.191030 0.500000 0.626383
O O12 0.102974 0.606642 0.768298
O O13 0.980364 0.570005 0.766572
O O14 0.291706 0.000000 0.871994
O O15 0.970975 0.721116 0.901121
O O16 0.000000 0.658318 0.000000
O O17 0.000000 0.209715 0.000000
#
# Coordination Sequence:
#
# PCOD8099986 Si02
#       7
#     8   8   8   8   8   8   8
#     4  11  21  37  59  92 118 152 192 240 298 355
#     4  11  23  35  59  85 117 156 191 238 302 351
#     4  10  21  37  63  83 116 151 193 244 294 349
#     4  10  22  38  61  82 110 157 197 242 290 339
#     4  10  23  39  57  84 113 153 204 242 282 346
#     4  10  20  35  57  84 119 146 183 242 290 349
#     4  10  21  34  56  89 120 150 183 242 303 349
#
# _framework density 18.818228999999999
#
# number of rings (size 3 to 8) (size 9 to 14) (size 15 to 20)
#    0.000    1.714    1.429    3.857    4.000    1.714 
#    0.000    0.000    0.000    2.143    0.000    5.000 
#    0.000    0.000    0.000    0.000    0.000    0.000 
#
# Total GULP energy -346876.852089 kJ/mol
# GULP energy per Si atom -12388.459003 kJ/mol
# Density = 1.877540 g / cm^3
# Si number density = 18.818229 Si / 1000 Ang^3
#
#
#
# Elastic Constant Matrix: (Units=GPa)
#
#
# Indices 1 2 3 4 5 6 
#
# 1 66.6150 35.6823 50.8383 -0.0330 2.1245 -0.0400
# 2 35.6823 143.7719 70.9219 -0.0435 5.7480 -0.0536
# 3 50.8383 70.9219 144.9085 -0.0781 7.7564 -0.0247
# 4 -0.0330 -0.0435 -0.0781 37.5050 0.0429 0.9250
# 5 2.1245 5.7480 7.7564 0.0429 27.5404 0.0180
# 6 -0.0400 -0.0536 -0.0247 0.9250 0.0180 31.0759
#
#
#
# Elastic Compliance Matrix: (Units=1/GPa)
#
#
# Indices 1 2 3 4 5 6 
#
# 1 0.020970 -0.002088 -0.006368 0.000002 0.000611 0.000018
# 2 -0.002088 0.009389 -0.003824 0.000002 -0.000722 0.000011
# 3 -0.006368 -0.003824 0.011105 0.000015 -0.001838 -0.000005
# 4 0.000002 0.000002 0.000015 0.026683 -0.000046 -0.000794
# 5 0.000611 -0.000722 -0.001838 -0.000046 0.036932 -0.000022
# 6 0.000018 0.000011 -0.000005 -0.000794 -0.000022 0.032203
#
#
# Mechanical properties :
#
#
# Convention : Reuss Voigt Hill
#
# Bulk Modulus (GPa) = 59.15554 74.46450 66.81002
# Shear Modulus (GPa) = 29.85508 32.41445 31.13476
#
# Velocity S-wave (km/s) = 3.98741 4.15481 4.07197
# Velocity P-wave (km/s) = 7.25966 7.91662 7.59525
#
# Compressibility (1/GPa) = 0.01690459
#
# Stress axis : x y z
#
# Youngs Moduli (GPa) = 47.68664 106.50921 90.04964
#
# Poissons Ratio (x) = 0.22236 0.57343
# Poissons Ratio (y) = 0.09956 0.34436
# Poissons Ratio (z) = 0.30367 0.40730
#
# Static dielectric constant tensor:
#      x y z
#    x 2.941900 -0.000010 -0.064300 
#    y -0.000010 3.834830 0.000180 
#    z -0.064300 0.000180 3.832860 
# 
# 
# High freq. dielectric constant tensor:
#      x y z
#    x 1.698030 -0.000010 0.003440 
#    y -0.000010 1.737730 0.000010 
#    z 0.003440 0.000010 1.758780 
# 
# From -- ./inp_files/286006.got.cif
#   From: 2010.06.25/outbox.cif.g09.slc.cpg/sg12_144_cif.got.tgz:286006.got - 2010.06.28 00:19:55.
