data_PCOD8099089
_publ_section_title
;
Structure prediction by ZEFSAII (Michael W. Deem and Ramdas Pophale) SiO2 
 PCOD8099089
Probable space group: C 2/M
;
_chemical_formula_sum "Si O2"
_cell_formula_units_Z 64
_cell_length_a 9.482580
_cell_length_b 28.087003
_cell_length_c 25.090958
_cell_angle_alpha 90.000000
_cell_angle_beta 147.958003
_cell_angle_gamma 90.000000
_cell_volume 3545.421625
_symmetry_space_group_name_H-M "C 2/M"
_symmetry_group_IT_number 12
_symmetry_cell_setting 'monoclinic'
loop_
_space_group_symop_operation_xyz
x,y,z
-x,y,-z
-x,-y,-z
x,-y,z
1/2+x,1/2+y,z
1/2-x,1/2+y,-z
1/2-x,1/2-y,-z
1/2+x,1/2-y,z
loop_
_atom_site_type_symbol
_atom_site_label
_atom_site_fract_x
_atom_site_fract_y
_atom_site_fract_z
Si Si1 0.712986 0.345137 0.110610
Si Si2 0.523065 0.553022 0.593653
Si Si3 0.722620 0.854219 0.749092
Si Si4 0.467000 0.240925 0.933756
Si Si5 0.563676 0.946490 0.367951
Si Si6 0.717675 0.292303 0.615318
Si Si7 0.015679 0.196058 0.264650
Si Si8 0.172708 0.142851 0.699049
O O1 0.646906 0.361181 0.150367
O O2 0.696005 0.288362 0.103558
O O3 0.010635 0.359480 0.188687
O O4 0.500000 0.367351 0.000000
O O5 0.554341 0.500000 0.627132
O O6 0.742135 0.562746 0.619061
O O7 0.229671 0.559525 0.475357
O O8 0.569550 0.589780 0.655707
O O9 0.664185 0.906665 0.706964
O O10 0.463823 0.821212 0.670286
O O11 0.915222 0.827610 0.769762
O O12 0.291268 0.212337 0.835717
O O13 0.500000 0.212343 0.000000
O O14 0.750000 0.250000 0.000000
O O15 0.441498 0.000000 0.325926
O O16 0.500000 0.286903 0.500000
O O17 0.600437 0.322013 0.627184
O O18 0.792055 0.239916 0.660127
O O19 0.010744 0.158117 0.310336
#
# Coordination Sequence:
#
# PCOD8099089 Si02
#       8
#     8   8   8   8   8   8   8   8
#     4  10  20  35  55  78 106 143 181 229 271 320
#     4   9  17  33  59  84 103 136 188 237 277 318
#     4  11  21  36  57  78 115 144 185 229 276 336
#     4  11  21  35  56  76 106 144 189 232 269 311
#     4   9  17  33  59  85 104 136 189 236 275 321
#     4  11  23  37  53  73 110 155 190 221 263 329
#     4  12  24  35  51  84 113 151 184 218 283 333
#     4  11  21  36  55  77 112 142 184 229 273 334
#
# _framework density 18.051449000000002
#
# number of rings (size 3 to 8) (size 9 to 14) (size 15 to 20)
#    0.000    1.500    5.000    4.500    0.000    3.000 
#    0.000    0.625    0.000    3.000    0.000    0.000 
#    0.000    4.000    0.000    0.000    0.000    0.000 
#
# Total GULP energy -396692.569335 kJ/mol
# GULP energy per Si atom -12396.642792 kJ/mol
# Density = 1.801036 g / cm^3
# Si number density = 18.051449 Si / 1000 Ang^3
#
#
#
# Elastic Constant Matrix: (Units=GPa)
#
#
# Indices 1 2 3 4 5 6 
#
# 1 93.0388 31.2936 34.2503 -0.0001 -9.8776 -0.0001
# 2 31.2936 109.6178 46.9247 0.0000 -9.1131 0.0000
# 3 34.2503 46.9247 110.1178 0.0010 -19.2010 0.0007
# 4 -0.0001 0.0000 0.0010 20.6619 0.0000 -7.0835
# 5 -9.8776 -9.1131 -19.2010 0.0000 17.2720 0.0001
# 6 -0.0001 0.0000 0.0007 -7.0835 0.0001 13.6074
#
#
#
# Elastic Compliance Matrix: (Units=1/GPa)
#
#
# Indices 1 2 3 4 5 6 
#
# 1 0.012776 -0.002345 -0.002377 0.000000 0.003427 0.000000
# 2 -0.002345 0.011596 -0.004192 0.000000 0.000118 0.000000
# 3 -0.002377 -0.004192 0.013625 -0.000001 0.011576 -0.000001
# 4 0.000000 0.000000 -0.000001 0.058912 -0.000001 0.030667
# 5 0.003427 0.000118 0.011576 -0.000001 0.072788 -0.000002
# 6 0.000000 0.000000 -0.000001 0.030667 -0.000002 0.089454
#
#
# Mechanical properties :
#
#
# Convention : Reuss Voigt Hill
#
# Bulk Modulus (GPa) = 49.57830 59.74573 54.66201
# Shear Modulus (GPa) = 17.62422 23.66199 20.64311
#
# Velocity S-wave (km/s) = 3.12802 3.62444 3.38534
# Velocity P-wave (km/s) = 6.36951 7.11932 6.75483
#
# Compressibility (1/GPa) = 0.02017011
#
# Stress axis : x y z
#
# Youngs Moduli (GPa) = 78.27359 86.23575 73.39363
#
# Poissons Ratio (x) = 0.20221 0.17446
# Poissons Ratio (y) = 0.18354 0.30764
# Poissons Ratio (z) = 0.18605 0.36147
#
# Static dielectric constant tensor:
#      x y z
#    x 3.189960 0.000000 -0.242030 
#    y 0.000000 3.350990 0.000000 
#    z -0.242030 0.000000 3.603380 
# 
# 
# High freq. dielectric constant tensor:
#      x y z
#    x 1.686630 0.000000 -0.014320 
#    y 0.000000 1.681950 0.000000 
#    z -0.014320 0.000000 1.697140 
# 
# From -- ./inp_files/199778.got.cif
#   From: 2010.06.25/outbox.cif.g09.slc.cpg/sg12_100_cif.got.tgz:199778.got - 2010.06.28 00:19:55.
