data_PCOD8099984
_publ_section_title
;
Structure prediction by ZEFSAII (Michael W. Deem and Ramdas Pophale) SiO2 
 PCOD8099984
Probable space group: C 2/M
;
_chemical_formula_sum "Si O2"
_cell_formula_units_Z 56
_cell_length_a 29.080746
_cell_length_b 12.567137
_cell_length_c 9.033261
_cell_angle_alpha 90.000000
_cell_angle_beta 119.758620
_cell_angle_gamma 90.000000
_cell_volume 2865.947888
_symmetry_space_group_name_H-M "C 2/M"
_symmetry_group_IT_number 12
_symmetry_cell_setting 'monoclinic'
loop_
_space_group_symop_operation_xyz
x,y,z
-x,y,-z
-x,-y,-z
x,-y,z
1/2+x,1/2+y,z
1/2-x,1/2+y,-z
1/2-x,1/2-y,-z
1/2+x,1/2-y,z
loop_
_atom_site_type_symbol
_atom_site_label
_atom_site_fract_x
_atom_site_fract_y
_atom_site_fract_z
Si Si1 0.937553 0.620373 0.405172
Si Si2 0.319917 0.377746 0.220677
Si Si3 0.776019 0.304771 0.768120
Si Si4 0.618603 0.255292 0.442814
Si Si5 0.120438 0.249239 0.931089
Si Si6 0.562614 0.623682 0.087649
Si Si7 0.281011 0.120340 0.462572
O O1 0.915887 0.500000 0.386760
O O2 0.921943 0.690037 0.521196
O O3 0.915117 0.668671 0.217189
O O4 0.000000 0.621191 0.500000
O O5 0.327289 0.500000 0.198530
O O6 0.258210 0.348917 0.148936
O O7 0.353363 0.347398 0.418821
O O8 0.341003 0.317070 0.112305
O O9 0.760306 0.181914 0.709067
O O10 0.761417 0.375472 0.601027
O O11 0.838680 0.314196 0.899917
O O12 0.588186 0.311085 0.261518
O O13 0.661329 0.172921 0.449487
O O14 0.082208 0.172377 0.963522
O O15 0.579329 0.500000 0.122158
O O16 0.500000 0.636546 0.000000
O O17 0.283243 0.000000 0.408460
#
# Coordination Sequence:
#
# PCOD8099984 Si02
#       7
#     8   8   8   8   8   8   8
#     4  10  22  40  62  86 116 158 202 248 303 357
#     4  10  21  36  58  84 116 156 194 237 293 357
#     4  10  21  37  54  87 119 153 194 241 289 352
#     4  10  20  39  59  83 117 153 198 243 293 355
#     4  11  22  40  59  88 123 153 198 251 297 353
#     4  11  23  39  61  88 118 155 201 256 310 354
#     4  10  20  35  57  84 118 155 191 235 292 356
#
# _framework density 19.539781999999999
#
# number of rings (size 3 to 8) (size 9 to 14) (size 15 to 20)
#    0.000    1.714    1.429    3.000    0.000    2.286 
#    0.000    0.000    0.000    9.857    0.000    0.000 
#    0.000    0.000    0.000    0.000    0.000    0.000 
#
# Total GULP energy -347261.477534 kJ/mol
# GULP energy per Si atom -12402.195626 kJ/mol
# Density = 1.949531 g / cm^3
# Si number density = 19.539782 Si / 1000 Ang^3
#
#
#
# Elastic Constant Matrix: (Units=GPa)
#
#
# Indices 1 2 3 4 5 6 
#
# 1 86.2635 9.2556 17.1327 0.0000 -0.9086 0.0000
# 2 9.2556 94.7061 26.3092 0.0000 9.5060 0.0000
# 3 17.1327 26.3092 79.6853 0.0000 5.8656 0.0000
# 4 0.0000 0.0000 0.0000 17.7629 0.0000 6.6133
# 5 -0.9086 9.5060 5.8656 0.0000 32.3513 0.0000
# 6 0.0000 0.0000 0.0000 6.6133 0.0000 11.8596
#
#
#
# Elastic Compliance Matrix: (Units=1/GPa)
#
#
# Indices 1 2 3 4 5 6 
#
# 1 0.012161 -0.000594 -0.002490 0.000000 0.000967 0.000000
# 2 -0.000594 0.011902 -0.003591 0.000000 -0.002863 0.000000
# 3 -0.002490 -0.003591 0.014390 0.000000 -0.001624 0.000000
# 4 0.000000 0.000000 0.000000 0.071047 0.000000 -0.039618
# 5 0.000967 -0.002863 -0.001624 0.000000 0.032073 0.000000
# 6 0.000000 0.000000 0.000000 -0.039618 0.000000 0.106412
#
#
# Mechanical properties :
#
#
# Convention : Reuss Voigt Hill
#
# Bulk Modulus (GPa) = 39.83595 40.67221 40.25408
# Shear Modulus (GPa) = 18.53893 26.25859 22.39876
#
# Velocity S-wave (km/s) = 3.08357 3.66984 3.38940
# Velocity P-wave (km/s) = 5.75406 6.23035 5.99693
#
# Compressibility (1/GPa) = 0.02510295
#
# Stress axis : x y z
#
# Youngs Moduli (GPa) = 82.23147 84.01946 69.49334
#
# Poissons Ratio (x) = 0.04990 0.17302
# Poissons Ratio (y) = 0.04884 0.24956
# Poissons Ratio (z) = 0.20473 0.30173
#
# Static dielectric constant tensor:
#      x y z
#    x 3.680330 0.000000 -0.072070 
#    y 0.000000 3.595930 0.000000 
#    z -0.072070 0.000000 3.593630 
# 
# 
# High freq. dielectric constant tensor:
#      x y z
#    x 1.774070 0.000000 -0.005330 
#    y 0.000000 1.760290 0.000000 
#    z -0.005330 0.000000 1.761590 
# 
# From -- ./inp_files/103141.got.cif
#   From: 2010.06.25/outbox.cif.g09.slc.cpg/sg12_52_cif.got.tgz:103141.got - 2010.06.28 00:19:55.
