data_PCOD8099496
_publ_section_title
;
Structure prediction by ZEFSAII (Michael W. Deem and Ramdas Pophale) SiO2 
 PCOD8099496
Probable space group: C 2/M
;
_chemical_formula_sum "Si O2"
_cell_formula_units_Z 56
_cell_length_a 21.313840
_cell_length_b 8.951697
_cell_length_c 15.176511
_cell_angle_alpha 90.000000
_cell_angle_beta 92.935798
_cell_angle_gamma 90.000000
_cell_volume 2891.802659
_symmetry_space_group_name_H-M "C 2/M"
_symmetry_group_IT_number 12
_symmetry_cell_setting 'monoclinic'
loop_
_space_group_symop_operation_xyz
x,y,z
-x,y,-z
-x,-y,-z
x,-y,z
1/2+x,1/2+y,z
1/2-x,1/2+y,-z
1/2-x,1/2-y,-z
1/2+x,1/2-y,z
loop_
_atom_site_type_symbol
_atom_site_label
_atom_site_fract_x
_atom_site_fract_y
_atom_site_fract_z
Si Si1 0.812358 0.177492 0.966292
Si Si2 0.463367 0.676456 0.411467
Si Si3 0.442669 0.672803 0.052959
Si Si4 0.334378 0.825879 0.433761
Si Si5 0.712765 0.827891 0.379860
Si Si6 0.514625 0.672804 0.227494
Si Si7 0.859128 0.673742 0.801753
O O1 0.818016 0.229768 0.866005
O O2 0.806003 0.000000 0.971768
O O3 0.750000 0.250000 0.000000
O O4 0.874245 0.239498 0.022989
O O5 0.500000 0.738685 0.500000
O O6 0.457024 0.500000 0.415840
O O7 0.394716 0.743692 0.401303
O O8 0.498729 0.726425 0.325001
O O9 0.439702 0.500000 0.026479
O O10 0.454941 0.695830 0.158260
O O11 0.500000 0.745423 0.000000
O O12 0.324840 0.781925 0.535084
O O13 0.274801 0.771572 0.373198
O O14 0.343788 0.000000 0.420573
O O15 0.667012 0.793256 0.296722
O O16 0.733792 0.000000 0.385666
O O17 0.535988 0.500000 0.228559
O O18 0.569282 0.773613 0.191448
O O19 0.855023 0.500000 0.826604
#
# Coordination Sequence:
#
# PCOD8099496 Si02
#       7
#     8   8   8   8   8   8   8
#     4  11  23  40  61  86 119 152 192 242 295 353
#     4  10  21  35  53  81 117 152 187 230 284 348
#     4   9  17  35  61  83 107 147 193 234 282 342
#     4  10  20  35  56  81 109 146 191 239 288 334
#     4   9  20  37  56  78 110 150 188 228 283 353
#     4  10  20  36  59  83 108 149 196 234 281 342
#     4  11  22  37  58  85 114 146 188 235 291 348
#
# _framework density 19.365082000000001
#
# number of rings (size 3 to 8) (size 9 to 14) (size 15 to 20)
#    0.000    2.000    1.429    2.143    0.000    3.714 
#    0.000    5.000    0.000    0.000    0.000    0.000 
#    0.000    0.000    0.000    0.000    0.000    0.000 
#
# Total GULP energy -347246.275981 kJ/mol
# GULP energy per Si atom -12401.652714 kJ/mol
# Density = 1.932101 g / cm^3
# Si number density = 19.365082 Si / 1000 Ang^3
#
#
#
# Elastic Constant Matrix: (Units=GPa)
#
#
# Indices 1 2 3 4 5 6 
#
# 1 127.4621 34.0900 42.4995 0.0000 -10.5231 0.0000
# 2 34.0900 36.8907 31.0796 0.0000 -7.7921 0.0000
# 3 42.4995 31.0796 95.4008 0.0000 -0.8971 0.0000
# 4 0.0000 0.0000 0.0000 24.2939 0.0000 -3.0080
# 5 -10.5231 -7.7921 -0.8971 0.0000 31.9107 0.0000
# 6 0.0000 0.0000 0.0000 -3.0080 0.0000 31.6558
#
#
#
# Elastic Compliance Matrix: (Units=1/GPa)
#
#
# Indices 1 2 3 4 5 6 
#
# 1 0.010805 -0.007720 -0.002283 0.000000 0.001614 0.000000
# 2 -0.007720 0.045512 -0.011310 0.000000 0.008250 0.000000
# 3 -0.002283 -0.011310 0.015155 0.000000 -0.003089 0.000000
# 4 0.000000 0.000000 0.000000 0.041653 0.000000 0.003958
# 5 0.001614 0.008250 -0.003089 0.000000 0.033797 0.000000
# 6 0.000000 0.000000 0.000000 0.003958 0.000000 0.031966
#
#
# Mechanical properties :
#
#
# Convention : Reuss Voigt Hill
#
# Bulk Modulus (GPa) = 34.66821 52.78800 43.72811
# Shear Modulus (GPa) = 21.63295 27.71107 24.67201
#
# Velocity S-wave (km/s) = 3.34595 3.78693 3.57325
# Velocity P-wave (km/s) = 5.73310 6.81467 6.29715
#
# Compressibility (1/GPa) = 0.02884487
#
# Stress axis : x y z
#
# Youngs Moduli (GPa) = 92.55232 21.97215 65.98591
#
# Poissons Ratio (x) = 0.16963 0.15065
# Poissons Ratio (y) = 0.71451 0.74631
# Poissons Ratio (z) = 0.21131 0.24851
#
# Static dielectric constant tensor:
#      x y z
#    x 3.552700 0.000000 0.076260 
#    y 0.000000 3.366460 0.000000 
#    z 0.076260 0.000000 3.687790 
# 
# 
# High freq. dielectric constant tensor:
#      x y z
#    x 1.756480 0.000000 0.005450 
#    y 0.000000 1.737450 0.000000 
#    z 0.005450 0.000000 1.759890 
# 
# From -- ./inp_files/230992.got.cif
#   From: 2010.06.25/outbox.cif.g09.slc.cpg/sg12_116_cif.got.tgz:230992.got - 2010.06.28 00:19:55.
