data_PCOD8099765
_publ_section_title
;
Structure prediction by ZEFSAII (Michael W. Deem and Ramdas Pophale) SiO2 
 PCOD8099765
Probable space group: C 2/M
;
_chemical_formula_sum "Si O2"
_cell_formula_units_Z 64
_cell_length_a 12.508840
_cell_length_b 19.585754
_cell_length_c 15.025589
_cell_angle_alpha 90.000000
_cell_angle_beta 114.362552
_cell_angle_gamma 90.000000
_cell_volume 3353.397464
_symmetry_space_group_name_H-M "C 2/M"
_symmetry_group_IT_number 12
_symmetry_cell_setting 'monoclinic'
loop_
_space_group_symop_operation_xyz
x,y,z
-x,y,-z
-x,-y,-z
x,-y,z
1/2+x,1/2+y,z
1/2-x,1/2+y,-z
1/2-x,1/2-y,-z
1/2+x,1/2-y,z
loop_
_atom_site_type_symbol
_atom_site_label
_atom_site_fract_x
_atom_site_fract_y
_atom_site_fract_z
Si Si1 0.803792 0.921552 0.561511
Si Si2 0.698084 0.659172 0.782503
Si Si3 0.458736 0.180870 0.889164
Si Si4 0.636273 0.682642 0.565259
Si Si5 0.147625 0.688053 0.806100
Si Si6 0.493310 0.576384 0.768425
Si Si7 0.877698 0.333756 0.408476
Si Si8 0.592106 0.337705 0.104967
O O1 0.796090 0.867832 0.478074
O O2 0.705372 0.897465 0.597534
O O3 0.931604 0.917781 0.650805
O O4 0.778703 0.000000 0.522419
O O5 0.836012 0.642914 0.830650
O O6 0.656498 0.652364 0.668194
O O7 0.663328 0.730594 0.816016
O O8 0.627231 0.601977 0.812222
O O9 0.551852 0.161692 0.844297
O O10 0.439347 0.261243 0.879175
O O11 0.500000 0.156289 0.000000
O O12 0.500000 0.683079 0.500000
O O13 0.680908 0.761772 0.578370
O O14 0.105691 0.666947 0.692790
O O15 0.272474 0.655952 0.879495
O O16 0.495599 0.500000 0.804793
O O17 0.414892 0.618875 0.808821
O O18 0.000000 0.345824 0.500000
O O19 0.500000 0.365199 0.000000
#
# Coordination Sequence:
#
# PCOD8099765 Si02
#       8
#     8   8   8   8   8   8   8   8
#     4  11  23  38  57  82 120 157 196 245 292 346
#     4  10  21  35  58  85 118 155 190 237 293 353
#     4  10  22  35  60  92 119 149 187 248 308 349
#     4  10  20  35  56  87 114 147 191 243 288 345
#     4  10  20  37  57  90 123 145 190 249 298 347
#     4  11  22  38  58  82 118 155 198 241 284 347
#     4  10  22  36  59  86 115 157 196 239 292 352
#     4  10  21  35  60  87 116 148 190 244 298 350
#
# _framework density 19.085121000000001
#
# number of rings (size 3 to 8) (size 9 to 14) (size 15 to 20)
#    0.000    1.750    3.750    0.375    3.500    2.750 
#    0.000    0.000    0.000    1.125    0.000    0.000 
#    0.000    0.000    0.000    0.000    0.000    0.000 
#
# Total GULP energy -396729.642664 kJ/mol
# GULP energy per Si atom -12397.801333 kJ/mol
# Density = 1.904168 g / cm^3
# Si number density = 19.085121 Si / 1000 Ang^3
#
#
#
# Elastic Constant Matrix: (Units=GPa)
#
#
# Indices 1 2 3 4 5 6 
#
# 1 128.2084 26.9759 42.2281 0.0000 1.1984 0.0000
# 2 26.9759 56.9432 23.1660 0.0000 -5.0557 0.0000
# 3 42.2281 23.1660 97.5287 0.0000 5.2865 0.0000
# 4 0.0000 0.0000 0.0000 17.3554 0.0000 3.1855
# 5 1.1984 -5.0557 5.2865 0.0000 32.7928 0.0000
# 6 0.0000 0.0000 0.0000 3.1855 0.0000 12.9867
#
#
#
# Elastic Compliance Matrix: (Units=1/GPa)
#
#
# Indices 1 2 3 4 5 6 
#
# 1 0.009587 -0.003195 -0.003376 0.000000 -0.000299 0.000000
# 2 -0.003195 0.020979 -0.003815 0.000000 0.003966 0.000000
# 3 -0.003376 -0.003815 0.012758 0.000000 -0.002521 0.000000
# 4 0.000000 0.000000 0.000000 0.060335 0.000000 -0.014800
# 5 -0.000299 0.003966 -0.002521 0.000000 0.031523 0.000000
# 6 0.000000 0.000000 0.000000 -0.014800 0.000000 0.080632
#
#
# Mechanical properties :
#
#
# Convention : Reuss Voigt Hill
#
# Bulk Modulus (GPa) = 44.34054 51.93559 48.13807
# Shear Modulus (GPa) = 20.48318 25.31432 22.89875
#
# Velocity S-wave (km/s) = 3.27961 3.64592 3.46760
# Velocity P-wave (km/s) = 6.13389 6.70785 6.42728
#
# Compressibility (1/GPa) = 0.02255272
#
# Stress axis : x y z
#
# Youngs Moduli (GPa) = 104.31144 47.66690 78.38289
#
# Poissons Ratio (x) = 0.15228 0.26461
# Poissons Ratio (y) = 0.33324 0.29902
# Poissons Ratio (z) = 0.35214 0.18184
#
# Static dielectric constant tensor:
#      x y z
#    x 3.435490 0.000000 0.108390 
#    y 0.000000 3.282890 0.000000 
#    z 0.108390 0.000000 3.539420 
# 
# 
# High freq. dielectric constant tensor:
#      x y z
#    x 1.743840 0.000000 0.004400 
#    y 0.000000 1.709140 0.000000 
#    z 0.004400 0.000000 1.746730 
# 
# From -- ./inp_files/207709.got.cif
#   From: 2010.06.25/outbox.cif.g09.slc.cpg/sg12_104_cif.got.tgz:207709.got - 2010.06.28 00:19:55.
