data_PCOD8099587
_publ_section_title
;
Structure prediction by ZEFSAII (Michael W. Deem and Ramdas Pophale) SiO2 
 PCOD8099587
Probable space group: C 2/M
;
_chemical_formula_sum "Si O2"
_cell_formula_units_Z 48
_cell_length_a 18.758277
_cell_length_b 11.519199
_cell_length_c 14.497788
_cell_angle_alpha 90.000000
_cell_angle_beta 51.460918
_cell_angle_gamma 90.000000
_cell_volume 2450.335424
_symmetry_space_group_name_H-M "C 2/M"
_symmetry_group_IT_number 12
_symmetry_cell_setting 'monoclinic'
loop_
_space_group_symop_operation_xyz
x,y,z
-x,y,-z
-x,-y,-z
x,-y,z
1/2+x,1/2+y,z
1/2-x,1/2+y,-z
1/2-x,1/2-y,-z
1/2+x,1/2-y,z
loop_
_atom_site_type_symbol
_atom_site_label
_atom_site_fract_x
_atom_site_fract_y
_atom_site_fract_z
Si Si1 0.101513 0.751425 0.156637
Si Si2 0.742437 0.241962 0.720459
Si Si3 0.077136 0.866398 0.369024
Si Si4 0.290444 0.868899 0.511264
Si Si5 0.773976 0.130039 0.080672
Si Si6 0.576180 0.870632 0.746323
O O1 0.067327 0.799745 0.281179
O O2 0.175979 0.650684 0.112253
O O3 0.015727 0.702275 0.169784
O O4 0.146450 0.851451 0.058240
O O5 0.823110 0.148483 0.666515
O O6 0.783425 0.349052 0.626735
O O7 0.710856 0.285864 0.845327
O O8 0.655365 0.183407 0.744808
O O9 0.000000 0.816909 0.500000
O O10 0.058697 0.000000 0.363521
O O11 0.250000 0.750000 0.500000
O O12 0.392157 0.873430 0.386903
O O13 0.246768 0.000000 0.525343
O O14 0.779032 0.000000 0.112853
O O15 0.556578 0.000000 0.798199
#
# Coordination Sequence:
#
# PCOD8099587 Si02
#       6
#     8   8   8   8   8   8
#     4  10  21  37  56  79 106 141 185 226 273 330
#     4  10  20  35  56  83 112 143 185 227 275 329
#     4  10  20  35  56  82 113 148 185 226 273 329
#     4   9  18  33  54  81 114 147 181 224 277 333
#     4  10  21  38  57  76 105 143 182 226 273 329
#     4  10  20  36  57  82 111 142 181 230 281 329
#
# _framework density 19.589155000000002
#
# number of rings (size 3 to 8) (size 9 to 14) (size 15 to 20)
#    0.000    2.167    0.000    3.000    0.000    1.333 
#    0.000   15.833    0.000    8.000    0.000    0.000 
#    0.000    0.000    0.000    0.000    0.000    0.000 
#
# Total GULP energy -297394.410087 kJ/mol
# GULP energy per Si atom -12391.433754 kJ/mol
# Density = 1.954457 g / cm^3
# Si number density = 19.589155 Si / 1000 Ang^3
#
#
#
# Elastic Constant Matrix: (Units=GPa)
#
#
# Indices 1 2 3 4 5 6 
#
# 1 120.6093 32.6811 40.5956 0.0000 -15.8522 0.0000
# 2 32.6811 107.1227 31.3257 0.0000 -10.0645 0.0000
# 3 40.5956 31.3257 113.3681 0.0000 -5.5724 0.0000
# 4 0.0000 0.0000 0.0000 14.0139 0.0000 -0.6582
# 5 -15.8522 -10.0645 -5.5724 0.0000 26.3185 0.0000
# 6 0.0000 0.0000 0.0000 -0.6582 0.0000 20.3238
#
#
#
# Elastic Compliance Matrix: (Units=1/GPa)
#
#
# Indices 1 2 3 4 5 6 
#
# 1 0.010449 -0.001849 -0.002987 0.000000 0.004954 0.000000
# 2 -0.001849 0.010779 -0.002191 0.000000 0.002545 0.000000
# 3 -0.002987 -0.002191 0.010475 0.000000 -0.000419 0.000000
# 4 0.000000 0.000000 0.000000 0.071466 0.000000 0.002314
# 5 0.004954 0.002545 -0.000419 0.000000 0.041864 0.000000
# 6 0.000000 0.000000 0.000000 0.002314 0.000000 0.049278
#
#
# Mechanical properties :
#
#
# Convention : Reuss Voigt Hill
#
# Bulk Modulus (GPa) = 56.66185 61.14497 58.90341
# Shear Modulus (GPa) = 23.33726 27.89776 25.61751
#
# Velocity S-wave (km/s) = 3.45532 3.77788 3.62019
# Velocity P-wave (km/s) = 6.70126 7.09304 6.89993
#
# Compressibility (1/GPa) = 0.01764856
#
# Stress axis : x y z
#
# Youngs Moduli (GPa) = 95.70503 92.77315 95.46170
#
# Poissons Ratio (x) = 0.17151 0.28517
# Poissons Ratio (y) = 0.17693 0.20919
# Poissons Ratio (z) = 0.28589 0.20330
#
# Static dielectric constant tensor:
#      x y z
#    x 3.328300 0.000000 0.047190 
#    y 0.000000 3.589310 0.000000 
#    z 0.047190 0.000000 3.892640 
# 
# 
# High freq. dielectric constant tensor:
#      x y z
#    x 1.740310 0.000000 0.001400 
#    y 0.000000 1.765250 0.000000 
#    z 0.001400 0.000000 1.776590 
# 
# From -- ./inp_files/231706.got.cif
#   From: 2010.06.25/outbox.cif.g09.slc.cpg/sg12_116_cif.got.tgz:231706.got - 2010.06.28 00:19:55.
