data_PCOD8099511
_publ_section_title
;
Structure prediction by ZEFSAII (Michael W. Deem and Ramdas Pophale) SiO2 
 PCOD8099511
Probable space group: C 2/M
;
_chemical_formula_sum "Si O2"
_cell_formula_units_Z 56
_cell_length_a 25.183045
_cell_length_b 8.894898
_cell_length_c 17.630709
_cell_angle_alpha 90.000000
_cell_angle_beta 45.562641
_cell_angle_gamma 90.000000
_cell_volume 2819.857293
_symmetry_space_group_name_H-M "C 2/M"
_symmetry_group_IT_number 12
_symmetry_cell_setting 'monoclinic'
loop_
_space_group_symop_operation_xyz
x,y,z
-x,y,-z
-x,-y,-z
x,-y,z
1/2+x,1/2+y,z
1/2-x,1/2+y,-z
1/2-x,1/2-y,-z
1/2+x,1/2-y,z
loop_
_atom_site_type_symbol
_atom_site_label
_atom_site_fract_x
_atom_site_fract_y
_atom_site_fract_z
Si Si1 0.273765 0.677923 0.054882
Si Si2 0.417511 0.321513 0.167685
Si Si3 0.499981 0.830410 0.409387
Si Si4 0.773801 0.822053 0.397552
Si Si5 0.354137 0.332409 0.556664
Si Si6 0.645821 0.667590 0.264961
Si Si7 0.582540 0.678487 0.002635
O O1 0.272297 0.500000 0.048547
O O2 0.215948 0.729296 0.176354
O O3 0.250000 0.750000 0.000000
O O4 0.355195 0.736798 0.000338
O O5 0.414960 0.500000 0.167769
O O6 0.355267 0.263265 0.289265
O O7 0.500028 0.267097 0.111178
O O8 0.400797 0.260465 0.099221
O O9 0.500000 0.831368 0.500000
O O10 0.428020 0.744450 0.448776
O O11 0.571888 0.744269 0.304901
O O12 0.500022 0.000000 0.377829
O O13 0.750000 0.750000 0.500000
O O14 0.716068 0.770500 0.391590
O O15 0.772251 0.000000 0.406844
O O16 0.345966 0.500000 0.529504
O O17 0.361810 0.344132 0.638197
O O18 0.654073 0.500000 0.221389
O O19 0.585125 0.500000 0.997610
#
# Coordination Sequence:
#
# PCOD8099511 Si02
#       7
#     8   8   8   8   8   8   8
#     4  11  22  36  54  79 114 150 187 231 286 346
#     4   8  15  31  57  85 107 133 180 239 291 338
#     4   9  17  31  53  81 109 137 176 223 270 321
#     4  11  22  36  54  79 114 150 187 231 286 346
#     4  10  20  35  56  81 110 145 186 231 279 335
#     4  10  20  35  56  81 110 145 186 231 279 335
#     4   8  15  31  57  85 107 133 180 239 291 338
#
# _framework density 19.859162000000001
#
# number of rings (size 3 to 8) (size 9 to 14) (size 15 to 20)
#    0.000    2.429    0.000    3.857    0.000    4.571 
#    2.571    0.000    0.000    2.571    0.000   10.000 
#    0.000    0.000    0.000    0.000    0.000    0.000 
#
# Total GULP energy -347098.553334 kJ/mol
# GULP energy per Si atom -12396.376905 kJ/mol
# Density = 1.981396 g / cm^3
# Si number density = 19.859162 Si / 1000 Ang^3
#
#
#
# Elastic Constant Matrix: (Units=GPa)
#
#
# Indices 1 2 3 4 5 6 
#
# 1 126.0455 42.2059 70.6957 0.0042 -34.0583 -0.0005
# 2 42.2059 88.9873 41.3550 0.0027 -12.1913 0.0045
# 3 70.6957 41.3550 121.3655 0.0100 -33.5178 -0.0039
# 4 0.0042 0.0027 0.0100 27.5432 -0.0103 -0.6570
# 5 -34.0583 -12.1913 -33.5178 -0.0103 34.2741 0.0032
# 6 -0.0005 0.0045 -0.0039 -0.6570 0.0032 27.6188
#
#
#
# Elastic Compliance Matrix: (Units=1/GPa)
#
#
# Indices 1 2 3 4 5 6 
#
# 1 0.013841 -0.003266 -0.004756 0.000003 0.007940 -0.000001
# 2 -0.003266 0.014127 -0.003315 0.000000 -0.001463 -0.000003
# 3 -0.004756 -0.003315 0.014397 -0.000001 0.008174 0.000002
# 4 0.000003 0.000000 -0.000001 0.036327 0.000012 0.000864
# 5 0.007940 -0.001463 0.008174 0.000012 0.044540 -0.000003
# 6 -0.000001 -0.000003 0.000002 0.000864 -0.000003 0.036228
#
#
# Mechanical properties :
#
#
# Convention : Reuss Voigt Hill
#
# Bulk Modulus (GPa) = 50.78875 71.65682 61.22278
# Shear Modulus (GPa) = 26.49735 30.03000 28.26368
#
# Velocity S-wave (km/s) = 3.65672 3.89285 3.77663
# Velocity P-wave (km/s) = 6.59233 7.50777 7.06489
#
# Compressibility (1/GPa) = 0.01968940
#
# Stress axis : x y z
#
# Youngs Moduli (GPa) = 72.25162 70.78675 69.45818
#
# Poissons Ratio (x) = 0.23121 0.33036
# Poissons Ratio (y) = 0.23599 0.23026
# Poissons Ratio (z) = 0.34365 0.23466
#
# Static dielectric constant tensor:
#      x y z
#    x 3.808880 0.000060 -0.395230 
#    y 0.000060 3.700090 0.000030 
#    z -0.395230 0.000030 3.781480 
# 
# 
# High freq. dielectric constant tensor:
#      x y z
#    x 1.770010 0.000000 -0.023430 
#    y 0.000000 1.756410 0.000000 
#    z -0.023430 0.000000 1.768350 
# 
# From -- ./inp_files/288252.got.cif
#   From: 2010.06.25/outbox.cif.g09.slc.cpg/sg12_145_cif.got.tgz:288252.got - 2010.06.28 00:19:55.
