data_PCOD8099109
_publ_section_title
;
Structure prediction by ZEFSAII (Michael W. Deem and Ramdas Pophale) SiO2 
 PCOD8099109
Probable space group: C 2/M
;
_chemical_formula_sum "Si O2"
_cell_formula_units_Z 56
_cell_length_a 19.981547
_cell_length_b 18.172435
_cell_length_c 9.437362
_cell_angle_alpha 90.000000
_cell_angle_beta 121.697345
_cell_angle_gamma 90.000000
_cell_volume 2915.670399
_symmetry_space_group_name_H-M "C 2/M"
_symmetry_group_IT_number 12
_symmetry_cell_setting 'monoclinic'
loop_
_space_group_symop_operation_xyz
x,y,z
-x,y,-z
-x,-y,-z
x,-y,z
1/2+x,1/2+y,z
1/2-x,1/2+y,-z
1/2-x,1/2-y,-z
1/2+x,1/2-y,z
loop_
_atom_site_type_symbol
_atom_site_label
_atom_site_fract_x
_atom_site_fract_y
_atom_site_fract_z
Si Si1 0.722385 0.668734 0.934394
Si Si2 0.744422 0.585189 0.242512
Si Si3 0.912751 0.795506 0.429775
Si Si4 0.300404 0.675413 0.544154
Si Si5 0.577684 0.871523 0.515134
Si Si6 0.550119 0.918939 0.179600
Si Si7 0.785754 0.579472 0.773831
O O1 0.643327 0.668295 0.751357
O O2 0.790592 0.631120 0.917000
O O3 0.750000 0.750000 0.000000
O O4 0.712694 0.618385 0.060888
O O5 0.718744 0.500000 0.227429
O O6 0.696567 0.636062 0.300489
O O7 0.839766 0.586997 0.364895
O O8 0.884533 0.808775 0.561805
O O9 0.912397 0.708249 0.404666
O O10 0.000000 0.827861 0.500000
O O11 0.250000 0.750000 0.500000
O O12 0.262272 0.615848 0.403032
O O13 0.500000 0.909524 0.500000
O O14 0.559904 0.867455 0.327321
O O15 0.630388 0.934643 0.193804
O O16 0.514957 0.000000 0.183310
O O17 0.500000 0.878931 0.000000
O O18 0.747965 0.500000 0.771602
#
# Coordination Sequence:
#
# PCOD8099109 Si02
#       7
#     8   8   8   8   8   8   8
#     4  11  22  39  60  89 120 157 206 256 302 362
#     4  12  23  37  62  94 126 162 203 259 314 362
#     4  10  22  41  65  88 120 161 209 253 308 364
#     4  11  19  38  62  88 117 160 205 249 297 359
#     4  11  22  37  57  90 128 165 204 243 305 375
#     4  10  21  34  49  77 121 166 199 233 286 359
#     4  10  20  35  55  78 113 156 204 247 294 358
#
# _framework density 19.20656
#
# number of rings (size 3 to 8) (size 9 to 14) (size 15 to 20)
#    0.000    1.286    4.286    2.143    2.000    1.143 
#    0.000    0.714    0.000   16.286    0.000    0.000 
#    0.000    0.000    0.000    0.000    0.000    0.000 
#
# Total GULP energy -346900.417473 kJ/mol
# GULP energy per Si atom -12389.300624 kJ/mol
# Density = 1.916284 g / cm^3
# Si number density = 19.206560 Si / 1000 Ang^3
#
#
#
# Elastic Constant Matrix: (Units=GPa)
#
#
# Indices 1 2 3 4 5 6 
#
# 1 125.2529 28.8136 41.4524 0.0000 -11.5178 0.0000
# 2 28.8136 100.6408 30.4161 0.0000 -11.6741 0.0000
# 3 41.4524 30.4161 107.9705 0.0000 -28.3156 0.0000
# 4 0.0000 0.0000 0.0000 29.0037 0.0000 -5.5472
# 5 -11.5178 -11.6741 -28.3156 0.0000 24.3795 0.0000
# 6 0.0000 0.0000 0.0000 -5.5472 0.0000 20.9848
#
#
#
# Elastic Compliance Matrix: (Units=1/GPa)
#
#
# Indices 1 2 3 4 5 6 
#
# 1 0.009421 -0.001754 -0.003129 0.000000 -0.000023 0.000000
# 2 -0.001754 0.011284 -0.001877 0.000000 0.002394 0.000000
# 3 -0.003129 -0.001877 0.014910 0.000000 0.014940 0.000000
# 4 0.000000 0.000000 0.000000 0.036314 0.000000 0.009599
# 5 -0.000023 0.002394 0.014940 0.000000 0.059506 0.000000
# 6 0.000000 0.000000 0.000000 0.009599 0.000000 0.050191
#
#
# Mechanical properties :
#
#
# Convention : Reuss Voigt Hill
#
# Bulk Modulus (GPa) = 45.26205 59.46982 52.36594
# Shear Modulus (GPa) = 24.69006 30.41907 27.55457
#
# Velocity S-wave (km/s) = 3.58928 3.98400 3.79178
# Velocity P-wave (km/s) = 6.38704 7.22451 6.81864
#
# Compressibility (1/GPa) = 0.02209356
#
# Stress axis : x y z
#
# Youngs Moduli (GPa) = 106.14896 88.62376 67.06933
#
# Poissons Ratio (x) = 0.15547 0.20984
# Poissons Ratio (y) = 0.18622 0.12591
# Poissons Ratio (z) = 0.33211 0.16638
#
# Static dielectric constant tensor:
#      x y z
#    x 3.807510 0.000000 -0.360320 
#    y 0.000000 4.656430 0.000000 
#    z -0.360320 0.000000 3.619860 
# 
# 
# High freq. dielectric constant tensor:
#      x y z
#    x 1.739560 0.000000 -0.021510 
#    y 0.000000 1.746980 0.000000 
#    z -0.021510 0.000000 1.744090 
# 
# From -- ./inp_files/76028.got.cif
#   From: 2010.06.25/outbox.cif.g09.slc.cpg/sg12_39_cif.got.tgz:76028.got - 2010.06.28 00:19:55.
