data_PCOD8099625
_publ_section_title
;
Structure prediction by ZEFSAII (Michael W. Deem and Ramdas Pophale) SiO2 
 PCOD8099625
Probable space group: C 2/M
;
_chemical_formula_sum "Si O2"
_cell_formula_units_Z 56
_cell_length_a 18.823778
_cell_length_b 9.680187
_cell_length_c 18.648421
_cell_angle_alpha 90.000000
_cell_angle_beta 120.606313
_cell_angle_gamma 90.000000
_cell_volume 2924.672961
_symmetry_space_group_name_H-M "C 2/M"
_symmetry_group_IT_number 12
_symmetry_cell_setting 'monoclinic'
loop_
_space_group_symop_operation_xyz
x,y,z
-x,y,-z
-x,-y,-z
x,-y,z
1/2+x,1/2+y,z
1/2-x,1/2+y,-z
1/2-x,1/2-y,-z
1/2+x,1/2-y,z
loop_
_atom_site_type_symbol
_atom_site_label
_atom_site_fract_x
_atom_site_fract_y
_atom_site_fract_z
Si Si1 0.197961 0.342770 0.191042
Si Si2 0.234544 0.843533 0.923365
Si Si3 0.451553 0.344541 0.174364
Si Si4 0.591669 0.337557 0.356186
Si Si5 0.490655 0.843163 0.915292
Si Si6 0.249322 0.840875 0.344405
Si Si7 0.577639 0.840571 0.490725
O O1 0.229973 0.500000 0.215959
O O2 0.209712 0.293704 0.114781
O O3 0.102139 0.331668 0.160842
O O4 0.247628 0.246616 0.270823
O O5 0.141448 0.835548 0.844920
O O6 0.256881 0.000000 0.957267
O O7 0.250000 0.750000 0.000000
O O8 0.475873 0.500000 0.164084
O O9 0.515135 0.292564 0.267049
O O10 0.452305 0.249188 0.105049
O O11 0.590399 0.500000 0.373091
O O12 0.677807 0.294104 0.362992
O O13 0.579746 0.254553 0.422593
O O14 0.523567 0.000000 0.929067
O O15 0.500000 0.785127 0.000000
O O16 0.338190 0.814118 0.423654
O O17 0.235697 0.000000 0.316453
O O18 0.500000 0.798094 0.500000
O O19 0.570207 0.000000 0.462934
#
# Coordination Sequence:
#
# PCOD8099625 Si02
#       7
#     8   8   8   8   8   8   8
#     4  10  21  36  57  84 113 147 190 235 278 332
#     4  10  22  39  57  81 114 152 193 237 283 333
#     4  10  21  37  57  83 115 148 187 233 279 332
#     4  10  21  38  60  86 114 148 188 229 278 336
#     4  10  20  35  56  83 113 146 187 233 278 329
#     4  10  21  39  60  83 115 150 186 230 280 335
#     4  10  23  40  59  87 118 147 184 230 278 334
#
# _framework density 19.14744
#
# number of rings (size 3 to 8) (size 9 to 14) (size 15 to 20)
#    0.000    2.000    1.429    1.286    2.000    4.571 
#    0.000    0.000    0.000    0.000    0.000    0.000 
#    0.000    0.000    0.000    0.000    0.000    0.000 
#
# Total GULP energy -347273.180613 kJ/mol
# GULP energy per Si atom -12402.613593 kJ/mol
# Density = 1.910386 g / cm^3
# Si number density = 19.147440 Si / 1000 Ang^3
#
#
#
# Elastic Constant Matrix: (Units=GPa)
#
#
# Indices 1 2 3 4 5 6 
#
# 1 90.9035 30.4653 34.3301 0.0000 -2.8859 0.0000
# 2 30.4653 72.3719 57.7991 0.0000 -18.1105 0.0000
# 3 34.3301 57.7991 105.5977 0.0000 -11.3079 0.0000
# 4 0.0000 0.0000 0.0000 39.3494 0.0000 -9.5878
# 5 -2.8859 -18.1105 -11.3079 0.0000 37.0640 0.0000
# 6 0.0000 0.0000 0.0000 -9.5878 0.0000 25.7043
#
#
#
# Elastic Compliance Matrix: (Units=1/GPa)
#
#
# Indices 1 2 3 4 5 6 
#
# 1 0.013184 -0.004280 -0.002127 0.000000 -0.001714 0.000000
# 2 -0.004280 0.028584 -0.013226 0.000000 0.009599 0.000000
# 3 -0.002127 -0.013226 0.017255 0.000000 -0.001364 0.000000
# 4 0.000000 0.000000 0.000000 0.027954 0.000000 0.010427
# 5 -0.001714 0.009599 -0.001364 0.000000 0.031121 0.000000
# 6 0.000000 0.000000 0.000000 0.010427 0.000000 0.042793
#
#
# Mechanical properties :
#
#
# Convention : Reuss Voigt Hill
#
# Bulk Modulus (GPa) = 50.61669 57.11801 53.86735
# Shear Modulus (GPa) = 24.18459 30.17545 27.18002
#
# Velocity S-wave (km/s) = 3.55783 3.97413 3.77173
# Velocity P-wave (km/s) = 6.58560 7.13819 6.86745
#
# Compressibility (1/GPa) = 0.01975633
#
# Stress axis : x y z
#
# Youngs Moduli (GPa) = 75.84994 34.98431 57.95484
#
# Poissons Ratio (x) = 0.14973 0.12327
# Poissons Ratio (y) = 0.32463 0.76653
# Poissons Ratio (z) = 0.16133 0.46272
#
# Static dielectric constant tensor:
#      x y z
#    x 3.643400 0.000000 0.129820 
#    y 0.000000 3.461990 0.000000 
#    z 0.129820 0.000000 3.404450 
# 
# 
# High freq. dielectric constant tensor:
#      x y z
#    x 1.756270 0.000000 0.007940 
#    y 0.000000 1.738550 0.000000 
#    z 0.007940 0.000000 1.744920 
# 
# From -- ./inp_files/275653.got.cif
#   From: 2010.06.25/outbox.cif.g09.slc.cpg/sg12_138_cif.got.tgz:275653.got - 2010.06.28 00:19:55.
