data_PCOD8099046
_publ_section_title
;
Structure prediction by ZEFSAII (Michael W. Deem and Ramdas Pophale) SiO2 
 PCOD8099046
Probable space group: C 2/M
;
_chemical_formula_sum "Si O2"
_cell_formula_units_Z 64
_cell_length_a 19.182162
_cell_length_b 8.863863
_cell_length_c 20.354929
_cell_angle_alpha 90.000000
_cell_angle_beta 91.330123
_cell_angle_gamma 90.000000
_cell_volume 3459.976443
_symmetry_space_group_name_H-M "C 2/M"
_symmetry_group_IT_number 12
_symmetry_cell_setting 'monoclinic'
loop_
_space_group_symop_operation_xyz
x,y,z
-x,y,-z
-x,-y,-z
x,-y,z
1/2+x,1/2+y,z
1/2-x,1/2+y,-z
1/2-x,1/2-y,-z
1/2+x,1/2-y,z
loop_
_atom_site_type_symbol
_atom_site_label
_atom_site_fract_x
_atom_site_fract_y
_atom_site_fract_z
Si Si1 0.324613 0.327857 0.643343
Si Si2 0.674665 0.821882 0.005637
Si Si3 0.414527 0.173770 0.751762
Si Si4 0.338305 0.176160 0.371179
Si Si5 0.421805 0.321551 0.889452
Si Si6 0.932507 0.322176 0.109616
Si Si7 0.175763 0.174266 0.501347
Si Si8 0.928079 0.325737 0.255334
O O1 0.336313 0.500000 0.666523
O O2 0.359819 0.214900 0.694661
O O3 0.242896 0.289068 0.640637
O O4 0.358746 0.303209 0.571533
O O5 0.630622 0.781992 0.939617
O O6 0.681248 0.000000 0.015715
O O7 0.750000 0.750000 0.000000
O O8 0.637811 0.749804 0.067258
O O9 0.402895 0.277481 0.814755
O O10 0.491497 0.201662 0.724381
O O11 0.404842 0.000000 0.772351
O O12 0.367065 0.251167 0.439476
O O13 0.380031 0.249757 0.310496
O O14 0.353597 0.000000 0.377973
O O15 0.421208 0.500000 0.897425
O O16 0.497057 0.258609 0.913351
O O17 0.949060 0.500000 0.112006
O O18 0.912629 0.260472 0.181986
O O19 0.250000 0.250000 0.500000
O O20 0.186134 0.000000 0.517296
O O21 0.908125 0.500000 0.253032
#
# Coordination Sequence:
#
# PCOD8099046 Si02
#       8
#     8   8   8   8   8   8   8   8
#     4   9  18  31  49  74 102 133 170 215 265 312
#     4  11  23  38  57  83 114 144 177 221 269 315
#     4  10  20  35  55  77 103 136 174 216 260 313
#     4   9  17  31  52  75 101 134 172 214 257 308
#     4  11  22  37  58  80 106 142 181 221 265 317
#     4   9  19  37  59  80 106 143 182 218 259 313
#     4   9  17  30  48  71 100 134 172 212 255 307
#     4   8  16  33  54  75  99 131 172 212 254 303
#
# _framework density 18.497236000000001
#
# number of rings (size 3 to 8) (size 9 to 14) (size 15 to 20)
#    0.000    2.500    0.000    4.125    0.000    6.000 
#    0.000    6.250    0.000    3.750    0.000    0.000 
#    0.000    0.000    0.000    0.000    0.000    0.000 
#
# Total GULP energy -396701.028907 kJ/mol
# GULP energy per Si atom -12396.907153 kJ/mol
# Density = 1.845514 g / cm^3
# Si number density = 18.497236 Si / 1000 Ang^3
#
#
#
# Elastic Constant Matrix: (Units=GPa)
#
#
# Indices 1 2 3 4 5 6 
#
# 1 97.7813 46.6996 69.5887 0.0000 -11.5112 0.0000
# 2 46.6996 79.0201 49.8168 0.0000 1.8183 0.0000
# 3 69.5887 49.8168 116.4369 0.0000 -15.9420 0.0000
# 4 0.0000 0.0000 0.0000 31.9556 0.0000 1.7494
# 5 -11.5112 1.8183 -15.9420 0.0000 31.6695 0.0000
# 6 0.0000 0.0000 0.0000 1.7494 0.0000 26.5035
#
#
#
# Elastic Compliance Matrix: (Units=1/GPa)
#
#
# Indices 1 2 3 4 5 6 
#
# 1 0.019801 -0.006283 -0.008711 0.000000 0.003173 0.000000
# 2 -0.006283 0.020118 -0.005717 0.000000 -0.006317 0.000000
# 3 -0.008711 -0.005717 0.017026 0.000000 0.005732 0.000000
# 4 0.000000 0.000000 0.000000 0.031407 0.000000 -0.002073
# 5 0.003173 -0.006317 0.005732 0.000000 0.035978 0.000000
# 6 0.000000 0.000000 0.000000 -0.002073 0.000000 0.037868
#
#
# Mechanical properties :
#
#
# Convention : Reuss Voigt Hill
#
# Bulk Modulus (GPa) = 64.42827 69.49428 66.96128
# Shear Modulus (GPa) = 23.94713 26.50126 25.22419
#
# Velocity S-wave (km/s) = 3.60200 3.78923 3.69680
# Velocity P-wave (km/s) = 7.22538 7.53631 7.38248
#
# Compressibility (1/GPa) = 0.01552114
#
# Stress axis : x y z
#
# Youngs Moduli (GPa) = 50.50280 49.70736 58.73496
#
# Poissons Ratio (x) = 0.31231 0.51167
# Poissons Ratio (y) = 0.31731 0.33579
# Poissons Ratio (z) = 0.43995 0.28418
#
# Static dielectric constant tensor:
#      x y z
#    x 3.339050 0.000000 -0.333060 
#    y 0.000000 3.347010 0.000000 
#    z -0.333060 0.000000 4.154370 
# 
# 
# High freq. dielectric constant tensor:
#      x y z
#    x 1.695730 0.000000 -0.005580 
#    y 0.000000 1.709220 0.000000 
#    z -0.005580 0.000000 1.734190 
# 
# From -- ./inp_files/314038.got.cif
#   From: 2010.06.25/outbox.cif.g09.slc.cpg/sg12_158_cif.got.tgz:314038.got - 2010.06.28 00:19:55.
