data_PCOD8099449
_publ_section_title
;
Structure prediction by ZEFSAII (Michael W. Deem and Ramdas Pophale) SiO2 
 PCOD8099449
Probable space group: C 2/M
;
_chemical_formula_sum "Si O2"
_cell_formula_units_Z 56
_cell_length_a 23.673379
_cell_length_b 9.181804
_cell_length_c 15.325132
_cell_angle_alpha 90.000000
_cell_angle_beta 118.236640
_cell_angle_gamma 90.000000
_cell_volume 2934.735287
_symmetry_space_group_name_H-M "C 2/M"
_symmetry_group_IT_number 12
_symmetry_cell_setting 'monoclinic'
loop_
_space_group_symop_operation_xyz
x,y,z
-x,y,-z
-x,-y,-z
x,-y,z
1/2+x,1/2+y,z
1/2-x,1/2+y,-z
1/2-x,1/2-y,-z
1/2+x,1/2-y,z
loop_
_atom_site_type_symbol
_atom_site_label
_atom_site_fract_x
_atom_site_fract_y
_atom_site_fract_z
Si Si1 0.440242 0.329740 0.515903
Si Si2 0.719655 0.666845 0.848612
Si Si3 0.571450 0.329113 0.294869
Si Si4 0.714878 0.667930 0.397811
Si Si5 0.824271 0.331547 0.345321
Si Si6 0.835552 0.166888 0.001243
Si Si7 0.521466 0.326419 0.921353
O O1 0.500000 0.281074 0.500000
O O2 0.424995 0.500000 0.491368
O O3 0.455704 0.294194 0.628346
O O4 0.378032 0.238188 0.445697
O O5 0.727868 0.500000 0.826329
O O6 0.676073 0.749577 0.746824
O O7 0.682353 0.682708 0.911362
O O8 0.789559 0.738760 0.906199
O O9 0.573724 0.500000 0.280497
O O10 0.643364 0.266601 0.333776
O O11 0.524472 0.259725 0.187663
O O12 0.710682 0.500000 0.422880
O O13 0.750000 0.750000 0.500000
O O14 0.754464 0.687990 0.337778
O O15 0.841012 0.500000 0.342672
O O16 0.906744 0.229411 0.042601
O O17 0.829945 0.000000 0.965671
O O18 0.519737 0.500000 0.916486
O O19 0.500000 0.268040 0.000000
#
# Coordination Sequence:
#
# PCOD8099449 Si02
#       7
#     8   8   8   8   8   8   8
#     4  10  21  36  58  83 113 151 191 232 276 334
#     4  10  21  36  57  82 112 148 185 228 279 335
#     4   9  18  33  53  80 110 143 184 229 276 329
#     4  10  20  35  56  80 110 143 184 230 276 331
#     4  11  23  36  56  85 115 146 186 233 282 335
#     4   9  19  36  58  83 110 140 185 235 280 334
#     4   9  18  31  54  84 111 140 179 230 280 328
#
# _framework density 19.081788
#
# number of rings (size 3 to 8) (size 9 to 14) (size 15 to 20)
#    0.000    2.286    1.429    0.857    4.000    1.429 
#    0.000    0.000    0.000    1.286    0.000    0.000 
#    0.000    0.000    0.000    0.000    0.000    0.000 
#
# Total GULP energy -347237.878151 kJ/mol
# GULP energy per Si atom -12401.352791 kJ/mol
# Density = 1.903836 g / cm^3
# Si number density = 19.081788 Si / 1000 Ang^3
#
#
#
# Elastic Constant Matrix: (Units=GPa)
#
#
# Indices 1 2 3 4 5 6 
#
# 1 128.5643 27.2825 51.9331 0.0000 15.9927 0.0000
# 2 27.2825 62.3543 39.4283 0.0000 0.9050 0.0000
# 3 51.9331 39.4283 136.3843 0.0000 8.7788 0.0000
# 4 0.0000 0.0000 0.0000 21.7705 0.0000 8.1577
# 5 15.9927 0.9050 8.7788 0.0000 26.5597 0.0000
# 6 0.0000 0.0000 0.0000 8.1577 0.0000 17.3211
#
#
#
# Elastic Compliance Matrix: (Units=1/GPa)
#
#
# Indices 1 2 3 4 5 6 
#
# 1 0.010073 -0.002588 -0.002762 0.000000 -0.005064 0.000000
# 2 -0.002588 0.020329 -0.005055 0.000000 0.002536 0.000000
# 3 -0.002762 -0.005055 0.009939 0.000000 -0.001450 0.000000
# 4 0.000000 0.000000 0.000000 0.055777 0.000000 -0.026270
# 5 -0.005064 0.002536 -0.001450 0.000000 0.041093 0.000000
# 6 0.000000 0.000000 0.000000 -0.026270 0.000000 0.070105
#
#
# Mechanical properties :
#
#
# Convention : Reuss Voigt Hill
#
# Bulk Modulus (GPa) = 51.19755 62.73229 56.96492
# Shear Modulus (GPa) = 21.30964 27.04086 24.17525
#
# Velocity S-wave (km/s) = 3.34541 3.76853 3.56325
# Velocity P-wave (km/s) = 6.46616 7.20296 6.84448
#
# Compressibility (1/GPa) = 0.01953219
#
# Stress axis : x y z
#
# Youngs Moduli (GPa) = 99.27729 49.19039 100.61877
#
# Poissons Ratio (x) = 0.12728 0.27786
# Poissons Ratio (y) = 0.25689 0.50863
# Poissons Ratio (z) = 0.27416 0.24866
#
# Static dielectric constant tensor:
#      x y z
#    x 3.688480 0.000000 0.064220 
#    y 0.000000 3.242810 0.000000 
#    z 0.064220 0.000000 3.587620 
# 
# 
# High freq. dielectric constant tensor:
#      x y z
#    x 1.750510 0.000000 0.000180 
#    y 0.000000 1.706530 0.000000 
#    z 0.000180 0.000000 1.750390 
# 
# From -- ./inp_files/238912.got.cif
#   From: 2010.06.25/outbox.cif.g09.slc.cpg/sg12_120_cif.got.tgz:238912.got - 2010.06.28 00:19:55.
