data_PCOD8099598
_publ_section_title
;
Structure prediction by ZEFSAII (Michael W. Deem and Ramdas Pophale) SiO2 
 PCOD8099598
Probable space group: C 2/M
;
_chemical_formula_sum "Si O2"
_cell_formula_units_Z 56
_cell_length_a 18.263264
_cell_length_b 8.623271
_cell_length_c 18.415003
_cell_angle_alpha 90.000000
_cell_angle_beta 76.018602
_cell_angle_gamma 90.000000
_cell_volume 2814.242227
_symmetry_space_group_name_H-M "C 2/M"
_symmetry_group_IT_number 12
_symmetry_cell_setting 'monoclinic'
loop_
_space_group_symop_operation_xyz
x,y,z
-x,y,-z
-x,-y,-z
x,-y,z
1/2+x,1/2+y,z
1/2-x,1/2+y,-z
1/2-x,1/2-y,-z
1/2+x,1/2-y,z
loop_
_atom_site_type_symbol
_atom_site_label
_atom_site_fract_x
_atom_site_fract_y
_atom_site_fract_z
Si Si1 0.617796 0.819737 0.362849
Si Si2 0.441468 0.322686 0.073049
Si Si3 0.169742 0.181611 0.499726
Si Si4 0.266981 0.680216 0.772945
Si Si5 0.771023 0.822647 0.070851
Si Si6 0.597043 0.179475 0.771621
Si Si7 0.959165 0.181825 0.360502
O O1 0.645786 0.723608 0.424705
O O2 0.671091 0.781791 0.282463
O O3 0.532863 0.776640 0.363811
O O4 0.622876 0.000000 0.380284
O O5 0.460801 0.500000 0.088964
O O6 0.360108 0.308581 0.057033
O O7 0.447484 0.219674 0.143987
O O8 0.500000 0.256662 0.000000
O O9 0.250000 0.250000 0.500000
O O10 0.107345 0.242761 0.571251
O O11 0.177224 0.000000 0.504705
O O12 0.286690 0.500000 0.759778
O O13 0.270565 0.726041 0.856394
O O14 0.185198 0.719684 0.759388
O O15 0.743896 0.000000 0.081656
O O16 0.750000 0.750000 0.000000
O O17 0.563807 0.285511 0.716447
O O18 0.584557 0.000000 0.755671
O O19 0.974977 0.000000 0.367128
#
# Coordination Sequence:
#
# PCOD8099598 Si02
#       7
#     8   8   8   8   8   8   8
#     4  12  25  40  61  89 120 153 192 241 293 344
#     4   9  19  36  57  80 109 149 193 236 285 341
#     4  11  24  42  65  91 119 155 196 237 285 342
#     4  10  21  39  61  84 115 154 196 242 293 350
#     4  10  20  35  56  82 114 151 194 243 294 348
#     4  10  21  37  59  86 115 150 193 240 288 341
#     4  11  24  41  61  86 119 156 193 236 287 343
#
# _framework density 19.898785
#
# number of rings (size 3 to 8) (size 9 to 14) (size 15 to 20)
#    0.000    1.571    0.000    4.714    0.000   10.000 
#    0.000    4.286    0.000    0.000    0.000    0.000 
#    0.000    0.000    0.000    0.000    0.000    0.000 
#
# Total GULP energy -347373.250003 kJ/mol
# GULP energy per Si atom -12406.187500 kJ/mol
# Density = 1.985349 g / cm^3
# Si number density = 19.898785 Si / 1000 Ang^3
#
#
#
# Elastic Constant Matrix: (Units=GPa)
#
#
# Indices 1 2 3 4 5 6 
#
# 1 90.1162 23.0394 59.7797 0.0000 -5.7832 0.0000
# 2 23.0394 51.5892 16.2270 0.0000 -8.6087 0.0000
# 3 59.7797 16.2270 126.9515 0.0000 -8.3956 0.0000
# 4 0.0000 0.0000 0.0000 36.0700 0.0000 1.9107
# 5 -5.7832 -8.6087 -8.3956 0.0000 42.5358 0.0000
# 6 0.0000 0.0000 0.0000 1.9107 0.0000 30.8962
#
#
#
# Elastic Compliance Matrix: (Units=1/GPa)
#
#
# Indices 1 2 3 4 5 6 
#
# 1 0.017491 -0.005473 -0.007551 0.000000 -0.000220 0.000000
# 2 -0.005473 0.022476 -0.000045 0.000000 0.003796 0.000000
# 3 -0.007551 -0.000045 0.011520 0.000000 0.001238 0.000000
# 4 0.000000 0.000000 0.000000 0.027815 0.000000 -0.001720
# 5 -0.000220 0.003796 0.001238 0.000000 0.024492 0.000000
# 6 0.000000 0.000000 0.000000 -0.001720 0.000000 0.032473
#
#
# Mechanical properties :
#
#
# Convention : Reuss Voigt Hill
#
# Bulk Modulus (GPa) = 39.44895 51.86102 45.65498
# Shear Modulus (GPa) = 29.26460 33.20777 31.23619
#
# Velocity S-wave (km/s) = 3.83910 4.08957 3.96631
# Velocity P-wave (km/s) = 6.28644 6.95833 6.63090
#
# Compressibility (1/GPa) = 0.02534922
#
# Stress axis : x y z
#
# Youngs Moduli (GPa) = 57.17173 44.49286 86.80221
#
# Poissons Ratio (x) = 0.24351 0.65547
# Poissons Ratio (y) = 0.31290 0.00388
# Poissons Ratio (z) = 0.43172 0.00199
#
# Static dielectric constant tensor:
#      x y z
#    x 3.585490 0.000000 -0.261860 
#    y 0.000000 3.694000 0.000000 
#    z -0.261860 0.000000 3.619490 
# 
# 
# High freq. dielectric constant tensor:
#      x y z
#    x 1.776430 0.000000 -0.001310 
#    y 0.000000 1.784390 0.000000 
#    z -0.001310 0.000000 1.791570 
# 
# From -- ./inp_files/275067.got.cif
#   From: 2010.06.25/outbox.cif.g09.slc.cpg/sg12_138_cif.got.tgz:275067.got - 2010.06.28 00:19:55.
