data_PCOD8099466
_publ_section_title
;
Structure prediction by ZEFSAII (Michael W. Deem and Ramdas Pophale) SiO2 
 PCOD8099466
Probable space group: C 2/M
;
_chemical_formula_sum "Si O2"
_cell_formula_units_Z 48
_cell_length_a 21.120291
_cell_length_b 14.807941
_cell_length_c 12.109465
_cell_angle_alpha 90.000000
_cell_angle_beta 136.536980
_cell_angle_gamma 90.000000
_cell_volume 2605.170572
_symmetry_space_group_name_H-M "C 2/M"
_symmetry_group_IT_number 12
_symmetry_cell_setting 'monoclinic'
loop_
_space_group_symop_operation_xyz
x,y,z
-x,y,-z
-x,-y,-z
x,-y,z
1/2+x,1/2+y,z
1/2-x,1/2+y,-z
1/2-x,1/2-y,-z
1/2+x,1/2-y,z
loop_
_atom_site_type_symbol
_atom_site_label
_atom_site_fract_x
_atom_site_fract_y
_atom_site_fract_z
Si Si1 0.664847 0.817343 0.890076
Si Si2 0.779889 0.603675 0.815433
Si Si3 0.394595 0.901879 0.399323
Si Si4 0.423386 0.395627 0.494287
Si Si5 0.083605 0.602591 0.188544
Si Si6 0.042385 0.274062 0.342153
O O1 0.671339 0.877133 0.787394
O O2 0.564907 0.772003 0.761880
O O3 0.750000 0.750000 0.000000
O O4 0.669802 0.876151 0.006446
O O5 0.794753 0.500000 0.812505
O O6 0.672817 0.629014 0.686339
O O7 0.830216 0.645092 0.771064
O O8 0.500000 0.910847 0.500000
O O9 0.389917 0.826289 0.487489
O O10 0.360835 0.000000 0.400543
O O11 0.500000 0.372297 0.500000
O O12 0.429141 0.500000 0.539726
O O13 0.432086 0.332434 0.614357
O O14 0.100344 0.500000 0.259311
O O15 0.060808 0.679458 0.249040
O O16 0.000000 0.594984 0.000000
#
# Coordination Sequence:
#
# PCOD8099466 Si02
#       6
#     8   8   8   8   8   8
#     4  11  20  31  50  77 109 143 182 224 266 322
#     4  10  20  35  56  81 106 140 184 225 266 319
#     4   9  18  30  48  76 107 138 170 219 284 329
#     4  10  21  38  57  79 109 146 188 227 264 314
#     4  10  20  35  56  84 112 140 177 223 276 331
#     4  11  20  34  55  78 109 142 178 223 273 323
#
# _framework density 18.424897000000001
#
# number of rings (size 3 to 8) (size 9 to 14) (size 15 to 20)
#    0.000    1.833    1.667    4.500    0.000    2.000 
#    0.000    0.833    0.000    0.500    0.000    0.000 
#    0.000    0.000    0.000    0.000    0.000    0.000 
#
# Total GULP energy -297344.889595 kJ/mol
# GULP energy per Si atom -12389.370400 kJ/mol
# Density = 1.838296 g / cm^3
# Si number density = 18.424897 Si / 1000 Ang^3
#
#
#
# Elastic Constant Matrix: (Units=GPa)
#
#
# Indices 1 2 3 4 5 6 
#
# 1 83.0620 44.3000 31.5984 0.0000 -5.6688 0.0000
# 2 44.3000 81.8947 66.0376 0.0000 -0.9783 0.0000
# 3 31.5984 66.0376 86.9555 0.0000 -9.6791 0.0000
# 4 0.0000 0.0000 0.0000 17.2704 0.0000 -3.7225
# 5 -5.6688 -0.9783 -9.6791 0.0000 25.3270 0.0000
# 6 0.0000 0.0000 0.0000 -3.7225 0.0000 25.1226
#
#
#
# Elastic Compliance Matrix: (Units=1/GPa)
#
#
# Indices 1 2 3 4 5 6 
#
# 1 0.017573 -0.012196 0.003407 0.000000 0.004764 0.000000
# 2 -0.012196 0.041722 -0.028594 0.000000 -0.012046 0.000000
# 3 0.003407 -0.028594 0.033359 0.000000 0.012407 0.000000
# 4 0.000000 0.000000 0.000000 0.059813 0.000000 0.008863
# 5 0.004764 -0.012046 0.012407 0.000000 0.044826 0.000000
# 6 0.000000 0.000000 0.000000 0.008863 0.000000 0.041118
#
#
# Mechanical properties :
#
#
# Convention : Reuss Voigt Hill
#
# Bulk Modulus (GPa) = 55.90830 59.53159 57.71994
# Shear Modulus (GPa) = 15.66714 20.87575 18.27145
#
# Velocity S-wave (km/s) = 2.91920 3.36969 3.15250
# Velocity P-wave (km/s) = 6.46313 6.89349 6.68178
#
# Compressibility (1/GPa) = 0.01788643
#
# Stress axis : x y z
#
# Youngs Moduli (GPa) = 56.90569 23.96833 29.97710
#
# Poissons Ratio (x) = 0.29232 -0.10212
# Poissons Ratio (y) = 0.69402 0.85717
# Poissons Ratio (z) = -0.19386 0.68535
#
# Static dielectric constant tensor:
#      x y z
#    x 3.744290 0.000000 -1.935700 
#    y 0.000000 3.473860 0.000000 
#    z -1.935700 0.000000 14.772470 
# 
# 
# High freq. dielectric constant tensor:
#      x y z
#    x 1.695330 0.000000 0.003320 
#    y 0.000000 1.711670 0.000000 
#    z 0.003320 0.000000 1.714590 
# 
# From -- ./inp_files/142729.got.cif
#   From: 2010.06.25/outbox.cif.g09.slc.cpg/sg12_72_cif.got.tgz:142729.got - 2010.06.28 00:19:55.
