data_PCOD8099899
_publ_section_title
;
Structure prediction by ZEFSAII (Michael W. Deem and Ramdas Pophale) SiO2 
 PCOD8099899
Probable space group: C 2/M
;
_chemical_formula_sum "Si O2"
_cell_formula_units_Z 56
_cell_length_a 12.230303
_cell_length_b 12.640456
_cell_length_c 28.233677
_cell_angle_alpha 90.000000
_cell_angle_beta 38.742303
_cell_angle_gamma 90.000000
_cell_volume 2731.592646
_symmetry_space_group_name_H-M "C 2/M"
_symmetry_group_IT_number 12
_symmetry_cell_setting 'monoclinic'
loop_
_space_group_symop_operation_xyz
x,y,z
-x,y,-z
-x,-y,-z
x,-y,z
1/2+x,1/2+y,z
1/2-x,1/2+y,-z
1/2-x,1/2-y,-z
1/2+x,1/2-y,z
loop_
_atom_site_type_symbol
_atom_site_label
_atom_site_fract_x
_atom_site_fract_y
_atom_site_fract_z
Si Si1 0.699457 0.285039 0.443116
Si Si2 0.297121 0.880551 0.952438
Si Si3 0.806839 0.675845 0.052760
Si Si4 0.106276 0.876867 0.567687
Si Si5 0.670662 0.879935 0.800243
Si Si6 0.732872 0.796907 0.681269
Si Si7 0.454125 0.377362 0.774896
O O1 0.500000 0.260498 0.500000
O O2 0.781281 0.169781 0.427188
O O3 0.715801 0.366755 0.481504
O O4 0.792213 0.335822 0.364887
O O5 0.182585 0.803320 0.958062
O O6 0.494762 0.832901 0.882311
O O7 0.280881 0.000000 0.938032
O O8 0.240310 0.876751 0.026344
O O9 0.669329 0.641033 0.138470
O O10 0.000000 0.633581 0.000000
O O11 0.940217 0.798243 0.620819
O O12 0.057007 0.000000 0.593652
O O13 0.655771 0.871889 0.748211
O O14 0.846754 0.831793 0.764966
O O15 0.676490 0.000000 0.814160
O O16 0.638782 0.683215 0.718300
O O17 0.503734 0.500000 0.753056
#
# Coordination Sequence:
#
# PCOD8099899 Si02
#       7
#     8   8   8   8   8   8   8
#     4   9  21  39  62  93 122 153 192 239 285 342
#     4  10  21  36  56  85 113 147 196 245 298 358
#     4  11  21  37  61  85 114 154 200 254 303 354
#     4  10  21  40  65  92 120 155 197 239 285 345
#     4  10  20  35  57  83 112 149 195 242 292 352
#     4  11  21  36  57  86 122 155 192 236 291 348
#     4  11  23  38  58  85 117 155 199 250 301 349
#
# _framework density 20.500859999999999
#
# number of rings (size 3 to 8) (size 9 to 14) (size 15 to 20)
#    0.000    1.714    2.857    1.714    0.000    6.000 
#    0.000    5.714    0.000    7.714    0.000    0.000 
#    0.000    0.000    0.000    0.000    0.000    0.000 
#
# Total GULP energy -346866.326857 kJ/mol
# GULP energy per Si atom -12388.083102 kJ/mol
# Density = 2.045420 g / cm^3
# Si number density = 20.500860 Si / 1000 Ang^3
#
#
#
# Elastic Constant Matrix: (Units=GPa)
#
#
# Indices 1 2 3 4 5 6 
#
# 1 75.5094 22.5144 27.2578 -0.0001 13.1728 0.0001
# 2 22.5144 73.7201 17.9218 -0.0003 -8.6684 0.0001
# 3 27.2578 17.9218 95.3621 0.0009 17.2667 0.0003
# 4 -0.0001 -0.0003 0.0009 17.1441 -0.0009 -4.3712
# 5 13.1728 -8.6684 17.2667 -0.0009 33.2629 -0.0001
# 6 0.0001 0.0001 0.0003 -4.3712 -0.0001 21.9564
#
#
#
# Elastic Compliance Matrix: (Units=1/GPa)
#
#
# Indices 1 2 3 4 5 6 
#
# 1 0.016957 -0.005334 -0.002624 0.000000 -0.006744 0.000000
# 2 -0.005334 0.016912 -0.003128 0.000001 0.008143 0.000000
# 3 -0.002624 -0.003128 0.013006 -0.000001 -0.006528 0.000000
# 4 0.000000 0.000001 -0.000001 0.061448 0.000003 0.012233
# 5 -0.006744 0.008143 -0.006528 0.000003 0.038245 0.000001
# 6 0.000000 0.000000 0.000000 0.012233 0.000001 0.047980
#
#
# Mechanical properties :
#
#
# Convention : Reuss Voigt Hill
#
# Bulk Modulus (GPa) = 40.47948 42.21996 41.34972
# Shear Modulus (GPa) = 22.22669 26.26585 24.24627
#
# Velocity S-wave (km/s) = 3.29627 3.58328 3.44276
# Velocity P-wave (km/s) = 5.85451 6.14482 6.00142
#
# Compressibility (1/GPa) = 0.02470387
#
# Stress axis : x y z
#
# Youngs Moduli (GPa) = 58.97163 59.13006 76.88724
#
# Poissons Ratio (x) = 0.31540 0.20172
# Poissons Ratio (y) = 0.31455 0.24052
# Poissons Ratio (z) = 0.15471 0.18497
#
# Static dielectric constant tensor:
#      x y z
#    x 3.905170 0.000000 0.192340 
#    y 0.000000 3.454230 0.000000 
#    z 0.192340 0.000000 4.042760 
# 
# 
# High freq. dielectric constant tensor:
#      x y z
#    x 1.795910 0.000000 0.016690 
#    y 0.000000 1.770260 0.000000 
#    z 0.016690 0.000000 1.818440 
# 
# From -- ./inp_files/358178.got.cif
#   From: 2010.06.25/outbox.cif.g09.slc.cpg/sg12_180_cif.got.tgz:358178.got - 2010.06.28 00:19:55.
