data_PCOD8099635
_publ_section_title
;
Structure prediction by ZEFSAII (Michael W. Deem and Ramdas Pophale) SiO2 
 PCOD8099635
Probable space group: C 2/M
;
_chemical_formula_sum "Si O2"
_cell_formula_units_Z 64
_cell_length_a 26.770387
_cell_length_b 20.064808
_cell_length_c 15.937753
_cell_angle_alpha 90.000000
_cell_angle_beta 157.165637
_cell_angle_gamma 90.000000
_cell_volume 3322.194324
_symmetry_space_group_name_H-M "C 2/M"
_symmetry_group_IT_number 12
_symmetry_cell_setting 'monoclinic'
loop_
_space_group_symop_operation_xyz
x,y,z
-x,y,-z
-x,-y,-z
x,-y,z
1/2+x,1/2+y,z
1/2-x,1/2+y,-z
1/2-x,1/2-y,-z
1/2+x,1/2-y,z
loop_
_atom_site_type_symbol
_atom_site_label
_atom_site_fract_x
_atom_site_fract_y
_atom_site_fract_z
Si Si1 0.440375 0.575567 0.613739
Si Si2 0.877433 0.159646 0.364642
Si Si3 0.396485 0.183809 0.100910
Si Si4 0.280732 0.424480 0.535457
Si Si5 0.952689 0.662343 0.831482
Si Si6 0.422940 0.188567 0.465172
Si Si7 0.638475 0.332637 0.992838
Si Si8 0.937183 0.805273 0.818733
O O1 0.470779 0.500000 0.638874
O O2 0.363475 0.608728 0.419108
O O3 0.343742 0.582568 0.542132
O O4 0.579509 0.609965 0.842403
O O5 0.894414 0.233144 0.430029
O O6 0.000000 0.138975 0.500000
O O7 0.746803 0.153577 0.106904
O O8 0.439123 0.159084 0.074037
O O9 0.496088 0.162177 0.328635
O O10 0.377077 0.262986 0.079365
O O11 0.297848 0.500000 0.597246
O O12 0.131899 0.404494 0.305348
O O13 0.341397 0.366660 0.687525
O O14 0.878337 0.733563 0.695961
O O15 0.000000 0.661075 0.000000
O O16 0.500000 0.172458 0.500000
O O17 0.285744 0.150757 0.246434
O O18 0.553261 0.332388 0.943340
O O19 0.000000 0.781276 0.000000
#
# Coordination Sequence:
#
# PCOD8099635 Si02
#       8
#     8   8   8   8   8   8   8   8
#     4  10  20  37  57  79 111 152 194 230 269 332
#     4  10  21  34  58  85 114 142 185 235 287 331
#     4  10  20  35  56  87 117 144 180 235 290 337
#     4  10  21  35  54  79 109 149 184 224 276 331
#     4  10  20  35  56  83 114 147 184 230 281 338
#     4  10  21  33  58  87 116 145 180 235 295 342
#     4   9  19  34  54  82 112 144 189 226 282 336
#     4   9  19  33  53  81 107 142 184 231 272 323
#
# _framework density 19.264375000000001
#
# number of rings (size 3 to 8) (size 9 to 14) (size 15 to 20)
#    0.000    2.250    1.250    1.125    3.500    3.250 
#    0.000    0.625    0.000    1.125    0.000    0.000 
#    0.000    0.000    0.000    0.000    0.000    0.000 
#
# Total GULP energy -396423.899537 kJ/mol
# GULP energy per Si atom -12388.246861 kJ/mol
# Density = 1.922053 g / cm^3
# Si number density = 19.264375 Si / 1000 Ang^3
#
#
#
# Elastic Constant Matrix: (Units=GPa)
#
#
# Indices 1 2 3 4 5 6 
#
# 1 55.9032 13.4301 24.8681 0.0000 -5.8775 0.0000
# 2 13.4301 80.8083 29.9390 0.0000 7.8580 0.0000
# 3 24.8681 29.9390 120.3181 0.0000 1.6698 0.0000
# 4 0.0000 0.0000 0.0000 22.3697 0.0000 -1.3906
# 5 -5.8775 7.8580 1.6698 0.0000 27.0892 0.0000
# 6 0.0000 0.0000 0.0000 -1.3906 0.0000 19.0214
#
#
#
# Elastic Compliance Matrix: (Units=1/GPa)
#
#
# Indices 1 2 3 4 5 6 
#
# 1 0.020743 -0.002604 -0.003715 0.000000 0.005485 0.000000
# 2 -0.002604 0.014350 -0.002969 0.000000 -0.004545 0.000000
# 3 -0.003715 -0.002969 0.009826 0.000000 -0.000550 0.000000
# 4 0.000000 0.000000 0.000000 0.044907 0.000000 0.003283
# 5 0.005485 -0.004545 -0.000550 0.000000 0.039457 0.000000
# 6 0.000000 0.000000 0.000000 0.003283 0.000000 0.052813
#
#
# Mechanical properties :
#
#
# Convention : Reuss Voigt Hill
#
# Bulk Modulus (GPa) = 37.96417 43.72265 40.84341
# Shear Modulus (GPa) = 23.87154 26.28221 25.07688
#
# Velocity S-wave (km/s) = 3.52398 3.69764 3.61185
# Velocity P-wave (km/s) = 6.02558 6.40120 6.21623
#
# Compressibility (1/GPa) = 0.02634063
#
# Stress axis : x y z
#
# Youngs Moduli (GPa) = 48.20863 69.68712 101.77356
#
# Poissons Ratio (x) = 0.18149 0.37813
# Poissons Ratio (y) = 0.12555 0.30220
# Poissons Ratio (z) = 0.17911 0.20693
#
# Static dielectric constant tensor:
#      x y z
#    x 3.320150 0.000000 0.140220 
#    y 0.000000 3.402430 0.000000 
#    z 0.140220 0.000000 3.494160 
# 
# 
# High freq. dielectric constant tensor:
#      x y z
#    x 1.741290 0.000000 0.004930 
#    y 0.000000 1.721520 0.000000 
#    z 0.004930 0.000000 1.749770 
# 
# From -- ./inp_files/297088.got.cif
#   From: 2010.06.25/outbox.cif.g09.slc.cpg/sg12_149_cif.got.tgz:297088.got - 2010.06.28 00:19:55.
