data_PCOD8099360
_publ_section_title
;
Structure prediction by ZEFSAII (Michael W. Deem and Ramdas Pophale) SiO2 
 PCOD8099360
Probable space group: C 2/M
;
_chemical_formula_sum "Si O2"
_cell_formula_units_Z 56
_cell_length_a 19.195436
_cell_length_b 8.706800
_cell_length_c 20.315929
_cell_angle_alpha 90.000000
_cell_angle_beta 56.615549
_cell_angle_gamma 90.000000
_cell_volume 2835.164530
_symmetry_space_group_name_H-M "C 2/M"
_symmetry_group_IT_number 12
_symmetry_cell_setting 'monoclinic'
loop_
_space_group_symop_operation_xyz
x,y,z
-x,y,-z
-x,-y,-z
x,-y,z
1/2+x,1/2+y,z
1/2-x,1/2+y,-z
1/2-x,1/2-y,-z
1/2+x,1/2-y,z
loop_
_atom_site_type_symbol
_atom_site_label
_atom_site_fract_x
_atom_site_fract_y
_atom_site_fract_z
Si Si1 0.767792 0.680044 0.818545
Si Si2 0.250284 0.819999 0.311338
Si Si3 0.502292 0.175416 0.073246
Si Si4 0.565828 0.318089 0.414462
Si Si5 0.559348 0.682155 0.268165
Si Si6 0.419080 0.319557 0.239963
Si Si7 0.309395 0.176243 0.022050
O O1 0.764915 0.500000 0.803971
O O2 0.744790 0.779404 0.767553
O O3 0.858387 0.729213 0.799240
O O4 0.698278 0.724547 0.907776
O O5 0.159644 0.761901 0.384575
O O6 0.327280 0.739826 0.308693
O O7 0.259719 0.000000 0.316223
O O8 0.442597 0.265456 0.154267
O O9 0.470562 0.000000 0.087754
O O10 0.500000 0.243322 0.000000
O O11 0.595988 0.187802 0.052376
O O12 0.500000 0.244013 0.500000
O O13 0.563376 0.500000 0.420891
O O14 0.540998 0.268845 0.353273
O O15 0.574091 0.500000 0.254606
O O16 0.483724 0.739675 0.261555
O O17 0.416989 0.500000 0.240507
O O18 0.283558 0.000000 0.048255
O O19 0.250000 0.250000 0.000000
#
# Coordination Sequence:
#
# PCOD8099360 Si02
#       7
#     8   8   8   8   8   8   8
#     4  11  21  34  54  78 104 137 181 227 270 322
#     4  10  20  35  56  79 106 140 176 216 263 318
#     4  10  22  38  54  72  98 137 182 226 271 316
#     4   8  15  32  59  85 106 136 179 218 257 315
#     4   9  19  35  55  80 110 144 179 220 270 319
#     4  11  22  35  53  78 109 142 179 223 267 318
#     4  11  22  35  52  75 104 138 178 226 276 322
#
# _framework density 19.751940000000001
#
# number of rings (size 3 to 8) (size 9 to 14) (size 15 to 20)
#    0.000    2.000    0.000    5.143    0.000    6.000 
#    0.000    0.714    0.000   10.714    0.000    0.000 
#    0.000    0.000    0.000    0.000    0.000    0.000 
#
# Total GULP energy -347175.997156 kJ/mol
# GULP energy per Si atom -12399.142756 kJ/mol
# Density = 1.970698 g / cm^3
# Si number density = 19.751940 Si / 1000 Ang^3
#
#
#
# Elastic Constant Matrix: (Units=GPa)
#
#
# Indices 1 2 3 4 5 6 
#
# 1 111.2186 22.6255 21.0402 -0.0001 -14.2695 -0.0008
# 2 22.6255 43.3212 14.2411 -0.0002 -5.5056 -0.0021
# 3 21.0402 14.2411 86.0607 0.0000 -15.4167 -0.0002
# 4 -0.0001 -0.0002 0.0000 15.9449 0.0000 -2.7406
# 5 -14.2695 -5.5056 -15.4167 0.0000 25.3733 0.0000
# 6 -0.0008 -0.0021 -0.0002 -2.7406 0.0000 32.8640
#
#
#
# Elastic Compliance Matrix: (Units=1/GPa)
#
#
# Indices 1 2 3 4 5 6 
#
# 1 0.010705 -0.004688 -0.001061 0.000000 0.004359 0.000000
# 2 -0.004688 0.026697 -0.003037 0.000001 0.001311 0.000002
# 3 -0.001061 -0.003037 0.013641 0.000000 0.007033 0.000000
# 4 0.000000 0.000001 0.000000 0.063628 0.000000 0.005306
# 5 0.004359 0.001311 0.007033 0.000000 0.046420 0.000000
# 6 0.000000 0.000002 0.000000 0.005306 0.000000 0.030871
#
#
# Mechanical properties :
#
#
# Convention : Reuss Voigt Hill
#
# Bulk Modulus (GPa) = 29.87564 39.60158 34.73861
# Shear Modulus (GPa) = 22.65610 27.01602 24.83606
#
# Velocity S-wave (km/s) = 3.39046 3.70234 3.54983
# Velocity P-wave (km/s) = 5.52134 6.19431 5.86748
#
# Compressibility (1/GPa) = 0.03347209
#
# Stress axis : x y z
#
# Youngs Moduli (GPa) = 93.41501 37.45758 73.30643
#
# Poissons Ratio (x) = 0.17561 0.07775
# Poissons Ratio (y) = 0.43796 0.22261
# Poissons Ratio (z) = 0.09907 0.11375
#
# Static dielectric constant tensor:
#      x y z
#    x 3.913150 0.000000 -0.224610 
#    y 0.000000 3.425870 0.000000 
#    z -0.224610 0.000000 3.722420 
# 
# 
# High freq. dielectric constant tensor:
#      x y z
#    x 1.781770 0.000000 -0.011860 
#    y 0.000000 1.754080 0.000000 
#    z -0.011860 0.000000 1.752350 
# 
# From -- ./inp_files/313766.got.cif
#   From: 2010.06.25/outbox.cif.g09.slc.cpg/sg12_157_cif.got.tgz:313766.got - 2010.06.28 00:19:55.
