data_PCOD8099647
_publ_section_title
;
Structure prediction by ZEFSAII (Michael W. Deem and Ramdas Pophale) SiO2 
 PCOD8099647
Probable space group: C 2/M
;
_chemical_formula_sum "Si O2"
_cell_formula_units_Z 64
_cell_length_a 29.734590
_cell_length_b 9.069857
_cell_length_c 15.565237
_cell_angle_alpha 90.000000
_cell_angle_beta 132.266645
_cell_angle_gamma 90.000000
_cell_volume 3106.441741
_symmetry_space_group_name_H-M "C 2/M"
_symmetry_group_IT_number 12
_symmetry_cell_setting 'monoclinic'
loop_
_space_group_symop_operation_xyz
x,y,z
-x,y,-z
-x,-y,-z
x,-y,z
1/2+x,1/2+y,z
1/2-x,1/2+y,-z
1/2-x,1/2-y,-z
1/2+x,1/2-y,z
loop_
_atom_site_type_symbol
_atom_site_label
_atom_site_fract_x
_atom_site_fract_y
_atom_site_fract_z
Si Si1 0.566899 0.674237 0.606065
Si Si2 0.712026 0.334898 0.096164
Si Si3 0.967796 0.331750 0.106695
Si Si4 0.115130 0.167450 0.121625
Si Si5 0.604629 0.325521 0.843505
Si Si6 0.610910 0.832017 0.284939
Si Si7 0.296756 0.325145 0.494500
Si Si8 0.688177 0.326779 0.679416
O O1 0.500000 0.744189 0.500000
O O2 0.559782 0.500000 0.596158
O O3 0.592647 0.725497 0.731288
O O4 0.617846 0.725635 0.602209
O O5 0.735768 0.500000 0.111749
O O6 0.668434 0.326646 0.121785
O O7 0.770515 0.235749 0.190353
O O8 0.673010 0.280750 0.962846
O O9 0.944674 0.500000 0.071557
O O10 0.945372 0.258211 0.165157
O O11 0.039463 0.322864 0.197808
O O12 0.944623 0.244051 0.993907
O O13 0.137040 0.258996 0.231993
O O14 0.099362 0.000000 0.127698
O O15 0.595899 0.500000 0.846904
O O16 0.636937 0.738152 0.397667
O O17 0.634642 0.000000 0.318922
O O18 0.294492 0.500000 0.503396
O O19 0.250000 0.250000 0.500000
O O20 0.286595 0.279399 0.381792
O O21 0.690639 0.500000 0.693759
#
# Coordination Sequence:
#
# PCOD8099647 Si02
#       8
#     8   8   8   8   8   8   8   8
#     4   9  19  37  62  88 116 149 191 248 299 342
#     4   9  19  35  55  83 116 149 185 232 291 349
#     4  10  21  35  53  81 118 154 190 239 297 352
#     4  10  20  35  56  83 114 152 199 244 290 347
#     4   9  19  36  60  86 113 150 196 240 288 350
#     4  11  23  36  53  79 114 154 195 241 296 355
#     4  11  24  40  59  84 115 151 199 248 296 355
#     4  10  22  38  59  89 114 147 199 245 292 353
#
# _framework density 20.602350000000001
#
# number of rings (size 3 to 8) (size 9 to 14) (size 15 to 20)
#    0.000    2.125    0.000    3.375    1.750    9.500 
#    0.000    0.625    0.000    0.750    0.000    0.000 
#    0.000    0.000    0.000    0.000    0.000    0.000 
#
# Total GULP energy -396725.892080 kJ/mol
# GULP energy per Si atom -12397.684128 kJ/mol
# Density = 2.055546 g / cm^3
# Si number density = 20.602350 Si / 1000 Ang^3
#
#
#
# Elastic Constant Matrix: (Units=GPa)
#
#
# Indices 1 2 3 4 5 6 
#
# 1 83.3442 28.1397 50.5499 0.0000 1.6998 0.0000
# 2 28.1397 67.8861 38.1082 0.0000 -0.6135 0.0000
# 3 50.5499 38.1082 138.8277 0.0000 2.3246 0.0000
# 4 0.0000 0.0000 0.0000 32.2829 0.0000 6.9709
# 5 1.6998 -0.6135 2.3246 0.0000 28.7604 0.0000
# 6 0.0000 0.0000 0.0000 6.9709 0.0000 22.5655
#
#
#
# Elastic Compliance Matrix: (Units=1/GPa)
#
#
# Indices 1 2 3 4 5 6 
#
# 1 0.016301 -0.004063 -0.004809 0.000000 -0.000661 0.000000
# 2 -0.004063 0.018443 -0.003599 0.000000 0.000924 0.000000
# 3 -0.004809 -0.003599 0.009952 0.000000 -0.000597 0.000000
# 4 0.000000 0.000000 0.000000 0.033190 0.000000 -0.010253
# 5 -0.000661 0.000924 -0.000597 0.000000 0.034877 0.000000
# 6 0.000000 0.000000 0.000000 -0.010253 0.000000 0.047483
#
#
# Mechanical properties :
#
#
# Convention : Reuss Voigt Hill
#
# Bulk Modulus (GPa) = 50.62215 58.18375 54.40295
# Shear Modulus (GPa) = 26.07261 28.27244 27.17252
#
# Velocity S-wave (km/s) = 3.56127 3.70846 3.63561
# Velocity P-wave (km/s) = 6.44473 6.82932 6.63981
#
# Compressibility (1/GPa) = 0.01975420
#
# Stress axis : x y z
#
# Youngs Moduli (GPa) = 61.34777 54.22022 100.48220
#
# Poissons Ratio (x) = 0.22031 0.48321
# Poissons Ratio (y) = 0.24927 0.36160
# Poissons Ratio (z) = 0.29501 0.19512
#
# Static dielectric constant tensor:
#      x y z
#    x 3.681070 0.000000 -0.059090 
#    y 0.000000 3.746430 0.000000 
#    z -0.059090 0.000000 4.145420 
# 
# 
# High freq. dielectric constant tensor:
#      x y z
#    x 1.800700 0.000000 0.003780 
#    y 0.000000 1.791450 0.000000 
#    z 0.003780 0.000000 1.816710 
# 
# From -- ./inp_files/250132.got.cif
#   From: 2010.06.25/outbox.cif.g09.slc.cpg/sg12_126_cif.got.tgz:250132.got - 2010.06.28 00:19:55.
