data_PCOD8099666
_publ_section_title
;
Structure prediction by ZEFSAII (Michael W. Deem and Ramdas Pophale) SiO2 
 PCOD8099666
Probable space group: C 2/M
;
_chemical_formula_sum "Si O2"
_cell_formula_units_Z 64
_cell_length_a 25.160458
_cell_length_b 8.826634
_cell_length_c 32.067221
_cell_angle_alpha 90.000000
_cell_angle_beta 152.771769
_cell_angle_gamma 90.000000
_cell_volume 3258.369710
_symmetry_space_group_name_H-M "C 2/M"
_symmetry_group_IT_number 12
_symmetry_cell_setting 'monoclinic'
loop_
_space_group_symop_operation_xyz
x,y,z
-x,y,-z
-x,-y,-z
x,-y,z
1/2+x,1/2+y,z
1/2-x,1/2+y,-z
1/2-x,1/2-y,-z
1/2+x,1/2-y,z
loop_
_atom_site_type_symbol
_atom_site_label
_atom_site_fract_x
_atom_site_fract_y
_atom_site_fract_z
Si Si1 0.344177 0.327651 0.980465
Si Si2 0.243952 0.823069 0.237386
Si Si3 0.097361 0.673505 0.785275
Si Si4 0.431945 0.678800 0.814911
Si Si5 0.099634 0.174545 0.299637
Si Si6 0.440858 0.678623 0.327934
Si Si7 0.631604 0.837085 0.086494
Si Si8 0.688471 0.825713 0.496080
O O1 0.375132 0.500000 0.989073
O O2 0.205671 0.314355 0.893798
O O3 0.356895 0.213162 0.952317
O O4 0.435067 0.276198 0.079748
O O5 0.167169 0.758420 0.222567
O O6 0.364638 0.732035 0.314857
O O7 0.169441 0.795834 0.143873
O O8 0.271321 0.000000 0.261760
O O9 0.076744 0.500000 0.757923
O O10 0.120386 0.764500 0.757936
O O11 0.982680 0.734249 0.726914
O O12 0.418044 0.500000 0.804661
O O13 0.408530 0.744501 0.752518
O O14 0.231314 0.191704 0.407099
O O15 0.059037 0.000000 0.271896
O O16 0.454073 0.500000 0.336351
O O17 0.567609 0.747464 0.421753
O O18 0.698698 0.000000 0.140929
O O19 0.500000 0.874113 0.000000
O O20 0.750000 0.750000 0.500000
O O21 0.666492 0.000000 0.469698
#
# Coordination Sequence:
#
# PCOD8099666 Si02
#       8
#     8   8   8   8   8   8   8   8
#     4  10  20  35  56  83 117 159 203 243 286 344
#     4  11  21  36  60  86 116 157 201 247 296 351
#     4  11  22  35  57  89 122 155 196 242 294 354
#     4   9  20  39  61  84 115 161 208 242 286 350
#     4  10  22  41  63  86 116 155 198 246 297 354
#     4  12  24  38  59  90 124 154 189 247 308 356
#     4  11  21  31  49  81 118 152 196 247 292 341
#     4  11  22  38  64  93 120 151 194 244 303 360
#
# _framework density 19.641725000000001
#
# number of rings (size 3 to 8) (size 9 to 14) (size 15 to 20)
#    0.000    1.375    3.750    2.625    0.000    2.000 
#    0.000    2.500    0.000    3.750    0.000    0.000 
#    0.000    0.000    0.000    0.000    0.000    0.000 
#
# Total GULP energy -396589.713103 kJ/mol
# GULP energy per Si atom -12393.428534 kJ/mol
# Density = 1.959702 g / cm^3
# Si number density = 19.641725 Si / 1000 Ang^3
#
#
#
# Elastic Constant Matrix: (Units=GPa)
#
#
# Indices 1 2 3 4 5 6 
#
# 1 65.9732 25.9794 35.5684 0.0022 2.7117 -0.0003
# 2 25.9794 96.8688 34.5353 0.0005 7.5623 -0.0037
# 3 35.5684 34.5353 115.6924 -0.0106 9.9192 0.0014
# 4 0.0022 0.0005 -0.0106 20.9281 0.0005 5.6419
# 5 2.7117 7.5623 9.9192 0.0005 34.2413 0.0002
# 6 -0.0003 -0.0037 0.0014 5.6419 0.0002 24.0898
#
#
#
# Elastic Compliance Matrix: (Units=1/GPa)
#
#
# Indices 1 2 3 4 5 6 
#
# 1 0.019131 -0.003431 -0.004915 -0.000005 0.000666 0.000001
# 2 -0.003431 0.012253 -0.002455 -0.000002 -0.001723 0.000002
# 3 -0.004915 -0.002455 0.011083 0.000007 -0.002279 -0.000003
# 4 -0.000005 -0.000002 0.000007 0.051003 -0.000002 -0.011945
# 5 0.000666 -0.001723 -0.002279 -0.000002 0.030193 0.000000
# 6 0.000001 0.000002 -0.000003 -0.011945 0.000000 0.044309
#
#
# Mechanical properties :
#
#
# Convention : Reuss Voigt Hill
#
# Bulk Modulus (GPa) = 47.92499 52.30007 50.11253
# Shear Modulus (GPa) = 25.44173 28.01526 26.72849
#
# Velocity S-wave (km/s) = 3.60292 3.78075 3.69291
# Velocity P-wave (km/s) = 6.46224 6.76340 6.61454
#
# Compressibility (1/GPa) = 0.02086594
#
# Stress axis : x y z
#
# Youngs Moduli (GPa) = 52.27156 81.61162 90.22921
#
# Poissons Ratio (x) = 0.27998 0.44344
# Poissons Ratio (y) = 0.17932 0.22153
# Poissons Ratio (z) = 0.25690 0.20038
#
# Static dielectric constant tensor:
#      x y z
#    x 3.674310 0.000000 0.096630 
#    y 0.000000 3.566200 0.000010 
#    z 0.096630 0.000010 3.745010 
# 
# 
# High freq. dielectric constant tensor:
#      x y z
#    x 1.750310 0.000000 0.021160 
#    y 0.000000 1.763120 0.000000 
#    z 0.021160 0.000000 1.770210 
# 
# From -- ./inp_files/382453.got.cif
#   From: 2010.06.25/outbox.cif.g09.slc.cpg/sg12_192_cif.got.tgz:382453.got - 2010.06.28 00:19:55.
