data_PCOD8099104
_publ_section_title
;
Structure prediction by ZEFSAII (Michael W. Deem and Ramdas Pophale) SiO2 
 PCOD8099104
Probable space group: C 2/M
;
_chemical_formula_sum "Si O2"
_cell_formula_units_Z 56
_cell_length_a 19.175045
_cell_length_b 9.034147
_cell_length_c 23.973503
_cell_angle_alpha 90.000000
_cell_angle_beta 132.090488
_cell_angle_gamma 90.000000
_cell_volume 3081.838976
_symmetry_space_group_name_H-M "C 2/M"
_symmetry_group_IT_number 12
_symmetry_cell_setting 'monoclinic'
loop_
_space_group_symop_operation_xyz
x,y,z
-x,y,-z
-x,-y,-z
x,-y,z
1/2+x,1/2+y,z
1/2-x,1/2+y,-z
1/2-x,1/2-y,-z
1/2+x,1/2-y,z
loop_
_atom_site_type_symbol
_atom_site_label
_atom_site_fract_x
_atom_site_fract_y
_atom_site_fract_z
Si Si1 0.707359 0.171324 0.743719
Si Si2 0.950023 0.670148 0.058906
Si Si3 0.804899 0.672440 0.699598
Si Si4 0.646105 0.170380 0.104287
Si Si5 0.185772 0.330208 0.421545
Si Si6 0.477236 0.171812 0.290664
Si Si7 0.003596 0.175077 0.810399
O O1 0.724289 0.263212 0.696341
O O2 0.771929 0.225131 0.829260
O O3 0.599128 0.197190 0.702302
O O4 0.728532 0.000000 0.743637
O O5 0.940059 0.500000 0.071771
O O6 0.052965 0.700464 0.089682
O O7 0.932553 0.774313 0.103043
O O8 0.872619 0.709485 0.970504
O O9 0.820487 0.500000 0.721127
O O10 0.774120 0.697484 0.619157
O O11 0.900979 0.756141 0.764288
O O12 0.677174 0.000000 0.127096
O O13 0.189179 0.500000 0.439869
O O14 0.250000 0.250000 0.500000
O O15 0.078248 0.272567 0.367560
O O16 0.449281 0.265190 0.221008
O O17 0.484855 0.000000 0.276795
O O18 0.996758 0.000000 0.804380
#
# Coordination Sequence:
#
# PCOD8099104 Si02
#       7
#     8   8   8   8   8   8   8
#     4  11  21  34  54  81 108 138 180 223 262 308
#     4   9  17  31  50  73 103 142 180 218 270 320
#     4  10  20  35  55  78 109 145 174 208 263 319
#     4   9  18  31  50  74 104 143 179 216 269 321
#     4   9  19  37  60  82 105 137 173 211 256 309
#     4   9  21  39  55  75 110 147 172 208 269 324
#     4  11  20  31  52  81 104 133 184 232 262 304
#
# _framework density 18.170968999999999
#
# number of rings (size 3 to 8) (size 9 to 14) (size 15 to 20)
#    0.000    2.286    1.429    3.857    0.000    4.571 
#    0.000    2.857    0.000    4.286    0.000    0.000 
#    0.000    0.000    0.000    0.000    0.000    0.000 
#
# Total GULP energy -347207.804802 kJ/mol
# GULP energy per Si atom -12400.278743 kJ/mol
# Density = 1.812961 g / cm^3
# Si number density = 18.170969 Si / 1000 Ang^3
#
#
#
# Elastic Constant Matrix: (Units=GPa)
#
#
# Indices 1 2 3 4 5 6 
#
# 1 90.8435 47.7753 38.3245 0.0000 -4.9533 0.0000
# 2 47.7753 100.5571 45.9512 0.0000 -8.7361 0.0000
# 3 38.3245 45.9512 101.4670 0.0000 -11.6981 0.0000
# 4 0.0000 0.0000 0.0000 33.9238 0.0000 -4.6013
# 5 -4.9533 -8.7361 -11.6981 0.0000 21.2231 0.0000
# 6 0.0000 0.0000 0.0000 -4.6013 0.0000 27.5949
#
#
#
# Elastic Compliance Matrix: (Units=1/GPa)
#
#
# Indices 1 2 3 4 5 6 
#
# 1 0.015448 -0.005919 -0.003224 0.000000 -0.000608 0.000000
# 2 -0.005919 0.014902 -0.004234 0.000000 0.002419 0.000000
# 3 -0.003224 -0.004234 0.013565 0.000000 0.004982 0.000000
# 4 0.000000 0.000000 0.000000 0.030160 0.000000 0.005029
# 5 -0.000608 0.002419 0.004982 0.000000 0.050718 0.000000
# 6 0.000000 0.000000 0.000000 0.005029 0.000000 0.037077
#
#
# Mechanical properties :
#
#
# Convention : Reuss Voigt Hill
#
# Bulk Modulus (GPa) = 58.27491 61.88553 60.08022
# Shear Modulus (GPa) = 25.72759 27.26946 26.49852
#
# Velocity S-wave (km/s) = 3.76688 3.87811 3.82290
# Velocity P-wave (km/s) = 7.14557 7.36100 7.25408
#
# Compressibility (1/GPa) = 0.01716004
#
# Stress axis : x y z
#
# Youngs Moduli (GPa) = 64.73424 67.10693 73.71856
#
# Poissons Ratio (x) = 0.39719 0.23770
# Poissons Ratio (y) = 0.38314 0.31213
# Poissons Ratio (z) = 0.20873 0.28414
#
# Static dielectric constant tensor:
#      x y z
#    x 3.294820 0.000000 -0.148960 
#    y 0.000000 3.311980 0.000000 
#    z -0.148960 0.000000 3.319850 
# 
# 
# High freq. dielectric constant tensor:
#      x y z
#    x 1.690910 0.000000 -0.016140 
#    y 0.000000 1.704730 0.000000 
#    z -0.016140 0.000000 1.693720 
# 
# From -- ./inp_files/280426.got.cif
#   From: 2010.06.25/outbox.cif.g09.slc.cpg/sg12_141_cif.got.tgz:280426.got - 2010.06.28 00:19:55.
