data_PCOD8099992
_publ_section_title
;
Structure prediction by ZEFSAII (Michael W. Deem and Ramdas Pophale) SiO2 
 PCOD8099992
Probable space group: C 2/M
;
_chemical_formula_sum "Si O2"
_cell_formula_units_Z 64
_cell_length_a 20.363355
_cell_length_b 8.996766
_cell_length_c 21.528441
_cell_angle_alpha 90.000000
_cell_angle_beta 119.054246
_cell_angle_gamma 90.000000
_cell_volume 3447.779026
_symmetry_space_group_name_H-M "C 2/M"
_symmetry_group_IT_number 12
_symmetry_cell_setting 'monoclinic'
loop_
_space_group_symop_operation_xyz
x,y,z
-x,y,-z
-x,-y,-z
x,-y,z
1/2+x,1/2+y,z
1/2-x,1/2+y,-z
1/2-x,1/2-y,-z
1/2+x,1/2-y,z
loop_
_atom_site_type_symbol
_atom_site_label
_atom_site_fract_x
_atom_site_fract_y
_atom_site_fract_z
Si Si1 0.590549 0.172276 0.289551
Si Si2 0.466682 0.327587 0.549472
Si Si3 0.317082 0.674755 0.149175
Si Si4 0.649334 0.823541 0.078477
Si Si5 0.077333 0.169617 0.161481
Si Si6 0.328583 0.826759 0.547721
Si Si7 0.097262 0.829269 0.932139
Si Si8 0.455467 0.328451 0.289612
O O1 0.616685 0.260759 0.240408
O O2 0.650532 0.204052 0.371164
O O3 0.509248 0.225304 0.274210
O O4 0.585732 0.000000 0.270419
O O5 0.500000 0.267838 0.500000
O O6 0.444428 0.500000 0.534111
O O7 0.391409 0.238853 0.530808
O O8 0.530952 0.301841 0.631036
O O9 0.310482 0.500000 0.139587
O O10 0.234269 0.741404 0.121517
O O11 0.352246 0.734553 0.100975
O O12 0.370101 0.715599 0.232407
O O13 0.601635 0.758496 0.112359
O O14 0.647561 0.000000 0.081895
O O15 0.611259 0.773732 0.997377
O O16 0.988356 0.183743 0.128631
O O17 0.103357 0.000000 0.166670
O O18 0.250000 0.750000 0.500000
O O19 0.321989 0.000000 0.530300
O O20 0.116940 0.000000 0.957812
O O21 0.472104 0.500000 0.279147
#
# Coordination Sequence:
#
# PCOD8099992 Si02
#       8
#     8   8   8   8   8   8   8   8
#     4  10  20  35  57  85 111 139 182 232 275 316
#     4   9  18  33  56  86 115 146 187 227 269 328
#     4   9  18  35  56  78 105 144 184 220 270 327
#     4  11  23  36  52  80 115 143 177 230 282 321
#     4  11  22  38  59  79 107 146 185 223 271 333
#     4  10  21  37  58  84 115 149 185 229 277 328
#     4  10  20  37  59  78 100 140 190 225 268 333
#     4   9  16  33  58  79 106 147 186 218 262 327
#
# _framework density 18.562674000000001
#
# number of rings (size 3 to 8) (size 9 to 14) (size 15 to 20)
#    0.000    2.125    1.250    2.250    0.000    4.250 
#    2.250    1.875    0.000    0.000    0.000    0.000 
#    0.000    0.000    0.000    0.000    0.000    0.000 
#
# Total GULP energy -396840.094258 kJ/mol
# GULP energy per Si atom -12401.252946 kJ/mol
# Density = 1.852042 g / cm^3
# Si number density = 18.562674 Si / 1000 Ang^3
#
#
#
# Elastic Constant Matrix: (Units=GPa)
#
#
# Indices 1 2 3 4 5 6 
#
# 1 63.5874 35.9412 38.1448 0.0000 -0.7961 0.0000
# 2 35.9412 82.5476 48.7660 0.0000 1.8001 0.0000
# 3 38.1448 48.7660 111.0719 0.0000 -4.7646 0.0000
# 4 0.0000 0.0000 0.0000 27.6166 0.0000 1.5036
# 5 -0.7961 1.8001 -4.7646 0.0000 28.1702 0.0000
# 6 0.0000 0.0000 0.0000 1.5036 0.0000 21.7267
#
#
#
# Elastic Compliance Matrix: (Units=1/GPa)
#
#
# Indices 1 2 3 4 5 6 
#
# 1 0.022494 -0.007082 -0.004602 0.000000 0.000310 0.000000
# 2 -0.007082 0.018732 -0.005895 0.000000 -0.002394 0.000000
# 3 -0.004602 -0.005895 0.013279 0.000000 0.002493 0.000000
# 4 0.000000 0.000000 0.000000 0.036347 0.000000 -0.002515
# 5 0.000310 -0.002394 0.002493 0.000000 0.036082 0.000000
# 6 0.000000 0.000000 0.000000 -0.002515 0.000000 0.046200
#
#
# Mechanical properties :
#
#
# Convention : Reuss Voigt Hill
#
# Bulk Modulus (GPa) = 51.68822 55.87897 53.78360
# Shear Modulus (GPa) = 23.28378 24.45972 23.87175
#
# Velocity S-wave (km/s) = 3.54550 3.63393 3.58999
# Velocity P-wave (km/s) = 6.68330 6.91198 6.79860
#
# Compressibility (1/GPa) = 0.01934677
#
# Stress axis : x y z
#
# Youngs Moduli (GPa) = 44.45653 53.38346 75.30704
#
# Poissons Ratio (x) = 0.37804 0.34660
# Poissons Ratio (y) = 0.31482 0.44395
# Poissons Ratio (z) = 0.20461 0.31470
#
# Static dielectric constant tensor:
#      x y z
#    x 3.448860 0.000000 0.014090 
#    y 0.000000 3.379670 0.000000 
#    z 0.014090 0.000000 3.590270 
# 
# 
# High freq. dielectric constant tensor:
#      x y z
#    x 1.710370 0.000000 -0.002150 
#    y 0.000000 1.713390 0.000000 
#    z -0.002150 0.000000 1.731060 
# 
# From -- ./inp_files/320185.got.cif
#   From: 2010.06.25/outbox.cif.g09.slc.cpg/sg12_161_cif.got.tgz:320185.got - 2010.06.28 00:19:55.
