data_PCOD8099388
_publ_section_title
;
Structure prediction by ZEFSAII (Michael W. Deem and Ramdas Pophale) SiO2 
 PCOD8099388
Probable space group: C 2/M
;
_chemical_formula_sum "Si O2"
_cell_formula_units_Z 48
_cell_length_a 23.743743
_cell_length_b 8.856298
_cell_length_c 12.233289
_cell_angle_alpha 90.000000
_cell_angle_beta 77.935044
_cell_angle_gamma 90.000000
_cell_volume 2515.614494
_symmetry_space_group_name_H-M "C 2/M"
_symmetry_group_IT_number 12
_symmetry_cell_setting 'monoclinic'
loop_
_space_group_symop_operation_xyz
x,y,z
-x,y,-z
-x,-y,-z
x,-y,z
1/2+x,1/2+y,z
1/2-x,1/2+y,-z
1/2-x,1/2-y,-z
1/2+x,1/2-y,z
loop_
_atom_site_type_symbol
_atom_site_label
_atom_site_fract_x
_atom_site_fract_y
_atom_site_fract_z
Si Si1 0.279920 0.679653 0.592365
Si Si2 0.336803 0.176570 0.973328
Si Si3 0.909505 0.178790 0.538718
Si Si4 0.754104 0.176162 0.172369
Si Si5 0.998927 0.821417 0.326534
Si Si6 0.467937 0.821794 0.905335
O O1 0.277978 0.500000 0.585182
O O2 0.250000 0.750000 0.500000
O O3 0.345152 0.743838 0.568459
O O4 0.247708 0.732534 0.714390
O O5 0.302918 0.212288 0.875175
O O6 0.401922 0.233562 0.931773
O O7 0.333138 0.000000 0.004097
O O8 0.310184 0.270300 0.083864
O O9 0.945459 0.238117 0.628532
O O10 0.941174 0.229086 0.414104
O O11 0.908491 0.000000 0.544143
O O12 0.759796 0.000000 0.196325
O O13 0.997310 0.745431 0.209833
O O14 0.001360 0.000000 0.311481
O O15 0.470826 0.000000 0.895943
O O16 0.500000 0.761971 0.000000
#
# Coordination Sequence:
#
# PCOD8099388 Si02
#       6
#     8   8   8   8   8   8
#     4  11  22  36  53  76 108 142 174 210 258 311
#     4   9  19  36  56  77 104 138 174 214 259 308
#     4   8  17  34  56  79 102 130 167 214 259 301
#     4  10  20  35  56  80 103 132 176 222 261 303
#     4   9  17  34  58  79  99 129 172 215 255 300
#     4  10  21  35  50  74 109 141 168 205 256 307
#
# _framework density 19.080824
#
# number of rings (size 3 to 8) (size 9 to 14) (size 15 to 20)
#    0.000    2.500    0.000    3.000    0.000    3.000 
#    0.000    7.500    0.000    0.000    0.000    0.000 
#    0.000    0.000    0.000    0.000    0.000    0.000 
#
# Total GULP energy -297631.981887 kJ/mol
# GULP energy per Si atom -12401.332579 kJ/mol
# Density = 1.903740 g / cm^3
# Si number density = 19.080824 Si / 1000 Ang^3
#
#
#
# Elastic Constant Matrix: (Units=GPa)
#
#
# Indices 1 2 3 4 5 6 
#
# 1 44.0952 16.8696 37.7880 0.0000 4.8095 0.0000
# 2 16.8696 43.3600 37.4827 0.0000 3.3347 0.0000
# 3 37.7880 37.4827 151.1114 0.0000 12.3345 0.0000
# 4 0.0000 0.0000 0.0000 31.7337 0.0000 3.9867
# 5 4.8095 3.3347 12.3345 0.0000 25.0138 0.0000
# 6 0.0000 0.0000 0.0000 3.9867 0.0000 19.9272
#
#
#
# Elastic Compliance Matrix: (Units=1/GPa)
#
#
# Indices 1 2 3 4 5 6 
#
# 1 0.030413 -0.006676 -0.005777 0.000000 -0.002109 0.000000
# 2 -0.006676 0.030826 -0.005987 0.000000 0.000126 0.000000
# 3 -0.005777 -0.005987 0.009785 0.000000 -0.002916 0.000000
# 4 0.000000 0.000000 0.000000 0.032325 0.000000 -0.006467
# 5 -0.002109 0.000126 -0.002916 0.000000 0.041805 0.000000
# 6 0.000000 0.000000 0.000000 -0.006467 0.000000 0.051476
#
#
# Mechanical properties :
#
#
# Convention : Reuss Voigt Hill
#
# Bulk Modulus (GPa) = 29.28804 46.98302 38.13553
# Shear Modulus (GPa) = 20.41712 25.09672 22.75692
#
# Velocity S-wave (km/s) = 3.27469 3.63062 3.45724
# Velocity P-wave (km/s) = 5.44802 6.50014 5.99719
#
# Compressibility (1/GPa) = 0.03414363
#
# Stress axis : x y z
#
# Youngs Moduli (GPa) = 32.88049 32.44011 102.19262
#
# Poissons Ratio (x) = 0.21658 0.59038
# Poissons Ratio (y) = 0.21952 0.61184
# Poissons Ratio (z) = 0.18996 0.19422
#
# Static dielectric constant tensor:
#      x y z
#    x 3.764920 0.000000 -0.075090 
#    y 0.000000 3.231670 0.000000 
#    z -0.075090 0.000000 3.550450 
# 
# 
# High freq. dielectric constant tensor:
#      x y z
#    x 1.741390 0.000000 -0.004580 
#    y 0.000000 1.723030 0.000000 
#    z -0.004580 0.000000 1.751790 
# 
# From -- ./inp_files/172320.got.cif
#   From: 2010.06.25/outbox.cif.g09.slc.cpg/sg12_87_cif.got.tgz:172320.got - 2010.06.28 00:19:55.
