data_PCOD8099444
_publ_section_title
;
Structure prediction by ZEFSAII (Michael W. Deem and Ramdas Pophale) SiO2 
 PCOD8099444
Probable space group: C 2/M
;
_chemical_formula_sum "Si O2"
_cell_formula_units_Z 56
_cell_length_a 17.872809
_cell_length_b 8.903059
_cell_length_c 18.521100
_cell_angle_alpha 90.000000
_cell_angle_beta 103.506723
_cell_angle_gamma 90.000000
_cell_volume 2865.616840
_symmetry_space_group_name_H-M "C 2/M"
_symmetry_group_IT_number 12
_symmetry_cell_setting 'monoclinic'
loop_
_space_group_symop_operation_xyz
x,y,z
-x,y,-z
-x,-y,-z
x,-y,z
1/2+x,1/2+y,z
1/2-x,1/2+y,-z
1/2-x,1/2-y,-z
1/2+x,1/2-y,z
loop_
_atom_site_type_symbol
_atom_site_label
_atom_site_fract_x
_atom_site_fract_y
_atom_site_fract_z
Si Si1 0.058306 0.328033 0.078386
Si Si2 0.728075 0.822654 0.070211
Si Si3 0.374162 0.822460 0.647791
Si Si4 0.845602 0.821365 0.217701
Si Si5 0.202132 0.821559 0.636983
Si Si6 0.514660 0.322884 0.213398
Si Si7 0.585197 0.327180 0.489991
O O1 0.061065 0.500000 0.106768
O O2 0.142223 0.274174 0.072279
O O3 0.028918 0.219552 0.134162
O O4 0.000000 0.309596 0.000000
O O5 0.785714 0.760841 0.144664
O O6 0.734991 0.000000 0.063138
O O7 0.750000 0.750000 0.000000
O O8 0.286850 0.764280 0.635743
O O9 0.421681 0.755150 0.723890
O O10 0.408531 0.770230 0.580098
O O11 0.378231 0.000000 0.653929
O O12 0.822108 0.755500 0.290589
O O13 0.930660 0.763483 0.217624
O O14 0.842977 0.000000 0.218532
O O15 0.143698 0.761936 0.562894
O O16 0.198025 0.000000 0.639151
O O17 0.520739 0.500000 0.225142
O O18 0.500000 0.309310 0.500000
O O19 0.603919 0.500000 0.475598
#
# Coordination Sequence:
#
# PCOD8099444 Si02
#       7
#     8   8   8   8   8   8   8
#     4  10  21  37  57  82 113 146 178 219 275 331
#     4  10  20  35  56  80 109 144 180 220 267 320
#     4  11  22  36  56  81 112 146 178 220 274 327
#     4   9  18  34  55  78 104 139 182 223 265 314
#     4   9  18  34  56  80 107 141 179 219 268 324
#     4  11  22  36  57  82 108 142 186 230 267 313
#     4  10  20  36  59  83 108 141 181 224 268 320
#
# _framework density 19.54204
#
# number of rings (size 3 to 8) (size 9 to 14) (size 15 to 20)
#    0.000    2.000    0.000    3.857    0.000    5.714 
#    0.000    1.429    0.000    6.000    0.000    0.000 
#    0.000    0.000    0.000    0.000    0.000    0.000 
#
# Total GULP energy -347310.386254 kJ/mol
# GULP energy per Si atom -12403.942366 kJ/mol
# Density = 1.949756 g / cm^3
# Si number density = 19.542040 Si / 1000 Ang^3
#
#
#
# Elastic Constant Matrix: (Units=GPa)
#
#
# Indices 1 2 3 4 5 6 
#
# 1 124.8845 35.5287 40.1970 0.0000 7.5693 0.0000
# 2 35.5287 42.8674 28.5116 0.0000 -1.7698 0.0000
# 3 40.1970 28.5116 112.3608 0.0000 2.2982 0.0000
# 4 0.0000 0.0000 0.0000 28.8371 0.0000 -1.7427
# 5 7.5693 -1.7698 2.2982 0.0000 45.2816 0.0000
# 6 0.0000 0.0000 0.0000 -1.7427 0.0000 21.7628
#
#
#
# Elastic Compliance Matrix: (Units=1/GPa)
#
#
# Indices 1 2 3 4 5 6 
#
# 1 0.010998 -0.007953 -0.001874 0.000000 -0.002054 0.000000
# 2 -0.007953 0.033912 -0.005820 0.000000 0.002950 0.000000
# 3 -0.001874 -0.005820 0.011057 0.000000 -0.000475 0.000000
# 4 0.000000 0.000000 0.000000 0.034846 0.000000 0.002790
# 5 -0.002054 0.002950 -0.000475 0.000000 0.022567 0.000000
# 6 0.000000 0.000000 0.000000 0.002790 0.000000 0.046173
#
#
# Mechanical properties :
#
#
# Convention : Reuss Voigt Hill
#
# Bulk Modulus (GPa) = 40.53259 54.28748 47.41004
# Shear Modulus (GPa) = 25.11635 30.90132 28.00884
#
# Velocity S-wave (km/s) = 3.58892 3.98084 3.78995
# Velocity P-wave (km/s) = 6.16118 6.99783 6.59279
#
# Compressibility (1/GPa) = 0.02467150
#
# Stress axis : x y z
#
# Youngs Moduli (GPa) = 90.92706 29.48769 90.43978
#
# Poissons Ratio (x) = 0.23452 0.16951
# Poissons Ratio (y) = 0.72316 0.52639
# Poissons Ratio (z) = 0.17043 0.17163
#
# Static dielectric constant tensor:
#      x y z
#    x 3.817620 0.000000 0.119610 
#    y 0.000000 3.258290 0.000000 
#    z 0.119610 0.000000 3.799890 
# 
# 
# High freq. dielectric constant tensor:
#      x y z
#    x 1.781010 0.000000 0.003640 
#    y 0.000000 1.727120 0.000000 
#    z 0.003640 0.000000 1.780380 
# 
# From -- ./inp_files/275633.got.cif
#   From: 2010.06.25/outbox.cif.g09.slc.cpg/sg12_138_cif.got.tgz:275633.got - 2010.06.28 00:19:55.
