data_PCOD8099012
_publ_section_title
;
Structure prediction by ZEFSAII (Michael W. Deem and Ramdas Pophale) SiO2 
 PCOD8099012
Probable space group: C 2/M
;
_chemical_formula_sum "Si O2"
_cell_formula_units_Z 56
_cell_length_a 27.242244
_cell_length_b 8.959593
_cell_length_c 11.808924
_cell_angle_alpha 90.000000
_cell_angle_beta 103.745624
_cell_angle_gamma 90.000000
_cell_volume 2799.766430
_symmetry_space_group_name_H-M "C 2/M"
_symmetry_group_IT_number 12
_symmetry_cell_setting 'monoclinic'
loop_
_space_group_symop_operation_xyz
x,y,z
-x,y,-z
-x,-y,-z
x,-y,z
1/2+x,1/2+y,z
1/2-x,1/2+y,-z
1/2-x,1/2-y,-z
1/2+x,1/2-y,z
loop_
_atom_site_type_symbol
_atom_site_label
_atom_site_fract_x
_atom_site_fract_y
_atom_site_fract_z
Si Si1 0.804411 0.323599 0.015932
Si Si2 0.874671 0.171774 0.430096
Si Si3 0.391514 0.672584 0.188772
Si Si4 0.228697 0.670341 0.597402
Si Si5 0.507672 0.322092 0.876707
Si Si6 0.413268 0.676507 0.686908
Si Si7 0.676173 0.328940 0.200204
O O1 0.798028 0.500000 0.019648
O O2 0.841812 0.268714 0.135062
O O3 0.750000 0.250000 0.000000
O O4 0.829687 0.275529 0.911644
O O5 0.905178 0.190451 0.329518
O O6 0.822972 0.259826 0.389088
O O7 0.907969 0.233112 0.553978
O O8 0.860549 0.000000 0.446034
O O9 0.380337 0.500000 0.153475
O O10 0.438833 0.734123 0.142620
O O11 0.219752 0.500000 0.559467
O O12 0.250000 0.750000 0.500000
O O13 0.267518 0.686607 0.721813
O O14 0.506064 0.500000 0.874517
O O15 0.463205 0.255213 0.772956
O O16 0.500000 0.261627 0.000000
O O17 0.417950 0.500000 0.691442
O O18 0.363628 0.727926 0.728151
O O19 0.664382 0.500000 0.158958
#
# Coordination Sequence:
#
# PCOD8099012 Si02
#       7
#     8   8   8   8   8   8   8
#     4  12  25  40  59  83 113 149 190 237 287 344
#     4  10  20  35  54  82 118 152 193 240 286 339
#     4  10  21  37  59  86 116 152 193 239 289 342
#     4  11  21  34  55  82 115 153 190 231 282 340
#     4   9  17  31  56  86 114 149 193 240 288 337
#     4   9  17  32  55  84 116 148 188 237 286 335
#     4  10  20  36  58  83 114 152 192 237 286 336
#
# _framework density 20.001670000000001
#
# number of rings (size 3 to 8) (size 9 to 14) (size 15 to 20)
#    0.000    1.857    1.429    3.429    0.000    6.857 
#    0.000    2.857    0.000    4.714    0.000    2.000 
#    0.000    0.000    0.000    0.000    0.000    0.000 
#
# Total GULP energy -347238.834580 kJ/mol
# GULP energy per Si atom -12401.386949 kJ/mol
# Density = 1.995614 g / cm^3
# Si number density = 20.001670 Si / 1000 Ang^3
#
#
#
# Elastic Constant Matrix: (Units=GPa)
#
#
# Indices 1 2 3 4 5 6 
#
# 1 128.9776 31.1498 66.2525 0.0000 5.7564 0.0000
# 2 31.1498 73.8330 37.4290 0.0000 0.7187 0.0000
# 3 66.2525 37.4290 147.4477 0.0000 -0.0185 0.0000
# 4 0.0000 0.0000 0.0000 24.0959 0.0000 0.5771
# 5 5.7564 0.7187 -0.0185 0.0000 38.4538 0.0000
# 6 0.0000 0.0000 0.0000 0.5771 0.0000 19.9616
#
#
#
# Elastic Compliance Matrix: (Units=1/GPa)
#
#
# Indices 1 2 3 4 5 6 
#
# 1 0.010504 -0.002323 -0.004130 0.000000 -0.001531 0.000000
# 2 -0.002323 0.016061 -0.003033 0.000000 0.000046 0.000000
# 3 -0.004130 -0.003033 0.009408 0.000000 0.000680 0.000000
# 4 0.000000 0.000000 0.000000 0.041530 0.000000 -0.001201
# 5 -0.001531 0.000046 0.000680 0.000000 0.026234 0.000000
# 6 0.000000 0.000000 0.000000 -0.001201 0.000000 0.050131
#
#
# Mechanical properties :
#
#
# Convention : Reuss Voigt Hill
#
# Bulk Modulus (GPa) = 58.82224 68.88011 63.85117
# Shear Modulus (GPa) = 28.00987 30.86406 29.43697
#
# Velocity S-wave (km/s) = 3.74622 3.93246 3.84047
# Velocity P-wave (km/s) = 6.94152 7.42502 7.18734
#
# Compressibility (1/GPa) = 0.01700037
#
# Stress axis : x y z
#
# Youngs Moduli (GPa) = 95.19889 62.26106 106.29170
#
# Poissons Ratio (x) = 0.14463 0.43903
# Poissons Ratio (y) = 0.22114 0.32242
# Poissons Ratio (z) = 0.39321 0.18886
#
# Static dielectric constant tensor:
#      x y z
#    x 3.397060 0.000000 0.059680 
#    y 0.000000 3.362550 0.000000 
#    z 0.059680 0.000000 3.897490 
# 
# 
# High freq. dielectric constant tensor:
#      x y z
#    x 1.780590 0.000000 -0.003440 
#    y 0.000000 1.736840 0.000000 
#    z -0.003440 0.000000 1.798800 
# 
# From -- ./inp_files/181041.got.cif
#   From: 2010.06.25/outbox.cif.g09.slc.cpg/sg12_91_cif.got.tgz:181041.got - 2010.06.28 00:19:55.
