data_PCOD8099994
_publ_section_title
;
Structure prediction by ZEFSAII (Michael W. Deem and Ramdas Pophale) SiO2 
 PCOD8099994
Probable space group: C 2/M
;
_chemical_formula_sum "Si O2"
_cell_formula_units_Z 64
_cell_length_a 15.581074
_cell_length_b 8.973428
_cell_length_c 25.112371
_cell_angle_alpha 90.000000
_cell_angle_beta 72.086833
_cell_angle_gamma 90.000000
_cell_volume 3340.897276
_symmetry_space_group_name_H-M "C 2/M"
_symmetry_group_IT_number 12
_symmetry_cell_setting 'monoclinic'
loop_
_space_group_symop_operation_xyz
x,y,z
-x,y,-z
-x,-y,-z
x,-y,z
1/2+x,1/2+y,z
1/2-x,1/2+y,-z
1/2-x,1/2-y,-z
1/2+x,1/2-y,z
loop_
_atom_site_type_symbol
_atom_site_label
_atom_site_fract_x
_atom_site_fract_y
_atom_site_fract_z
Si Si1 0.716281 0.676867 0.060003
Si Si2 0.835778 0.170484 0.624642
Si Si3 0.465225 0.674977 0.255977
Si Si4 0.706817 0.167641 0.741675
Si Si5 0.480186 0.677056 0.867691
Si Si6 0.782781 0.823385 0.439936
Si Si7 0.159523 0.672982 0.867320
Si Si8 0.021352 0.823135 0.630769
O O1 0.720193 0.500000 0.054486
O O2 0.613848 0.730860 0.089400
O O3 0.779987 0.733648 0.095761
O O4 0.750000 0.750000 0.000000
O O5 0.800706 0.183310 0.692314
O O6 0.782653 0.277643 0.595482
O O7 0.940290 0.222875 0.606658
O O8 0.827396 0.000000 0.605832
O O9 0.476347 0.500000 0.254292
O O10 0.360235 0.714870 0.271838
O O11 0.517144 0.738002 0.194028
O O12 0.499324 0.741447 0.305855
O O13 0.717796 0.201950 0.802437
O O14 0.667933 0.000000 0.742219
O O15 0.489278 0.500000 0.867291
O O16 0.563678 0.743079 0.885042
O O17 0.750000 0.750000 0.500000
O O18 0.883674 0.762047 0.409425
O O19 0.781016 0.000000 0.446307
O O20 0.137973 0.500000 0.879170
O O21 0.027364 0.000000 0.633796
#
# Coordination Sequence:
#
# PCOD8099994 Si02
#       8
#     8   8   8   8   8   8   8   8
#     4  10  22  38  55  78 108 146 188 228 270 324
#     4  10  20  35  57  85 111 142 180 221 270 324
#     4   9  16  31  55  80 109 142 178 219 269 326
#     4   9  17  30  53  82 112 139 172 220 272 324
#     4   9  19  34  55  81 108 140 181 227 272 321
#     4  11  23  41  60  80 110 148 187 227 269 318
#     4   9  19  35  54  79 110 143 178 220 274 328
#     4   9  19  34  56  83 110 143 180 218 267 326
#
# _framework density 19.15653
#
# number of rings (size 3 to 8) (size 9 to 14) (size 15 to 20)
#    0.000    2.500    1.250    0.375    1.750    2.000 
#    0.000    6.875    0.000    0.000    0.000    0.000 
#    0.000    0.000    0.000    0.000    0.000    0.000 
#
# Total GULP energy -396648.956760 kJ/mol
# GULP energy per Si atom -12395.279899 kJ/mol
# Density = 1.911293 g / cm^3
# Si number density = 19.156530 Si / 1000 Ang^3
#
#
#
# Elastic Constant Matrix: (Units=GPa)
#
#
# Indices 1 2 3 4 5 6 
#
# 1 146.4026 28.5057 81.2575 0.0000 -4.5283 0.0000
# 2 28.5057 27.2823 31.8246 0.0000 -0.4957 0.0000
# 3 81.2575 31.8246 132.4944 0.0000 -0.7268 0.0000
# 4 0.0000 0.0000 0.0000 28.0857 0.0000 1.2736
# 5 -4.5283 -0.4957 -0.7268 0.0000 25.5616 0.0000
# 6 0.0000 0.0000 0.0000 1.2736 0.0000 27.9851
#
#
#
# Elastic Compliance Matrix: (Units=1/GPa)
#
#
# Indices 1 2 3 4 5 6 
#
# 1 0.010888 -0.004956 -0.005478 0.000000 0.001677 0.000000
# 2 -0.004956 0.053187 -0.009737 0.000000 -0.000123 0.000000
# 3 -0.005478 -0.009737 0.013241 0.000000 -0.000783 0.000000
# 4 0.000000 0.000000 0.000000 0.035679 0.000000 -0.001624
# 5 0.001677 -0.000123 -0.000783 0.000000 0.039394 0.000000
# 6 0.000000 0.000000 0.000000 -0.001624 0.000000 0.035807
#
#
# Mechanical properties :
#
#
# Convention : Reuss Voigt Hill
#
# Bulk Modulus (GPa) = 27.04460 65.48390 46.26425
# Shear Modulus (GPa) = 20.75881 27.29923 24.02902
#
# Velocity S-wave (km/s) = 3.29544 3.77909 3.54552
# Velocity P-wave (km/s) = 5.35054 7.30068 6.40032
#
# Compressibility (1/GPa) = 0.03697596
#
# Stress axis : x y z
#
# Youngs Moduli (GPa) = 91.84836 18.80146 75.52089
#
# Poissons Ratio (x) = 0.09317 0.41368
# Poissons Ratio (y) = 0.45516 0.73534
# Poissons Ratio (z) = 0.50312 0.18307
#
# Static dielectric constant tensor:
#      x y z
#    x 3.578370 0.000000 -0.010740 
#    y 0.000000 3.293870 0.000000 
#    z -0.010740 0.000000 3.715550 
# 
# 
# High freq. dielectric constant tensor:
#      x y z
#    x 1.743990 0.000000 -0.000490 
#    y 0.000000 1.718230 0.000000 
#    z -0.000490 0.000000 1.751660 
# 
# From -- ./inp_files/359690.got.cif
#   From: 2010.06.25/outbox.cif.g09.slc.cpg/sg12_180_cif.got.tgz:359690.got - 2010.06.28 00:19:55.
