data_PCOD8099248
_publ_section_title
;
Structure prediction by ZEFSAII (Michael W. Deem and Ramdas Pophale) SiO2 
 PCOD8099248
Probable space group: C 2/M
;
_chemical_formula_sum "Si O2"
_cell_formula_units_Z 48
_cell_length_a 28.834905
_cell_length_b 21.565608
_cell_length_c 12.764322
_cell_angle_alpha 90.000000
_cell_angle_beta 19.447944
_cell_angle_gamma 90.000000
_cell_volume 2642.757873
_symmetry_space_group_name_H-M "C 2/M"
_symmetry_group_IT_number 12
_symmetry_cell_setting 'monoclinic'
loop_
_space_group_symop_operation_xyz
x,y,z
-x,y,-z
-x,-y,-z
x,-y,z
1/2+x,1/2+y,z
1/2-x,1/2+y,-z
1/2-x,1/2-y,-z
1/2+x,1/2-y,z
loop_
_atom_site_type_symbol
_atom_site_label
_atom_site_fract_x
_atom_site_fract_y
_atom_site_fract_z
Si Si1 0.054281 0.140899 0.272100
Si Si2 0.738392 0.626565 0.177305
Si Si3 0.504630 0.190018 0.867234
Si Si4 0.210963 0.751822 0.820726
Si Si5 0.303328 0.070921 0.825304
Si Si6 0.456692 0.929534 0.849432
O O1 0.000000 0.165307 0.500000
O O2 0.925996 0.111399 0.480228
O O3 0.115782 0.198010 0.078823
O O4 0.168582 0.087230 0.042557
O O5 0.759265 0.698828 0.157673
O O6 0.813272 0.613241 0.907090
O O7 0.802326 0.584285 0.133635
O O8 0.645882 0.218102 0.521229
O O9 0.495693 0.116649 0.860557
O O10 0.500000 0.199635 0.000000
O O11 0.371660 0.224925 0.102545
O O12 0.440196 0.083257 0.466495
O O13 0.292387 0.000000 0.884885
O O14 0.466321 0.000000 0.870638
#
# Coordination Sequence:
#
# PCOD8099248 Si02
#       6
#     8   8   8   8   8   8
#     4  10  21  34  53  82 114 152 182 220 270 332
#     4  10  21  33  55  82 115 147 183 222 272 332
#     4  11  23  39  62  83 107 146 189 240 287 328
#     4  11  21  39  56  84 114 143 186 232 284 332
#     4  10  20  35  55  81 114 154 189 220 265 331
#     4  10  21  37  58  83 113 147 187 232 277 327
#
# _framework density 18.162844
#
# number of rings (size 3 to 8) (size 9 to 14) (size 15 to 20)
#    0.000    1.667    3.333    1.500    0.000   10.667 
#    0.000    0.000    0.000    0.000    0.000    1.167 
#    0.000    0.000    0.000    0.000    0.000    0.000 
#
# Total GULP energy -297630.514974 kJ/mol
# GULP energy per Si atom -12401.271457 kJ/mol
# Density = 1.812150 g / cm^3
# Si number density = 18.162844 Si / 1000 Ang^3
#
#
#
# Elastic Constant Matrix: (Units=GPa)
#
#
# Indices 1 2 3 4 5 6 
#
# 1 95.5560 45.5531 35.2893 -0.0003 -11.5789 0.0000
# 2 45.5531 79.7274 33.5499 -0.0011 1.6847 0.0002
# 3 35.2893 33.5499 65.8143 -0.0005 -16.9800 -0.0003
# 4 -0.0003 -0.0011 -0.0005 19.4558 -0.0002 -1.2980
# 5 -11.5789 1.6847 -16.9800 -0.0002 27.6847 0.0001
# 6 0.0000 0.0002 -0.0003 -1.2980 0.0001 19.4206
#
#
#
# Elastic Compliance Matrix: (Units=1/GPa)
#
#
# Indices 1 2 3 4 5 6 
#
# 1 0.016073 -0.007938 -0.003223 0.000000 0.005229 0.000000
# 2 -0.007938 0.021151 -0.009165 0.000001 -0.010228 0.000000
# 3 -0.003223 -0.009165 0.025411 0.000000 0.014795 0.000000
# 4 0.000000 0.000001 0.000000 0.051629 0.000000 0.003451
# 5 0.005229 -0.010228 0.014795 0.000000 0.048005 0.000000
# 6 0.000000 0.000000 0.000000 0.003451 0.000000 0.051722
#
#
# Mechanical properties :
#
#
# Convention : Reuss Voigt Hill
#
# Bulk Modulus (GPa) = 45.48609 52.20914 48.84762
# Shear Modulus (GPa) = 19.08620 21.75923 20.42271
#
# Velocity S-wave (km/s) = 3.24518 3.46498 3.35688
# Velocity P-wave (km/s) = 6.25615 6.69444 6.47900
#
# Compressibility (1/GPa) = 0.02198474
#
# Stress axis : x y z
#
# Youngs Moduli (GPa) = 62.21651 47.27988 39.35252
#
# Poissons Ratio (x) = 0.37529 0.12683
# Poissons Ratio (y) = 0.49386 0.36065
# Poissons Ratio (z) = 0.20051 0.43330
#
# Static dielectric constant tensor:
#      x y z
#    x 3.305560 0.000000 -0.285820 
#    y 0.000000 3.378080 0.000000 
#    z -0.285820 0.000000 3.480980 
# 
# 
# High freq. dielectric constant tensor:
#      x y z
#    x 1.696120 0.000000 -0.024040 
#    y 0.000000 1.704740 0.000000 
#    z -0.024040 0.000000 1.707220 
# 
# From -- ./inp_files/121854.got.cif
#   From: 2010.06.25/outbox.cif.g09.slc.cpg/sg12_61_cif.got.tgz:121854.got - 2010.06.28 00:19:55.
