data_PCOD8099829
_publ_section_title
;
Structure prediction by ZEFSAII (Michael W. Deem and Ramdas Pophale) SiO2 
 PCOD8099829
Probable space group: C 2/M
;
_chemical_formula_sum "Si O2"
_cell_formula_units_Z 48
_cell_length_a 8.307793
_cell_length_b 12.623993
_cell_length_c 23.433540
_cell_angle_alpha 90.000000
_cell_angle_beta 108.577452
_cell_angle_gamma 90.000000
_cell_volume 2329.592836
_symmetry_space_group_name_H-M "C 2/M"
_symmetry_group_IT_number 12
_symmetry_cell_setting 'monoclinic'
loop_
_space_group_symop_operation_xyz
x,y,z
-x,y,-z
-x,-y,-z
x,-y,z
1/2+x,1/2+y,z
1/2-x,1/2+y,-z
1/2-x,1/2-y,-z
1/2+x,1/2-y,z
loop_
_atom_site_type_symbol
_atom_site_label
_atom_site_fract_x
_atom_site_fract_y
_atom_site_fract_z
Si Si1 0.088365 0.381106 0.291596
Si Si2 0.080925 0.795679 0.863504
Si Si3 0.744121 0.295371 0.226205
Si Si4 0.694471 0.674419 0.579229
Si Si5 0.572479 0.120887 0.069813
Si Si6 0.317034 0.617111 0.550256
O O1 0.126113 0.500000 0.273649
O O2 0.178353 0.297851 0.260102
O O3 0.159424 0.367199 0.363087
O O4 0.883239 0.367385 0.273707
O O5 0.165475 0.753524 0.816996
O O6 0.221592 0.866696 0.911231
O O7 0.916220 0.859508 0.819926
O O8 0.017308 0.698508 0.895581
O O9 0.512833 0.645212 0.584712
O O10 0.723249 0.620073 0.521426
O O11 0.700293 0.801728 0.572153
O O12 0.529946 0.000000 0.082346
O O13 0.500000 0.149242 0.000000
O O14 0.277528 0.500000 0.569092
#
# Coordination Sequence:
#
# PCOD8099829 Si02
#       6
#     8   8   8   8   8   8
#     4  11  21  37  57  78 109 141 179 232 274 313
#     4   9  19  37  56  79 116 145 177 227 264 312
#     4   9  21  36  54  81 105 143 190 216 263 330
#     4  10  20  35  57  82 107 140 183 224 273 340
#     4  10  20  35  59  86 111 145 183 220 270 320
#     4  10  20  37  56  78 110 143 176 222 281 334
#
# _framework density 20.604458000000001
#
# number of rings (size 3 to 8) (size 9 to 14) (size 15 to 20)
#    0.000    2.167    0.000    3.500    0.000    6.667 
#    0.000   15.833    0.000    9.000    0.000    0.000 
#    0.000    0.000    0.000    0.000    0.000    0.000 
#
# Total GULP energy -297370.793261 kJ/mol
# GULP energy per Si atom -12390.449719 kJ/mol
# Density = 2.055756 g / cm^3
# Si number density = 20.604458 Si / 1000 Ang^3
#
#
#
# Elastic Constant Matrix: (Units=GPa)
#
#
# Indices 1 2 3 4 5 6 
#
# 1 80.9944 23.1093 54.5468 0.0000 23.3185 0.0000
# 2 23.1093 117.7727 23.1279 0.0000 2.5509 0.0000
# 3 54.5468 23.1279 118.8668 0.0000 42.0626 0.0000
# 4 0.0000 0.0000 0.0000 -5.8660 0.0000 -2.8584
# 5 23.3185 2.5509 42.0626 0.0000 38.9499 0.0000
# 6 0.0000 0.0000 0.0000 -2.8584 0.0000 29.7870
#
#
#
# Elastic Compliance Matrix: (Units=1/GPa)
#
#
# Indices 1 2 3 4 5 6 
#
# 1 0.018629 -0.002236 -0.006828 0.000000 -0.003632 0.000000
# 2 -0.002236 0.009201 -0.001658 0.000000 0.002527 0.000000
# 3 -0.006828 -0.001658 0.016806 0.000000 -0.013953 0.000000
# 4 0.000000 0.000000 0.000000 -0.162858 0.000000 -0.015628
# 5 -0.003632 0.002527 -0.013953 0.000000 0.042751 0.000000
# 6 0.000000 0.000000 0.000000 -0.015628 0.000000 0.032072
#
#
# Mechanical properties :
#
#
# Convention : Reuss Voigt Hill
#
# Bulk Modulus (GPa) = 43.12012 57.68909 50.40460
# Shear Modulus (GPa) = -351.49632 27.03082 -162.23275
#
# Velocity S-wave (km/s) = -13.07527 3.62593 -8.88300
# Velocity P-wave (km/s) = 14.38670 6.75196 8.98299
#
# Compressibility (1/GPa) = 0.02319103
#
# Stress axis : x y z
#
# Youngs Moduli (GPa) = 53.68053 108.68903 59.50176
#
# Poissons Ratio (x) = 0.24300 0.40629
# Poissons Ratio (y) = 0.12002 0.09867
# Poissons Ratio (z) = 0.36654 0.18024
#
# Static dielectric constant tensor:
#      x y z
#    x 5.026170 0.000000 1.370950 
#    y 0.000000 3.120610 0.000000 
#    z 1.370950 0.000000 4.917160 
# 
# 
# High freq. dielectric constant tensor:
#      x y z
#    x 1.809400 0.000000 0.024070 
#    y 0.000000 1.785670 0.000000 
#    z 0.024070 0.000000 1.817930 
# 
# From -- ./inp_files/332267.got.cif
#   From: 2010.06.25/outbox.cif.g09.slc.cpg/sg12_167_cif.got.tgz:332267.got - 2010.06.28 00:19:55.
