data_PCOD8099806
_publ_section_title
;
Structure prediction by ZEFSAII (Michael W. Deem and Ramdas Pophale) SiO2 
 PCOD8099806
Probable space group: C 2/M
;
_chemical_formula_sum "Si O2"
_cell_formula_units_Z 56
_cell_length_a 9.178111
_cell_length_b 15.515895
_cell_length_c 26.513994
_cell_angle_alpha 90.000000
_cell_angle_beta 139.016740
_cell_angle_gamma 90.000000
_cell_volume 2476.293960
_symmetry_space_group_name_H-M "C 2/M"
_symmetry_group_IT_number 12
_symmetry_cell_setting 'monoclinic'
loop_
_space_group_symop_operation_xyz
x,y,z
-x,y,-z
-x,-y,-z
x,-y,z
1/2+x,1/2+y,z
1/2-x,1/2+y,-z
1/2-x,1/2-y,-z
1/2+x,1/2-y,z
loop_
_atom_site_type_symbol
_atom_site_label
_atom_site_fract_x
_atom_site_fract_y
_atom_site_fract_z
Si Si1 0.853483 0.397213 0.857026
Si Si2 0.772951 0.169368 0.468238
Si Si3 0.499857 0.397746 0.154045
Si Si4 0.499793 0.897384 0.692457
Si Si5 0.762740 0.405491 0.444409
Si Si6 0.348794 0.602858 0.006253
Si Si7 0.201195 0.103022 0.708835
O O1 0.849528 0.500000 0.855651
O O2 0.675489 0.361196 0.850868
O O3 0.796305 0.361797 0.786348
O O4 0.097594 0.362801 0.934782
O O5 0.750000 0.250000 0.500000
O O6 0.576221 0.155514 0.376673
O O7 0.783806 0.086628 0.507901
O O8 0.000000 0.178446 0.500000
O O9 0.482936 0.500000 0.148195
O O10 0.746796 0.368697 0.233019
O O11 0.442576 0.360964 0.083639
O O12 0.357918 0.866996 0.703945
O O13 0.477258 0.000000 0.677956
O O14 0.788964 0.500000 0.427021
O O15 0.550841 0.358823 0.362845
O O16 0.000000 0.355055 0.500000
O O17 0.352318 0.500000 0.006676
O O18 0.500000 0.638443 0.000000
O O19 0.186913 0.000000 0.704522
#
# Coordination Sequence:
#
# PCOD8099806 Si02
#       7
#     8   8   8   8   8   8   8
#     4   9  16  25  40  66 104 145 181 220 269 323
#     4  12  25  42  59  79 109 147 184 234 284 342
#     4   9  17  27  43  71 104 141 182 224 268 320
#     4  10  20  35  57  81 107 142 187 232 279 334
#     4  10  21  36  58  84 110 141 182 230 281 336
#     4   9  15  24  39  61  99 149 187 214 260 323
#     4   9  17  30  48  73 103 138 178 223 270 322
#
# _framework density 22.614438
#
# number of rings (size 3 to 8) (size 9 to 14) (size 15 to 20)
#    0.000    2.286    1.429    2.143    2.000    5.714 
#    0.000    0.000    0.000    0.000    0.000    0.000 
#    0.000    1.143    0.571    0.000    0.000    0.000 
#
# Total GULP energy -346994.054606 kJ/mol
# GULP energy per Si atom -12392.644807 kJ/mol
# Density = 2.256297 g / cm^3
# Si number density = 22.614438 Si / 1000 Ang^3
#
#
#
# Elastic Constant Matrix: (Units=GPa)
#
#
# Indices 1 2 3 4 5 6 
#
# 1 180.1784 17.3143 110.8185 0.0000 13.9681 0.0000
# 2 17.3143 18.9635 17.0228 0.0000 -0.6730 0.0000
# 3 110.8185 17.0228 248.8543 0.0003 6.1698 0.0000
# 4 0.0000 0.0000 0.0003 6.9584 0.0000 -7.6856
# 5 13.9681 -0.6730 6.1698 0.0000 55.4727 0.0000
# 6 0.0000 0.0000 0.0000 -7.6856 0.0000 -12.9722
#
#
#
# Elastic Compliance Matrix: (Units=1/GPa)
#
#
# Indices 1 2 3 4 5 6 
#
# 1 0.008132 -0.004554 -0.003266 0.000000 -0.001739 0.000000
# 2 -0.004554 0.058802 -0.002046 0.000000 0.002088 0.000000
# 3 -0.003266 -0.002046 0.005609 0.000000 0.000174 0.000000
# 4 0.000000 0.000000 0.000000 0.086867 0.000000 -0.051466
# 5 -0.001739 0.002088 0.000174 0.000000 0.018471 0.000000
# 6 0.000000 0.000000 0.000000 -0.051466 0.000000 -0.046596
#
#
# Mechanical properties :
#
#
# Convention : Reuss Voigt Hill
#
# Bulk Modulus (GPa) = 18.93623 82.03416 50.48519
# Shear Modulus (GPa) = 29.65258 30.08115 29.86687
#
# Velocity S-wave (km/s) = 3.62501 3.65111 3.63809
# Velocity P-wave (km/s) = 5.09044 7.35718 6.32616
#
# Compressibility (1/GPa) = 0.05280883
#
# Stress axis : x y z
#
# Youngs Moduli (GPa) = 122.97768 17.00631 178.29529
#
# Poissons Ratio (x) = 0.07745 0.58239
# Poissons Ratio (y) = 0.56004 0.36481
# Poissons Ratio (z) = 0.40170 0.03480
#
# Static dielectric constant tensor:
#      x y z
#    x 4.323780 0.000000 0.039950 
#    y 0.000000 3.441550 0.000000 
#    z 0.039950 0.000000 4.266860 
# 
# 
# High freq. dielectric constant tensor:
#      x y z
#    x 1.906680 0.000000 0.003570 
#    y 0.000000 1.834240 0.000000 
#    z 0.003570 0.000000 1.906750 
# 
# From -- ./inp_files/334010.got.cif
#   From: 2010.06.25/outbox.cif.g09.slc.cpg/sg12_168_cif.got.tgz:334010.got - 2010.06.28 00:19:55.
