data_PCOD8099156
_publ_section_title
;
Structure prediction by ZEFSAII (Michael W. Deem and Ramdas Pophale) SiO2 
 PCOD8099156
Probable space group: C 2/M
;
_chemical_formula_sum "Si O2"
_cell_formula_units_Z 64
_cell_length_a 12.832109
_cell_length_b 12.838676
_cell_length_c 30.432115
_cell_angle_alpha 90.000000
_cell_angle_beta 42.913886
_cell_angle_gamma 90.000000
_cell_volume 3413.757913
_symmetry_space_group_name_H-M "C 2/M"
_symmetry_group_IT_number 12
_symmetry_cell_setting 'monoclinic'
loop_
_space_group_symop_operation_xyz
x,y,z
-x,y,-z
-x,-y,-z
x,-y,z
1/2+x,1/2+y,z
1/2-x,1/2+y,-z
1/2-x,1/2-y,-z
1/2+x,1/2-y,z
loop_
_atom_site_type_symbol
_atom_site_label
_atom_site_fract_x
_atom_site_fract_y
_atom_site_fract_z
Si Si1 0.933493 0.251238 0.897425
Si Si2 0.348522 0.117689 0.671487
Si Si3 0.105910 0.115556 0.561086
Si Si4 0.264325 0.319186 0.654759
Si Si5 0.731672 0.377482 0.803203
Si Si6 0.371276 0.123170 0.003251
Si Si7 0.686756 0.819726 0.579141
Si Si8 0.979313 0.380923 0.796383
O O1 0.782788 0.182708 0.935584
O O2 0.071762 0.173959 0.865052
O O3 0.968934 0.314172 0.843009
O O4 0.922528 0.333195 0.940379
O O5 0.272357 0.194313 0.659431
O O6 0.290788 0.154999 0.736947
O O7 0.531489 0.124270 0.611980
O O8 0.296110 0.000000 0.677100
O O9 0.173417 0.133560 0.491641
O O10 0.178698 0.195652 0.573365
O O11 0.924922 0.127783 0.614905
O O12 0.146510 0.000000 0.565142
O O13 0.213590 0.343957 0.621365
O O14 0.147010 0.372125 0.724192
O O15 0.709309 0.500000 0.813155
O O16 0.856638 0.337582 0.799375
O O17 0.339923 0.000000 0.009129
O O18 0.500000 0.146880 0.000000
O O19 0.944539 0.500000 0.819244
#
# Coordination Sequence:
#
# PCOD8099156 Si02
#       8
#     8   8   8   8   8   8   8   8
#     4  11  21  38  61  85 115 149 186 230 270 327
#     4  10  20  35  55  79 109 145 184 227 277 335
#     4  10  22  37  55  81 109 144 193 238 281 336
#     4  11  21  36  55  81 112 145 186 235 284 336
#     4  10  20  35  56  82 112 147 186 224 272 330
#     4  10  22  40  61  86 116 150 186 225 275 326
#     4  10  21  37  57  78 110 149 186 234 288 334
#     4  11  22  35  55  84 115 148 184 231 285 330
#
# _framework density 18.747668000000001
#
# number of rings (size 3 to 8) (size 9 to 14) (size 15 to 20)
#    0.000    1.625    2.500    2.625    0.000    2.500 
#    0.000    0.000    0.000   11.250    0.000    0.000 
#    0.000    0.000    0.000    0.000    0.000    0.000 
#
# Total GULP energy -396902.239289 kJ/mol
# GULP energy per Si atom -12403.194978 kJ/mol
# Density = 1.870500 g / cm^3
# Si number density = 18.747668 Si / 1000 Ang^3
#
#
#
# Elastic Constant Matrix: (Units=GPa)
#
#
# Indices 1 2 3 4 5 6 
#
# 1 59.2337 19.5274 33.6037 0.0000 -8.7784 0.0000
# 2 19.5274 77.5531 17.9190 0.0000 -0.0402 0.0000
# 3 33.6037 17.9190 116.6318 0.0001 -2.9758 0.0000
# 4 0.0000 0.0000 0.0001 16.8429 0.0000 -4.0405
# 5 -8.7784 -0.0402 -2.9758 0.0000 28.5975 0.0000
# 6 0.0000 0.0000 0.0000 -4.0405 0.0000 14.0125
#
#
#
# Elastic Compliance Matrix: (Units=1/GPa)
#
#
# Indices 1 2 3 4 5 6 
#
# 1 0.022447 -0.004346 -0.005639 0.000000 0.006298 0.000000
# 2 -0.004346 0.014211 -0.000967 0.000000 -0.001415 0.000000
# 3 -0.005639 -0.000967 0.010331 0.000000 -0.000657 0.000000
# 4 0.000000 0.000000 0.000000 0.063784 0.000000 0.018392
# 5 0.006298 -0.001415 -0.000657 0.000000 0.036831 0.000000
# 6 0.000000 0.000000 0.000000 0.018392 0.000000 0.076668
#
#
# Mechanical properties :
#
#
# Convention : Reuss Voigt Hill
#
# Bulk Modulus (GPa) = 39.86505 43.94651 41.90578
# Shear Modulus (GPa) = 19.64335 24.04849 21.84592
#
# Velocity S-wave (km/s) = 3.24045 3.58543 3.41729
# Velocity P-wave (km/s) = 5.94229 6.37435 6.16211
#
# Compressibility (1/GPa) = 0.02508463
#
# Stress axis : x y z
#
# Youngs Moduli (GPa) = 44.54855 70.36584 96.79999
#
# Poissons Ratio (x) = 0.30580 0.54587
# Poissons Ratio (y) = 0.19360 0.09364
# Poissons Ratio (z) = 0.25122 0.06807
#
# Static dielectric constant tensor:
#      x y z
#    x 3.340420 0.000000 -0.061670 
#    y 0.000000 3.503570 0.000000 
#    z -0.061670 0.000000 3.564920 
# 
# 
# High freq. dielectric constant tensor:
#      x y z
#    x 1.719600 0.000000 -0.004490 
#    y 0.000000 1.736160 0.000000 
#    z -0.004490 0.000000 1.741440 
# 
# From -- ./inp_files/374099.got.cif
#   From: 2010.06.25/outbox.cif.g09.slc.cpg/sg12_188_cif.got.tgz:374099.got - 2010.06.28 00:19:55.
