data_PCOD8099712
_publ_section_title
;
Structure prediction by ZEFSAII (Michael W. Deem and Ramdas Pophale) SiO2 
 PCOD8099712
Probable space group: C 2/M
;
_chemical_formula_sum "Si O2"
_cell_formula_units_Z 64
_cell_length_a 30.395134
_cell_length_b 9.097595
_cell_length_c 12.049002
_cell_angle_alpha 90.000000
_cell_angle_beta 77.089470
_cell_angle_gamma 90.000000
_cell_volume 3247.593634
_symmetry_space_group_name_H-M "C 2/M"
_symmetry_group_IT_number 12
_symmetry_cell_setting 'monoclinic'
loop_
_space_group_symop_operation_xyz
x,y,z
-x,y,-z
-x,-y,-z
x,-y,z
1/2+x,1/2+y,z
1/2-x,1/2+y,-z
1/2-x,1/2-y,-z
1/2+x,1/2-y,z
loop_
_atom_site_type_symbol
_atom_site_label
_atom_site_fract_x
_atom_site_fract_y
_atom_site_fract_z
Si Si1 0.410342 0.838170 0.954451
Si Si2 0.808089 0.339593 0.977870
Si Si3 0.435342 0.828287 0.696413
Si Si4 0.536682 0.171852 0.672159
Si Si5 0.215091 0.826329 0.436829
Si Si6 0.389622 0.325563 0.519587
Si Si7 0.542050 0.335767 0.895958
Si Si8 0.232062 0.827707 0.182328
O O1 0.357633 0.856657 0.992974
O O2 0.426046 0.772945 0.827037
O O3 0.433135 0.000000 0.958166
O O4 0.418490 0.729104 0.051289
O O5 0.788345 0.500000 0.956579
O O6 0.808388 0.237612 0.868940
O O7 0.778203 0.275697 0.096346
O O8 0.488408 0.802680 0.638622
O O9 0.403366 0.737754 0.631914
O O10 0.422686 0.000000 0.692226
O O11 0.576808 0.257835 0.589764
O O12 0.532267 0.229886 0.799188
O O13 0.548832 0.000000 0.666750
O O14 0.250000 0.750000 0.500000
O O15 0.162095 0.783999 0.483886
O O16 0.229847 0.766271 0.307878
O O17 0.221390 0.000000 0.445715
O O18 0.395682 0.500000 0.519759
O O19 0.554510 0.500000 0.847554
O O20 0.500000 0.338243 0.000000
O O21 0.225157 0.000000 0.192301
#
# Coordination Sequence:
#
# PCOD8099712 Si02
#       8
#     8   8   8   8   8   8   8   8
#     4  10  20  35  56  84 118 154 194 237 281 339
#     4   9  18  32  55  86 113 143 186 232 279 334
#     4  10  21  37  59  86 117 155 199 242 289 350
#     4  11  23  40  62  85 116 158 201 244 290 346
#     4  10  23  41  60  83 115 154 194 239 292 350
#     4  11  24  40  59  87 119 151 195 250 302 350
#     4  11  23  38  57  83 116 152 191 234 284 341
#     4   9  18  35  56  80 113 146 181 229 286 341
#
# _framework density 19.706899
#
# number of rings (size 3 to 8) (size 9 to 14) (size 15 to 20)
#    0.000    1.875    1.250    2.250    0.000    6.500 
#    0.000    1.250    0.000    0.000    0.000    0.000 
#    0.000    0.000    0.000    0.000    0.000    0.000 
#
# Total GULP energy -396671.829237 kJ/mol
# GULP energy per Si atom -12395.994664 kJ/mol
# Density = 1.966205 g / cm^3
# Si number density = 19.706899 Si / 1000 Ang^3
#
#
#
# Elastic Constant Matrix: (Units=GPa)
#
#
# Indices 1 2 3 4 5 6 
#
# 1 114.3386 49.2986 41.2144 0.0000 10.2402 0.0000
# 2 49.2986 73.4123 37.0943 0.0000 9.0735 0.0000
# 3 41.2144 37.0943 80.1979 0.0000 9.6849 0.0000
# 4 0.0000 0.0000 0.0000 31.7001 0.0000 4.9755
# 5 10.2402 9.0735 9.6849 0.0000 28.4082 0.0000
# 6 0.0000 0.0000 0.0000 4.9755 0.0000 28.9934
#
#
#
# Elastic Compliance Matrix: (Units=1/GPa)
#
#
# Indices 1 2 3 4 5 6 
#
# 1 0.013052 -0.006904 -0.003350 0.000000 -0.001357 0.000000
# 2 -0.006904 0.021677 -0.006198 0.000000 -0.002322 0.000000
# 3 -0.003350 -0.006198 0.017388 0.000000 -0.002741 0.000000
# 4 0.000000 0.000000 0.000000 0.032419 0.000000 -0.005563
# 5 -0.001357 -0.002322 -0.002741 0.000000 0.037366 0.000000
# 6 0.000000 0.000000 0.000000 -0.005563 0.000000 0.035445
#
#
# Mechanical properties :
#
#
# Convention : Reuss Voigt Hill
#
# Bulk Modulus (GPa) = 52.04808 58.12927 55.08868
# Shear Modulus (GPa) = 25.42510 27.17646 26.30078
#
# Velocity S-wave (km/s) = 3.59578 3.71756 3.65718
# Velocity P-wave (km/s) = 6.61120 6.92733 6.77111
#
# Compressibility (1/GPa) = 0.01921300
#
# Stress axis : x y z
#
# Youngs Moduli (GPa) = 76.61681 46.13249 57.50941
#
# Poissons Ratio (x) = 0.31851 0.19266
# Poissons Ratio (y) = 0.52898 0.35643
# Poissons Ratio (z) = 0.25668 0.28591
#
# Static dielectric constant tensor:
#      x y z
#    x 4.110880 0.000000 1.003950 
#    y 0.000000 4.042510 0.000000 
#    z 1.003950 0.000000 5.897070 
# 
# 
# High freq. dielectric constant tensor:
#      x y z
#    x 1.769260 0.000000 -0.005930 
#    y 0.000000 1.766250 0.000000 
#    z -0.005930 0.000000 1.771820 
# 
# From -- ./inp_files/187574.got.cif
#   From: 2010.06.25/outbox.cif.g09.slc.cpg/sg12_94_cif.got.tgz:187574.got - 2010.06.28 00:19:55.
