data_PCOD8099416
_publ_section_title
;
Structure prediction by ZEFSAII (Michael W. Deem and Ramdas Pophale) SiO2 
 PCOD8099416
Probable space group: C 2/M
;
_chemical_formula_sum "Si O2"
_cell_formula_units_Z 56
_cell_length_a 19.470494
_cell_length_b 9.175611
_cell_length_c 24.405496
_cell_angle_alpha 90.000000
_cell_angle_beta 136.314568
_cell_angle_gamma 90.000000
_cell_volume 3011.536682
_symmetry_space_group_name_H-M "C 2/M"
_symmetry_group_IT_number 12
_symmetry_cell_setting 'monoclinic'
loop_
_space_group_symop_operation_xyz
x,y,z
-x,y,-z
-x,-y,-z
x,-y,z
1/2+x,1/2+y,z
1/2-x,1/2+y,-z
1/2-x,1/2-y,-z
1/2+x,1/2-y,z
loop_
_atom_site_type_symbol
_atom_site_label
_atom_site_fract_x
_atom_site_fract_y
_atom_site_fract_z
Si Si1 0.987640 0.827988 0.932629
Si Si2 0.700975 0.331312 0.021172
Si Si3 0.832558 0.165337 0.516649
Si Si4 0.458925 0.328588 0.686203
Si Si5 0.215202 0.171274 0.235986
Si Si6 0.161898 0.331244 0.799383
Si Si7 0.283052 0.828401 0.650908
O O1 0.890945 0.766792 0.846039
O O2 0.973704 0.000000 0.931470
O O3 0.085257 0.787068 0.954541
O O4 0.000000 0.757972 0.000000
O O5 0.713986 0.500000 0.016946
O O6 0.750739 0.290717 0.107830
O O7 0.750000 0.250000 0.000000
O O8 0.750000 0.250000 0.500000
O O9 0.936545 0.200301 0.607818
O O10 0.818679 0.198740 0.443861
O O11 0.805241 0.000000 0.511787
O O12 0.457938 0.500000 0.699933
O O13 0.567360 0.265745 0.760298
O O14 0.378510 0.249491 0.678672
O O15 0.298480 0.204095 0.238440
O O16 0.243873 0.259784 0.306475
O O17 0.209522 0.000000 0.246170
O O18 0.131585 0.500000 0.786738
O O19 0.306245 0.000000 0.670102
#
# Coordination Sequence:
#
# PCOD8099416 Si02
#       7
#     8   8   8   8   8   8   8
#     4   9  16  33  58  77  97 136 182 217 255 308
#     4  10  21  36  55  79 107 138 176 220 266 316
#     4   8  16  32  53  77 104 137 174 216 264 316
#     4  10  20  35  57  81 106 140 183 221 261 319
#     4  10  20  35  56  80 107 141 183 221 260 317
#     4  10  21  37  54  77 112 146 177 220 271 316
#     4  10  20  35  56  82 111 138 172 221 274 319
#
# _framework density 18.595157
#
# number of rings (size 3 to 8) (size 9 to 14) (size 15 to 20)
#    0.000    2.429    1.429    0.857    2.000    2.286 
#    0.000    0.714    0.000    5.143    0.000    0.000 
#    0.000    0.000    0.000    0.000    0.000    0.000 
#
# Total GULP energy -346971.577924 kJ/mol
# GULP energy per Si atom -12391.842069 kJ/mol
# Density = 1.855283 g / cm^3
# Si number density = 18.595157 Si / 1000 Ang^3
#
#
#
# Elastic Constant Matrix: (Units=GPa)
#
#
# Indices 1 2 3 4 5 6 
#
# 1 74.0286 32.1339 17.3902 0.0000 -15.8588 0.0000
# 2 32.1339 57.5713 24.3342 0.0000 -8.0961 0.0000
# 3 17.3902 24.3342 49.0565 0.0000 -15.5270 0.0000
# 4 0.0000 0.0000 0.0000 27.4415 0.0000 -3.9455
# 5 -15.8588 -8.0961 -15.5270 0.0000 32.8409 0.0000
# 6 0.0000 0.0000 0.0000 -3.9455 0.0000 28.8198
#
#
#
# Elastic Compliance Matrix: (Units=1/GPa)
#
#
# Indices 1 2 3 4 5 6 
#
# 1 0.019220 -0.009870 0.000294 0.000000 0.006987 0.000000
# 2 -0.009870 0.027048 -0.010956 0.000000 -0.003278 0.000000
# 3 0.000294 -0.010956 0.029288 0.000000 0.011288 0.000000
# 4 0.000000 0.000000 0.000000 0.037173 0.000000 0.005089
# 5 0.006987 -0.003278 0.011288 0.000000 0.038353 0.000000
# 6 0.000000 0.000000 0.000000 0.005089 0.000000 0.035395
#
#
# Mechanical properties :
#
#
# Convention : Reuss Voigt Hill
#
# Bulk Modulus (GPa) = 28.99116 36.48590 32.73853
# Shear Modulus (GPa) = 20.91710 24.94031 22.92871
#
# Velocity S-wave (km/s) = 3.35754 3.66625 3.51529
# Velocity P-wave (km/s) = 5.53673 6.13071 5.84127
#
# Compressibility (1/GPa) = 0.03449327
#
# Stress axis : x y z
#
# Youngs Moduli (GPa) = 52.02847 36.97068 34.14367
#
# Poissons Ratio (x) = 0.36488 -0.01003
# Poissons Ratio (y) = 0.51350 0.37408
# Poissons Ratio (z) = -0.01529 0.40505
#
# Static dielectric constant tensor:
#      x y z
#    x 3.117710 0.000000 -0.186140 
#    y 0.000000 3.272430 0.000000 
#    z -0.186140 0.000000 4.611850 
# 
# 
# High freq. dielectric constant tensor:
#      x y z
#    x 1.703870 0.000000 -0.007860 
#    y 0.000000 1.706520 0.000000 
#    z -0.007860 0.000000 1.737420 
# 
# From -- ./inp_files/342540.got.cif
#   From: 2010.06.25/outbox.cif.g09.slc.cpg/sg12_172_cif.got.tgz:342540.got - 2010.06.28 00:19:55.
