data_PCOD8099630
_publ_section_title
;
Structure prediction by ZEFSAII (Michael W. Deem and Ramdas Pophale) SiO2 
 PCOD8099630
Probable space group: C 2/M
;
_chemical_formula_sum "Si O2"
_cell_formula_units_Z 56
_cell_length_a 20.932403
_cell_length_b 9.037428
_cell_length_c 15.185868
_cell_angle_alpha 90.000000
_cell_angle_beta 93.089940
_cell_angle_gamma 90.000000
_cell_volume 2868.611267
_symmetry_space_group_name_H-M "C 2/M"
_symmetry_group_IT_number 12
_symmetry_cell_setting 'monoclinic'
loop_
_space_group_symop_operation_xyz
x,y,z
-x,y,-z
-x,-y,-z
x,-y,z
1/2+x,1/2+y,z
1/2-x,1/2+y,-z
1/2-x,1/2-y,-z
1/2+x,1/2-y,z
loop_
_atom_site_type_symbol
_atom_site_label
_atom_site_fract_x
_atom_site_fract_y
_atom_site_fract_z
Si Si1 0.815673 0.329957 0.982778
Si Si2 0.465693 0.825113 0.407266
Si Si3 0.441650 0.671767 0.057210
Si Si4 0.342743 0.327555 0.452326
Si Si5 0.701441 0.830227 0.387780
Si Si6 0.511963 0.329688 0.238689
Si Si7 0.864778 0.667000 0.795830
O O1 0.811283 0.500000 0.012230
O O2 0.822960 0.314033 0.879189
O O3 0.750000 0.250000 0.000000
O O4 0.876602 0.259537 0.035656
O O5 0.500000 0.773720 0.500000
O O6 0.395418 0.755504 0.398582
O O7 0.503536 0.768504 0.325000
O O8 0.461084 0.000000 0.401804
O O9 0.430043 0.500000 0.034437
O O10 0.457250 0.695736 0.161563
O O11 0.500000 0.731423 0.000000
O O12 0.358314 0.500000 0.453340
O O13 0.342856 0.269117 0.552485
O O14 0.275508 0.288161 0.402490
O O15 0.682760 0.795936 0.287139
O O16 0.689453 0.000000 0.413991
O O17 0.515001 0.500000 0.267601
O O18 0.577938 0.283362 0.197557
O O19 0.892286 0.500000 0.789740
#
# Coordination Sequence:
#
# PCOD8099630 Si02
#       7
#     8   8   8   8   8   8   8
#     4  11  24  40  62  91 124 161 203 254 309 368
#     4  11  24  40  57  81 119 159 195 242 298 354
#     4  10  21  41  65  89 122 160 200 252 312 370
#     4  10  20  35  56  83 113 149 195 241 289 348
#     4   9  19  36  57  80 112 152 190 234 294 354
#     4  11  23  38  62  91 117 153 200 250 300 357
#     4  10  21  38  59  84 115 152 194 239 294 361
#
# _framework density 19.521642
#
# number of rings (size 3 to 8) (size 9 to 14) (size 15 to 20)
#    0.000    1.714    1.429    2.571    0.000    8.857 
#    0.000    2.857    0.000    0.000    0.000    0.000 
#    0.000    0.000    0.000    0.000    0.000    0.000 
#
# Total GULP energy -347321.568076 kJ/mol
# GULP energy per Si atom -12404.341717 kJ/mol
# Density = 1.947721 g / cm^3
# Si number density = 19.521642 Si / 1000 Ang^3
#
#
#
# Elastic Constant Matrix: (Units=GPa)
#
#
# Indices 1 2 3 4 5 6 
#
# 1 119.9458 59.1198 39.7124 0.0000 -3.4172 0.0000
# 2 59.1198 93.1986 46.7846 0.0000 1.5067 0.0000
# 3 39.7124 46.7846 100.8540 0.0000 7.2427 0.0000
# 4 0.0000 0.0000 0.0000 30.8131 0.0000 -3.9044
# 5 -3.4172 1.5067 7.2427 0.0000 28.9595 0.0000
# 6 0.0000 0.0000 0.0000 -3.9044 0.0000 39.0271
#
#
#
# Elastic Compliance Matrix: (Units=1/GPa)
#
#
# Indices 1 2 3 4 5 6 
#
# 1 0.012471 -0.007040 -0.001810 0.000000 0.002290 0.000000
# 2 -0.007040 0.017984 -0.005543 0.000000 -0.000380 0.000000
# 3 -0.001810 -0.005543 0.013435 0.000000 -0.003285 0.000000
# 4 0.000000 0.000000 0.000000 0.032870 0.000000 0.003289
# 5 0.002290 -0.000380 -0.003285 0.000000 0.035643 0.000000
# 6 0.000000 0.000000 0.000000 0.003289 0.000000 0.025952
#
#
# Mechanical properties :
#
#
# Convention : Reuss Voigt Hill
#
# Bulk Modulus (GPa) = 66.20108 67.24798 66.72453
# Shear Modulus (GPa) = 29.03999 30.98537 30.01268
#
# Velocity S-wave (km/s) = 3.86110 3.98833 3.92523
# Velocity P-wave (km/s) = 7.33912 7.46537 7.40251
#
# Compressibility (1/GPa) = 0.01510549
#
# Stress axis : x y z
#
# Youngs Moduli (GPa) = 80.18447 55.60449 74.43104
#
# Poissons Ratio (x) = 0.39144 0.13469
# Poissons Ratio (y) = 0.56447 0.41260
# Poissons Ratio (z) = 0.14510 0.30823
#
# Static dielectric constant tensor:
#      x y z
#    x 3.545240 0.000000 0.050350 
#    y 0.000000 3.614710 0.000000 
#    z 0.050350 0.000000 3.624630 
# 
# 
# High freq. dielectric constant tensor:
#      x y z
#    x 1.761950 0.000000 0.003960 
#    y 0.000000 1.765390 0.000000 
#    z 0.003960 0.000000 1.765950 
# 
# From -- ./inp_files/231049.got.cif
#   From: 2010.06.25/outbox.cif.g09.slc.cpg/sg12_116_cif.got.tgz:231049.got - 2010.06.28 00:19:55.
