data_PCOD8099778
_publ_section_title
;
Structure prediction by ZEFSAII (Michael W. Deem and Ramdas Pophale) SiO2 
 PCOD8099778
Probable space group: C 2/M
;
_chemical_formula_sum "Si O2"
_cell_formula_units_Z 64
_cell_length_a 30.343373
_cell_length_b 8.687609
_cell_length_c 24.818834
_cell_angle_alpha 90.000000
_cell_angle_beta 28.061812
_cell_angle_gamma 90.000000
_cell_volume 3077.760441
_symmetry_space_group_name_H-M "C 2/M"
_symmetry_group_IT_number 12
_symmetry_cell_setting 'monoclinic'
loop_
_space_group_symop_operation_xyz
x,y,z
-x,y,-z
-x,-y,-z
x,-y,z
1/2+x,1/2+y,z
1/2-x,1/2+y,-z
1/2-x,1/2-y,-z
1/2+x,1/2-y,z
loop_
_atom_site_type_symbol
_atom_site_label
_atom_site_fract_x
_atom_site_fract_y
_atom_site_fract_z
Si Si1 0.188101 0.320651 0.429015
Si Si2 0.483374 0.821268 0.675841
Si Si3 0.063170 0.683458 0.980442
Si Si4 0.350912 0.318791 0.905649
Si Si5 0.019056 0.682950 0.147290
Si Si6 0.935523 0.824838 0.618646
Si Si7 0.179875 0.182035 0.619144
Si Si8 0.762316 0.825499 0.735249
O O1 0.184417 0.500000 0.423334
O O2 0.277594 0.273237 0.368290
O O3 0.191680 0.248207 0.366561
O O4 0.092256 0.270648 0.562607
O O5 0.424220 0.715630 0.779363
O O6 0.448113 0.793098 0.653471
O O7 0.468869 0.000000 0.706728
O O8 0.064590 0.500000 0.980421
O O9 0.165585 0.753178 0.857900
O O10 0.000000 0.746898 0.000000
O O11 0.026347 0.743086 0.077887
O O12 0.339876 0.500000 0.925029
O O13 0.391231 0.246356 0.917185
O O14 0.250000 0.250000 0.000000
O O15 0.019374 0.500000 0.150988
O O16 0.922545 0.744678 0.276895
O O17 0.828620 0.813698 0.715336
O O18 0.000000 0.770467 0.500000
O O19 0.961445 0.000000 0.607976
O O20 0.250000 0.250000 0.500000
O O21 0.172792 0.000000 0.619065
O O22 0.742527 0.000000 0.740021
#
# Coordination Sequence:
#
# PCOD8099778 Si02
#       8
#     8   8   8   8   8   8   8   8
#     4  10  22  38  58  88 125 160 200 256 317 377
#     4  11  23  40  63  91 125 165 212 265 324 382
#     4   9  19  36  60  91 125 164 208 255 307 369
#     4  12  27  47  69  94 126 167 218 269 324 387
#     4  11  23  42  67  96 131 169 214 266 320 382
#     4  10  20  35  56  88 125 163 207 258 316 382
#     4  11  23  40  63  91 123 162 208 261 323 386
#     4  10  20  35  58  86 117 158 208 252 307 378
#
# _framework density 20.794339999999998
#
# number of rings (size 3 to 8) (size 9 to 14) (size 15 to 20)
#    0.000    1.500    1.250    3.750    1.750    4.250 
#    0.000    1.250    0.000    3.375    0.000    0.000 
#    0.000    0.000    0.000    0.000    0.000    0.000 
#
# Total GULP energy -396870.166006 kJ/mol
# GULP energy per Si atom -12402.192688 kJ/mol
# Density = 2.074701 g / cm^3
# Si number density = 20.794340 Si / 1000 Ang^3
#
#
#
# Elastic Constant Matrix: (Units=GPa)
#
#
# Indices 1 2 3 4 5 6 
#
# 1 123.5875 39.4215 48.1050 -0.0029 -7.5647 0.0023
# 2 39.4215 72.5057 39.1267 -0.0385 -3.7959 0.0003
# 3 48.1050 39.1267 121.7980 -0.0114 -10.5729 0.0006
# 4 -0.0029 -0.0385 -0.0114 29.7135 0.0153 0.0959
# 5 -7.5647 -3.7959 -10.5729 0.0153 40.1888 -0.0002
# 6 0.0023 0.0003 0.0006 0.0959 -0.0002 30.8227
#
#
#
# Elastic Compliance Matrix: (Units=1/GPa)
#
#
# Indices 1 2 3 4 5 6 
#
# 1 0.010555 -0.004215 -0.002739 -0.000006 0.000868 -0.000001
# 2 -0.004215 0.018369 -0.004251 0.000022 -0.000177 0.000000
# 3 -0.002739 -0.004251 0.010826 -0.000003 0.001931 0.000000
# 4 -0.000006 0.000022 -0.000003 0.033655 -0.000013 -0.000105
# 5 0.000868 -0.000177 0.001931 -0.000013 0.025537 0.000000
# 6 -0.000001 0.000000 0.000000 -0.000105 0.000000 0.032444
#
#
# Mechanical properties :
#
#
# Convention : Reuss Voigt Hill
#
# Bulk Modulus (GPa) = 57.67787 63.46642 60.57215
# Shear Modulus (GPa) = 31.33275 32.89421 32.11348
#
# Velocity S-wave (km/s) = 3.88595 3.98160 3.93407
# Velocity P-wave (km/s) = 6.92327 7.19200 7.05891
#
# Compressibility (1/GPa) = 0.01733767
#
# Stress axis : x y z
#
# Youngs Moduli (GPa) = 94.73784 54.44016 92.37347
#
# Poissons Ratio (x) = 0.22948 0.25306
# Poissons Ratio (y) = 0.39934 0.39271
# Poissons Ratio (z) = 0.25953 0.23144
#
# Static dielectric constant tensor:
#      x y z
#    x 4.020150 -0.000070 -0.146080 
#    y -0.000070 3.599330 0.000140 
#    z -0.146080 0.000140 3.995320 
# 
# 
# High freq. dielectric constant tensor:
#      x y z
#    x 1.827480 0.000000 -0.006070 
#    y 0.000000 1.797150 0.000010 
#    z -0.006070 0.000010 1.824730 
# 
# From -- ./inp_files/353360.got.cif
#   From: 2010.06.25/outbox.cif.g09.slc.cpg/sg12_177_cif.got.tgz:353360.got - 2010.06.28 00:19:55.
