data_PCOD8099396
_publ_section_title
;
Structure prediction by ZEFSAII (Michael W. Deem and Ramdas Pophale) SiO2 
 PCOD8099396
Probable space group: C 2/M
;
_chemical_formula_sum "Si O2"
_cell_formula_units_Z 48
_cell_length_a 24.059665
_cell_length_b 9.159048
_cell_length_c 12.033738
_cell_angle_alpha 90.000000
_cell_angle_beta 76.872591
_cell_angle_gamma 90.000000
_cell_volume 2582.499849
_symmetry_space_group_name_H-M "C 2/M"
_symmetry_group_IT_number 12
_symmetry_cell_setting 'monoclinic'
loop_
_space_group_symop_operation_xyz
x,y,z
-x,y,-z
-x,-y,-z
x,-y,z
1/2+x,1/2+y,z
1/2-x,1/2+y,-z
1/2-x,1/2-y,-z
1/2+x,1/2-y,z
loop_
_atom_site_type_symbol
_atom_site_label
_atom_site_fract_x
_atom_site_fract_y
_atom_site_fract_z
Si Si1 0.208509 0.828482 0.729382
Si Si2 0.115437 0.669304 0.905353
Si Si3 0.083264 0.667692 0.169869
Si Si4 0.966783 0.170485 0.215997
Si Si5 0.628729 0.333308 0.565753
Si Si6 0.662512 0.829020 0.336477
O O1 0.174066 0.742611 0.839389
O O2 0.181960 0.793989 0.620930
O O3 0.272977 0.769115 0.701112
O O4 0.203812 0.000000 0.758856
O O5 0.115096 0.500000 0.871581
O O6 0.060344 0.745331 0.875982
O O7 0.112334 0.691586 0.038126
O O8 0.063770 0.500000 0.194201
O O9 0.129898 0.714262 0.239365
O O10 0.029585 0.771879 0.210997
O O11 0.929791 0.199595 0.342927
O O12 0.968110 0.000000 0.185408
O O13 0.631974 0.500000 0.526157
O O14 0.629473 0.236782 0.455881
O O15 0.664447 0.000000 0.354798
#
# Coordination Sequence:
#
# PCOD8099396 Si02
#       6
#     8   8   8   8   8   8
#     4   9  19  36  56  79 107 138 175 219 262 307
#     4  10  20  35  56  80 106 137 175 219 263 309
#     4  10  22  37  52  77 111 142 174 215 262 311
#     4  10  21  37  57  80 105 136 176 220 264 311
#     4   9  19  35  54  78 105 133 174 224 265 305
#     4  10  21  36  54  77 108 144 177 212 259 314
#
# _framework density 18.586642000000001
#
# number of rings (size 3 to 8) (size 9 to 14) (size 15 to 20)
#    0.000    2.333    0.000    3.000    0.000    9.333 
#    0.000    3.333    0.000    0.000    0.000    0.000 
#    0.000    0.000    0.000    0.000    0.000    0.000 
#
# Total GULP energy -297696.327211 kJ/mol
# GULP energy per Si atom -12404.013634 kJ/mol
# Density = 1.854434 g / cm^3
# Si number density = 18.586642 Si / 1000 Ang^3
#
#
#
# Elastic Constant Matrix: (Units=GPa)
#
#
# Indices 1 2 3 4 5 6 
#
# 1 74.0539 42.5938 63.8134 0.0000 4.7142 0.0000
# 2 42.5938 75.9067 58.6246 0.0000 2.0746 0.0000
# 3 63.8134 58.6246 120.0915 0.0000 8.5242 0.0000
# 4 0.0000 0.0000 0.0000 30.6438 0.0000 -7.0717
# 5 4.7142 2.0746 8.5242 0.0000 20.4648 0.0000
# 6 0.0000 0.0000 0.0000 -7.0717 0.0000 28.3918
#
#
#
# Elastic Compliance Matrix: (Units=1/GPa)
#
#
# Indices 1 2 3 4 5 6 
#
# 1 0.026772 -0.006519 -0.010977 0.000000 -0.000934 0.000000
# 2 -0.006519 0.022833 -0.007857 0.000000 0.002460 0.000000
# 3 -0.010977 -0.007857 0.018300 0.000000 -0.004298 0.000000
# 4 0.000000 0.000000 0.000000 0.034623 0.000000 0.008624
# 5 -0.000934 0.002460 -0.004298 0.000000 0.050620 0.000000
# 6 0.000000 0.000000 0.000000 0.008624 0.000000 0.037369
#
#
# Mechanical properties :
#
#
# Convention : Reuss Voigt Hill
#
# Bulk Modulus (GPa) = 58.14254 66.67954 62.41104
# Shear Modulus (GPa) = 20.24639 22.90141 21.57390
#
# Velocity S-wave (km/s) = 3.30403 3.51400 3.41063
# Velocity P-wave (km/s) = 6.77535 7.23997 7.01151
#
# Compressibility (1/GPa) = 0.01719911
#
# Stress axis : x y z
#
# Youngs Moduli (GPa) = 37.35240 43.79638 54.64357
#
# Poissons Ratio (x) = 0.28552 0.59983
# Poissons Ratio (y) = 0.24351 0.42932
# Poissons Ratio (z) = 0.41002 0.34410
#
# Static dielectric constant tensor:
#      x y z
#    x 3.491800 0.000000 -0.031750 
#    y 0.000000 3.410970 0.000000 
#    z -0.031750 0.000000 3.331240 
# 
# 
# High freq. dielectric constant tensor:
#      x y z
#    x 1.722360 0.000000 -0.004960 
#    y 0.000000 1.722260 0.000000 
#    z -0.004960 0.000000 1.723750 
# 
# From -- ./inp_files/172046.got.cif
#   From: 2010.06.25/outbox.cif.g09.slc.cpg/sg12_87_cif.got.tgz:172046.got - 2010.06.28 00:19:55.
