data_PCOD8099470
_publ_section_title
;
Structure prediction by ZEFSAII (Michael W. Deem and Ramdas Pophale) SiO2 
 PCOD8099470
Probable space group: C 2/M
;
_chemical_formula_sum "Si O2"
_cell_formula_units_Z 64
_cell_length_a 31.047036
_cell_length_b 8.866487
_cell_length_c 14.437376
_cell_angle_alpha 90.000000
_cell_angle_beta 117.304429
_cell_angle_gamma 90.000000
_cell_volume 3531.485246
_symmetry_space_group_name_H-M "C 2/M"
_symmetry_group_IT_number 12
_symmetry_cell_setting 'monoclinic'
loop_
_space_group_symop_operation_xyz
x,y,z
-x,y,-z
-x,-y,-z
x,-y,z
1/2+x,1/2+y,z
1/2-x,1/2+y,-z
1/2-x,1/2-y,-z
1/2+x,1/2-y,z
loop_
_atom_site_type_symbol
_atom_site_label
_atom_site_fract_x
_atom_site_fract_y
_atom_site_fract_z
Si Si1 0.424848 0.821967 0.773255
Si Si2 0.301158 0.175032 0.940146
Si Si3 0.615405 0.677859 0.092232
Si Si4 0.026357 0.174570 0.877722
Si Si5 0.888830 0.675914 0.365525
Si Si6 0.468426 0.328871 0.328566
Si Si7 0.299032 0.175383 0.150715
Si Si8 0.919845 0.825230 0.574237
O O1 0.387160 0.758111 0.811044
O O2 0.478841 0.770226 0.853770
O O3 0.408423 0.761708 0.657330
O O4 0.422523 0.000000 0.770099
O O5 0.336032 0.272364 0.910636
O O6 0.246434 0.224311 0.864010
O O7 0.307584 0.000000 0.922635
O O8 0.313839 0.209426 0.059518
O O9 0.616307 0.500000 0.107121
O O10 0.569106 0.729068 0.986385
O O11 0.044090 0.201736 0.790737
O O12 0.012456 0.000000 0.879302
O O13 0.888386 0.500000 0.386243
O O14 0.938072 0.714851 0.360484
O O15 0.843403 0.725790 0.258768
O O16 0.885289 0.763276 0.459333
O O17 0.454894 0.500000 0.343270
O O18 0.524876 0.297996 0.402698
O O19 0.285740 0.000000 0.149866
O O20 0.909462 0.000000 0.581861
#
# Coordination Sequence:
#
# PCOD8099470 Si02
#       8
#     8   8   8   8   8   8   8   8
#     4  11  22  35  52  75 104 137 176 221 261 299
#     4  10  20  35  56  81 107 136 173 213 253 303
#     4  11  21  34  54  77 105 141 176 211 257 311
#     4   9  19  34  51  74 106 143 178 210 252 308
#     4  11  21  32  51  78 105 135 173 215 259 307
#     4   9  18  32  49  72 104 140 175 211 252 302
#     4   9  20  37  54  77 110 140 166 206 261 313
#     4  10  21  37  53  71 101 140 179 216 257 307
#
# _framework density 18.122686000000002
#
# number of rings (size 3 to 8) (size 9 to 14) (size 15 to 20)
#    0.000    2.000    0.000    4.875    0.000    8.000 
#    0.000    0.000    0.000    0.750    0.000    0.000 
#    0.000    0.000    0.000    0.000    0.000    0.000 
#
# Total GULP energy -396954.481094 kJ/mol
# GULP energy per Si atom -12404.827534 kJ/mol
# Density = 1.808144 g / cm^3
# Si number density = 18.122686 Si / 1000 Ang^3
#
#
#
# Elastic Constant Matrix: (Units=GPa)
#
#
# Indices 1 2 3 4 5 6 
#
# 1 85.5465 45.3996 50.8339 0.0000 -12.7559 0.0000
# 2 45.3996 90.9876 43.7205 0.0000 -4.4862 0.0000
# 3 50.8339 43.7205 104.0297 0.0000 -1.8414 0.0000
# 4 0.0000 0.0000 0.0000 29.2985 0.0000 -2.6694
# 5 -12.7559 -4.4862 -1.8414 0.0000 16.6008 0.0000
# 6 0.0000 0.0000 0.0000 -2.6694 0.0000 33.3310
#
#
#
# Elastic Compliance Matrix: (Units=1/GPa)
#
#
# Indices 1 2 3 4 5 6 
#
# 1 0.021808 -0.006495 -0.007676 0.000000 0.014150 0.000000
# 2 -0.006495 0.015866 -0.003513 0.000000 -0.001093 0.000000
# 3 -0.007676 -0.003513 0.014748 0.000000 -0.005212 0.000000
# 4 0.000000 0.000000 0.000000 0.034382 0.000000 0.002754
# 5 0.014150 -0.001093 -0.005212 0.000000 0.070237 0.000000
# 6 0.000000 0.000000 0.000000 0.002754 0.000000 0.030223
#
#
# Mechanical properties :
#
#
# Convention : Reuss Voigt Hill
#
# Bulk Modulus (GPa) = 58.64410 62.27463 60.45936
# Shear Modulus (GPa) = 21.89935 25.22005 23.55970
#
# Velocity S-wave (km/s) = 3.47997 3.73450 3.60948
# Velocity P-wave (km/s) = 6.96969 7.28236 7.12774
#
# Compressibility (1/GPa) = 0.01705202
#
# Stress axis : x y z
#
# Youngs Moduli (GPa) = 45.85500 63.02904 67.80634
#
# Poissons Ratio (x) = 0.40939 0.52049
# Poissons Ratio (y) = 0.29784 0.23823
# Poissons Ratio (z) = 0.35199 0.22144
#
# Static dielectric constant tensor:
#      x y z
#    x 3.151290 0.000000 -0.085590 
#    y 0.000000 3.328230 0.000000 
#    z -0.085590 0.000000 3.458820 
# 
# 
# High freq. dielectric constant tensor:
#      x y z
#    x 1.683340 0.000000 -0.012290 
#    y 0.000000 1.708890 0.000000 
#    z -0.012290 0.000000 1.702120 
# 
# From -- ./inp_files/249159.got.cif
#   From: 2010.06.25/outbox.cif.g09.slc.cpg/sg12_125_cif.got.tgz:249159.got - 2010.06.28 00:19:55.
