data_PCOD8099670
_publ_section_title
;
Structure prediction by ZEFSAII (Michael W. Deem and Ramdas Pophale) SiO2 
 PCOD8099670
Probable space group: C 2/M
;
_chemical_formula_sum "Si O2"
_cell_formula_units_Z 64
_cell_length_a 9.102738
_cell_length_b 19.310695
_cell_length_c 22.464342
_cell_angle_alpha 90.000000
_cell_angle_beta 52.448958
_cell_angle_gamma 90.000000
_cell_volume 3130.640201
_symmetry_space_group_name_H-M "C 2/M"
_symmetry_group_IT_number 12
_symmetry_cell_setting 'monoclinic'
loop_
_space_group_symop_operation_xyz
x,y,z
-x,y,-z
-x,-y,-z
x,-y,z
1/2+x,1/2+y,z
1/2-x,1/2+y,-z
1/2-x,1/2-y,-z
1/2+x,1/2-y,z
loop_
_atom_site_type_symbol
_atom_site_label
_atom_site_fract_x
_atom_site_fract_y
_atom_site_fract_z
Si Si1 0.092373 0.920699 0.707243
Si Si2 0.746635 0.749153 0.145402
Si Si3 0.270231 0.082562 0.270426
Si Si4 0.452480 0.344496 0.172355
Si Si5 0.363479 0.577759 0.978382
Si Si6 0.053132 0.653166 0.112538
Si Si7 0.021812 0.417337 0.428015
Si Si8 0.305163 0.417679 0.574996
O O1 0.280830 0.884667 0.638904
O O2 0.909600 0.890620 0.721036
O O3 0.097425 0.912422 0.777693
O O4 0.099647 0.000000 0.687658
O O5 0.560488 0.703632 0.193644
O O6 0.721272 0.797084 0.093154
O O7 0.772956 0.801275 0.194979
O O8 0.922121 0.697172 0.100418
O O9 0.444110 0.121212 0.196444
O O10 0.239223 0.106362 0.346412
O O11 0.302308 0.000000 0.257502
O O12 0.578160 0.366785 0.085741
O O13 0.368413 0.500000 0.950908
O O14 0.500000 0.583828 0.000000
O O15 0.151834 0.592953 0.050441
O O16 0.021744 0.500000 0.423383
O O17 0.000000 0.390973 0.500000
O O18 0.858095 0.388247 0.426688
O O19 0.500000 0.389021 0.500000
O O20 0.312226 0.500000 0.572101
#
# Coordination Sequence:
#
# PCOD8099670 Si02
#       8
#     8   8   8   8   8   8   8   8
#     4  10  20  35  56  83 118 152 186 235 293 351
#     4  10  24  39  64  80 111 150 202 240 287 322
#     4  10  20  35  56  83 118 152 186 235 293 351
#     4  11  22  42  58  87 112 153 194 243 282 342
#     4  11  24  40  62  89 120 151 184 235 292 350
#     4  11  22  42  58  87 112 153 194 243 282 342
#     4   9  17  29  49  80 116 152 188 228 283 348
#     4   9  17  29  49  80 116 152 188 228 283 348
#
# _framework density 20.443103000000001
#
# number of rings (size 3 to 8) (size 9 to 14) (size 15 to 20)
#    0.000    1.875    2.500    1.500    1.750    6.500 
#    0.000    0.625    0.000    0.000    0.000    5.250 
#    0.000    0.000    0.000    0.000    0.000    0.000 
#
# Total GULP energy -396501.019341 kJ/mol
# GULP energy per Si atom -12390.656854 kJ/mol
# Density = 2.039657 g / cm^3
# Si number density = 20.443103 Si / 1000 Ang^3
#
#
#
# Elastic Constant Matrix: (Units=GPa)
#
#
# Indices 1 2 3 4 5 6 
#
# 1 132.9910 29.9544 46.7190 0.0003 4.8502 0.0000
# 2 29.9544 50.4775 25.2059 0.0001 1.8663 -0.0001
# 3 46.7190 25.2059 138.9664 0.0002 -1.8316 -0.0002
# 4 0.0003 0.0001 0.0002 5.8155 -0.0002 4.4376
# 5 4.8502 1.8663 -1.8316 -0.0002 30.3356 0.0000
# 6 0.0000 -0.0001 -0.0002 4.4376 0.0000 22.9917
#
#
#
# Elastic Compliance Matrix: (Units=1/GPa)
#
#
# Indices 1 2 3 4 5 6 
#
# 1 0.009382 -0.004324 -0.002388 0.000000 -0.001378 0.000000
# 2 -0.004324 0.023853 -0.002885 0.000000 -0.000950 0.000000
# 3 -0.002388 -0.002885 0.008536 0.000000 0.001075 0.000000
# 4 0.000000 0.000000 0.000000 0.201654 0.000002 -0.038921
# 5 -0.001378 -0.000950 0.001075 0.000002 0.033308 0.000000
# 6 0.000000 0.000000 0.000000 -0.038921 0.000000 0.051006
#
#
# Mechanical properties :
#
#
# Convention : Reuss Voigt Hill
#
# Bulk Modulus (GPa) = 44.29405 58.46595 51.38000
# Shear Modulus (GPa) = 14.10592 26.53226 20.31909
#
# Velocity S-wave (km/s) = 2.62965 3.60649 3.15609
# Velocity P-wave (km/s) = 5.56184 6.78261 6.20233
#
# Compressibility (1/GPa) = 0.02257640
#
# Stress axis : x y z
#
# Youngs Moduli (GPa) = 106.58154 41.92382 117.14642
#
# Poissons Ratio (x) = 0.18129 0.27976
# Poissons Ratio (y) = 0.46089 0.33799
# Poissons Ratio (z) = 0.25453 0.12096
#
# Static dielectric constant tensor:
#      x y z
#    x 4.017080 0.000000 -0.020080 
#    y 0.000000 3.498600 0.000000 
#    z -0.020080 0.000000 3.564480 
# 
# 
# High freq. dielectric constant tensor:
#      x y z
#    x 1.817220 0.000000 0.002670 
#    y 0.000000 1.765460 0.000000 
#    z 0.002670 0.000000 1.785320 
# 
# From -- ./inp_files/301710.got.cif
#   From: 2010.06.25/outbox.cif.g09.slc.cpg/sg12_151_cif.got.tgz:301710.got - 2010.06.28 00:19:55.
