data_PCOD8099465
_publ_section_title
;
Structure prediction by ZEFSAII (Michael W. Deem and Ramdas Pophale) SiO2 
 PCOD8099465
Probable space group: C 2/M
;
_chemical_formula_sum "Si O2"
_cell_formula_units_Z 60
_cell_length_a 7.685638
_cell_length_b 20.990934
_cell_length_c 18.247703
_cell_angle_alpha 90.000000
_cell_angle_beta 80.679088
_cell_angle_gamma 90.000000
_cell_volume 2905.009562
_symmetry_space_group_name_H-M "C 2/M"
_symmetry_group_IT_number 12
_symmetry_cell_setting 'monoclinic'
loop_
_space_group_symop_operation_xyz
x,y,z
-x,y,-z
-x,-y,-z
x,-y,z
1/2+x,1/2+y,z
1/2-x,1/2+y,-z
1/2-x,1/2-y,-z
1/2+x,1/2-y,z
loop_
_atom_site_type_symbol
_atom_site_label
_atom_site_fract_x
_atom_site_fract_y
_atom_site_fract_z
Si Si1 0.261360 0.818024 0.593480
Si Si2 0.204263 0.070574 0.968893
Si Si3 0.631915 0.611880 0.823572
Si Si4 0.865787 0.347037 0.247282
Si Si5 0.997044 0.782751 0.261873
Si Si6 0.500000 0.276193 0.500000
Si Si7 0.606373 0.073309 0.320885
Si Si8 0.245306 0.427800 0.875767
O O1 0.146650 0.788819 0.665620
O O2 0.422130 0.769195 0.569268
O O3 0.332197 0.887874 0.610941
O O4 0.147658 0.821737 0.526137
O O5 0.236767 0.113765 0.894331
O O6 0.276384 0.000000 0.945738
O O7 0.294736 0.095902 0.037912
O O8 0.000000 0.067052 0.000000
O O9 0.576900 0.683429 0.806070
O O10 0.750611 0.579108 0.753480
O O11 0.453014 0.571154 0.842784
O O12 0.017989 0.292158 0.239873
O O13 0.678230 0.314461 0.276997
O O14 0.865355 0.381037 0.168606
O O15 0.918286 0.398756 0.305543
O O16 0.582057 0.000000 0.345437
O O17 0.177338 0.500000 0.869994
#
# Coordination Sequence:
#
# PCOD8099465 Si02
#       8
#     8   8   8   8   8   4   8   8
#     4  10  21  37  61  89 113 139 176 215 253 310
#     4   8  13  25  47  74 104 139 179 219 263 319
#     4   9  17  31  54  79 106 138 178 225 269 318
#     4  11  21  34  53  76 107 143 181 228 270 311
#     4  10  20  35  56  81 106 137 181 224 266 311
#     4  10  20  38  64  90 114 142 174 208 252 306
#     4  11  22  36  55  82 113 143 177 218 267 314
#     4   9  17  30  50  78 108 141 180 220 269 325
#
# _framework density 20.653977000000001
#
# number of rings (size 3 to 8) (size 9 to 14) (size 15 to 20)
#    0.000    2.267    0.000    5.600    0.000    1.067 
#    0.000    2.667    0.000    5.600    0.000    0.000 
#    0.000    0.000    0.000    0.000    0.000    0.000 
#
# Total GULP energy -371806.197575 kJ/mol
# GULP energy per Si atom -12393.539919 kJ/mol
# Density = 2.060697 g / cm^3
# Si number density = 20.653977 Si / 1000 Ang^3
#
#
#
# Elastic Constant Matrix: (Units=GPa)
#
#
# Indices 1 2 3 4 5 6 
#
# 1 90.9521 48.3454 38.5319 0.0000 11.3842 0.0000
# 2 48.3454 138.5794 60.1533 0.0000 30.7739 0.0000
# 3 38.5319 60.1533 97.6877 0.0000 18.1634 0.0000
# 4 0.0000 0.0000 0.0000 32.0317 0.0000 11.8225
# 5 11.3842 30.7739 18.1634 0.0000 29.0333 0.0000
# 6 0.0000 0.0000 0.0000 11.8225 0.0000 22.8312
#
#
#
# Elastic Compliance Matrix: (Units=1/GPa)
#
#
# Indices 1 2 3 4 5 6 
#
# 1 0.014332 -0.003542 -0.003537 0.000000 0.000347 0.000000
# 2 -0.003542 0.012425 -0.004598 0.000000 -0.008904 0.000000
# 3 -0.003537 -0.004598 0.015050 0.000000 -0.003154 0.000000
# 4 0.000000 0.000000 0.000000 0.038595 0.000000 -0.019986
# 5 0.000347 -0.008904 -0.003154 0.000000 0.045719 0.000000
# 6 0.000000 0.000000 0.000000 -0.019986 0.000000 0.054149
#
#
# Mechanical properties :
#
#
# Convention : Reuss Voigt Hill
#
# Bulk Modulus (GPa) = 54.19096 69.03115 61.61105
# Shear Modulus (GPa) = 23.83503 28.79181 26.31342
#
# Velocity S-wave (km/s) = 3.40077 3.73769 3.57320
# Velocity P-wave (km/s) = 6.45870 7.21958 6.84971
#
# Compressibility (1/GPa) = 0.01845326
#
# Stress axis : x y z
#
# Youngs Moduli (GPa) = 69.77185 80.48225 66.44609
#
# Poissons Ratio (x) = 0.28506 0.23501
# Poissons Ratio (y) = 0.24713 0.30554
# Poissons Ratio (z) = 0.24677 0.37008
#
# Static dielectric constant tensor:
#      x y z
#    x 3.847240 0.000000 0.262120 
#    y 0.000000 3.667600 0.000000 
#    z 0.262120 0.000000 3.907960 
# 
# 
# High freq. dielectric constant tensor:
#      x y z
#    x 1.814740 0.000000 0.013510 
#    y 0.000000 1.784280 0.000000 
#    z 0.013510 0.000000 1.801140 
# 
# From -- ./inp_files/258075.got.cif
#   From: 2010.06.25/outbox.cif.g09.slc.cpg/sg12_130_cif.got.tgz:258075.got - 2010.06.28 00:19:55.
