data_PCOD8099134
_publ_section_title
;
Structure prediction by ZEFSAII (Michael W. Deem and Ramdas Pophale) SiO2 
 PCOD8099134
Probable space group: C 2/M
;
_chemical_formula_sum "Si O2"
_cell_formula_units_Z 64
_cell_length_a 20.237794
_cell_length_b 8.790433
_cell_length_c 19.727533
_cell_angle_alpha 90.000000
_cell_angle_beta 89.740347
_cell_angle_gamma 90.000000
_cell_volume 3509.471808
_symmetry_space_group_name_H-M "C 2/M"
_symmetry_group_IT_number 12
_symmetry_cell_setting 'monoclinic'
loop_
_space_group_symop_operation_xyz
x,y,z
-x,y,-z
-x,-y,-z
x,-y,z
1/2+x,1/2+y,z
1/2-x,1/2+y,-z
1/2-x,1/2-y,-z
1/2+x,1/2-y,z
loop_
_atom_site_type_symbol
_atom_site_label
_atom_site_fract_x
_atom_site_fract_y
_atom_site_fract_z
Si Si1 0.440349 0.676618 0.045944
Si Si2 0.560712 0.676852 0.798110
Si Si3 0.695790 0.822553 0.953048
Si Si4 0.302368 0.820570 0.698106
Si Si5 0.053222 0.178956 0.448733
Si Si6 0.197815 0.678349 0.796948
Si Si7 0.058638 0.821051 0.296090
Si Si8 0.701222 0.319256 0.445849
O O1 0.427549 0.500000 0.032072
O O2 0.457823 0.708248 0.123992
O O3 0.375474 0.764973 0.022936
O O4 0.500000 0.738866 0.000000
O O5 0.576381 0.500000 0.784815
O O6 0.624040 0.774064 0.775063
O O7 0.498419 0.732006 0.754541
O O8 0.708941 0.777194 0.875193
O O9 0.698426 0.000000 0.963500
O O10 0.750000 0.750000 0.000000
O O11 0.250251 0.775057 0.755241
O O12 0.374441 0.767030 0.722542
O O13 0.280460 0.740816 0.628535
O O14 0.302071 0.000000 0.687408
O O15 0.034791 0.222337 0.371854
O O16 0.127179 0.236020 0.465323
O O17 0.000000 0.255967 0.500000
O O18 0.051281 0.000000 0.458771
O O19 0.207688 0.500000 0.783502
O O20 0.073745 0.000000 0.290091
O O21 0.707098 0.500000 0.445365
O O22 0.750000 0.250000 0.500000
#
# Coordination Sequence:
#
# PCOD8099134 Si02
#       8
#     8   8   8   8   8   8   8   8
#     4   9  18  33  52  75 104 137 173 213 257 310
#     4   9  18  33  53  76 103 136 174 214 259 314
#     4  10  21  36  55  78 106 140 176 219 268 318
#     4  11  22  36  55  78 106 142 183 224 266 314
#     4   8  15  29  49  72  98 130 168 207 247 297
#     4  10  21  37  55  77 107 140 176 221 271 318
#     4   9  18  33  52  75 105 138 172 214 262 311
#     4  10  20  35  55  79 108 140 175 219 268 317
#
# _framework density 18.236362
#
# number of rings (size 3 to 8) (size 9 to 14) (size 15 to 20)
#    0.000    2.500    0.000    3.000    0.000    4.250 
#    0.000    5.000    0.000    9.375    0.000    0.000 
#    0.000    0.000    0.000    0.000    0.000    0.000 
#
# Total GULP energy -396842.137767 kJ/mol
# GULP energy per Si atom -12401.316805 kJ/mol
# Density = 1.819486 g / cm^3
# Si number density = 18.236362 Si / 1000 Ang^3
#
#
#
# Elastic Constant Matrix: (Units=GPa)
#
#
# Indices 1 2 3 4 5 6 
#
# 1 140.9717 48.1960 94.9047 0.0000 6.1628 0.0000
# 2 48.1960 68.9202 41.1309 0.0000 2.1663 0.0000
# 3 94.9047 41.1309 102.9232 0.0000 5.4836 0.0000
# 4 0.0000 0.0000 0.0000 24.7523 0.0000 2.0192
# 5 6.1628 2.1663 5.4836 0.0000 44.0783 0.0000
# 6 0.0000 0.0000 0.0000 2.0192 0.0000 33.4577
#
#
#
# Elastic Compliance Matrix: (Units=1/GPa)
#
#
# Indices 1 2 3 4 5 6 
#
# 1 0.019446 -0.003805 -0.016384 0.000000 -0.000494 0.000000
# 2 -0.003805 0.019798 -0.004409 0.000000 0.000108 0.000000
# 3 -0.016384 -0.004409 0.026629 0.000000 -0.000805 0.000000
# 4 0.000000 0.000000 0.000000 0.040600 0.000000 -0.002450
# 5 -0.000494 0.000108 -0.000805 0.000000 0.022851 0.000000
# 6 0.000000 0.000000 0.000000 -0.002450 0.000000 0.030036
#
#
# Mechanical properties :
#
#
# Convention : Reuss Voigt Hill
#
# Bulk Modulus (GPa) = 59.96499 75.69758 67.83129
# Shear Modulus (GPa) = 23.35172 29.02988 26.19080
#
# Velocity S-wave (km/s) = 3.58229 3.99415 3.79382
# Velocity P-wave (km/s) = 7.07559 7.92908 7.51446
#
# Compressibility (1/GPa) = 0.01667640
#
# Stress axis : x y z
#
# Youngs Moduli (GPa) = 51.42320 50.50916 37.55345
#
# Poissons Ratio (x) = 0.19221 0.61529
# Poissons Ratio (y) = 0.19568 0.16557
# Poissons Ratio (z) = 0.84254 0.22269
#
# Static dielectric constant tensor:
#      x y z
#    x 3.577770 0.000000 0.003210 
#    y 0.000000 3.271240 0.000000 
#    z 0.003210 0.000000 3.312810 
# 
# 
# High freq. dielectric constant tensor:
#      x y z
#    x 1.713600 0.000000 -0.000140 
#    y 0.000000 1.697720 0.000000 
#    z -0.000140 0.000000 1.707750 
# 
# From -- ./inp_files/314104.got.cif
#   From: 2010.06.25/outbox.cif.g09.slc.cpg/sg12_158_cif.got.tgz:314104.got - 2010.06.28 00:19:55.
