data_PCOD8099200
_publ_section_title
;
Structure prediction by ZEFSAII (Michael W. Deem and Ramdas Pophale) SiO2 
 PCOD8099200
Probable space group: C 2/M
;
_chemical_formula_sum "Si O2"
_cell_formula_units_Z 64
_cell_length_a 19.331053
_cell_length_b 9.635397
_cell_length_c 29.923987
_cell_angle_alpha 90.000000
_cell_angle_beta 141.758909
_cell_angle_gamma 90.000000
_cell_volume 3449.971185
_symmetry_space_group_name_H-M "C 2/M"
_symmetry_group_IT_number 12
_symmetry_cell_setting 'monoclinic'
loop_
_space_group_symop_operation_xyz
x,y,z
-x,y,-z
-x,-y,-z
x,-y,z
1/2+x,1/2+y,z
1/2-x,1/2+y,-z
1/2-x,1/2-y,-z
1/2+x,1/2-y,z
loop_
_atom_site_type_symbol
_atom_site_label
_atom_site_fract_x
_atom_site_fract_y
_atom_site_fract_z
Si Si1 0.543343 0.156643 0.231130
Si Si2 0.419329 0.838765 0.499476
Si Si3 0.040528 0.840965 0.393011
Si Si4 0.661024 0.660686 0.364472
Si Si5 0.919086 0.337409 0.849221
Si Si6 0.064165 0.161802 0.987115
Si Si7 0.804261 0.656224 0.139003
Si Si8 0.184962 0.158170 0.771778
O O1 0.589910 0.255077 0.292874
O O2 0.588806 0.205139 0.206471
O O3 0.408818 0.163218 0.158663
O O4 0.582270 0.000000 0.262111
O O5 0.500000 0.789368 0.500000
O O6 0.444554 0.753929 0.556579
O O7 0.291101 0.811113 0.421157
O O8 0.440187 0.000000 0.520728
O O9 0.125274 0.793671 0.396481
O O10 0.912992 0.821376 0.313476
O O11 0.065146 0.000000 0.418887
O O12 0.629489 0.500000 0.342175
O O13 0.945466 0.500000 0.868423
O O14 0.800553 0.293697 0.808939
O O15 0.015762 0.251000 0.922176
O O16 0.052148 0.000000 0.969057
O O17 0.192951 0.208837 0.057719
O O18 0.000000 0.199122 0.000000
O O19 0.782183 0.500000 0.145211
O O20 0.839539 0.748428 0.198425
O O21 0.191017 0.000000 0.791227
#
# Coordination Sequence:
#
# PCOD8099200 Si02
#       8
#     8   8   8   8   8   8   8   8
#     4  10  22  38  57  83 113 145 183 228 277 328
#     4  10  23  40  57  84 118 148 181 224 273 325
#     4  10  21  37  59  85 111 145 188 229 270 322
#     4  10  21  39  60  82 112 147 185 227 270 324
#     4  10  22  37  54  81 114 146 183 228 278 330
#     4  10  20  35  55  80 110 144 185 230 275 328
#     4  10  20  36  57  81 110 143 184 230 274 325
#     4  10  20  35  56  82 112 143 183 231 274 322
#
# _framework density 18.550879999999999
#
# number of rings (size 3 to 8) (size 9 to 14) (size 15 to 20)
#    0.000    2.000    2.500    0.375    1.750    3.500 
#    0.000    0.000    0.000    0.000    0.000    0.000 
#    0.000    0.000    0.000    0.000    0.000    0.000 
#
# Total GULP energy -396869.253945 kJ/mol
# GULP energy per Si atom -12402.164186 kJ/mol
# Density = 1.850866 g / cm^3
# Si number density = 18.550880 Si / 1000 Ang^3
#
#
#
# Elastic Constant Matrix: (Units=GPa)
#
#
# Indices 1 2 3 4 5 6 
#
# 1 88.1368 35.3744 40.1526 0.0000 -6.6073 0.0000
# 2 35.3744 59.1319 43.0774 0.0000 -11.5477 0.0000
# 3 40.1526 43.0774 90.6214 0.0000 1.1336 0.0000
# 4 0.0000 0.0000 0.0000 36.5339 0.0000 -6.7132
# 5 -6.6073 -11.5477 1.1336 0.0000 30.4357 0.0000
# 6 0.0000 0.0000 0.0000 -6.7132 0.0000 25.8564
#
#
#
# Elastic Compliance Matrix: (Units=1/GPa)
#
#
# Indices 1 2 3 4 5 6 
#
# 1 0.015790 -0.006280 -0.004026 0.000000 0.001195 0.000000
# 2 -0.006280 0.032037 -0.012587 0.000000 0.011261 0.000000
# 3 -0.004026 -0.012587 0.018882 0.000000 -0.006353 0.000000
# 4 0.000000 0.000000 0.000000 0.028743 0.000000 0.007463
# 5 0.001195 0.011261 -0.006353 0.000000 0.037625 0.000000
# 6 0.000000 0.000000 0.000000 0.007463 0.000000 0.040613
#
#
# Mechanical properties :
#
#
# Convention : Reuss Voigt Hill
#
# Bulk Modulus (GPa) = 47.79554 52.78876 50.29215
# Shear Modulus (GPa) = 22.07989 26.51759 24.29874
#
# Velocity S-wave (km/s) = 3.45372 3.78491 3.62310
# Velocity P-wave (km/s) = 6.45947 6.90063 6.68369
#
# Compressibility (1/GPa) = 0.02092245
#
# Stress axis : x y z
#
# Youngs Moduli (GPa) = 63.33038 31.21389 52.96090
#
# Poissons Ratio (x) = 0.19601 0.21323
# Poissons Ratio (y) = 0.39769 0.66664
# Poissons Ratio (z) = 0.25498 0.39290
#
# Static dielectric constant tensor:
#      x y z
#    x 3.571360 0.000000 0.261870 
#    y 0.000000 3.377680 0.000000 
#    z 0.261870 0.000000 3.360530 
# 
# 
# High freq. dielectric constant tensor:
#      x y z
#    x 1.727200 0.000000 0.014310 
#    y 0.000000 1.716600 0.000000 
#    z 0.014310 0.000000 1.721520 
# 
# From -- ./inp_files/378422.got.cif
#   From: 2010.06.25/outbox.cif.g09.slc.cpg/sg12_190_cif.got.tgz:378422.got - 2010.06.28 00:19:55.
