data_PCOD8099792
_publ_section_title
;
Structure prediction by ZEFSAII (Michael W. Deem and Ramdas Pophale) SiO2 
 PCOD8099792
Probable space group: C 2/M
;
_chemical_formula_sum "Si O2"
_cell_formula_units_Z 56
_cell_length_a 14.703591
_cell_length_b 9.274068
_cell_length_c 28.772059
_cell_angle_alpha 90.000000
_cell_angle_beta 49.497759
_cell_angle_gamma 90.000000
_cell_volume 2983.291143
_symmetry_space_group_name_H-M "C 2/M"
_symmetry_group_IT_number 12
_symmetry_cell_setting 'monoclinic'
loop_
_space_group_symop_operation_xyz
x,y,z
-x,y,-z
-x,-y,-z
x,-y,z
1/2+x,1/2+y,z
1/2-x,1/2+y,-z
1/2-x,1/2-y,-z
1/2+x,1/2-y,z
loop_
_atom_site_type_symbol
_atom_site_label
_atom_site_fract_x
_atom_site_fract_y
_atom_site_fract_z
Si Si1 0.152351 0.671062 0.500487
Si Si2 0.304791 0.331140 0.270916
Si Si3 0.956084 0.334743 0.808732
Si Si4 0.715672 0.834365 0.056941
Si Si5 0.882428 0.670723 0.592578
Si Si6 0.275167 0.332774 0.174942
Si Si7 0.122516 0.338962 0.932469
O O1 0.168719 0.500000 0.501543
O O2 0.250000 0.750000 0.500000
O O3 0.167334 0.717947 0.441494
O O4 0.017852 0.722687 0.558716
O O5 0.319126 0.500000 0.273838
O O6 0.432304 0.263431 0.240419
O O7 0.205872 0.266191 0.338794
O O8 0.262698 0.293865 0.233010
O O9 0.993795 0.500000 0.790093
O O10 0.914466 0.307323 0.876539
O O11 0.851077 0.295909 0.807363
O O12 0.805623 0.785824 0.066312
O O13 0.733817 0.000000 0.038411
O O14 0.750000 0.750000 0.000000
O O15 0.885575 0.500000 0.592843
O O16 0.311091 0.500000 0.155635
O O17 0.379545 0.226949 0.119133
O O18 0.180594 0.500000 0.912790
O O19 0.000000 0.352122 0.000000
#
# Coordination Sequence:
#
# PCOD8099792 Si02
#       7
#     8   8   8   8   8   8   8
#     4   9  17  33  57  81 110 148 182 219 265 308
#     4  10  20  35  57  80 104 142 187 221 260 323
#     4   9  20  37  52  73 107 138 169 218 275 322
#     4  10  21  36  54  75 102 133 170 218 273 331
#     4   8  17  34  53  78 112 146 181 218 262 321
#     4   9  20  37  53  73 102 138 176 219 270 327
#     4  10  21  35  52  75 101 131 170 219 273 325
#
# _framework density 18.771215000000002
#
# number of rings (size 3 to 8) (size 9 to 14) (size 15 to 20)
#    0.000    2.714    0.000    2.571    2.000    5.714 
#    0.000    4.286    0.000    0.000    0.000    0.000 
#    0.000    0.000    0.000    0.000    0.000    0.000 
#
# Total GULP energy -346906.790588 kJ/mol
# GULP energy per Si atom -12389.528235 kJ/mol
# Density = 1.872849 g / cm^3
# Si number density = 18.771215 Si / 1000 Ang^3
#
#
#
# Elastic Constant Matrix: (Units=GPa)
#
#
# Indices 1 2 3 4 5 6 
#
# 1 104.0323 34.9042 60.3899 0.0000 2.2295 0.0001
# 2 34.9042 53.9173 57.7699 0.0001 -0.9817 0.0002
# 3 60.3899 57.7699 160.1515 0.0000 5.2208 0.0000
# 4 0.0000 0.0001 0.0000 -4.2948 0.0000 -14.2142
# 5 2.2295 -0.9817 5.2208 0.0000 24.1529 0.0000
# 6 0.0001 0.0002 0.0000 -14.2142 0.0000 27.6520
#
#
#
# Elastic Compliance Matrix: (Units=1/GPa)
#
#
# Indices 1 2 3 4 5 6 
#
# 1 0.013162 -0.005288 -0.003031 0.000000 -0.000775 0.000000
# 2 -0.005288 0.032671 -0.009920 0.000000 0.003960 0.000000
# 3 -0.003031 -0.009920 0.011047 0.000000 -0.002511 0.000000
# 4 0.000000 0.000000 0.000000 -0.086196 0.000000 -0.044308
# 5 -0.000775 0.003960 -0.002511 0.000000 0.042178 0.000000
# 6 0.000000 0.000000 0.000000 -0.044308 0.000000 0.013388
#
#
# Mechanical properties :
#
#
# Convention : Reuss Voigt Hill
#
# Bulk Modulus (GPa) = 49.01150 69.35878 59.18514
# Shear Modulus (GPa) = 71.91216 20.50451 46.20833
#
# Velocity S-wave (km/s) = 6.19621 3.30864 4.96689
# Velocity P-wave (km/s) = 8.79530 7.18512 8.03066
#
# Compressibility (1/GPa) = 0.02040338
#
# Stress axis : x y z
#
# Youngs Moduli (GPa) = 75.97417 30.60778 90.52052
#
# Poissons Ratio (x) = 0.16185 0.27433
# Poissons Ratio (y) = 0.40174 0.89800
# Poissons Ratio (z) = 0.23025 0.30364
#
# Static dielectric constant tensor:
#      x y z
#    x 3.526550 0.000000 0.872410 
#    y 0.000000 3.423960 0.000000 
#    z 0.872410 0.000000 6.420280 
# 
# 
# High freq. dielectric constant tensor:
#      x y z
#    x 1.720420 0.000000 0.007130 
#    y 0.000000 1.715170 0.000000 
#    z 0.007130 0.000000 1.735950 
# 
# From -- ./inp_files/374960.got.cif
#   From: 2010.06.25/outbox.cif.g09.slc.cpg/sg12_188_cif.got.tgz:374960.got - 2010.06.28 00:19:55.
