data_PCOD8099857
_publ_section_title
;
Structure prediction by ZEFSAII (Michael W. Deem and Ramdas Pophale) SiO2 
 PCOD8099857
Probable space group: C 2/M
;
_chemical_formula_sum "Si O2"
_cell_formula_units_Z 64
_cell_length_a 27.752237
_cell_length_b 8.979189
_cell_length_c 14.485614
_cell_angle_alpha 90.000000
_cell_angle_beta 87.947654
_cell_angle_gamma 90.000000
_cell_volume 3607.392007
_symmetry_space_group_name_H-M "C 2/M"
_symmetry_group_IT_number 12
_symmetry_cell_setting 'monoclinic'
loop_
_space_group_symop_operation_xyz
x,y,z
-x,y,-z
-x,-y,-z
x,-y,z
1/2+x,1/2+y,z
1/2-x,1/2+y,-z
1/2-x,1/2-y,-z
1/2+x,1/2-y,z
loop_
_atom_site_type_symbol
_atom_site_label
_atom_site_fract_x
_atom_site_fract_y
_atom_site_fract_z
Si Si1 0.244992 0.677967 0.600469
Si Si2 0.562649 0.178696 0.747800
Si Si3 0.089207 0.834775 0.485102
Si Si4 0.352277 0.322208 0.344134
Si Si5 0.841178 0.833886 0.693064
Si Si6 0.506311 0.328592 0.107702
Si Si7 0.585857 0.833774 0.204609
Si Si8 0.015970 0.335537 0.383001
O O1 0.242225 0.500000 0.589695
O O2 0.250000 0.750000 0.500000
O O3 0.199201 0.742996 0.657481
O O4 0.290529 0.727817 0.658890
O O5 0.614892 0.257615 0.741275
O O6 0.535516 0.232669 0.841177
O O7 0.532816 0.234689 0.658178
O O8 0.566592 0.000000 0.750078
O O9 0.122434 0.766939 0.563112
O O10 0.120474 0.835288 0.391289
O O11 0.039069 0.746068 0.471217
O O12 0.073420 0.000000 0.514742
O O13 0.346305 0.500000 0.337991
O O14 0.861307 0.732356 0.775076
O O15 0.834235 0.000000 0.732676
O O16 0.502254 0.500000 0.139575
O O17 0.559189 0.267625 0.130664
O O18 0.500000 0.310297 0.000000
O O19 0.554796 0.836861 0.299155
O O20 0.592444 0.000000 0.164254
O O21 0.004307 0.500000 0.417769
#
# Coordination Sequence:
#
# PCOD8099857 Si02
#       8
#     8   8   8   8   8   8   8   8
#     4  11  21  34  51  72  98 134 180 227 268 303
#     4  10  21  36  51  72 100 132 168 208 255 302
#     4   9  17  29  44  64  91 128 171 209 250 294
#     4  11  22  35  48  68  98 134 176 218 261 304
#     4   9  17  31  48  68  98 134 173 217 261 300
#     4  10  20  35  57  83 108 135 164 198 247 306
#     4   9  17  29  48  76 104 132 165 204 252 299
#     4   8  16  29  44  64  92 126 165 205 245 291
#
# _framework density 17.741349
#
# number of rings (size 3 to 8) (size 9 to 14) (size 15 to 20)
#    0.000    2.375    1.250    2.625    0.000    7.000 
#    0.000    2.500    0.000    0.000    0.000    0.875 
#    0.000    0.000    0.000    0.000    0.000    0.000 
#
# Total GULP energy -396711.661231 kJ/mol
# GULP energy per Si atom -12397.239413 kJ/mol
# Density = 1.770097 g / cm^3
# Si number density = 17.741349 Si / 1000 Ang^3
#
#
#
# Elastic Constant Matrix: (Units=GPa)
#
#
# Indices 1 2 3 4 5 6 
#
# 1 123.6920 50.5077 28.7947 0.0000 17.7756 0.0000
# 2 50.5077 92.4778 28.9441 0.0000 12.7503 0.0000
# 3 28.7947 28.9441 57.0661 0.0000 13.4697 0.0000
# 4 0.0000 0.0000 0.0000 19.6948 0.0000 5.1065
# 5 17.7756 12.7503 13.4697 0.0000 19.8252 0.0000
# 6 0.0000 0.0000 0.0000 5.1065 0.0000 30.4258
#
#
#
# Elastic Compliance Matrix: (Units=1/GPa)
#
#
# Indices 1 2 3 4 5 6 
#
# 1 0.011313 -0.004783 -0.001923 0.000000 -0.005761 0.000000
# 2 -0.004783 0.015233 -0.004779 0.000000 -0.002262 0.000000
# 3 -0.001923 -0.004779 0.023564 0.000000 -0.011212 0.000000
# 4 0.000000 0.000000 0.000000 0.053085 0.000000 -0.008910
# 5 -0.005761 -0.002262 -0.011212 0.000000 0.064679 0.000000
# 6 0.000000 0.000000 0.000000 -0.008910 0.000000 0.034362
#
#
# Mechanical properties :
#
#
# Convention : Reuss Voigt Hill
#
# Bulk Modulus (GPa) = 36.84427 54.41433 45.62930
# Shear Modulus (GPa) = 21.34446 24.98845 23.16646
#
# Velocity S-wave (km/s) = 3.47232 3.75705 3.61749
# Velocity P-wave (km/s) = 6.07360 7.03975 6.57445
#
# Compressibility (1/GPa) = 0.02714126
#
# Stress axis : x y z
#
# Youngs Moduli (GPa) = 88.39338 65.64638 42.43706
#
# Poissons Ratio (x) = 0.31396 0.08160
# Poissons Ratio (y) = 0.42275 0.20282
# Poissons Ratio (z) = 0.16996 0.31374
#
# Static dielectric constant tensor:
#      x y z
#    x 3.422780 0.000000 0.199760 
#    y 0.000000 3.495370 0.000000 
#    z 0.199760 0.000000 2.956110 
# 
# 
# High freq. dielectric constant tensor:
#      x y z
#    x 1.684060 0.000000 0.012900 
#    y 0.000000 1.695950 0.000000 
#    z 0.012900 0.000000 1.646390 
# 
# From -- ./inp_files/244105.got.cif
#   From: 2010.06.25/outbox.cif.g09.slc.cpg/sg12_123_cif.got.tgz:244105.got - 2010.06.28 00:19:55.
