data_PCOD8099244
_publ_section_title
;
Structure prediction by ZEFSAII (Michael W. Deem and Ramdas Pophale) SiO2 
 PCOD8099244
Probable space group: C 2/M
;
_chemical_formula_sum "Si O2"
_cell_formula_units_Z 40
_cell_length_a 20.247635
_cell_length_b 9.226666
_cell_length_c 15.161150
_cell_angle_alpha 90.000000
_cell_angle_beta 131.339149
_cell_angle_gamma 90.000000
_cell_volume 2126.586375
_symmetry_space_group_name_H-M "C 2/M"
_symmetry_group_IT_number 12
_symmetry_cell_setting 'monoclinic'
loop_
_space_group_symop_operation_xyz
x,y,z
-x,y,-z
-x,-y,-z
x,-y,z
1/2+x,1/2+y,z
1/2-x,1/2+y,-z
1/2-x,1/2-y,-z
1/2+x,1/2-y,z
loop_
_atom_site_type_symbol
_atom_site_label
_atom_site_fract_x
_atom_site_fract_y
_atom_site_fract_z
Si Si1 0.575765 0.669408 0.629519
Si Si2 0.177225 0.669429 0.380554
Si Si3 0.998520 0.166369 0.748352
Si Si4 0.578487 0.668019 0.006678
Si Si5 0.270408 0.169701 0.770785
O O1 0.500000 0.739454 0.500000
O O2 0.578711 0.500000 0.611478
O O3 0.557606 0.701754 0.715742
O O4 0.671533 0.734227 0.690285
O O5 0.183613 0.500000 0.405797
O O6 0.250000 0.750000 0.500000
O O7 0.083312 0.727058 0.327486
O O8 0.191214 0.705375 0.290864
O O9 0.056100 0.196844 0.885319
O O10 0.964943 0.000000 0.717156
O O11 0.594715 0.500000 0.041577
O O12 0.500000 0.727060 0.000000
O O13 0.668198 0.753004 0.103657
O O14 0.271055 0.000000 0.792654
#
# Coordination Sequence:
#
# PCOD8099244 Si02
#       5
#     8   8   8   8   8
#     4   9  18  35  57  80 109 144 184 228 274 325
#     4  11  22  35  55  82 110 142 184 230 276 324
#     4  10  20  36  58  80 108 147 186 223 272 329
#     4  10  20  35  55  81 114 148 180 223 280 330
#     4  10  21  36  57  83 109 144 187 230 272 321
#
# _framework density 18.809488000000002
#
# number of rings (size 3 to 8) (size 9 to 14) (size 15 to 20)
#    0.000    2.000    2.000    1.800    0.000    6.000 
#    0.000    1.000    0.000    2.400    0.000    0.000 
#    0.000    0.000    0.000    0.000    0.000    0.000 
#
# Total GULP energy -248059.723483 kJ/mol
# GULP energy per Si atom -12402.986174 kJ/mol
# Density = 1.876668 g / cm^3
# Si number density = 18.809488 Si / 1000 Ang^3
#
#
#
# Elastic Constant Matrix: (Units=GPa)
#
#
# Indices 1 2 3 4 5 6 
#
# 1 64.2958 15.5729 27.5590 0.0000 17.2252 0.0000
# 2 15.5729 47.5390 37.3879 0.0000 5.3187 0.0000
# 3 27.5590 37.3879 121.2240 0.0000 12.7230 0.0000
# 4 0.0000 0.0000 0.0000 33.3041 0.0000 9.2850
# 5 17.2252 5.3187 12.7230 0.0000 38.6829 0.0000
# 6 0.0000 0.0000 0.0000 9.2850 0.0000 18.7885
#
#
#
# Elastic Compliance Matrix: (Units=1/GPa)
#
#
# Indices 1 2 3 4 5 6 
#
# 1 0.019478 -0.003542 -0.002565 0.000000 -0.007343 0.000000
# 2 -0.003542 0.028456 -0.008002 0.000000 0.000297 0.000000
# 3 -0.002565 -0.008002 0.011461 0.000000 -0.001527 0.000000
# 4 0.000000 0.000000 0.000000 0.034824 0.000000 -0.017210
# 5 -0.007343 0.000297 -0.001527 0.000000 0.029582 0.000000
# 6 0.000000 0.000000 0.000000 -0.017210 0.000000 0.061729
#
#
# Mechanical properties :
#
#
# Convention : Reuss Voigt Hill
#
# Bulk Modulus (GPa) = 32.07593 43.78870 37.93232
# Shear Modulus (GPa) = 22.30754 28.32437 25.31595
#
# Velocity S-wave (km/s) = 3.44753 3.88474 3.67265
# Velocity P-wave (km/s) = 5.73911 6.59184 6.18020
#
# Compressibility (1/GPa) = 0.03117602
#
# Stress axis : x y z
#
# Youngs Moduli (GPa) = 51.34126 35.14205 87.25492
#
# Poissons Ratio (x) = 0.12446 0.22381
# Poissons Ratio (y) = 0.18183 0.69824
# Poissons Ratio (z) = 0.13169 0.28122
#
# Static dielectric constant tensor:
#      x y z
#    x 3.065090 0.000000 -0.368290 
#    y 0.000000 3.206400 0.000000 
#    z -0.368290 0.000000 3.349470 
# 
# 
# High freq. dielectric constant tensor:
#      x y z
#    x 1.735730 0.000000 -0.000270 
#    y 0.000000 1.703540 0.000000 
#    z -0.000270 0.000000 1.745160 
# 
# From -- ./inp_files/165363.got.cif
#   From: 2010.06.25/outbox.cif.g09.slc.cpg/sg12_83_cif.got.tgz:165363.got - 2010.06.28 00:19:55.
