data_PCOD8099676
_publ_section_title
;
Structure prediction by ZEFSAII (Michael W. Deem and Ramdas Pophale) SiO2 
 PCOD8099676
Probable space group: C 2/M
;
_chemical_formula_sum "Si O2"
_cell_formula_units_Z 48
_cell_length_a 18.489674
_cell_length_b 14.774073
_cell_length_c 11.922890
_cell_angle_alpha 90.000000
_cell_angle_beta 43.297853
_cell_angle_gamma 90.000000
_cell_volume 2233.586955
_symmetry_space_group_name_H-M "C 2/M"
_symmetry_group_IT_number 12
_symmetry_cell_setting 'monoclinic'
loop_
_space_group_symop_operation_xyz
x,y,z
-x,y,-z
-x,-y,-z
x,-y,z
1/2+x,1/2+y,z
1/2-x,1/2+y,-z
1/2-x,1/2-y,-z
1/2+x,1/2-y,z
loop_
_atom_site_type_symbol
_atom_site_label
_atom_site_fract_x
_atom_site_fract_y
_atom_site_fract_z
Si Si1 0.276503 0.103166 0.906774
Si Si2 0.357614 0.676027 0.431707
Si Si3 0.928559 0.899181 0.734355
Si Si4 0.113712 0.267700 0.376432
Si Si5 0.092602 0.604159 0.025756
Si Si6 0.634038 0.168547 0.739813
O O1 0.299922 0.168442 0.777071
O O2 0.344973 0.137262 0.935621
O O3 0.306078 0.000000 0.842927
O O4 0.153282 0.113791 0.071861
O O5 0.455271 0.610094 0.343508
O O6 0.351085 0.752908 0.536052
O O7 0.372791 0.727553 0.296211
O O8 0.243681 0.625122 0.567776
O O9 0.901492 0.829817 0.666436
O O10 0.917073 0.000000 0.695991
O O11 0.000000 0.317614 0.500000
O O12 0.118956 0.500000 0.967742
O O13 0.967631 0.613680 0.189592
O O14 0.132626 0.666033 0.877234
#
# Coordination Sequence:
#
# PCOD8099676 Si02
#       6
#     8   8   8   8   8   8
#     4  10  21  37  58  85 113 143 185 232 281 333
#     4  10  22  35  53  80 113 145 181 221 273 336
#     4  10  21  36  57  84 112 145 185 233 282 328
#     4  10  20  35  56  84 113 144 179 228 287 336
#     4  10  20  35  57  81 104 136 183 233 271 312
#     4  10  20  36  52  78 109 145 184 220 267 323
#
# _framework density 21.490096999999999
#
# number of rings (size 3 to 8) (size 9 to 14) (size 15 to 20)
#    0.000    2.000    0.000    4.500    0.000    7.333 
#    0.000    1.667    0.000    1.000    0.000   23.333 
#    0.000    0.000    0.000    0.000    0.000    0.000 
#
# Total GULP energy -297536.144663 kJ/mol
# GULP energy per Si atom -12397.339361 kJ/mol
# Density = 2.144118 g / cm^3
# Si number density = 21.490097 Si / 1000 Ang^3
#
#
#
# Elastic Constant Matrix: (Units=GPa)
#
#
# Indices 1 2 3 4 5 6 
#
# 1 69.0382 19.8902 39.9543 0.0000 -14.6068 0.0000
# 2 19.8902 68.7680 48.1400 0.0000 3.2479 0.0000
# 3 39.9543 48.1400 119.1980 0.0000 -11.4486 0.0000
# 4 0.0000 0.0000 0.0000 14.5464 0.0000 -17.5732
# 5 -14.6068 3.2479 -11.4486 0.0000 38.6822 0.0000
# 6 0.0000 0.0000 0.0000 -17.5732 0.0000 12.0808
#
#
#
# Elastic Compliance Matrix: (Units=1/GPa)
#
#
# Indices 1 2 3 4 5 6 
#
# 1 0.019304 -0.002433 -0.004908 0.000000 0.006041 0.000000
# 2 -0.002433 0.021281 -0.008274 0.000000 -0.005155 0.000000
# 3 -0.004908 -0.008274 0.013653 0.000000 0.002882 0.000000
# 4 0.000000 0.000000 0.000000 -0.090775 0.000000 -0.132045
# 5 0.006041 -0.005155 0.002882 0.000000 0.029419 0.000000
# 6 0.000000 0.000000 0.000000 -0.132045 0.000000 -0.109302
#
#
# Mechanical properties :
#
#
# Convention : Reuss Voigt Hill
#
# Bulk Modulus (GPa) = 43.46320 52.55257 48.00788
# Shear Modulus (GPa) = -64.49900 22.99653 -20.75124
#
# Velocity S-wave (km/s) = -5.48439 3.27479 -3.11081
# Velocity P-wave (km/s) = 4.45377 6.22948 3.07980
#
# Compressibility (1/GPa) = 0.02300797
#
# Stress axis : x y z
#
# Youngs Moduli (GPa) = 51.80242 46.99012 73.24449
#
# Poissons Ratio (x) = 0.11434 0.35946
# Poissons Ratio (y) = 0.12605 0.60604
# Poissons Ratio (z) = 0.25423 0.38880
#
# Static dielectric constant tensor:
#      x y z
#    x 3.917900 0.000000 -0.368160 
#    y 0.000000 3.553260 0.000000 
#    z -0.368160 0.000000 4.107430 
# 
# 
# High freq. dielectric constant tensor:
#      x y z
#    x 1.844090 0.000000 -0.023810 
#    y 0.000000 1.811590 0.000000 
#    z -0.023810 0.000000 1.853930 
# 
# From -- ./inp_files/167549.got.cif
#   From: 2010.06.25/outbox.cif.g09.slc.cpg/sg12_84_cif.got.tgz:167549.got - 2010.06.28 00:19:55.
