data_PCOD8099103
_publ_section_title
;
Structure prediction by ZEFSAII (Michael W. Deem and Ramdas Pophale) SiO2 
 PCOD8099103
Probable space group: C 2/M
;
_chemical_formula_sum "Si O2"
_cell_formula_units_Z 56
_cell_length_a 17.572722
_cell_length_b 13.835199
_cell_length_c 14.657947
_cell_angle_alpha 90.000000
_cell_angle_beta 125.486346
_cell_angle_gamma 90.000000
_cell_volume 2901.732895
_symmetry_space_group_name_H-M "C 2/M"
_symmetry_group_IT_number 12
_symmetry_cell_setting 'monoclinic'
loop_
_space_group_symop_operation_xyz
x,y,z
-x,y,-z
-x,-y,-z
x,-y,z
1/2+x,1/2+y,z
1/2-x,1/2+y,-z
1/2-x,1/2-y,-z
1/2+x,1/2-y,z
loop_
_atom_site_type_symbol
_atom_site_label
_atom_site_fract_x
_atom_site_fract_y
_atom_site_fract_z
Si Si1 0.118639 0.778262 0.774921
Si Si2 0.065355 0.887456 0.384879
Si Si3 0.898738 0.264561 0.440994
Si Si4 0.354529 0.114467 0.726634
Si Si5 0.705170 0.111701 0.119956
Si Si6 0.432455 0.111410 0.134947
Si Si7 0.730371 0.888374 0.520798
O O1 0.140403 0.760525 0.684521
O O2 0.207728 0.838917 0.871159
O O3 0.119187 0.676098 0.826124
O O4 0.022862 0.837735 0.726337
O O5 0.084459 0.836234 0.494585
O O6 0.158339 0.875218 0.387101
O O7 0.044563 0.000000 0.389144
O O8 0.826285 0.333739 0.441058
O O9 0.000000 0.317254 0.500000
O O10 0.311874 0.156286 0.790812
O O11 0.461375 0.147175 0.794214
O O12 0.297918 0.154362 0.599035
O O13 0.348020 0.000000 0.725505
O O14 0.730314 0.000000 0.145793
O O15 0.612143 0.127541 0.995507
O O16 0.423512 0.000000 0.159630
O O17 0.701042 0.000000 0.505601
#
# Coordination Sequence:
#
# PCOD8099103 Si02
#       7
#     8   8   8   8   8   8   8
#     4  11  22  34  53  78 107 142 173 208 255 310
#     4  10  21  36  53  76 107 141 175 212 256 305
#     4  10  21  33  50  78 109 141 174 210 252 306
#     4   9  17  32  55  79 102 132 170 215 265 305
#     4  10  20  35  56  80 103 130 171 222 269 306
#     4  10  21  37  55  76 104 136 173 218 262 307
#     4  10  20  35  55  78 109 143 172 208 252 308
#
# _framework density 19.298812999999999
#
# number of rings (size 3 to 8) (size 9 to 14) (size 15 to 20)
#    0.000    2.000    0.000    4.286    0.000    8.000 
#    0.000    0.000    0.000    0.000    0.000    0.000 
#    0.000   16.000    0.000    0.000    0.000    0.000 
#
# Total GULP energy -347162.533537 kJ/mol
# GULP energy per Si atom -12398.661912 kJ/mol
# Density = 1.925489 g / cm^3
# Si number density = 19.298813 Si / 1000 Ang^3
#
#
#
# Elastic Constant Matrix: (Units=GPa)
#
#
# Indices 1 2 3 4 5 6 
#
# 1 107.2254 47.3200 26.5640 0.0000 12.9281 0.0000
# 2 47.3200 76.1111 14.5259 0.0000 -0.2096 0.0000
# 3 26.5640 14.5259 46.1571 0.0000 15.7782 0.0000
# 4 0.0000 0.0000 0.0000 17.0220 0.0000 2.9279
# 5 12.9281 -0.2096 15.7782 0.0000 28.0638 0.0000
# 6 0.0000 0.0000 0.0000 2.9279 0.0000 34.1350
#
#
#
# Elastic Compliance Matrix: (Units=1/GPa)
#
#
# Indices 1 2 3 4 5 6 
#
# 1 0.014550 -0.008239 -0.004294 0.000000 -0.004350 0.000000
# 2 -0.008239 0.018878 -0.003151 0.000000 0.005708 0.000000
# 3 -0.004294 -0.003151 0.030279 0.000000 -0.015069 0.000000
# 4 0.000000 0.000000 0.000000 0.059627 0.000000 -0.005114
# 5 -0.004350 0.005708 -0.015069 0.000000 0.046152 0.000000
# 6 0.000000 0.000000 0.000000 -0.005114 0.000000 0.029734
#
#
# Mechanical properties :
#
#
# Convention : Reuss Voigt Hill
#
# Bulk Modulus (GPa) = 30.92091 45.14592 38.03341
# Shear Modulus (GPa) = 20.71529 25.24975 22.98252
#
# Velocity S-wave (km/s) = 3.27983 3.62105 3.45465
# Velocity P-wave (km/s) = 5.51362 6.39738 5.97187
#
# Compressibility (1/GPa) = 0.03234058
#
# Stress axis : x y z
#
# Youngs Moduli (GPa) = 68.72705 52.97195 33.02610
#
# Poissons Ratio (x) = 0.43642 0.14182
# Poissons Ratio (y) = 0.56622 0.10405
# Poissons Ratio (z) = 0.29512 0.16689
#
# Static dielectric constant tensor:
#      x y z
#    x 3.643350 0.000000 0.177650 
#    y 0.000000 3.400660 0.000000 
#    z 0.177650 0.000000 3.483420 
# 
# 
# High freq. dielectric constant tensor:
#      x y z
#    x 1.758800 0.000000 0.018240 
#    y 0.000000 1.738670 0.000000 
#    z 0.018240 0.000000 1.741610 
# 
# From -- ./inp_files/224675.got.cif
#   From: 2010.06.25/outbox.cif.g09.slc.cpg/sg12_113_cif.got.tgz:224675.got - 2010.06.28 00:19:55.
