data_PCOD8099005
_publ_section_title
;
Structure prediction by ZEFSAII (Michael W. Deem and Ramdas Pophale) SiO2 
 PCOD8099005
Probable space group: C 2/M
;
_chemical_formula_sum "Si O2"
_cell_formula_units_Z 64
_cell_length_a 24.543756
_cell_length_b 8.649595
_cell_length_c 15.192196
_cell_angle_alpha 90.000000
_cell_angle_beta 92.395490
_cell_angle_gamma 90.000000
_cell_volume 3222.386777
_symmetry_space_group_name_H-M "C 2/M"
_symmetry_group_IT_number 12
_symmetry_cell_setting 'monoclinic'
loop_
_space_group_symop_operation_xyz
x,y,z
-x,y,-z
-x,-y,-z
x,-y,z
1/2+x,1/2+y,z
1/2-x,1/2+y,-z
1/2-x,1/2-y,-z
1/2+x,1/2-y,z
loop_
_atom_site_type_symbol
_atom_site_label
_atom_site_fract_x
_atom_site_fract_y
_atom_site_fract_z
Si Si1 0.765358 0.820780 0.626032
Si Si2 0.546934 0.817977 0.757533
Si Si3 0.727730 0.319813 0.175288
Si Si4 0.365407 0.181343 0.941561
Si Si5 0.847665 0.683016 0.137302
Si Si6 0.524128 0.680607 0.095679
Si Si7 0.453764 0.316583 0.430636
Si Si8 0.665794 0.682419 0.532386
O O1 0.788754 0.791441 0.724625
O O2 0.707374 0.735679 0.611143
O O3 0.810570 0.758510 0.560066
O O4 0.753255 0.000000 0.608695
O O5 0.606136 0.755354 0.792871
O O6 0.503496 0.777561 0.829233
O O7 0.530643 0.736174 0.666045
O O8 0.547396 0.000000 0.742287
O O9 0.721770 0.500000 0.148837
O O10 0.690657 0.213565 0.112134
O O11 0.789111 0.258732 0.165679
O O12 0.412228 0.278768 0.896875
O O13 0.379048 0.000000 0.939880
O O14 0.359941 0.245022 0.040398
O O15 0.848987 0.500000 0.135678
O O16 0.514909 0.500000 0.112201
O O17 0.500000 0.733042 0.000000
O O18 0.500000 0.252300 0.500000
O O19 0.452769 0.500000 0.433294
O O20 0.394577 0.247961 0.455158
O O21 0.661553 0.500000 0.533221
#
# Coordination Sequence:
#
# PCOD8099005 Si02
#       8
#     8   8   8   8   8   8   8   8
#     4   9  18  33  55  81 110 146 187 235 288 342
#     4  11  22  39  64  90 116 151 197 246 298 351
#     4  10  20  35  54  81 116 152 192 233 285 349
#     4  11  22  37  56  81 115 154 193 239 292 339
#     4   9  19  35  56  81 114 152 189 237 295 345
#     4  11  23  40  62  87 115 150 195 241 289 351
#     4  10  22  39  57  82 119 157 195 241 294 350
#     4   9  18  34  56  80 107 144 188 235 287 341
#
# _framework density 19.861056000000001
#
# number of rings (size 3 to 8) (size 9 to 14) (size 15 to 20)
#    0.000    2.000    1.250    2.250    0.000    3.750 
#    0.000    4.375    0.000    0.000    0.000    0.000 
#    0.000    0.000    0.000    0.000    0.000    0.000 
#
# Total GULP energy -396883.947293 kJ/mol
# GULP energy per Si atom -12402.623353 kJ/mol
# Density = 1.981585 g / cm^3
# Si number density = 19.861056 Si / 1000 Ang^3
#
#
#
# Elastic Constant Matrix: (Units=GPa)
#
#
# Indices 1 2 3 4 5 6 
#
# 1 106.7472 11.7307 52.6269 0.0000 -0.1985 0.0000
# 2 11.7307 21.1704 13.9287 0.0000 3.3670 0.0000
# 3 52.6269 13.9287 119.9696 0.0000 10.3572 0.0000
# 4 0.0000 0.0000 0.0000 20.8244 0.0000 3.5076
# 5 -0.1985 3.3670 10.3572 0.0000 32.7528 0.0000
# 6 0.0000 0.0000 0.0000 3.5076 0.0000 28.6024
#
#
#
# Elastic Compliance Matrix: (Units=1/GPa)
#
#
# Indices 1 2 3 4 5 6 
#
# 1 0.012325 -0.003774 -0.005149 0.000000 0.002091 0.000000
# 2 -0.003774 0.052686 -0.004104 0.000000 -0.004141 0.000000
# 3 -0.005149 -0.004104 0.011347 0.000000 -0.003197 0.000000
# 4 0.000000 0.000000 0.000000 0.049033 0.000000 -0.006013
# 5 0.002091 -0.004141 -0.003197 0.000000 0.031981 0.000000
# 6 0.000000 0.000000 0.000000 -0.006013 0.000000 0.035699
#
#
# Mechanical properties :
#
#
# Convention : Reuss Voigt Hill
#
# Bulk Modulus (GPa) = 19.87934 44.93997 32.40965
# Shear Modulus (GPa) = 21.19605 27.74267 24.46936
#
# Velocity S-wave (km/s) = 3.27037 3.74148 3.51383
# Velocity P-wave (km/s) = 4.92863 6.42971 5.72855
#
# Compressibility (1/GPa) = 0.05030349
#
# Stress axis : x y z
#
# Youngs Moduli (GPa) = 81.13577 18.98049 88.13218
#
# Poissons Ratio (x) = 0.07164 0.45378
# Poissons Ratio (y) = 0.30623 0.36167
# Poissons Ratio (z) = 0.41776 0.07789
#
# Static dielectric constant tensor:
#      x y z
#    x 3.831310 0.000000 -0.089020 
#    y 0.000000 3.323780 0.000000 
#    z -0.089020 0.000000 3.679400 
# 
# 
# High freq. dielectric constant tensor:
#      x y z
#    x 1.780590 0.000000 -0.005650 
#    y 0.000000 1.753820 0.000000 
#    z -0.005650 0.000000 1.780870 
# 
# From -- ./inp_files/238775.got.cif
#   From: 2010.06.25/outbox.cif.g09.slc.cpg/sg12_120_cif.got.tgz:238775.got - 2010.06.28 00:19:55.
