data_PCOD8099419
_publ_section_title
;
Structure prediction by ZEFSAII (Michael W. Deem and Ramdas Pophale) SiO2 
 PCOD8099419
Probable space group: C 2/M
;
_chemical_formula_sum "Si O2"
_cell_formula_units_Z 48
_cell_length_a 19.927611
_cell_length_b 9.228210
_cell_length_c 26.637423
_cell_angle_alpha 90.000000
_cell_angle_beta 146.781849
_cell_angle_gamma 90.000000
_cell_volume 2683.547949
_symmetry_space_group_name_H-M "C 2/M"
_symmetry_group_IT_number 12
_symmetry_cell_setting 'monoclinic'
loop_
_space_group_symop_operation_xyz
x,y,z
-x,y,-z
-x,-y,-z
x,-y,z
1/2+x,1/2+y,z
1/2-x,1/2+y,-z
1/2-x,1/2-y,-z
1/2+x,1/2-y,z
loop_
_atom_site_type_symbol
_atom_site_label
_atom_site_fract_x
_atom_site_fract_y
_atom_site_fract_z
Si Si1 0.660226 0.335176 0.240880
Si Si2 0.285795 0.170844 0.573088
Si Si3 0.512358 0.335609 0.247224
Si Si4 0.244980 0.330959 0.049180
Si Si5 0.525414 0.334404 0.957898
Si Si6 0.362140 0.670157 0.420988
O O1 0.706013 0.500000 0.268286
O O2 0.557832 0.310301 0.219125
O O3 0.597298 0.289513 0.149142
O O4 0.779326 0.238401 0.325424
O O5 0.250000 0.250000 0.500000
O O6 0.420352 0.225499 0.673141
O O7 0.188161 0.213447 0.555384
O O8 0.290110 0.000000 0.566640
O O9 0.540399 0.500000 0.282213
O O10 0.368320 0.302636 0.158113
O O11 0.226501 0.500000 0.026667
O O12 0.250000 0.250000 0.000000
O O13 0.135109 0.272203 0.013744
O O14 0.560736 0.500000 0.965825
O O15 0.500000 0.316362 0.000000
O O16 0.500000 0.728685 0.500000
O O17 0.356428 0.500000 0.409501
#
# Coordination Sequence:
#
# PCOD8099419 Si02
#       6
#     8   8   8   8   8   8
#     4   9  17  33  55  78 105 140 179 219 266 318
#     4  10  20  35  56  80 108 140 174 217 271 323
#     4   9  18  34  55  79 107 139 179 225 267 315
#     4  11  21  35  58  84 111 143 186 230 272 327
#     4  10  21  38  56  78 115 151 181 225 278 325
#     4   9  19  36  56  78 103 136 177 221 265 314
#
# _framework density 17.886766999999999
#
# number of rings (size 3 to 8) (size 9 to 14) (size 15 to 20)
#    0.000    2.333    1.667    1.000    0.000    3.333 
#    3.000    0.000    0.000    0.000    0.000    0.000 
#    0.000    0.000    0.000    0.000    0.000    0.000 
#
# Total GULP energy -297642.335763 kJ/mol
# GULP energy per Si atom -12401.763990 kJ/mol
# Density = 1.784606 g / cm^3
# Si number density = 17.886767 Si / 1000 Ang^3
#
#
#
# Elastic Constant Matrix: (Units=GPa)
#
#
# Indices 1 2 3 4 5 6 
#
# 1 73.4876 49.1103 72.4419 0.0000 -0.1994 0.0000
# 2 49.1103 87.2482 72.3654 0.0000 1.1667 0.0001
# 3 72.4419 72.3654 157.0387 0.0000 -1.7793 0.0000
# 4 0.0000 0.0000 0.0000 36.8697 0.0000 1.9823
# 5 -0.1994 1.1667 -1.7793 0.0000 35.2349 0.0000
# 6 0.0000 0.0001 0.0000 1.9823 0.0000 23.7378
#
#
#
# Elastic Compliance Matrix: (Units=1/GPa)
#
#
# Indices 1 2 3 4 5 6 
#
# 1 0.028184 -0.008223 -0.009213 0.000000 -0.000033 0.000000
# 2 -0.008223 0.020990 -0.005891 0.000000 -0.001039 0.000000
# 3 -0.009213 -0.005891 0.013342 0.000000 0.000817 0.000000
# 4 0.000000 0.000000 0.000000 0.027245 0.000000 -0.002275
# 5 -0.000033 -0.001039 0.000817 0.000000 0.028456 0.000000
# 6 0.000000 0.000000 0.000000 -0.002275 0.000000 0.042317
#
#
# Mechanical properties :
#
#
# Convention : Reuss Voigt Hill
#
# Bulk Modulus (GPa) = 63.04007 78.40107 70.72057
# Shear Modulus (GPa) = 23.53219 27.42561 25.47890
#
# Velocity S-wave (km/s) = 3.63108 3.91997 3.77829
# Velocity P-wave (km/s) = 7.27325 8.02591 7.65883
#
# Compressibility (1/GPa) = 0.01586293
#
# Stress axis : x y z
#
# Youngs Moduli (GPa) = 35.48074 47.64145 74.95381
#
# Poissons Ratio (x) = 0.39175 0.69052
# Poissons Ratio (y) = 0.29175 0.44156
# Poissons Ratio (z) = 0.32687 0.28066
#
# Static dielectric constant tensor:
#      x y z
#    x 3.117370 0.000000 0.033000 
#    y 0.000000 3.385670 0.000000 
#    z 0.033000 0.000000 3.446110 
# 
# 
# High freq. dielectric constant tensor:
#      x y z
#    x 1.673220 0.000000 -0.000240 
#    y 0.000000 1.695160 0.000000 
#    z -0.000240 0.000000 1.702160 
# 
# From -- ./inp_files/320319.got.cif
#   From: 2010.06.25/outbox.cif.g09.slc.cpg/sg12_161_cif.got.tgz:320319.got - 2010.06.28 00:19:55.
