data_PCOD8099769
_publ_section_title
;
Structure prediction by ZEFSAII (Michael W. Deem and Ramdas Pophale) SiO2 
 PCOD8099769
Probable space group: C 2/M
;
_chemical_formula_sum "Si O2"
_cell_formula_units_Z 56
_cell_length_a 30.147834
_cell_length_b 8.828082
_cell_length_c 11.851437
_cell_angle_alpha 90.000000
_cell_angle_beta 119.986291
_cell_angle_gamma 90.000000
_cell_volume 2732.021388
_symmetry_space_group_name_H-M "C 2/M"
_symmetry_group_IT_number 12
_symmetry_cell_setting 'monoclinic'
loop_
_space_group_symop_operation_xyz
x,y,z
-x,y,-z
-x,-y,-z
x,-y,z
1/2+x,1/2+y,z
1/2-x,1/2+y,-z
1/2-x,1/2-y,-z
1/2+x,1/2-y,z
loop_
_atom_site_type_symbol
_atom_site_label
_atom_site_fract_x
_atom_site_fract_y
_atom_site_fract_z
Si Si1 0.247424 0.174181 0.116662
Si Si2 0.913870 0.825900 0.138191
Si Si3 0.993706 0.677980 0.621502
Si Si4 0.656623 0.333428 0.748511
Si Si5 0.307419 0.180259 0.578243
Si Si6 0.608130 0.671230 0.461898
Si Si7 0.843948 0.178426 0.848887
O O1 0.302411 0.209253 0.241516
O O2 0.203645 0.241927 0.139904
O O3 0.236563 0.000000 0.086932
O O4 0.250000 0.250000 0.000000
O O5 0.864077 0.798738 0.152816
O O6 0.958032 0.716285 0.238178
O O7 0.932372 0.000000 0.171857
O O8 0.896185 0.789172 0.986787
O O9 0.985648 0.500000 0.607796
O O10 0.945997 0.749060 0.629492
O O11 0.000000 0.738487 0.500000
O O12 0.682638 0.500000 0.781107
O O13 0.610595 0.329448 0.601071
O O14 0.250000 0.250000 0.500000
O O15 0.342304 0.239369 0.520232
O O16 0.341002 0.228773 0.729674
O O17 0.301722 0.000000 0.565173
O O18 0.607861 0.500000 0.412313
O O19 0.838936 0.000000 0.816049
#
# Coordination Sequence:
#
# PCOD8099769 Si02
#       7
#     8   8   8   8   8   8   8
#     4  11  21  33  53  83 120 158 198 247 304 371
#     4  10  20  38  61  88 124 164 206 254 310 374
#     4  11  23  38  60  95 134 169 209 259 315 374
#     4  10  20  35  56  87 121 157 202 250 307 370
#     4  12  26  45  68  94 127 166 213 263 312 374
#     4  11  23  41  67  93 123 165 213 261 313 373
#     4  10  22  41  62  87 123 166 210 260 315 373
#
# _framework density 20.497643
#
# number of rings (size 3 to 8) (size 9 to 14) (size 15 to 20)
#    0.000    1.286    2.857    3.429    0.000    6.286 
#    0.000    0.714    0.000    4.286    0.000    0.000 
#    0.000    0.000    0.000    0.000    0.000    0.000 
#
# Total GULP energy -347064.106028 kJ/mol
# GULP energy per Si atom -12395.146644 kJ/mol
# Density = 2.045099 g / cm^3
# Si number density = 20.497643 Si / 1000 Ang^3
#
#
#
# Elastic Constant Matrix: (Units=GPa)
#
#
# Indices 1 2 3 4 5 6 
#
# 1 86.7045 39.3215 24.4859 0.0000 9.6965 0.0000
# 2 39.3215 95.8819 32.2036 0.0000 3.7631 0.0000
# 3 24.4859 32.2036 106.1862 0.0000 6.1152 0.0000
# 4 0.0000 0.0000 0.0000 34.0643 0.0000 3.3542
# 5 9.6965 3.7631 6.1152 0.0000 29.0022 0.0000
# 6 0.0000 0.0000 0.0000 3.3542 0.0000 34.9983
#
#
#
# Elastic Compliance Matrix: (Units=1/GPa)
#
#
# Indices 1 2 3 4 5 6 
#
# 1 0.014873 -0.005421 -0.001559 0.000000 -0.003941 0.000000
# 2 -0.005421 0.013606 -0.002914 0.000000 0.000662 0.000000
# 3 -0.001559 -0.002914 0.010739 0.000000 -0.001365 0.000000
# 4 0.000000 0.000000 0.000000 0.029636 0.000000 -0.002840
# 5 -0.003941 0.000662 -0.001365 0.000000 0.036000 0.000000
# 6 0.000000 0.000000 0.000000 -0.002840 0.000000 0.028845
#
#
# Mechanical properties :
#
#
# Convention : Reuss Voigt Hill
#
# Bulk Modulus (GPa) = 51.46780 53.42163 52.44471
# Shear Modulus (GPa) = 31.25723 32.46372 31.86047
#
# Velocity S-wave (km/s) = 3.90926 3.98399 3.94680
# Velocity P-wave (km/s) = 6.74833 6.87618 6.81256
#
# Compressibility (1/GPa) = 0.01942962
#
# Stress axis : x y z
#
# Youngs Moduli (GPa) = 67.23646 73.49905 93.11656
#
# Poissons Ratio (x) = 0.39846 0.14512
# Poissons Ratio (y) = 0.36451 0.27136
# Poissons Ratio (z) = 0.10479 0.21419
#
# Static dielectric constant tensor:
#      x y z
#    x 26.017500 0.000000 5.258020 
#    y 0.000000 4.069990 0.000000 
#    z 5.258020 0.000000 5.053120 
# 
# 
# High freq. dielectric constant tensor:
#      x y z
#    x 1.788470 0.000000 0.008490 
#    y 0.000000 1.795350 0.000000 
#    z 0.008490 0.000000 1.808710 
# 
# From -- ./inp_files/181013.got.cif
#   From: 2010.06.25/outbox.cif.g09.slc.cpg/sg12_91_cif.got.tgz:181013.got - 2010.06.28 00:19:55.
