data_PCOD8099966
_publ_section_title
;
Structure prediction by ZEFSAII (Michael W. Deem and Ramdas Pophale) SiO2 
 PCOD8099966
Probable space group: C 2/M
;
_chemical_formula_sum "Si O2"
_cell_formula_units_Z 64
_cell_length_a 24.182412
_cell_length_b 9.058538
_cell_length_c 14.950876
_cell_angle_alpha 90.000000
_cell_angle_beta 92.104986
_cell_angle_gamma 90.000000
_cell_volume 3272.888467
_symmetry_space_group_name_H-M "C 2/M"
_symmetry_group_IT_number 12
_symmetry_cell_setting 'monoclinic'
loop_
_space_group_symop_operation_xyz
x,y,z
-x,y,-z
-x,-y,-z
x,-y,z
1/2+x,1/2+y,z
1/2-x,1/2+y,-z
1/2-x,1/2-y,-z
1/2+x,1/2-y,z
loop_
_atom_site_type_symbol
_atom_site_label
_atom_site_fract_x
_atom_site_fract_y
_atom_site_fract_z
Si Si1 0.830037 0.828774 0.963302
Si Si2 0.773148 0.672681 0.316869
Si Si3 0.351279 0.328947 0.646004
Si Si4 0.357175 0.666914 0.441842
Si Si5 0.545771 0.672310 0.075280
Si Si6 0.734372 0.327337 0.863427
Si Si7 0.449954 0.174681 0.740716
Si Si8 0.519958 0.331176 0.597697
O O1 0.894093 0.784811 0.960065
O O2 0.794806 0.738457 0.888580
O O3 0.820276 0.000000 0.941111
O O4 0.809244 0.788865 0.061312
O O5 0.779580 0.500000 0.301438
O O6 0.711625 0.717677 0.341704
O O7 0.813059 0.721057 0.399076
O O8 0.790183 0.755879 0.227436
O O9 0.361111 0.500000 0.669283
O O10 0.368169 0.291957 0.545542
O O11 0.389006 0.234122 0.714303
O O12 0.333785 0.500000 0.434352
O O13 0.414050 0.681099 0.390904
O O14 0.542844 0.500000 0.099457
O O15 0.531897 0.765706 0.161977
O O16 0.500000 0.715643 0.000000
O O17 0.741010 0.500000 0.849174
O O18 0.494610 0.228324 0.671672
O O19 0.448987 0.000000 0.742093
O O20 0.500000 0.274432 0.500000
O O21 0.499715 0.500000 0.610860
#
# Coordination Sequence:
#
# PCOD8099966 Si02
#       8
#     8   8   8   8   8   8   8   8
#     4   9  19  37  60  84 110 144 191 244 292 339
#     4  11  23  36  55  85 122 156 190 238 295 349
#     4  10  21  40  61  82 114 158 203 240 283 350
#     4  10  21  38  61  84 111 152 199 244 289 341
#     4  10  22  41  63  85 113 153 201 245 289 352
#     4  10  20  35  57  84 114 149 192 237 287 350
#     4  12  25  38  60  93 124 154 192 247 307 354
#     4  10  20  40  66  86 112 155 204 245 286 346
#
# _framework density 19.554592
#
# number of rings (size 3 to 8) (size 9 to 14) (size 15 to 20)
#    0.000    1.750    1.250    3.000    0.000    7.500 
#    0.000    2.500    0.000    0.000    0.000    0.000 
#    0.000    0.000    0.000    0.000    0.000    0.000 
#
# Total GULP energy -397001.954510 kJ/mol
# GULP energy per Si atom -12406.311078 kJ/mol
# Density = 1.951009 g / cm^3
# Si number density = 19.554592 Si / 1000 Ang^3
#
#
#
# Elastic Constant Matrix: (Units=GPa)
#
#
# Indices 1 2 3 4 5 6 
#
# 1 97.1044 43.8673 51.9165 0.0000 1.2102 0.0000
# 2 43.8673 90.3407 60.9225 0.0000 2.2349 0.0000
# 3 51.9165 60.9225 111.9403 0.0000 5.2370 0.0000
# 4 0.0000 0.0000 0.0000 29.8855 0.0000 3.9602
# 5 1.2102 2.2349 5.2370 0.0000 27.5954 0.0000
# 6 0.0000 0.0000 0.0000 3.9602 0.0000 29.9282
#
#
#
# Elastic Compliance Matrix: (Units=1/GPa)
#
#
# Indices 1 2 3 4 5 6 
#
# 1 0.014551 -0.003967 -0.004616 0.000000 0.000559 0.000000
# 2 -0.003967 0.018573 -0.008280 0.000000 0.000241 0.000000
# 3 -0.004616 -0.008280 0.015679 0.000000 -0.002102 0.000000
# 4 0.000000 0.000000 0.000000 0.034058 0.000000 -0.004507
# 5 0.000559 0.000241 -0.002102 0.000000 0.036593 0.000000
# 6 0.000000 0.000000 0.000000 -0.004507 0.000000 0.034010
#
#
# Mechanical properties :
#
#
# Convention : Reuss Voigt Hill
#
# Bulk Modulus (GPa) = 66.32181 68.08865 67.20523
# Shear Modulus (GPa) = 26.01266 26.99376 26.50321
#
# Velocity S-wave (km/s) = 3.65123 3.71945 3.68549
# Velocity P-wave (km/s) = 7.19480 7.30350 7.24935
#
# Compressibility (1/GPa) = 0.01507800
#
# Stress axis : x y z
#
# Youngs Moduli (GPa) = 68.72341 53.84191 63.78097
#
# Poissons Ratio (x) = 0.21357 0.29441
# Poissons Ratio (y) = 0.27260 0.52809
# Poissons Ratio (z) = 0.31722 0.44580
#
# Static dielectric constant tensor:
#      x y z
#    x 3.591710 0.000000 -0.087030 
#    y 0.000000 3.455410 0.000000 
#    z -0.087030 0.000000 3.604830 
# 
# 
# High freq. dielectric constant tensor:
#      x y z
#    x 1.766770 0.000000 -0.005660 
#    y 0.000000 1.753180 0.000000 
#    z -0.005660 0.000000 1.767920 
# 
# From -- ./inp_files/244022.got.cif
#   From: 2010.06.25/outbox.cif.g09.slc.cpg/sg12_123_cif.got.tgz:244022.got - 2010.06.28 00:19:55.
