data_PCOD8099084
_publ_section_title
;
Structure prediction by ZEFSAII (Michael W. Deem and Ramdas Pophale) SiO2 
 PCOD8099084
Probable space group: C 2/M
;
_chemical_formula_sum "Si O2"
_cell_formula_units_Z 56
_cell_length_a 35.914450
_cell_length_b 9.627304
_cell_length_c 10.510154
_cell_angle_alpha 90.000000
_cell_angle_beta 57.037807
_cell_angle_gamma 90.000000
_cell_volume 3049.020576
_symmetry_space_group_name_H-M "C 2/M"
_symmetry_group_IT_number 12
_symmetry_cell_setting 'monoclinic'
loop_
_space_group_symop_operation_xyz
x,y,z
-x,y,-z
-x,-y,-z
x,-y,z
1/2+x,1/2+y,z
1/2-x,1/2+y,-z
1/2-x,1/2-y,-z
1/2+x,1/2-y,z
loop_
_atom_site_type_symbol
_atom_site_label
_atom_site_fract_x
_atom_site_fract_y
_atom_site_fract_z
Si Si1 0.990485 0.840847 0.660134
Si Si2 0.687015 0.338786 0.056782
Si Si3 0.896441 0.157851 0.945128
Si Si4 0.113801 0.340913 0.799645
Si Si5 0.790655 0.339069 0.475301
Si Si6 0.526201 0.840259 0.824322
Si Si7 0.716989 0.157910 0.218255
O O1 0.937804 0.830639 0.774287
O O2 0.000000 0.784712 0.500000
O O3 0.014953 0.750591 0.721866
O O4 0.006979 0.000000 0.643847
O O5 0.681773 0.500000 0.099878
O O6 0.646463 0.284274 0.047996
O O7 0.686413 0.256161 0.189862
O O8 0.731297 0.305394 0.895374
O O9 0.888501 0.000000 0.005179
O O10 0.905553 0.250727 0.050312
O O11 0.115781 0.500000 0.840843
O O12 0.162980 0.288759 0.671408
O O13 0.079170 0.324935 0.747856
O O14 0.780811 0.500000 0.463365
O O15 0.750000 0.250000 0.500000
O O16 0.796289 0.313900 0.613544
O O17 0.513135 0.000000 0.820330
O O18 0.500000 0.789378 0.000000
O O19 0.707811 0.000000 0.194159
#
# Coordination Sequence:
#
# PCOD8099084 Si02
#       7
#     8   8   8   8   8   8   8
#     4  10  22  38  56  82 115 147 184 233 286 339
#     4   9  18  32  51  73  99 134 174 213 258 317
#     4  10  20  35  55  78 106 141 182 225 274 331
#     4  10  21  36  56  82 109 142 185 230 273 325
#     4  10  21  36  54  78 110 142 177 223 272 322
#     4  10  20  37  59  82 112 148 189 234 279 334
#     4   9  18  33  50  71 101 135 170 212 263 317
#
# _framework density 18.366554000000001
#
# number of rings (size 3 to 8) (size 9 to 14) (size 15 to 20)
#    0.000    2.286    1.429    0.857    0.000    5.143 
#    0.000    2.857    0.000    0.000    0.000    0.000 
#    0.000    0.000    0.000    0.000    0.000    0.000 
#
# Total GULP energy -347245.295113 kJ/mol
# GULP energy per Si atom -12401.617683 kJ/mol
# Density = 1.832475 g / cm^3
# Si number density = 18.366554 Si / 1000 Ang^3
#
#
#
# Elastic Constant Matrix: (Units=GPa)
#
#
# Indices 1 2 3 4 5 6 
#
# 1 105.5928 46.9765 39.4077 0.0000 6.6675 0.0000
# 2 46.9765 65.2976 47.1188 0.0000 12.1887 0.0000
# 3 39.4077 47.1188 109.2547 0.0000 7.2756 0.0000
# 4 0.0000 0.0000 0.0000 28.9383 0.0000 7.2580
# 5 6.6675 12.1887 7.2756 0.0000 27.4462 0.0000
# 6 0.0000 0.0000 0.0000 7.2580 0.0000 34.2583
#
#
#
# Elastic Compliance Matrix: (Units=1/GPa)
#
#
# Indices 1 2 3 4 5 6 
#
# 1 0.014038 -0.009581 -0.001005 0.000000 0.001111 0.000000
# 2 -0.009581 0.030384 -0.009064 0.000000 -0.008763 0.000000
# 3 -0.001005 -0.009064 0.013377 0.000000 0.000724 0.000000
# 4 0.000000 0.000000 0.000000 0.036496 0.000000 -0.007732
# 5 0.001111 -0.008763 0.000724 0.000000 0.039865 0.000000
# 6 0.000000 0.000000 0.000000 -0.007732 0.000000 0.030828
#
#
# Mechanical properties :
#
#
# Convention : Reuss Voigt Hill
#
# Bulk Modulus (GPa) = 54.06360 60.79457 57.42909
# Shear Modulus (GPa) = 23.75815 27.90469 25.83142
#
# Velocity S-wave (km/s) = 3.60050 3.90208 3.75432
# Velocity P-wave (km/s) = 6.83993 7.31260 7.08021
#
# Compressibility (1/GPa) = 0.01849673
#
# Stress axis : x y z
#
# Youngs Moduli (GPa) = 71.23605 32.91209 74.75754
#
# Poissons Ratio (x) = 0.31534 0.07515
# Poissons Ratio (y) = 0.68252 0.67763
# Poissons Ratio (z) = 0.07161 0.29833
#
# Static dielectric constant tensor:
#      x y z
#    x 3.480220 0.000000 -0.056640 
#    y 0.000000 3.386250 0.000000 
#    z -0.056640 0.000000 3.369000 
# 
# 
# High freq. dielectric constant tensor:
#      x y z
#    x 1.718600 0.000000 -0.004690 
#    y 0.000000 1.707290 0.000000 
#    z -0.004690 0.000000 1.707880 
# 
# From -- ./inp_files/109884.got.cif
#   From: 2010.06.25/outbox.cif.g09.slc.cpg/sg12_55_cif.got.tgz:109884.got - 2010.06.28 00:19:55.
