data_PCOD8099035
_publ_section_title
;
Structure prediction by ZEFSAII (Michael W. Deem and Ramdas Pophale) SiO2 
 PCOD8099035
Probable space group: C 2/M
;
_chemical_formula_sum "Si O2"
_cell_formula_units_Z 56
_cell_length_a 18.196156
_cell_length_b 8.984539
_cell_length_c 18.908266
_cell_angle_alpha 90.000000
_cell_angle_beta 103.470007
_cell_angle_gamma 90.000000
_cell_volume 3006.167575
_symmetry_space_group_name_H-M "C 2/M"
_symmetry_group_IT_number 12
_symmetry_cell_setting 'monoclinic'
loop_
_space_group_symop_operation_xyz
x,y,z
-x,y,-z
-x,-y,-z
x,-y,z
1/2+x,1/2+y,z
1/2-x,1/2+y,-z
1/2-x,1/2-y,-z
1/2+x,1/2-y,z
loop_
_atom_site_type_symbol
_atom_site_label
_atom_site_fract_x
_atom_site_fract_y
_atom_site_fract_z
Si Si1 0.410489 0.676283 0.293147
Si Si2 0.193743 0.324457 0.433260
Si Si3 0.080969 0.676216 0.998294
Si Si4 0.624618 0.175960 0.153973
Si Si5 0.023253 0.325394 0.426572
Si Si6 0.455196 0.175081 0.159767
Si Si7 0.256407 0.822901 0.708818
O O1 0.414725 0.500000 0.296282
O O2 0.472251 0.740228 0.359535
O O3 0.424608 0.730111 0.217262
O O4 0.328417 0.735339 0.298716
O O5 0.204054 0.500000 0.441107
O O6 0.250000 0.250000 0.500000
O O7 0.109088 0.275846 0.433262
O O8 0.213237 0.265157 0.359520
O O9 0.075582 0.500000 0.000961
O O10 0.136950 0.730864 0.074366
O O11 0.097814 0.719919 0.920386
O O12 0.000000 0.744413 0.000000
O O13 0.541928 0.220456 0.164215
O O14 0.689421 0.246585 0.218117
O O15 0.632274 0.000000 0.158760
O O16 0.012030 0.500000 0.411505
O O17 0.000000 0.277480 0.500000
O O18 0.449107 0.000000 0.175580
O O19 0.258991 0.000000 0.711914
#
# Coordination Sequence:
#
# PCOD8099035 Si02
#       7
#     8   8   8   8   8   8   8
#     4  11  22  33  47  70 101 135 167 197 235 288
#     4  10  20  35  55  77 100 127 159 195 238 287
#     4   7  11  21  43  74  96 115 155 207 250 287
#     4   8  13  26  50  74  94 121 163 210 247 286
#     4  10  21  37  57  79 100 124 158 202 249 289
#     4   9  16  29  51  75  97 123 161 209 252 288
#     4   9  18  31  46  67  97 132 165 196 235 286
#
# _framework density 18.628367999999998
#
# number of rings (size 3 to 8) (size 9 to 14) (size 15 to 20)
#    0.000    2.857    0.000    3.857    0.000    3.143 
#    0.000    1.429    0.000    5.571    0.000    0.000 
#    0.000    0.000    0.000    0.000    0.000    0.000 
#
# Total GULP energy -346946.851545 kJ/mol
# GULP energy per Si atom -12390.958984 kJ/mol
# Density = 1.858597 g / cm^3
# Si number density = 18.628368 Si / 1000 Ang^3
#
#
#
# Elastic Constant Matrix: (Units=GPa)
#
#
# Indices 1 2 3 4 5 6 
#
# 1 132.3941 29.2402 95.3875 0.0000 2.2721 0.0000
# 2 29.2402 21.6302 35.7836 0.0000 -0.0036 0.0000
# 3 95.3875 35.7836 210.3759 0.0000 4.1954 0.0000
# 4 0.0000 0.0000 0.0000 17.9566 0.0000 -3.7040
# 5 2.2721 -0.0036 4.1954 0.0000 29.8184 0.0000
# 6 0.0000 0.0000 0.0000 -3.7040 0.0000 16.5779
#
#
#
# Elastic Compliance Matrix: (Units=1/GPa)
#
#
# Indices 1 2 3 4 5 6 
#
# 1 0.012785 -0.010725 -0.003965 0.000000 -0.000418 0.000000
# 2 -0.010725 0.073403 -0.007661 0.000000 0.001904 0.000000
# 3 -0.003965 -0.007661 0.007870 0.000000 -0.000806 0.000000
# 4 0.000000 0.000000 0.000000 0.058381 0.000000 0.013044
# 5 -0.000418 0.001904 -0.000806 0.000000 0.033682 0.000000
# 6 0.000000 0.000000 0.000000 0.013044 0.000000 0.063236
#
#
# Mechanical properties :
#
#
# Convention : Reuss Voigt Hill
#
# Bulk Modulus (GPa) = 20.25988 76.13588 48.19788
# Shear Modulus (GPa) = 16.10254 26.46983 21.28619
#
# Velocity S-wave (km/s) = 2.94327 3.77363 3.38402
# Velocity P-wave (km/s) = 4.73813 7.74252 6.41859
#
# Compressibility (1/GPa) = 0.04935863
#
# Stress axis : x y z
#
# Youngs Moduli (GPa) = 78.21388 13.62335 127.06413
#
# Poissons Ratio (x) = 0.14611 0.50375
# Poissons Ratio (y) = 0.83885 0.97337
# Poissons Ratio (z) = 0.31008 0.10436
#
# Static dielectric constant tensor:
#      x y z
#    x 3.464470 0.000000 0.010400 
#    y 0.000000 2.924540 0.000000 
#    z 0.010400 0.000000 4.055010 
# 
# 
# High freq. dielectric constant tensor:
#      x y z
#    x 1.709690 0.000000 -0.000650 
#    y 0.000000 1.672010 0.000000 
#    z -0.000650 0.000000 1.753610 
# 
# From -- ./inp_files/275483.got.cif
#   From: 2010.06.25/outbox.cif.g09.slc.cpg/sg12_138_cif.got.tgz:275483.got - 2010.06.28 00:19:55.
