data_PCOD8099250
_publ_section_title
;
Structure prediction by ZEFSAII (Michael W. Deem and Ramdas Pophale) SiO2 
 PCOD8099250
Probable space group: C 2/M
;
_chemical_formula_sum "Si O2"
_cell_formula_units_Z 40
_cell_length_a 15.756746
_cell_length_b 9.115037
_cell_length_c 31.149580
_cell_angle_alpha 90.000000
_cell_angle_beta 27.615404
_cell_angle_gamma 90.000000
_cell_volume 2073.762504
_symmetry_space_group_name_H-M "C 2/M"
_symmetry_group_IT_number 12
_symmetry_cell_setting 'monoclinic'
loop_
_space_group_symop_operation_xyz
x,y,z
-x,y,-z
-x,-y,-z
x,-y,z
1/2+x,1/2+y,z
1/2-x,1/2+y,-z
1/2-x,1/2-y,-z
1/2+x,1/2-y,z
loop_
_atom_site_type_symbol
_atom_site_label
_atom_site_fract_x
_atom_site_fract_y
_atom_site_fract_z
Si Si1 0.816206 0.174112 0.105681
Si Si2 0.374876 0.172724 0.409429
Si Si3 0.289381 0.833340 0.594050
Si Si4 0.484568 0.332044 0.208854
Si Si5 0.783137 0.173796 0.216747
O O1 0.643763 0.234707 0.157184
O O2 0.822340 0.237604 0.151581
O O3 0.798422 0.000000 0.113783
O O4 0.000000 0.227329 0.000000
O O5 0.250000 0.250000 0.500000
O O6 0.318718 0.220973 0.387195
O O7 0.583772 0.223861 0.322535
O O8 0.351601 0.000000 0.424584
O O9 0.500000 0.785085 0.500000
O O10 0.202777 0.820200 0.680021
O O11 0.271737 0.000000 0.584341
O O12 0.552599 0.500000 0.176967
O O13 0.435162 0.273004 0.183081
O O14 0.788020 0.000000 0.212021
#
# Coordination Sequence:
#
# PCOD8099250 Si02
#       5
#     8   8   8   8   8
#     4  10  21  39  61  84 114 151 192 240 292 342
#     4  11  21  35  56  81 115 154 194 236 284 344
#     4  10  20  35  55  81 115 153 194 237 287 343
#     4  10  20  36  59  83 113 151 192 236 283 343
#     4   9  19  37  58  81 114 154 187 229 293 347
#
# _framework density 19.288612000000001
#
# number of rings (size 3 to 8) (size 9 to 14) (size 15 to 20)
#    0.000    2.000    2.000    1.800    0.000    4.800 
#    0.000    5.000    0.000    0.000    0.000    0.000 
#    0.000    0.000    0.000    0.000    0.000    0.000 
#
# Total GULP energy -247991.961646 kJ/mol
# GULP energy per Si atom -12399.598082 kJ/mol
# Density = 1.924471 g / cm^3
# Si number density = 19.288612 Si / 1000 Ang^3
#
#
#
# Elastic Constant Matrix: (Units=GPa)
#
#
# Indices 1 2 3 4 5 6 
#
# 1 153.3511 22.1756 64.6829 0.0034 5.7184 0.0138
# 2 22.1756 34.8446 27.6988 0.0154 2.9267 0.0261
# 3 64.6829 27.6988 122.4732 -0.0093 2.1853 -0.0051
# 4 0.0034 0.0154 -0.0093 24.2918 -0.0025 -1.9554
# 5 5.7184 2.9267 2.1853 -0.0025 29.8659 -0.0002
# 6 0.0138 0.0261 -0.0051 -1.9554 -0.0002 30.6353
#
#
#
# Elastic Compliance Matrix: (Units=1/GPa)
#
#
# Indices 1 2 3 4 5 6 
#
# 1 0.008571 -0.002167 -0.004016 -0.000002 -0.001135 -0.000003
# 2 -0.002167 0.035782 -0.006902 -0.000028 -0.002587 -0.000032
# 3 -0.004016 -0.006902 0.011837 0.000010 0.000579 0.000010
# 4 -0.000002 -0.000028 0.000010 0.041379 0.000006 0.002641
# 5 -0.001135 -0.002587 0.000579 0.000006 0.033911 0.000003
# 6 -0.000003 -0.000032 0.000010 0.002641 0.000003 0.032811
#
#
# Mechanical properties :
#
#
# Convention : Reuss Voigt Hill
#
# Bulk Modulus (GPa) = 33.31188 59.97596 46.64392
# Shear Modulus (GPa) = 24.94191 30.03273 27.48732
#
# Velocity S-wave (km/s) = 3.59986 3.95019 3.77908
# Velocity P-wave (km/s) = 5.88102 7.20880 6.57849
#
# Compressibility (1/GPa) = 0.03001932
#
# Stress axis : x y z
#
# Youngs Moduli (GPa) = 116.67749 27.94739 84.48210
#
# Poissons Ratio (x) = 0.06055 0.33930
# Poissons Ratio (y) = 0.25279 0.58310
# Poissons Ratio (z) = 0.46861 0.19289
#
# Static dielectric constant tensor:
#      x y z
#    x 3.856710 -0.000040 0.266080 
#    y -0.000040 3.368250 -0.000040 
#    z 0.266080 -0.000040 3.802420 
# 
# 
# High freq. dielectric constant tensor:
#      x y z
#    x 1.762450 0.000000 0.004540 
#    y 0.000000 1.723440 0.000000 
#    z 0.004540 0.000000 1.755240 
# 
# From -- ./inp_files/140403.got.cif
#   From: 2010.06.25/outbox.cif.g09.slc.cpg/sg12_71_cif.got.tgz:140403.got - 2010.06.28 00:19:55.
