data_PCOD8099196
_publ_section_title
;
Structure prediction by ZEFSAII (Michael W. Deem and Ramdas Pophale) SiO2 
 PCOD8099196
Probable space group: C 2/M
;
_chemical_formula_sum "Si O2"
_cell_formula_units_Z 48
_cell_length_a 19.710270
_cell_length_b 8.474112
_cell_length_c 15.873109
_cell_angle_alpha 90.000000
_cell_angle_beta 72.116379
_cell_angle_gamma 90.000000
_cell_volume 2523.136412
_symmetry_space_group_name_H-M "C 2/M"
_symmetry_group_IT_number 12
_symmetry_cell_setting 'monoclinic'
loop_
_space_group_symop_operation_xyz
x,y,z
-x,y,-z
-x,-y,-z
x,-y,z
1/2+x,1/2+y,z
1/2-x,1/2+y,-z
1/2-x,1/2-y,-z
1/2+x,1/2-y,z
loop_
_atom_site_type_symbol
_atom_site_label
_atom_site_fract_x
_atom_site_fract_y
_atom_site_fract_z
Si Si1 0.152460 0.682328 0.585795
Si Si2 0.196971 0.181838 0.399548
Si Si3 0.683687 0.687011 0.076247
Si Si4 0.032409 0.186501 0.072485
Si Si5 0.370935 0.182810 0.736846
Si Si6 0.518935 0.684095 0.728714
O O1 0.156522 0.500000 0.558048
O O2 0.151927 0.785627 0.501293
O O3 0.220476 0.727757 0.617010
O O4 0.081103 0.713920 0.664486
O O5 0.167686 0.290959 0.336832
O O6 0.188022 0.000000 0.377307
O O7 0.686545 0.500000 0.084002
O O8 0.613295 0.744981 0.053460
O O9 0.683117 0.761015 0.169618
O O10 0.750000 0.750000 0.000000
O O11 0.985894 0.235727 0.171444
O O12 0.032304 0.000000 0.064073
O O13 0.000000 0.264346 0.000000
O O14 0.444116 0.281460 0.711524
O O15 0.389304 0.000000 0.741177
O O16 0.536474 0.500000 0.712384
#
# Coordination Sequence:
#
# PCOD8099196 Si02
#       6
#     8   8   8   8   8   8
#     4  10  21  37  57  82 111 142 179 223 272 328
#     4  10  21  38  58  81 111 143 179 225 274 325
#     4  10  20  35  55  80 110 143 180 224 274 325
#     4   8  16  32  53  77 104 136 176 219 262 313
#     4  11  22  37  57  80 109 145 186 229 273 322
#     4  10  20  35  56  81 111 145 181 224 274 326
#
# _framework density 19.023941000000001
#
# number of rings (size 3 to 8) (size 9 to 14) (size 15 to 20)
#    0.000    2.167    0.000    4.500    0.000    4.000 
#    0.000    5.000    0.000   17.000    0.000    0.000 
#    0.000    0.000    0.000    0.000    0.000    0.000 
#
# Total GULP energy -297665.550540 kJ/mol
# GULP energy per Si atom -12402.731273 kJ/mol
# Density = 1.898064 g / cm^3
# Si number density = 19.023941 Si / 1000 Ang^3
#
#
#
# Elastic Constant Matrix: (Units=GPa)
#
#
# Indices 1 2 3 4 5 6 
#
# 1 83.4904 12.0652 71.6898 0.0000 -0.0047 0.0000
# 2 12.0652 53.5599 16.2526 0.0000 5.0165 0.0000
# 3 71.6898 16.2526 118.6993 0.0000 -1.5504 0.0000
# 4 0.0000 0.0000 0.0000 29.9269 0.0000 -4.6935
# 5 -0.0047 5.0165 -1.5504 0.0000 40.8934 0.0000
# 6 0.0000 0.0000 0.0000 -4.6935 0.0000 26.5855
#
#
#
# Elastic Compliance Matrix: (Units=1/GPa)
#
#
# Indices 1 2 3 4 5 6 
#
# 1 0.024949 -0.001049 -0.014930 0.000000 -0.000435 0.000000
# 2 -0.001049 0.019781 -0.002108 0.000000 -0.002507 0.000000
# 3 -0.014930 -0.002108 0.017743 0.000000 0.000930 0.000000
# 4 0.000000 0.000000 0.000000 0.034366 0.000000 0.006067
# 5 -0.000435 -0.002507 0.000930 0.000000 0.024796 0.000000
# 6 0.000000 0.000000 0.000000 0.006067 0.000000 0.038686
#
#
# Mechanical properties :
#
#
# Convention : Reuss Voigt Hill
#
# Bulk Modulus (GPa) = 38.02403 50.64053 44.33228
# Shear Modulus (GPa) = 24.35913 29.86395 27.11154
#
# Velocity S-wave (km/s) = 3.58221 3.96638 3.77918
# Velocity P-wave (km/s) = 6.09430 6.90314 6.51129
#
# Compressibility (1/GPa) = 0.02629916
#
# Stress axis : x y z
#
# Youngs Moduli (GPa) = 40.08174 50.55266 56.36119
#
# Poissons Ratio (x) = 0.05303 0.84149
# Poissons Ratio (y) = 0.04204 0.11879
# Poissons Ratio (z) = 0.59843 0.10655
#
# Static dielectric constant tensor:
#      x y z
#    x 3.448190 0.000000 0.093160 
#    y 0.000000 3.358840 0.000000 
#    z 0.093160 0.000000 3.573500 
# 
# 
# High freq. dielectric constant tensor:
#      x y z
#    x 1.737000 0.000000 0.000390 
#    y 0.000000 1.737790 0.000000 
#    z 0.000390 0.000000 1.743950 
# 
# From -- ./inp_files/229940.got.cif
#   From: 2010.06.25/outbox.cif.g09.slc.cpg/sg12_115_cif.got.tgz:229940.got - 2010.06.28 00:19:55.
