data_PCOD8099685
_publ_section_title
;
Structure prediction by ZEFSAII (Michael W. Deem and Ramdas Pophale) SiO2 
 PCOD8099685
Probable space group: C 2/M
;
_chemical_formula_sum "Si O2"
_cell_formula_units_Z 56
_cell_length_a 10.634253
_cell_length_b 20.863779
_cell_length_c 25.515805
_cell_angle_alpha 90.000000
_cell_angle_beta 150.124175
_cell_angle_gamma 90.000000
_cell_volume 2819.972626
_symmetry_space_group_name_H-M "C 2/M"
_symmetry_group_IT_number 12
_symmetry_cell_setting 'monoclinic'
loop_
_space_group_symop_operation_xyz
x,y,z
-x,y,-z
-x,-y,-z
x,-y,z
1/2+x,1/2+y,z
1/2-x,1/2+y,-z
1/2-x,1/2-y,-z
1/2+x,1/2-y,z
loop_
_atom_site_type_symbol
_atom_site_label
_atom_site_fract_x
_atom_site_fract_y
_atom_site_fract_z
Si Si1 0.965540 0.171183 0.866654
Si Si2 0.863459 0.689542 0.088244
Si Si3 0.567884 0.310180 0.421258
Si Si4 0.902565 0.428187 0.522186
Si Si5 0.617516 0.669988 0.761157
Si Si6 0.523879 0.201704 0.255654
Si Si7 0.083380 0.928679 0.240022
O O1 0.119779 0.232988 0.901859
O O2 0.662083 0.181144 0.763769
O O3 0.005026 0.111828 0.842130
O O4 0.098420 0.160270 0.971776
O O5 0.920577 0.664051 0.167278
O O6 0.080766 0.666447 0.126856
O O7 0.750000 0.250000 0.500000
O O8 0.704540 0.378452 0.474813
O O9 0.469078 0.303864 0.326598
O O10 0.323656 0.312158 0.372138
O O11 0.785378 0.500000 0.473929
O O12 0.000000 0.404742 0.500000
O O13 0.117423 0.430165 0.644073
O O14 0.503464 0.721243 0.761275
O O15 0.521217 0.600253 0.743085
O O16 0.974262 0.000000 0.193234
#
# Coordination Sequence:
#
# PCOD8099685 Si02
#       7
#     8   8   8   8   8   8   8
#     4  10  20  36  56  83 114 148 194 234 293 351
#     4   9  19  34  59  82 111 148 186 249 293 339
#     4  11  23  34  58  89 120 154 194 246 295 342
#     4  10  21  38  59  81 113 158 199 235 286 349
#     4  10  20  36  54  87 119 147 195 238 295 347
#     4  10  20  35  56  84 115 149 186 245 295 345
#     4  11  22  38  59  83 120 157 191 238 288 355
#
# _framework density 19.858349
#
# number of rings (size 3 to 8) (size 9 to 14) (size 15 to 20)
#    0.000    1.857    2.857    1.286    4.000    0.571 
#    0.000    2.143    0.000    5.143    0.000    0.000 
#    0.000    0.000    0.000    0.000    0.000    0.000 
#
# Total GULP energy -346905.612805 kJ/mol
# GULP energy per Si atom -12389.486172 kJ/mol
# Density = 1.981315 g / cm^3
# Si number density = 19.858349 Si / 1000 Ang^3
#
#
#
# Elastic Constant Matrix: (Units=GPa)
#
#
# Indices 1 2 3 4 5 6 
#
# 1 58.6475 45.8117 25.1692 -0.0027 15.0833 -0.0004
# 2 45.8117 118.9368 38.7735 0.0016 12.2369 0.0004
# 3 25.1692 38.7735 85.3683 -0.0095 7.5112 -0.0044
# 4 -0.0027 0.0016 -0.0095 28.2495 -0.0044 -4.4230
# 5 15.0833 12.2369 7.5112 -0.0044 35.5502 -0.0013
# 6 -0.0004 0.0004 -0.0044 -4.4230 -0.0013 25.6306
#
#
#
# Elastic Compliance Matrix: (Units=1/GPa)
#
#
# Indices 1 2 3 4 5 6 
#
# 1 0.027245 -0.008557 -0.003452 0.000001 -0.007884 0.000000
# 2 -0.008557 0.012779 -0.003275 -0.000003 -0.000076 -0.000001
# 3 -0.003452 -0.003275 0.014256 0.000005 -0.000420 0.000003
# 4 0.000001 -0.000003 0.000005 0.036382 0.000004 0.006278
# 5 -0.007884 -0.000076 -0.000420 0.000004 0.031589 0.000002
# 6 0.000000 -0.000001 0.000003 0.006278 0.000002 0.040099
#
#
# Mechanical properties :
#
#
# Convention : Reuss Voigt Hill
#
# Bulk Modulus (GPa) = 42.17306 53.60682 47.88994
# Shear Modulus (GPa) = 24.89751 28.09927 26.49839
#
# Velocity S-wave (km/s) = 3.54468 3.76571 3.65687
# Velocity P-wave (km/s) = 6.16734 6.77943 6.48061
#
# Compressibility (1/GPa) = 0.02371182
#
# Stress axis : x y z
#
# Youngs Moduli (GPa) = 36.70411 78.25151 70.14595
#
# Poissons Ratio (x) = 0.66964 0.24216
# Poissons Ratio (y) = 0.31409 0.22969
# Poissons Ratio (z) = 0.12671 0.25624
#
# Static dielectric constant tensor:
#      x y z
#    x 3.491090 0.000000 0.047460 
#    y 0.000000 3.428180 -0.000020 
#    z 0.047460 -0.000020 3.790140 
# 
# 
# High freq. dielectric constant tensor:
#      x y z
#    x 1.763470 0.000000 -0.000210 
#    y 0.000000 1.739890 0.000000 
#    z -0.000210 0.000000 1.781690 
# 
# From -- ./inp_files/358942.got.cif
#   From: 2010.06.25/outbox.cif.g09.slc.cpg/sg12_180_cif.got.tgz:358942.got - 2010.06.28 00:19:55.
