data_PCOD8099071
_publ_section_title
;
Structure prediction by ZEFSAII (Michael W. Deem and Ramdas Pophale) SiO2 
 PCOD8099071
Probable space group: C 2/M
;
_chemical_formula_sum "Si O2"
_cell_formula_units_Z 64
_cell_length_a 14.991748
_cell_length_b 9.087668
_cell_length_c 24.783685
_cell_angle_alpha 90.000000
_cell_angle_beta 99.367117
_cell_angle_gamma 90.000000
_cell_volume 3331.506406
_symmetry_space_group_name_H-M "C 2/M"
_symmetry_group_IT_number 12
_symmetry_cell_setting 'monoclinic'
loop_
_space_group_symop_operation_xyz
x,y,z
-x,y,-z
-x,-y,-z
x,-y,z
1/2+x,1/2+y,z
1/2-x,1/2+y,-z
1/2-x,1/2-y,-z
1/2+x,1/2-y,z
loop_
_atom_site_type_symbol
_atom_site_label
_atom_site_fract_x
_atom_site_fract_y
_atom_site_fract_z
Si Si1 0.081451 0.672315 0.366921
Si Si2 0.144266 0.668424 0.931123
Si Si3 0.241161 0.171329 0.555580
Si Si4 0.327813 0.168548 0.951625
Si Si5 0.372749 0.674291 0.174922
Si Si6 0.667413 0.169137 0.165496
Si Si7 0.033654 0.674216 0.242001
Si Si8 0.459508 0.672021 0.439631
O O1 0.068678 0.500000 0.373619
O O2 0.180069 0.724587 0.396493
O O3 0.072657 0.717804 0.303908
O O4 0.004078 0.749677 0.393484
O O5 0.133097 0.500000 0.911291
O O6 0.249367 0.710679 0.945872
O O7 0.095844 0.770020 0.881669
O O8 0.106807 0.689855 0.989380
O O9 0.250000 0.250000 0.500000
O O10 0.146293 0.210007 0.574026
O O11 0.248176 0.000000 0.543826
O O12 0.377879 0.190551 0.898675
O O13 0.288232 0.000000 0.948586
O O14 0.380996 0.500000 0.178016
O O15 0.270301 0.730986 0.176135
O O16 0.437225 0.746582 0.225812
O O17 0.603306 0.241827 0.204410
O O18 0.674422 0.000000 0.182214
O O19 0.019750 0.500000 0.234203
O O20 0.500000 0.732481 0.500000
O O21 0.479583 0.500000 0.436778
#
# Coordination Sequence:
#
# PCOD8099071 Si02
#       8
#     8   8   8   8   8   8   8   8
#     4  10  22  37  55  81 110 142 178 221 267 315
#     4   9  15  25  46  75 105 137 173 221 276 325
#     4  10  20  35  56  82 112 144 177 214 260 312
#     4   8  14  26  46  74 104 136 178 222 269 327
#     4  10  20  35  55  78 104 140 182 223 272 326
#     4   8  16  33  56  76 100 138 180 220 263 322
#     4  10  21  38  56  76 104 138 182 226 266 313
#     4  10  20  35  57  85 114 144 177 213 256 312
#
# _framework density 19.210529000000001
#
# number of rings (size 3 to 8) (size 9 to 14) (size 15 to 20)
#    0.000    2.625    1.250    1.500    0.000    2.750 
#    0.000    6.250    0.000    3.750    0.000    0.000 
#    0.000    0.000    0.000    0.000    0.000    0.000 
#
# Total GULP energy -396582.430614 kJ/mol
# GULP energy per Si atom -12393.200957 kJ/mol
# Density = 1.916680 g / cm^3
# Si number density = 19.210529 Si / 1000 Ang^3
#
#
#
# Elastic Constant Matrix: (Units=GPa)
#
#
# Indices 1 2 3 4 5 6 
#
# 1 80.9041 24.8604 50.9561 0.0000 -2.3613 0.0000
# 2 24.8604 41.0443 38.3959 0.0000 1.1633 0.0000
# 3 50.9561 38.3959 136.5891 0.0000 -4.5821 0.0000
# 4 0.0000 0.0000 0.0000 28.5283 0.0000 1.6914
# 5 -2.3613 1.1633 -4.5821 0.0000 32.7765 0.0000
# 6 0.0000 0.0000 0.0000 1.6914 0.0000 23.0703
#
#
#
# Elastic Compliance Matrix: (Units=1/GPa)
#
#
# Indices 1 2 3 4 5 6 
#
# 1 0.017196 -0.006054 -0.004686 0.000000 0.000799 0.000000
# 2 -0.006054 0.035391 -0.007783 0.000000 -0.002780 0.000000
# 3 -0.004686 -0.007783 0.011308 0.000000 0.001520 0.000000
# 4 0.000000 0.000000 0.000000 0.035206 0.000000 -0.002581
# 5 0.000799 -0.002780 0.001520 0.000000 0.030878 0.000000
# 6 0.000000 0.000000 0.000000 -0.002581 0.000000 0.043535
#
#
# Mechanical properties :
#
#
# Convention : Reuss Voigt Hill
#
# Bulk Modulus (GPa) = 37.24758 54.10695 45.67726
# Shear Modulus (GPa) = 22.77799 26.49668 24.63733
#
# Velocity S-wave (km/s) = 3.44714 3.71789 3.58507
# Velocity P-wave (km/s) = 5.93927 6.83057 6.40046
#
# Compressibility (1/GPa) = 0.02684738
#
# Stress axis : x y z
#
# Youngs Moduli (GPa) = 58.15460 28.25613 88.42958
#
# Poissons Ratio (x) = 0.17106 0.41442
# Poissons Ratio (y) = 0.35206 0.68827
# Poissons Ratio (z) = 0.27254 0.21992
#
# Static dielectric constant tensor:
#      x y z
#    x 3.484500 0.000000 0.086380 
#    y 0.000000 3.332160 0.000000 
#    z 0.086380 0.000000 3.859850 
# 
# 
# High freq. dielectric constant tensor:
#      x y z
#    x 1.729410 0.000000 0.003710 
#    y 0.000000 1.728020 0.000000 
#    z 0.003710 0.000000 1.756450 
# 
# From -- ./inp_files/338880.got.cif
#   From: 2010.06.25/outbox.cif.g09.slc.cpg/sg12_170_cif.got.tgz:338880.got - 2010.06.28 00:19:55.
