data_PCOD8099462
_publ_section_title
;
Structure prediction by ZEFSAII (Michael W. Deem and Ramdas Pophale) SiO2 
 PCOD8099462
Probable space group: C 2/M
;
_chemical_formula_sum "Si O2"
_cell_formula_units_Z 56
_cell_length_a 14.876858
_cell_length_b 15.098210
_cell_length_c 16.334516
_cell_angle_alpha 90.000000
_cell_angle_beta 49.937522
_cell_angle_gamma 90.000000
_cell_volume 2808.012906
_symmetry_space_group_name_H-M "C 2/M"
_symmetry_group_IT_number 12
_symmetry_cell_setting 'monoclinic'
loop_
_space_group_symop_operation_xyz
x,y,z
-x,y,-z
-x,-y,-z
x,-y,z
1/2+x,1/2+y,z
1/2-x,1/2+y,-z
1/2-x,1/2-y,-z
1/2+x,1/2-y,z
loop_
_atom_site_type_symbol
_atom_site_label
_atom_site_fract_x
_atom_site_fract_y
_atom_site_fract_z
Si Si1 0.135732 0.902021 0.282107
Si Si2 0.391740 0.646852 0.877645
Si Si3 0.224002 0.286773 0.677995
Si Si4 0.354251 0.398794 0.217543
Si Si5 0.990316 0.319775 0.743656
Si Si6 0.747009 0.900935 0.107677
Si Si7 0.058143 0.218223 0.549473
O O1 0.153099 0.909480 0.174251
O O2 0.221893 0.828524 0.271210
O O3 0.002413 0.871920 0.381744
O O4 0.157551 0.000000 0.306609
O O5 0.505963 0.603184 0.852651
O O6 0.415395 0.742372 0.827583
O O7 0.290413 0.656726 0.005132
O O8 0.204045 0.179866 0.694144
O O9 0.306280 0.302812 0.550429
O O10 0.102273 0.340001 0.735361
O O11 0.310345 0.500000 0.264978
O O12 0.319588 0.373488 0.145480
O O13 0.894126 0.397284 0.793949
O O14 0.042178 0.295800 0.624501
O O15 0.779262 0.000000 0.064411
O O16 0.000000 0.253233 0.500000
#
# Coordination Sequence:
#
# PCOD8099462 Si02
#       7
#     8   8   8   8   8   8   8
#     4  10  20  35  57  83 108 138 180 223 262 311
#     4  10  20  36  57  78 104 138 180 226 267 306
#     4  10  21  36  55  79 110 143 175 217 265 315
#     4  10  20  35  56  81 105 135 180 226 267 313
#     4  10  21  36  54  78 108 143 177 212 262 323
#     4  11  21  34  53  78 109 141 174 217 268 319
#     4   9  18  34  56  78 104 136 175 220 266 306
#
# _framework density 19.942927999999998
#
# number of rings (size 3 to 8) (size 9 to 14) (size 15 to 20)
#    0.000    2.000    0.000    5.143    0.000    4.286 
#    0.000    2.857    0.000   11.143    0.000    0.000 
#    0.000    0.000    0.000    0.000    0.000    0.000 
#
# Total GULP energy -347002.178770 kJ/mol
# GULP energy per Si atom -12392.934956 kJ/mol
# Density = 1.989754 g / cm^3
# Si number density = 19.942928 Si / 1000 Ang^3
#
#
#
# Elastic Constant Matrix: (Units=GPa)
#
#
# Indices 1 2 3 4 5 6 
#
# 1 111.1764 24.3368 57.2569 0.0000 0.8529 0.0000
# 2 24.3368 59.4343 9.7909 0.0000 -5.3257 0.0000
# 3 57.2569 9.7909 96.4257 0.0000 1.5110 0.0000
# 4 0.0000 0.0000 0.0000 17.2332 0.0000 -1.2957
# 5 0.8529 -5.3257 1.5110 0.0000 27.6286 0.0000
# 6 0.0000 0.0000 0.0000 -1.2957 0.0000 16.3274
#
#
#
# Elastic Compliance Matrix: (Units=1/GPa)
#
#
# Indices 1 2 3 4 5 6 
#
# 1 0.014045 -0.004534 -0.007866 0.000000 -0.000877 0.000000
# 2 -0.004534 0.018900 0.000714 0.000000 0.003744 0.000000
# 3 -0.007866 0.000714 0.014976 0.000000 -0.000438 0.000000
# 4 0.000000 0.000000 0.000000 0.058376 0.000000 0.004633
# 5 -0.000877 0.003744 -0.000438 0.000000 0.036967 0.000000
# 6 0.000000 0.000000 0.000000 0.004633 0.000000 0.061614
#
#
# Mechanical properties :
#
#
# Convention : Reuss Voigt Hill
#
# Bulk Modulus (GPa) = 40.73326 49.97840 45.35583
# Shear Modulus (GPa) = 21.14785 23.94794 22.54790
#
# Velocity S-wave (km/s) = 3.25994 3.46905 3.36612
# Velocity P-wave (km/s) = 5.88548 6.41567 6.15629
#
# Compressibility (1/GPa) = 0.02454996
#
# Stress axis : x y z
#
# Youngs Moduli (GPa) = 71.20104 52.91122 66.77565
#
# Poissons Ratio (x) = 0.23989 0.52523
# Poissons Ratio (y) = 0.32281 -0.04771
# Poissons Ratio (z) = 0.56004 -0.03780
#
# Static dielectric constant tensor:
#      x y z
#    x 3.779950 0.000000 -0.013380 
#    y 0.000000 3.490140 0.000000 
#    z -0.013380 0.000000 3.646580 
# 
# 
# High freq. dielectric constant tensor:
#      x y z
#    x 1.787150 0.000000 0.004240 
#    y 0.000000 1.757460 0.000000 
#    z 0.004240 0.000000 1.771100 
# 
# From -- ./inp_files/270215.got.cif
#   From: 2010.06.25/outbox.cif.g09.slc.cpg/sg12_136_cif.got.tgz:270215.got - 2010.06.28 00:19:55.
