data_PCOD8099604
_publ_section_title
;
Structure prediction by ZEFSAII (Michael W. Deem and Ramdas Pophale) SiO2 
 PCOD8099604
Probable space group: C 2/M
;
_chemical_formula_sum "Si O2"
_cell_formula_units_Z 52
_cell_length_a 18.628304
_cell_length_b 18.883514
_cell_length_c 13.777332
_cell_angle_alpha 90.000000
_cell_angle_beta 34.799294
_cell_angle_gamma 90.000000
_cell_volume 2765.869930
_symmetry_space_group_name_H-M "C 2/M"
_symmetry_group_IT_number 12
_symmetry_cell_setting 'monoclinic'
loop_
_space_group_symop_operation_xyz
x,y,z
-x,y,-z
-x,-y,-z
x,-y,z
1/2+x,1/2+y,z
1/2-x,1/2+y,-z
1/2-x,1/2-y,-z
1/2+x,1/2-y,z
loop_
_atom_site_type_symbol
_atom_site_label
_atom_site_fract_x
_atom_site_fract_y
_atom_site_fract_z
Si Si1 0.762707 0.000000 0.688264
Si Si2 0.278857 0.239208 0.576881
Si Si3 0.567134 0.639682 0.821762
Si Si4 0.767835 0.347731 0.047306
Si Si5 0.854203 0.354061 0.159760
Si Si6 0.198093 0.000000 0.134801
Si Si7 0.057097 0.000000 0.699498
Si Si8 0.543234 0.266079 0.222957
O O1 0.667199 0.935195 0.790618
O O2 0.838100 0.000000 0.708837
O O3 0.849573 0.000000 0.496335
O O4 0.250000 0.250000 0.500000
O O5 0.209011 0.167285 0.691179
O O6 0.220958 0.310216 0.680217
O O7 0.430213 0.241404 0.419763
O O8 0.575369 0.568682 0.747896
O O9 0.499219 0.702798 0.835337
O O10 0.500000 0.625457 0.000000
O O11 0.792496 0.328240 0.129747
O O12 0.783460 0.431934 0.013557
O O13 0.623836 0.328131 0.183200
O O14 0.870198 0.303980 0.873566
O O15 0.000000 0.335348 0.000000
O O16 0.079164 0.000000 0.196696
#
# Coordination Sequence:
#
# PCOD8099604 Si02
#       8
#     4   8   8   8   8   4   4   8
#     4  10  22  35  59  86 118 156 190 240 304 359
#     4  10  20  35  56  82 115 152 192 244 291 339
#     4  11  22  38  61  85 117 157 198 249 297 347
#     4  10  21  36  58  84 117 158 192 237 302 351
#     4  11  21  36  56  86 122 152 191 238 298 362
#     4  10  21  38  58  85 120 155 193 244 302 351
#     4  12  22  39  57  87 116 154 205 252 288 356
#     4  10  20  37  58  86 117 152 201 243 292 353
#
# _framework density 18.800595000000001
#
# number of rings (size 3 to 8) (size 9 to 14) (size 15 to 20)
#    0.000    1.538    1.538    5.769    0.000    0.615 
#    0.000    0.769    0.000    0.000    0.000    1.077 
#    0.000    0.000    0.000    0.000    0.000    0.000 
#
# Total GULP energy -322108.201455 kJ/mol
# GULP energy per Si atom -12388.776979 kJ/mol
# Density = 1.875780 g / cm^3
# Si number density = 18.800595 Si / 1000 Ang^3
#
#
#
# Elastic Constant Matrix: (Units=GPa)
#
#
# Indices 1 2 3 4 5 6 
#
# 1 82.1552 39.2679 45.0889 -0.0004 -5.4682 0.0008
# 2 39.2679 115.2287 54.8861 -0.0001 -5.4694 0.0003
# 3 45.0889 54.8861 124.3615 -0.0002 -10.4725 0.0007
# 4 -0.0004 -0.0001 -0.0002 27.4308 0.0002 16.2999
# 5 -5.4682 -5.4694 -10.4725 0.0002 28.8580 -0.0007
# 6 0.0008 0.0003 0.0007 16.2999 -0.0007 3.1976
#
#
#
# Elastic Compliance Matrix: (Units=1/GPa)
#
#
# Indices 1 2 3 4 5 6 
#
# 1 0.016232 -0.003447 -0.004291 -0.000001 0.000865 0.000002
# 2 -0.003447 0.011723 -0.003912 0.000000 0.000149 0.000000
# 3 -0.004291 -0.003912 0.011545 0.000000 0.002635 0.000000
# 4 -0.000001 0.000000 0.000000 -0.017967 0.000002 0.091586
# 5 0.000865 0.000149 0.002635 0.000002 0.035801 -0.000004
# 6 0.000002 0.000000 0.000000 0.091586 -0.000004 -0.154129
#
#
# Mechanical properties :
#
#
# Convention : Reuss Voigt Hill
#
# Bulk Modulus (GPa) = 61.72251 66.69235 64.20743
# Shear Modulus (GPa) = -73.42689 24.06411 -24.68139
#
# Velocity S-wave (km/s) = -6.25623 3.58154 -3.62719
# Velocity P-wave (km/s) = 4.39157 7.25629 4.08460
#
# Compressibility (1/GPa) = 0.01620154
#
# Stress axis : x y z
#
# Youngs Moduli (GPa) = 61.60605 85.30014 86.61547
#
# Poissons Ratio (x) = 0.29399 0.37168
# Poissons Ratio (y) = 0.21233 0.33883
# Poissons Ratio (z) = 0.26436 0.33368
#
# Static dielectric constant tensor:
#      x y z
#    x 3.524030 0.000000 -0.043610 
#    y 0.000000 -0.603040 0.000000 
#    z -0.043610 0.000000 3.325600 
# 
# 
# High freq. dielectric constant tensor:
#      x y z
#    x 1.728680 0.000000 -0.003500 
#    y 0.000000 1.740850 0.000000 
#    z -0.003500 0.000000 1.725430 
# 
# From -- ./inp_files/216910.got.cif
#   From: 2010.06.25/outbox.cif.g09.slc.cpg/sg12_109_cif.got.tgz:216910.got - 2010.06.28 00:19:55.
