data_PCOD8099047
_publ_section_title
;
Structure prediction by ZEFSAII (Michael W. Deem and Ramdas Pophale) SiO2 
 PCOD8099047
Probable space group: C 2/M
;
_chemical_formula_sum "Si O2"
_cell_formula_units_Z 56
_cell_length_a 14.243365
_cell_length_b 8.795906
_cell_length_c 31.942043
_cell_angle_alpha 90.000000
_cell_angle_beta 132.766024
_cell_angle_gamma 90.000000
_cell_volume 2937.855333
_symmetry_space_group_name_H-M "C 2/M"
_symmetry_group_IT_number 12
_symmetry_cell_setting 'monoclinic'
loop_
_space_group_symop_operation_xyz
x,y,z
-x,y,-z
-x,-y,-z
x,-y,z
1/2+x,1/2+y,z
1/2-x,1/2+y,-z
1/2-x,1/2-y,-z
1/2+x,1/2-y,z
loop_
_atom_site_type_symbol
_atom_site_label
_atom_site_fract_x
_atom_site_fract_y
_atom_site_fract_z
Si Si1 0.820873 0.321694 0.644088
Si Si2 0.231207 0.322077 0.142392
Si Si3 0.155524 0.181104 0.437719
Si Si4 0.382503 0.821838 0.355780
Si Si5 0.756657 0.321451 0.066103
Si Si6 0.557514 0.820962 0.950895
Si Si7 0.885254 0.672647 0.260222
O O1 0.792735 0.500000 0.629850
O O2 0.797214 0.239027 0.593008
O O3 0.729783 0.250090 0.651139
O O4 0.965755 0.293523 0.702697
O O5 0.236892 0.500000 0.136987
O O6 0.300306 0.241329 0.124321
O O7 0.301590 0.283548 0.206682
O O8 0.085737 0.262280 0.099738
O O9 0.250000 0.250000 0.500000
O O10 0.014394 0.238786 0.406582
O O11 0.158716 0.000000 0.439774
O O12 0.348202 0.794806 0.296947
O O13 0.398017 0.000000 0.370308
O O14 0.744887 0.500000 0.064688
O O15 0.863976 0.267520 0.065972
O O16 0.619141 0.253422 0.010981
O O17 0.562974 0.000000 0.959000
O O18 0.852826 0.500000 0.238219
#
# Coordination Sequence:
#
# PCOD8099047 Si02
#       7
#     8   8   8   8   8   8   8
#     4  10  21  39  61  85 114 151 190 232 282 332
#     4  11  22  35  54  78 106 140 178 220 270 326
#     4  11  22  38  60  88 121 154 190 234 279 328
#     4  10  21  39  61  86 115 150 190 233 281 333
#     4  10  20  35  55  77 103 136 174 218 270 326
#     4   9  20  37  53  74 105 138 172 215 268 327
#     4   9  21  39  56  78 111 144 182 230 274 323
#
# _framework density 19.061525
#
# number of rings (size 3 to 8) (size 9 to 14) (size 15 to 20)
#    0.000    2.000    0.000    4.286    0.000    8.571 
#    0.000    7.143    0.000    0.000    0.000    0.000 
#    0.000    0.000    0.000    0.000    0.000    0.000 
#
# Total GULP energy -347305.382223 kJ/mol
# GULP energy per Si atom -12403.763651 kJ/mol
# Density = 1.901814 g / cm^3
# Si number density = 19.061525 Si / 1000 Ang^3
#
#
#
# Elastic Constant Matrix: (Units=GPa)
#
#
# Indices 1 2 3 4 5 6 
#
# 1 120.6133 47.7860 46.2806 0.0000 -7.5920 0.0000
# 2 47.7860 98.7455 46.1213 0.0000 -2.0984 0.0000
# 3 46.2806 46.1213 114.7373 0.0000 -1.3785 0.0000
# 4 0.0000 0.0000 0.0000 38.3000 0.0000 -1.7743
# 5 -7.5920 -2.0984 -1.3785 0.0000 9.5520 0.0000
# 6 0.0000 0.0000 0.0000 -1.7743 0.0000 33.4302
#
#
#
# Elastic Compliance Matrix: (Units=1/GPa)
#
#
# Indices 1 2 3 4 5 6 
#
# 1 0.011505 -0.004035 -0.002925 0.000000 0.007836 0.000000
# 2 -0.004035 0.013922 -0.003977 0.000000 -0.000723 0.000000
# 3 -0.002925 -0.003977 0.011475 0.000000 -0.001542 0.000000
# 4 0.000000 0.000000 0.000000 0.026174 0.000000 0.001389
# 5 0.007836 -0.000723 -0.001542 0.000000 0.110537 0.000000
# 6 0.000000 0.000000 0.000000 0.001389 0.000000 0.029987
#
#
# Mechanical properties :
#
#
# Convention : Reuss Voigt Hill
#
# Bulk Modulus (GPa) = 66.54013 68.27468 67.40741
# Shear Modulus (GPa) = 21.69348 29.18365 25.43857
#
# Velocity S-wave (km/s) = 3.37720 3.91708 3.65711
# Velocity P-wave (km/s) = 7.08457 7.50692 7.29880
#
# Compressibility (1/GPa) = 0.01502853
#
# Stress axis : x y z
#
# Youngs Moduli (GPa) = 86.91831 71.82791 87.14236
#
# Poissons Ratio (x) = 0.28984 0.25485
# Poissons Ratio (y) = 0.35073 0.34660
# Poissons Ratio (z) = 0.25419 0.28569
#
# Static dielectric constant tensor:
#      x y z
#    x 3.646200 0.000000 -0.029200 
#    y 0.000000 3.517750 0.000000 
#    z -0.029200 0.000000 3.462540 
# 
# 
# High freq. dielectric constant tensor:
#      x y z
#    x 1.748090 0.000000 -0.005010 
#    y 0.000000 1.751030 0.000000 
#    z -0.005010 0.000000 1.740280 
# 
# From -- ./inp_files/375134.got.cif
#   From: 2010.06.25/outbox.cif.g09.slc.cpg/sg12_188_cif.got.tgz:375134.got - 2010.06.28 00:19:55.
