data_PCOD8099870
_publ_section_title
;
Structure prediction by ZEFSAII (Michael W. Deem and Ramdas Pophale) SiO2 
 PCOD8099870
Probable space group: C 2/M
;
_chemical_formula_sum "Si O2"
_cell_formula_units_Z 52
_cell_length_a 18.747553
_cell_length_b 11.322599
_cell_length_c 13.738653
_cell_angle_alpha 90.000000
_cell_angle_beta 91.334242
_cell_angle_gamma 90.000000
_cell_volume 2915.527257
_symmetry_space_group_name_H-M "C 2/M"
_symmetry_group_IT_number 12
_symmetry_cell_setting 'monoclinic'
loop_
_space_group_symop_operation_xyz
x,y,z
-x,y,-z
-x,-y,-z
x,-y,z
1/2+x,1/2+y,z
1/2-x,1/2+y,-z
1/2-x,1/2-y,-z
1/2+x,1/2-y,z
loop_
_atom_site_type_symbol
_atom_site_label
_atom_site_fract_x
_atom_site_fract_y
_atom_site_fract_z
Si Si1 0.495412 0.359382 0.798842
Si Si2 0.257739 0.724281 0.159071
Si Si3 0.154593 0.634064 0.995970
Si Si4 0.500000 0.762763 0.000000
Si Si5 0.848166 0.134101 0.717309
Si Si6 0.370561 0.367177 0.303688
Si Si7 0.696952 0.639031 0.499809
O O1 0.495536 0.500000 0.793456
O O2 0.421468 0.305647 0.755620
O O3 0.559888 0.300852 0.737655
O O4 0.506375 0.323212 0.909550
O O5 0.197438 0.654645 0.097620
O O6 0.220576 0.813103 0.232523
O O7 0.303292 0.638387 0.228835
O O8 0.312648 0.787388 0.088386
O O9 0.164463 0.500000 0.963892
O O10 0.070931 0.657916 0.009939
O O11 0.846539 0.146024 0.601151
O O12 0.848284 0.000000 0.751257
O O13 0.395092 0.500000 0.312684
O O14 0.353322 0.324395 0.411866
O O15 0.726485 0.500000 0.513077
O O16 0.750000 0.750000 0.500000
#
# Coordination Sequence:
#
# PCOD8099870 Si02
#       7
#     8   8   8   4   8   8   8
#     4  10  21  36  55  81 110 142 186 232 279 329
#     4  11  20  37  56  78 112 141 182 231 280 334
#     4  11  24  36  53  80 110 146 187 231 277 337
#     4  12  20  38  54  76 108 152 186 226 274 338
#     4  10  20  35  57  83 110 143 183 230 281 332
#     4  10  20  35  57  83 110 143 183 230 281 332
#     4  10  20  35  59  89 117 147 186 234 286 336
#
# _framework density 17.835538
#
# number of rings (size 3 to 8) (size 9 to 14) (size 15 to 20)
#    0.000    1.538    4.615    1.385    0.000    0.615 
#    0.000    3.077    0.000    0.000    0.000    1.077 
#    0.000    0.000    0.000    0.000    0.000    0.000 
#
# Total GULP energy -322163.426692 kJ/mol
# GULP energy per Si atom -12390.901027 kJ/mol
# Density = 1.779494 g / cm^3
# Si number density = 17.835538 Si / 1000 Ang^3
#
#
#
# Elastic Constant Matrix: (Units=GPa)
#
#
# Indices 1 2 3 4 5 6 
#
# 1 107.6912 19.3916 33.2267 0.0000 -15.2025 0.0000
# 2 19.3916 51.8704 9.7533 0.0000 -7.3616 0.0000
# 3 33.2267 9.7533 98.5894 0.0000 -22.8014 0.0000
# 4 0.0000 0.0000 0.0000 30.4042 0.0000 -0.4479
# 5 -15.2025 -7.3616 -22.8014 0.0000 28.3749 0.0000
# 6 0.0000 0.0000 0.0000 -0.4479 0.0000 23.1630
#
#
#
# Elastic Compliance Matrix: (Units=1/GPa)
#
#
# Indices 1 2 3 4 5 6 
#
# 1 0.011129 -0.003229 -0.002759 0.000000 0.002908 0.000000
# 2 -0.003229 0.021027 -0.000160 0.000000 0.003596 0.000000
# 3 -0.002759 -0.000160 0.013188 0.000000 0.009078 0.000000
# 4 0.000000 0.000000 0.000000 0.032900 0.000000 0.000636
# 5 0.002908 0.003596 0.009078 0.000000 0.045028 0.000000
# 6 0.000000 0.000000 0.000000 0.000636 0.000000 0.043185
#
#
# Mechanical properties :
#
#
# Convention : Reuss Voigt Hill
#
# Bulk Modulus (GPa) = 30.25906 42.54379 36.40143
# Shear Modulus (GPa) = 26.34798 29.44040 27.89419
#
# Velocity S-wave (km/s) = 3.84770 4.06724 3.95899
# Velocity P-wave (km/s) = 6.06153 6.77951 6.43055
#
# Compressibility (1/GPa) = 0.03304796
#
# Stress axis : x y z
#
# Youngs Moduli (GPa) = 89.85593 47.55900 75.82523
#
# Poissons Ratio (x) = 0.15357 0.20918
# Poissons Ratio (y) = 0.29015 0.01214
# Poissons Ratio (z) = 0.24788 0.00761
#
# Static dielectric constant tensor:
#      x y z
#    x 3.964990 0.000000 -0.336690 
#    y 0.000000 3.171880 0.000000 
#    z -0.336690 0.000000 3.668470 
# 
# 
# High freq. dielectric constant tensor:
#      x y z
#    x 1.697620 0.000000 -0.006220 
#    y 0.000000 1.668520 0.000000 
#    z -0.006220 0.000000 1.705640 
# 
# From -- ./inp_files/222542.got.cif
#   From: 2010.06.25/outbox.cif.g09.slc.cpg/sg12_112_cif.got.tgz:222542.got - 2010.06.28 00:19:55.
