data_PCOD8099400
_publ_section_title
;
Structure prediction by ZEFSAII (Michael W. Deem and Ramdas Pophale) SiO2 
 PCOD8099400
Probable space group: C 2/M
;
_chemical_formula_sum "Si O2"
_cell_formula_units_Z 48
_cell_length_a 29.869593
_cell_length_b 8.898205
_cell_length_c 17.707908
_cell_angle_alpha 90.000000
_cell_angle_beta 147.500610
_cell_angle_gamma 90.000000
_cell_volume 2528.763621
_symmetry_space_group_name_H-M "C 2/M"
_symmetry_group_IT_number 12
_symmetry_cell_setting 'monoclinic'
loop_
_space_group_symop_operation_xyz
x,y,z
-x,y,-z
-x,-y,-z
x,-y,z
1/2+x,1/2+y,z
1/2-x,1/2+y,-z
1/2-x,1/2-y,-z
1/2+x,1/2-y,z
loop_
_atom_site_type_symbol
_atom_site_label
_atom_site_fract_x
_atom_site_fract_y
_atom_site_fract_z
Si Si1 0.201381 0.674789 0.661516
Si Si2 0.039865 0.674789 0.338484
Si Si3 0.770379 0.176007 0.143498
Si Si4 0.880078 0.177482 0.852911
Si Si5 0.972833 0.322518 0.852910
Si Si6 0.626881 0.323993 0.856503
O O1 0.199739 0.500000 0.679977
O O2 0.125904 0.721044 0.500000
O O3 0.191857 0.766780 0.724760
O O4 0.285539 0.718154 0.737798
O O5 0.019761 0.500000 0.320023
O O6 0.047742 0.718153 0.262203
O O7 0.967097 0.766781 0.275239
O O8 0.835255 0.221793 0.170510
O O9 0.756055 0.000000 0.127183
O O10 0.680581 0.250000 0.000000
O O11 0.900373 0.250000 0.800747
O O12 0.896123 0.000000 0.872583
O O13 0.938508 0.250000 0.000000
O O14 0.976460 0.500000 0.872583
O O15 0.628874 0.500000 0.872819
#
# Coordination Sequence:
#
# PCOD8099400 Si02
#       6
#     8   8   8   8   8   8
#     4  10  22  38  55  79 112 147 181 220 269 323
#     4  10  22  38  55  79 112 147 181 220 269 323
#     4  10  21  37  58  83 109 140 181 226 270 319
#     4  10  20  35  56  80 106 138 179 224 268 317
#     4  10  20  35  56  80 106 138 179 224 268 317
#     4  10  21  37  58  83 109 140 181 226 270 319
#
# _framework density 18.981608999999999
#
# number of rings (size 3 to 8) (size 9 to 14) (size 15 to 20)
#    0.000    2.000    0.000    4.000    0.000    9.333 
#    0.000    3.333    0.000    0.000    0.000    0.000 
#    0.000    0.000    0.000    0.000    0.000    0.000 
#
# Total GULP energy -297722.952902 kJ/mol
# GULP energy per Si atom -12405.123038 kJ/mol
# Density = 1.893841 g / cm^3
# Si number density = 18.981609 Si / 1000 Ang^3
#
#
#
# Elastic Constant Matrix: (Units=GPa)
#
#
# Indices 1 2 3 4 5 6 
#
# 1 117.8554 59.9844 90.1861 0.0000 -0.2452 0.0000
# 2 59.9844 85.6173 57.4752 0.0000 0.0786 0.0000
# 3 90.1861 57.4752 150.1239 0.0000 -0.7823 0.0000
# 4 0.0000 0.0000 0.0000 29.6540 0.0000 0.1957
# 5 -0.2452 0.0786 -0.7823 0.0000 17.6906 0.0000
# 6 0.0000 0.0000 0.0000 0.1957 0.0000 35.8188
#
#
#
# Elastic Compliance Matrix: (Units=1/GPa)
#
#
# Indices 1 2 3 4 5 6 
#
# 1 0.018695 -0.007481 -0.008367 0.000000 -0.000078 0.000000
# 2 -0.007481 0.018716 -0.002673 0.000000 -0.000305 0.000000
# 3 -0.008367 -0.002673 0.012713 0.000000 0.000458 0.000000
# 4 0.000000 0.000000 0.000000 0.033724 0.000000 -0.000184
# 5 -0.000078 -0.000305 0.000458 0.000000 0.056548 0.000000
# 6 0.000000 0.000000 0.000000 -0.000184 0.000000 0.027919
#
#
# Mechanical properties :
#
#
# Convention : Reuss Voigt Hill
#
# Bulk Modulus (GPa) = 76.43991 85.43200 80.93596
# Shear Modulus (GPa) = 23.84153 26.36274 25.10214
#
# Velocity S-wave (km/s) = 3.54790 3.73078 3.64049
# Velocity P-wave (km/s) = 7.55919 7.97896 7.77191
#
# Compressibility (1/GPa) = 0.01308217
#
# Stress axis : x y z
#
# Youngs Moduli (GPa) = 53.48917 53.43115 78.65663
#
# Poissons Ratio (x) = 0.39972 0.65815
# Poissons Ratio (y) = 0.40015 0.21023
# Poissons Ratio (z) = 0.44757 0.14281
#
# Static dielectric constant tensor:
#      x y z
#    x 3.554570 0.000000 0.003020 
#    y 0.000000 3.504870 0.000000 
#    z 0.003020 0.000000 3.459450 
# 
# 
# High freq. dielectric constant tensor:
#      x y z
#    x 1.747570 0.000000 0.000420 
#    y 0.000000 1.745720 0.000000 
#    z 0.000420 0.000000 1.734340 
# 
# From -- ./inp_files/170705.got.cif
#   From: 2010.06.25/outbox.cif.g09.slc.cpg/sg12_86_cif.got.tgz:170705.got - 2010.06.28 00:19:55.
