data_PCOD8099034
_publ_section_title
;
Structure prediction by ZEFSAII (Michael W. Deem and Ramdas Pophale) SiO2 
 PCOD8099034
Probable space group: C 2/M
;
_chemical_formula_sum "Si O2"
_cell_formula_units_Z 56
_cell_length_a 18.192925
_cell_length_b 9.000650
_cell_length_c 29.307302
_cell_angle_alpha 90.000000
_cell_angle_beta 38.896335
_cell_angle_gamma 90.000000
_cell_volume 3013.366165
_symmetry_space_group_name_H-M "C 2/M"
_symmetry_group_IT_number 12
_symmetry_cell_setting 'monoclinic'
loop_
_space_group_symop_operation_xyz
x,y,z
-x,y,-z
-x,-y,-z
x,-y,z
1/2+x,1/2+y,z
1/2-x,1/2+y,-z
1/2-x,1/2-y,-z
1/2+x,1/2-y,z
loop_
_atom_site_type_symbol
_atom_site_label
_atom_site_fract_x
_atom_site_fract_y
_atom_site_fract_z
Si Si1 0.367986 0.175073 0.843044
Si Si2 0.474769 0.674917 0.156554
Si Si3 0.137611 0.327774 0.429971
Si Si4 0.950008 0.323552 0.706489
Si Si5 0.326382 0.328313 0.000204
Si Si6 0.785643 0.323760 0.435764
Si Si7 0.286140 0.823434 0.706303
O O1 0.457804 0.249225 0.834511
O O2 0.391592 0.238231 0.781188
O O3 0.230857 0.212120 0.922765
O O4 0.391975 0.000000 0.832908
O O5 0.474289 0.500000 0.166515
O O6 0.342808 0.736110 0.218296
O O7 0.537548 0.711655 0.076817
O O8 0.171072 0.500000 0.421345
O O9 0.199210 0.228906 0.438134
O O10 0.179755 0.268240 0.360499
O O11 0.000000 0.303933 0.500000
O O12 0.943112 0.500000 0.708731
O O13 0.877934 0.257043 0.698521
O O14 0.083594 0.269874 0.639490
O O15 0.307884 0.500000 0.000376
O O16 0.250000 0.250000 0.000000
O O17 0.778400 0.500000 0.444335
O O18 0.750000 0.250000 0.500000
O O19 0.291283 0.000000 0.705464
#
# Coordination Sequence:
#
# PCOD8099034 Si02
#       7
#     8   8   8   8   8   8   8
#     4   9  16  28  47  68  92 122 156 194 235 280
#     4   9  16  27  45  68  93 121 156 196 236 280
#     4  10  20  35  55  76  99 129 164 200 241 290
#     4   9  18  32  49  70  96 127 160 194 236 284
#     4   8  14  24  40  65  92 118 151 191 234 278
#     4  11  22  36  55  77 101 128 161 200 241 288
#     4   9  17  30  48  69  95 127 160 195 237 284
#
# _framework density 18.583867000000001
#
# number of rings (size 3 to 8) (size 9 to 14) (size 15 to 20)
#    0.000    2.714    0.000    2.143    0.000    2.571 
#    0.000    1.429    0.000    7.714    0.000    0.000 
#    0.000   11.429    0.000    0.000    0.000    0.000 
#
# Total GULP energy -346939.693293 kJ/mol
# GULP energy per Si atom -12390.703332 kJ/mol
# Density = 1.854157 g / cm^3
# Si number density = 18.583867 Si / 1000 Ang^3
#
#
#
# Elastic Constant Matrix: (Units=GPa)
#
#
# Indices 1 2 3 4 5 6 
#
# 1 116.5548 27.1286 73.9058 -0.0003 7.0654 -0.0018
# 2 27.1286 28.1473 33.2270 -0.0008 1.1126 -0.0034
# 3 73.9058 33.2270 191.8555 0.0000 9.1340 0.0000
# 4 -0.0003 -0.0008 0.0000 17.4601 0.0001 2.9453
# 5 7.0654 1.1126 9.1340 0.0001 29.8129 -0.0002
# 6 -0.0018 -0.0034 0.0000 2.9453 -0.0002 21.2258
#
#
#
# Elastic Compliance Matrix: (Units=1/GPa)
#
#
# Indices 1 2 3 4 5 6 
#
# 1 0.012753 -0.008196 -0.003414 0.000000 -0.001671 0.000000
# 2 -0.008196 0.049939 -0.005577 0.000001 0.001787 0.000007
# 3 -0.003414 -0.005577 0.007555 0.000000 -0.001297 -0.000001
# 4 0.000000 0.000001 0.000000 0.058646 0.000000 -0.008138
# 5 -0.001671 0.001787 -0.001297 0.000000 0.034269 0.000001
# 6 0.000000 0.000007 -0.000001 -0.008138 0.000001 0.048242
#
#
# Mechanical properties :
#
#
# Convention : Reuss Voigt Hill
#
# Bulk Modulus (GPa) = 27.87493 67.23115 47.55304
# Shear Modulus (GPa) = 19.39978 27.18618 23.29298
#
# Velocity S-wave (km/s) = 3.23446 3.82893 3.54418
# Velocity P-wave (km/s) = 5.38340 7.47016 6.51093
#
# Compressibility (1/GPa) = 0.03587452
#
# Stress axis : x y z
#
# Youngs Moduli (GPa) = 78.41214 20.02445 132.36431
#
# Poissons Ratio (x) = 0.16411 0.45186
# Poissons Ratio (y) = 0.64264 0.73817
# Poissons Ratio (z) = 0.26768 0.11167
#
# Static dielectric constant tensor:
#      x y z
#    x 3.334070 0.000010 0.040230 
#    y 0.000010 3.116850 0.000000 
#    z 0.040230 0.000000 4.201070 
# 
# 
# High freq. dielectric constant tensor:
#      x y z
#    x 1.700900 0.000000 0.001510 
#    y 0.000000 1.686330 0.000000 
#    z 0.001510 0.000000 1.753710 
# 
# From -- ./inp_files/377665.got.cif
#   From: 2010.06.25/outbox.cif.g09.slc.cpg/sg12_189_cif.got.tgz:377665.got - 2010.06.28 00:19:55.
