data_PCOD8099375
_publ_section_title
;
Structure prediction by ZEFSAII (Michael W. Deem and Ramdas Pophale) SiO2 
 PCOD8099375
Probable space group: C 2/M
;
_chemical_formula_sum "Si O2"
_cell_formula_units_Z 56
_cell_length_a 14.456370
_cell_length_b 14.713585
_cell_length_c 16.685418
_cell_angle_alpha 90.000000
_cell_angle_beta 126.872496
_cell_angle_gamma 90.000000
_cell_volume 2839.161280
_symmetry_space_group_name_H-M "C 2/M"
_symmetry_group_IT_number 12
_symmetry_cell_setting 'monoclinic'
loop_
_space_group_symop_operation_xyz
x,y,z
-x,y,-z
-x,-y,-z
x,-y,z
1/2+x,1/2+y,z
1/2-x,1/2+y,-z
1/2-x,1/2-y,-z
1/2+x,1/2-y,z
loop_
_atom_site_type_symbol
_atom_site_label
_atom_site_fract_x
_atom_site_fract_y
_atom_site_fract_z
Si Si1 0.192181 0.206718 0.724694
Si Si2 0.729877 0.353355 0.000759
Si Si3 0.866383 0.898752 0.453630
Si Si4 0.242262 0.602423 0.806593
Si Si5 0.473907 0.602887 0.843683
Si Si6 0.132668 0.398549 0.080743
Si Si7 0.033951 0.106752 0.335862
O O1 0.200008 0.175150 0.635638
O O2 0.176840 0.316525 0.724553
O O3 0.309357 0.174442 0.829541
O O4 0.084798 0.159789 0.711620
O O5 0.591885 0.350888 0.929002
O O6 0.795477 0.406449 0.964599
O O7 0.750000 0.250000 0.000000
O O8 0.779850 0.390930 0.110288
O O9 0.865614 0.868053 0.547109
O O10 0.000000 0.901872 0.500000
O O11 0.811788 0.000000 0.413924
O O12 0.204486 0.500000 0.757925
O O13 0.378357 0.617389 0.861775
O O14 0.510783 0.500000 0.853113
O O15 0.423160 0.635032 0.730538
O O16 0.134391 0.500000 0.119646
O O17 0.000000 0.366727 0.000000
O O18 0.005548 0.000000 0.330023
#
# Coordination Sequence:
#
# PCOD8099375 Si02
#       7
#     8   8   8   8   8   8   8
#     4  11  19  34  54  79 111 147 178 222 276 331
#     4  12  22  36  56  78 107 147 186 227 273 320
#     4   8  15  28  55  88 113 135 171 228 284 334
#     4  11  24  37  52  77 108 149 195 232 260 309
#     4  10  20  35  56  79 108 145 185 230 272 315
#     4  11  23  36  53  80 114 145 175 216 271 339
#     4   9  16  32  60  92 113 132 175 231 288 334
#
# _framework density 19.724136000000001
#
# number of rings (size 3 to 8) (size 9 to 14) (size 15 to 20)
#    0.000    1.714    2.857    3.857    2.000    1.143 
#    0.000    0.714    0.000    3.857    0.000    0.000 
#    0.000    0.000    0.000    0.000    0.000    0.000 
#
# Total GULP energy -346950.382132 kJ/mol
# GULP energy per Si atom -12391.085076 kJ/mol
# Density = 1.967924 g / cm^3
# Si number density = 19.724136 Si / 1000 Ang^3
#
#
#
# Elastic Constant Matrix: (Units=GPa)
#
#
# Indices 1 2 3 4 5 6 
#
# 1 42.8680 3.3956 14.2393 0.0000 2.7466 0.0000
# 2 3.3956 109.2015 47.9437 0.0000 -1.4422 0.0000
# 3 14.2393 47.9437 101.9871 0.0000 -11.4469 0.0000
# 4 0.0000 0.0000 0.0000 23.8964 0.0000 3.1283
# 5 2.7466 -1.4422 -11.4469 0.0000 20.1692 0.0000
# 6 0.0000 0.0000 0.0000 3.1283 0.0000 11.2585
#
#
#
# Elastic Compliance Matrix: (Units=1/GPa)
#
#
# Indices 1 2 3 4 5 6 
#
# 1 0.025205 0.001235 -0.004779 0.000000 -0.006057 0.000000
# 2 0.001235 0.011710 -0.005983 0.000000 -0.002726 0.000000
# 3 -0.004779 -0.005983 0.014216 0.000000 0.008291 0.000000
# 4 0.000000 0.000000 0.000000 0.043427 0.000000 -0.012066
# 5 -0.006057 -0.002726 0.008291 0.000000 0.054916 0.000000
# 6 0.000000 0.000000 0.000000 -0.012066 0.000000 0.092174
#
#
# Mechanical properties :
#
#
# Convention : Reuss Voigt Hill
#
# Bulk Modulus (GPa) = 31.17691 42.80151 36.98921
# Shear Modulus (GPa) = 18.42333 23.63002 21.02668
#
# Velocity S-wave (km/s) = 3.05954 3.46501 3.26857
# Velocity P-wave (km/s) = 5.32183 6.14455 5.74793
#
# Compressibility (1/GPa) = 0.03207502
#
# Stress axis : x y z
#
# Youngs Moduli (GPa) = 39.67434 85.39850 70.34500
#
# Poissons Ratio (x) = -0.10543 0.33620
# Poissons Ratio (y) = -0.04898 0.42088
# Poissons Ratio (z) = 0.18961 0.51095
#
# Static dielectric constant tensor:
#      x y z
#    x 3.218960 0.000000 -0.465400 
#    y 0.000000 3.649660 0.000000 
#    z -0.465400 0.000000 3.740430 
# 
# 
# High freq. dielectric constant tensor:
#      x y z
#    x 1.746870 0.000000 -0.025130 
#    y 0.000000 1.770600 0.000000 
#    z -0.025130 0.000000 1.754520 
# 
# From -- ./inp_files/270387.got.cif
#   From: 2010.06.25/outbox.cif.g09.slc.cpg/sg12_136_cif.got.tgz:270387.got - 2010.06.28 00:19:55.
