data_PCOD8099150
_publ_section_title
;
Structure prediction by ZEFSAII (Michael W. Deem and Ramdas Pophale) SiO2 
 PCOD8099150
Probable space group: C 2/M
;
_chemical_formula_sum "Si O2"
_cell_formula_units_Z 40
_cell_length_a 27.389031
_cell_length_b 8.906574
_cell_length_c 18.637810
_cell_angle_alpha 90.000000
_cell_angle_beta 153.044511
_cell_angle_gamma 90.000000
_cell_volume 2060.944024
_symmetry_space_group_name_H-M "C 2/M"
_symmetry_group_IT_number 12
_symmetry_cell_setting 'monoclinic'
loop_
_space_group_symop_operation_xyz
x,y,z
-x,y,-z
-x,-y,-z
x,-y,z
1/2+x,1/2+y,z
1/2-x,1/2+y,-z
1/2-x,1/2-y,-z
1/2+x,1/2-y,z
loop_
_atom_site_type_symbol
_atom_site_label
_atom_site_fract_x
_atom_site_fract_y
_atom_site_fract_z
Si Si1 0.484175 0.178258 0.767544
Si Si2 0.376601 0.173554 0.350994
Si Si3 0.779994 0.677632 0.964401
Si Si4 0.189806 0.675120 0.574528
Si Si5 0.586801 0.178245 0.170749
O O1 0.402321 0.235707 0.599544
O O2 0.445868 0.242158 0.794102
O O3 0.486725 0.000000 0.772679
O O4 0.603090 0.239548 0.905997
O O5 0.500000 0.216097 0.500000
O O6 0.305185 0.277853 0.207346
O O7 0.348458 0.210129 0.395746
O O8 0.355027 0.000000 0.303361
O O9 0.781100 0.500000 0.975035
O O10 0.750000 0.750000 0.000000
O O11 0.211409 0.500000 0.590504
O O12 0.297351 0.764123 0.699590
O O13 0.589741 0.000000 0.175050
O O14 0.500000 0.238671 0.000000
#
# Coordination Sequence:
#
# PCOD8099150 Si02
#       5
#     8   8   8   8   8
#     4   9  19  36  56  78 108 147 183 220 275 336
#     4  10  21  38  58  80 111 150 188 228 278 332
#     4  11  22  38  60  84 112 145 184 228 276 332
#     4  10  20  35  56  80 107 142 184 227 272 324
#     4  10  20  35  55  79 109 144 181 223 274 328
#
# _framework density 19.408583
#
# number of rings (size 3 to 8) (size 9 to 14) (size 15 to 20)
#    0.000    2.000    0.000    3.600    0.000    6.400 
#    0.000    6.000    0.000    0.000    0.000    0.000 
#    0.000    0.000    0.000    0.000    0.000    0.000 
#
# Total GULP energy -248078.038911 kJ/mol
# GULP energy per Si atom -12403.901946 kJ/mol
# Density = 1.936441 g / cm^3
# Si number density = 19.408583 Si / 1000 Ang^3
#
#
#
# Elastic Constant Matrix: (Units=GPa)
#
#
# Indices 1 2 3 4 5 6 
#
# 1 154.3670 29.2265 83.5745 0.0000 4.2438 0.0000
# 2 29.2265 33.6270 34.1808 0.0000 -0.6244 0.0000
# 3 83.5745 34.1808 169.3537 0.0000 2.6865 0.0000
# 4 0.0000 0.0000 0.0000 32.1278 0.0000 3.9959
# 5 4.2438 -0.6244 2.6865 0.0000 46.9896 0.0000
# 6 0.0000 0.0000 0.0000 3.9959 0.0000 26.6559
#
#
#
# Elastic Compliance Matrix: (Units=1/GPa)
#
#
# Indices 1 2 3 4 5 6 
#
# 1 0.009332 -0.004345 -0.003718 0.000000 -0.000688 0.000000
# 2 -0.004345 0.039477 -0.005843 0.000000 0.001251 0.000000
# 3 -0.003718 -0.005843 0.008923 0.000000 -0.000252 0.000000
# 4 0.000000 0.000000 0.000000 0.031717 0.000000 -0.004755
# 5 -0.000688 0.001251 -0.000252 0.000000 0.021374 0.000000
# 6 0.000000 0.000000 0.000000 -0.004755 0.000000 0.038228
#
#
# Mechanical properties :
#
#
# Convention : Reuss Voigt Hill
#
# Bulk Modulus (GPa) = 33.42198 72.36792 52.89495
# Shear Modulus (GPa) = 26.76129 35.17906 30.97017
#
# Velocity S-wave (km/s) = 3.71730 4.26203 3.99895
# Velocity P-wave (km/s) = 5.97344 7.84776 6.97386
#
# Compressibility (1/GPa) = 0.02992043
#
# Stress axis : x y z
#
# Youngs Moduli (GPa) = 107.15456 25.33105 112.07337
#
# Poissons Ratio (x) = 0.11007 0.41664
# Poissons Ratio (y) = 0.46560 0.65488
# Poissons Ratio (z) = 0.39835 0.14802
#
# Static dielectric constant tensor:
#      x y z
#    x 3.847770 0.000000 -0.090930 
#    y 0.000000 3.253120 0.000000 
#    z -0.090930 0.000000 3.772570 
# 
# 
# High freq. dielectric constant tensor:
#      x y z
#    x 1.778290 0.000000 -0.000670 
#    y 0.000000 1.727380 0.000000 
#    z -0.000670 0.000000 1.774050 
# 
# From -- ./inp_files/151677.got.cif
#   From: 2010.06.25/outbox.cif.g09.slc.cpg/sg12_76_cif.got.tgz:151677.got - 2010.06.28 00:19:55.
