data_PCOD8099931
_publ_section_title
;
Structure prediction by ZEFSAII (Michael W. Deem and Ramdas Pophale) SiO2 
 PCOD8099931
Probable space group: C 2/M
;
_chemical_formula_sum "Si O2"
_cell_formula_units_Z 48
_cell_length_a 32.752002
_cell_length_b 8.907220
_cell_length_c 14.594722
_cell_angle_alpha 90.000000
_cell_angle_beta 38.205892
_cell_angle_gamma 90.000000
_cell_volume 2633.346343
_symmetry_space_group_name_H-M "C 2/M"
_symmetry_group_IT_number 12
_symmetry_cell_setting 'monoclinic'
loop_
_space_group_symop_operation_xyz
x,y,z
-x,y,-z
-x,-y,-z
x,-y,z
1/2+x,1/2+y,z
1/2-x,1/2+y,-z
1/2-x,1/2-y,-z
1/2+x,1/2-y,z
loop_
_atom_site_type_symbol
_atom_site_label
_atom_site_fract_x
_atom_site_fract_y
_atom_site_fract_z
Si Si1 0.231984 0.674223 0.310561
Si Si2 0.197114 0.323257 0.660425
Si Si3 0.400299 0.329443 0.426252
Si Si4 0.202420 0.324179 0.156740
Si Si5 0.933920 0.824768 0.568311
Si Si6 0.565038 0.672692 0.833493
O O1 0.243792 0.500000 0.308903
O O2 0.289137 0.767835 0.260161
O O3 0.161272 0.718856 0.477074
O O4 0.233568 0.713136 0.200555
O O5 0.204846 0.500000 0.640637
O O6 0.250000 0.250000 0.500000
O O7 0.123878 0.276880 0.762918
O O8 0.373042 0.500000 0.479761
O O9 0.440732 0.291704 0.447434
O O10 0.446550 0.308741 0.255634
O O11 0.198170 0.500000 0.146181
O O12 0.128881 0.258696 0.278072
O O13 0.250000 0.250000 0.000000
O O14 0.000000 0.762616 0.500000
O O15 0.924860 0.000000 0.605022
O O16 0.581150 0.500000 0.829771
O O17 0.500000 0.728633 0.000000
#
# Coordination Sequence:
#
# PCOD8099931 Si02
#       6
#     8   8   8   8   8   8
#     4  10  20  35  57  84 109 143 187 231 275 326
#     4  12  23  36  58  84 112 145 186 232 274 328
#     4   9  17  32  55  78 105 146 185 223 273 327
#     4  10  21  37  58  83 114 147 182 228 280 329
#     4   9  18  34  56  81 109 143 186 228 272 331
#     4  10  21  37  55  79 113 149 184 225 275 329
#
# _framework density 18.227758999999999
#
# number of rings (size 3 to 8) (size 9 to 14) (size 15 to 20)
#    0.000    2.000    1.667    2.500    0.000    2.667 
#    3.000    0.000    0.000    0.000    0.000    0.000 
#    0.000    0.000    0.000    0.000    0.000    0.000 
#
# Total GULP energy -297636.122907 kJ/mol
# GULP energy per Si atom -12401.505121 kJ/mol
# Density = 1.818627 g / cm^3
# Si number density = 18.227759 Si / 1000 Ang^3
#
#
#
# Elastic Constant Matrix: (Units=GPa)
#
#
# Indices 1 2 3 4 5 6 
#
# 1 134.4767 56.6864 74.1601 0.0000 -6.9515 0.0000
# 2 56.6864 98.2589 58.7415 -0.0004 -3.3790 0.0001
# 3 74.1601 58.7415 144.1799 -0.0001 6.9875 0.0000
# 4 0.0000 -0.0004 -0.0001 27.0923 0.0000 -3.5750
# 5 -6.9515 -3.3790 6.9875 0.0000 24.6643 0.0000
# 6 0.0000 0.0001 0.0000 -3.5750 0.0000 28.9610
#
#
#
# Elastic Compliance Matrix: (Units=1/GPa)
#
#
# Indices 1 2 3 4 5 6 
#
# 1 0.011906 -0.003892 -0.004740 0.000000 0.004166 0.000000
# 2 -0.003892 0.015021 -0.004223 0.000000 0.002157 0.000000
# 3 -0.004740 -0.004223 0.011343 0.000000 -0.005128 0.000000
# 4 0.000000 0.000000 0.000000 0.037522 0.000000 0.004632
# 5 0.004166 0.002157 -0.005128 0.000000 0.043467 0.000000
# 6 0.000000 0.000000 0.000000 0.004632 0.000000 0.035101
#
#
# Mechanical properties :
#
#
# Convention : Reuss Voigt Hill
#
# Bulk Modulus (GPa) = 79.61345 84.01019 81.81182
# Shear Modulus (GPa) = 27.13615 28.63203 27.88409
#
# Velocity S-wave (km/s) = 3.86259 3.96762 3.91546
# Velocity P-wave (km/s) = 7.97901 8.19625 8.08836
#
# Compressibility (1/GPa) = 0.01256069
#
# Stress axis : x y z
#
# Youngs Moduli (GPa) = 83.98981 66.57397 88.16039
#
# Poissons Ratio (x) = 0.25908 0.41792
# Poissons Ratio (y) = 0.32686 0.37227
# Poissons Ratio (z) = 0.39815 0.28112
#
# Static dielectric constant tensor:
#      x y z
#    x 3.662150 0.000000 0.121930 
#    y 0.000000 3.408480 0.000000 
#    z 0.121930 0.000000 3.280660 
# 
# 
# High freq. dielectric constant tensor:
#      x y z
#    x 1.714370 0.000000 0.012090 
#    y 0.000000 1.709740 0.000000 
#    z 0.012090 0.000000 1.689120 
# 
# From -- ./inp_files/221695.got.cif
#   From: 2010.06.25/outbox.cif.g09.slc.cpg/sg12_111_cif.got.tgz:221695.got - 2010.06.28 00:19:55.
