data_PCOD8099911
_publ_section_title
;
Structure prediction by ZEFSAII (Michael W. Deem and Ramdas Pophale) SiO2 
 PCOD8099911
Probable space group: C 2/M
;
_chemical_formula_sum "Si O2"
_cell_formula_units_Z 64
_cell_length_a 29.430586
_cell_length_b 9.172312
_cell_length_c 14.586350
_cell_angle_alpha 90.000000
_cell_angle_beta 60.301570
_cell_angle_gamma 90.000000
_cell_volume 3420.319908
_symmetry_space_group_name_H-M "C 2/M"
_symmetry_group_IT_number 12
_symmetry_cell_setting 'monoclinic'
loop_
_space_group_symop_operation_xyz
x,y,z
-x,y,-z
-x,-y,-z
x,-y,z
1/2+x,1/2+y,z
1/2-x,1/2+y,-z
1/2-x,1/2-y,-z
1/2+x,1/2-y,z
loop_
_atom_site_type_symbol
_atom_site_label
_atom_site_fract_x
_atom_site_fract_y
_atom_site_fract_z
Si Si1 0.598293 0.668780 0.745927
Si Si2 0.173775 0.826800 0.832910
Si Si3 0.718228 0.328048 0.287808
Si Si4 0.629705 0.667399 0.515746
Si Si5 0.997667 0.671194 0.897560
Si Si6 0.942903 0.668772 0.539426
Si Si7 0.144948 0.667901 0.228848
Si Si8 0.882589 0.329494 0.950924
O O1 0.584140 0.500000 0.768891
O O2 0.631569 0.722043 0.799473
O O3 0.633217 0.699397 0.620555
O O4 0.543820 0.754269 0.794130
O O5 0.227942 0.754411 0.750005
O O6 0.180541 0.000000 0.830993
O O7 0.155561 0.765421 0.948394
O O8 0.727719 0.500000 0.268053
O O9 0.683420 0.287370 0.411668
O O10 0.690766 0.269821 0.222573
O O11 0.617862 0.500000 0.506684
O O12 0.581060 0.756278 0.525489
O O13 0.006854 0.500000 0.882979
O O14 0.942595 0.716711 0.907718
O O15 0.000000 0.726571 0.000000
O O16 0.947359 0.500000 0.510686
O O17 0.908450 0.698142 0.663652
O O18 0.000000 0.736082 0.500000
O O19 0.162534 0.500000 0.221746
O O20 0.133930 0.709075 0.135356
O O21 0.874920 0.500000 0.981088
#
# Coordination Sequence:
#
# PCOD8099911 Si02
#       8
#     8   8   8   8   8   8   8   8
#     4  10  22  38  56  82 115 149 185 225 273 331
#     4  11  23  38  58  82 110 144 186 231 279 331
#     4  10  21  39  61  81 108 143 184 233 281 327
#     4   9  20  38  56  79 111 146 183 225 273 327
#     4  10  20  35  57  83 114 148 185 229 273 321
#     4   9  18  32  53  81 111 143 182 226 272 322
#     4   9  19  36  56  80 112 146 182 226 274 326
#     4  10  21  37  57  83 114 148 186 226 271 326
#
# _framework density 18.711698999999999
#
# number of rings (size 3 to 8) (size 9 to 14) (size 15 to 20)
#    0.000    2.250    1.250    0.750    1.750    4.000 
#    0.000    0.000    0.000    0.000    0.000    0.000 
#    0.000    0.000    0.000    0.000    0.000    0.000 
#
# Total GULP energy -396900.987023 kJ/mol
# GULP energy per Si atom -12403.155844 kJ/mol
# Density = 1.866911 g / cm^3
# Si number density = 18.711699 Si / 1000 Ang^3
#
#
#
# Elastic Constant Matrix: (Units=GPa)
#
#
# Indices 1 2 3 4 5 6 
#
# 1 66.9414 31.5830 37.9168 0.0000 -15.2042 0.0000
# 2 31.5830 54.8481 34.9366 0.0000 -7.2066 0.0000
# 3 37.9168 34.9366 97.5041 0.0000 2.5586 0.0000
# 4 0.0000 0.0000 0.0000 28.0445 0.0000 0.1265
# 5 -15.2042 -7.2066 2.5586 0.0000 33.5114 0.0000
# 6 0.0000 0.0000 0.0000 0.1265 0.0000 24.6159
#
#
#
# Elastic Compliance Matrix: (Units=1/GPa)
#
#
# Indices 1 2 3 4 5 6 
#
# 1 0.025348 -0.008833 -0.006958 0.000000 0.010132 0.000000
# 2 -0.008833 0.027857 -0.006612 0.000000 0.002488 0.000000
# 3 -0.006958 -0.006612 0.015482 0.000000 -0.005761 0.000000
# 4 0.000000 0.000000 0.000000 0.035658 0.000000 -0.000183
# 5 0.010132 0.002488 -0.005761 0.000000 0.035413 0.000000
# 6 0.000000 0.000000 0.000000 -0.000183 0.000000 0.040625
#
#
# Mechanical properties :
#
#
# Convention : Reuss Voigt Hill
#
# Bulk Modulus (GPa) = 41.87342 47.57406 44.72374
# Shear Modulus (GPa) = 21.44547 24.89151 23.16849
#
# Velocity S-wave (km/s) = 3.38908 3.65124 3.52260
# Velocity P-wave (km/s) = 6.14339 6.57688 6.36383
#
# Compressibility (1/GPa) = 0.02388150
#
# Stress axis : x y z
#
# Youngs Moduli (GPa) = 39.45024 35.89807 64.59050
#
# Poissons Ratio (x) = 0.31708 0.44945
# Poissons Ratio (y) = 0.34845 0.42706
# Poissons Ratio (z) = 0.27451 0.23735
#
# Static dielectric constant tensor:
#      x y z
#    x 3.475240 0.000000 0.007740 
#    y 0.000000 3.377370 0.000000 
#    z 0.007740 0.000000 3.472460 
# 
# 
# High freq. dielectric constant tensor:
#      x y z
#    x 1.727650 0.000000 -0.001020 
#    y 0.000000 1.722660 0.000000 
#    z -0.001020 0.000000 1.731640 
# 
# From -- ./inp_files/249072.got.cif
#   From: 2010.06.25/outbox.cif.g09.slc.cpg/sg12_125_cif.got.tgz:249072.got - 2010.06.28 00:19:55.
