data_PCOD8099272
_publ_section_title
;
Structure prediction by ZEFSAII (Michael W. Deem and Ramdas Pophale) SiO2 
 PCOD8099272
Probable space group: C 2/M
;
_chemical_formula_sum "Si O2"
_cell_formula_units_Z 56
_cell_length_a 19.648291
_cell_length_b 8.751225
_cell_length_c 28.347243
_cell_angle_alpha 90.000000
_cell_angle_beta 37.084642
_cell_angle_gamma 90.000000
_cell_volume 2939.121742
_symmetry_space_group_name_H-M "C 2/M"
_symmetry_group_IT_number 12
_symmetry_cell_setting 'monoclinic'
loop_
_space_group_symop_operation_xyz
x,y,z
-x,y,-z
-x,-y,-z
x,-y,z
1/2+x,1/2+y,z
1/2-x,1/2+y,-z
1/2-x,1/2-y,-z
1/2+x,1/2-y,z
loop_
_atom_site_type_symbol
_atom_site_label
_atom_site_fract_x
_atom_site_fract_y
_atom_site_fract_z
Si Si1 0.636979 0.323997 0.543998
Si Si2 0.120695 0.669943 0.455719
Si Si3 0.668131 0.178452 0.697286
Si Si4 0.477273 0.675555 0.298526
Si Si5 0.069095 0.681882 0.007472
Si Si6 0.990474 0.180723 0.861802
Si Si7 0.678600 0.679293 0.124794
O O1 0.660432 0.500000 0.520010
O O2 0.750000 0.250000 0.500000
O O3 0.597972 0.241323 0.518949
O O4 0.536569 0.303668 0.637894
O O5 0.173146 0.500000 0.432139
O O6 0.201602 0.771747 0.377944
O O7 0.000000 0.661548 0.500000
O O8 0.613735 0.217200 0.676710
O O9 0.606734 0.271682 0.772563
O O10 0.658950 0.000000 0.713334
O O11 0.454256 0.500000 0.295844
O O12 0.603263 0.722761 0.212278
O O13 0.069985 0.500000 0.006768
O O14 0.009354 0.739532 0.087708
O O15 0.196936 0.750891 0.936932
O O16 0.000000 0.742600 0.000000
O O17 0.884885 0.238529 0.887652
O O18 0.987039 0.000000 0.870222
O O19 0.693174 0.500000 0.112127
#
# Coordination Sequence:
#
# PCOD8099272 Si02
#       7
#     8   8   8   8   8   8   8
#     4  11  21  34  58  86 115 150 192 239 286 339
#     4  11  24  41  58  79 116 158 194 235 284 339
#     4  11  21  35  59  86 112 142 187 240 286 337
#     4   9  18  34  56  82 112 147 186 233 287 336
#     4  10  20  35  55  82 116 146 181 228 279 333
#     4  10  20  36  59  81 108 145 187 229 277 338
#     4   8  16  33  56  80 108 144 184 227 274 327
#
# _framework density 19.05331
#
# number of rings (size 3 to 8) (size 9 to 14) (size 15 to 20)
#    0.000    2.000    1.429    3.857    0.000    2.000 
#    2.571    2.857    0.000    0.000    0.000    0.000 
#    0.000    0.000    0.000    0.000    0.000    0.000 
#
# Total GULP energy -347171.122637 kJ/mol
# GULP energy per Si atom -12398.968666 kJ/mol
# Density = 1.900994 g / cm^3
# Si number density = 19.053310 Si / 1000 Ang^3
#
#
#
# Elastic Constant Matrix: (Units=GPa)
#
#
# Indices 1 2 3 4 5 6 
#
# 1 103.5526 29.9958 59.9425 0.0037 14.4472 -0.0391
# 2 29.9958 53.9122 15.7913 -0.0016 1.0421 0.0159
# 3 59.9425 15.7913 115.4477 0.0027 7.6329 -0.0147
# 4 0.0037 -0.0016 0.0027 27.6042 0.0051 6.8853
# 5 14.4472 1.0421 7.6329 0.0051 27.1175 -0.0011
# 6 -0.0391 0.0159 -0.0147 6.8853 -0.0011 20.0680
#
#
#
# Elastic Compliance Matrix: (Units=1/GPa)
#
#
# Indices 1 2 3 4 5 6 
#
# 1 0.016915 -0.007124 -0.007368 -0.000010 -0.006664 0.000036
# 2 -0.007124 0.022324 0.000460 0.000010 0.002808 -0.000035
# 3 -0.007368 0.000460 0.012397 0.000001 0.000418 -0.000006
# 4 -0.000010 0.000010 0.000001 0.039617 -0.000004 -0.013592
# 5 -0.006664 0.002808 0.000418 -0.000004 0.040201 -0.000012
# 6 0.000036 -0.000035 -0.000006 -0.013592 -0.000012 0.054494
#
#
# Mechanical properties :
#
#
# Convention : Reuss Voigt Hill
#
# Bulk Modulus (GPa) = 42.42424 53.81908 48.12166
# Shear Modulus (GPa) = 22.53582 26.10347 24.31964
#
# Velocity S-wave (km/s) = 3.44288 3.70540 3.57655
# Velocity P-wave (km/s) = 6.17406 6.82748 6.50898
#
# Compressibility (1/GPa) = 0.02357143
#
# Stress axis : x y z
#
# Youngs Moduli (GPa) = 59.11838 44.79566 80.66642
#
# Poissons Ratio (x) = 0.31915 0.59431
# Poissons Ratio (y) = 0.42119 -0.03711
# Poissons Ratio (z) = 0.43556 -0.02061
#
# Static dielectric constant tensor:
#      x y z
#    x 3.156170 -0.000040 -0.436040 
#    y -0.000040 3.542360 -0.000020 
#    z -0.436040 -0.000020 2.986120 
# 
# 
# High freq. dielectric constant tensor:
#      x y z
#    x 1.718550 0.000000 0.005500 
#    y 0.000000 1.731840 0.000000 
#    z 0.005500 0.000000 1.756550 
# 
# From -- ./inp_files/362974.got.cif
#   From: 2010.06.25/outbox.cif.g09.slc.cpg/sg12_182_cif.got.tgz:362974.got - 2010.06.28 00:19:55.
