data_PCOD8099086
_publ_section_title
;
Structure prediction by ZEFSAII (Michael W. Deem and Ramdas Pophale) SiO2 
 PCOD8099086
Probable space group: C 2/M
;
_chemical_formula_sum "Si O2"
_cell_formula_units_Z 48
_cell_length_a 13.524472
_cell_length_b 12.878094
_cell_length_c 25.459706
_cell_angle_alpha 90.000000
_cell_angle_beta 33.005429
_cell_angle_gamma 90.000000
_cell_volume 2415.446481
_symmetry_space_group_name_H-M "C 2/M"
_symmetry_group_IT_number 12
_symmetry_cell_setting 'monoclinic'
loop_
_space_group_symop_operation_xyz
x,y,z
-x,y,-z
-x,-y,-z
x,-y,z
1/2+x,1/2+y,z
1/2-x,1/2+y,-z
1/2-x,1/2-y,-z
1/2+x,1/2-y,z
loop_
_atom_site_type_symbol
_atom_site_label
_atom_site_fract_x
_atom_site_fract_y
_atom_site_fract_z
Si Si1 0.589423 0.377146 0.587747
Si Si2 0.395697 0.263524 0.888879
Si Si3 0.491640 0.878485 0.752962
Si Si4 0.294462 0.887145 0.107298
Si Si5 0.718695 0.238889 0.234979
Si Si6 0.808966 0.230838 0.559515
O O1 0.549223 0.500000 0.612957
O O2 0.410380 0.303912 0.668430
O O3 0.724571 0.337417 0.573553
O O4 0.677138 0.357393 0.491739
O O5 0.396856 0.164164 0.848755
O O6 0.334035 0.364278 0.884611
O O7 0.595682 0.292418 0.819828
O O8 0.250000 0.250000 0.000000
O O9 0.375758 0.860818 0.750657
O O10 0.681507 0.817323 0.661600
O O11 0.524773 0.000000 0.746211
O O12 0.261218 0.812481 0.168804
O O13 0.245035 0.000000 0.150264
O O14 0.500000 0.876486 0.000000
O O15 0.000000 0.260509 0.500000
#
# Coordination Sequence:
#
# PCOD8099086 Si02
#       6
#     8   8   8   8   8   8
#     4  10  21  37  60  88 118 154 193 233 287 345
#     4  11  22  37  57  81 111 145 191 239 283 335
#     4  10  23  39  58  84 116 155 192 236 290 345
#     4  10  20  35  55  78 106 141 183 232 283 331
#     4  10  21  38  57  81 117 148 187 241 282 339
#     4  10  21  38  59  88 121 151 190 239 286 339
#
# _framework density 19.872102000000002
#
# number of rings (size 3 to 8) (size 9 to 14) (size 15 to 20)
#    0.000    1.833    1.667    2.000    0.000    5.667 
#    0.000    0.833    0.000   12.000    0.000    0.000 
#    0.000    0.000    0.000    0.000    0.000    0.000 
#
# Total GULP energy -297488.043378 kJ/mol
# GULP energy per Si atom -12395.335141 kJ/mol
# Density = 1.982687 g / cm^3
# Si number density = 19.872102 Si / 1000 Ang^3
#
#
#
# Elastic Constant Matrix: (Units=GPa)
#
#
# Indices 1 2 3 4 5 6 
#
# 1 111.3165 19.6898 36.7691 0.0000 -28.2821 0.0001
# 2 19.6898 68.9886 19.6647 0.0000 -2.5063 0.0000
# 3 36.7691 19.6647 109.0477 0.0004 -2.4691 -0.0002
# 4 0.0000 0.0000 0.0004 -6.3087 0.0001 -18.1557
# 5 -28.2821 -2.5063 -2.4691 0.0001 47.3546 0.0000
# 6 0.0001 0.0000 -0.0002 -18.1557 0.0000 5.3355
#
#
#
# Elastic Compliance Matrix: (Units=1/GPa)
#
#
# Indices 1 2 3 4 5 6 
#
# 1 0.012371 -0.002246 -0.003606 0.000000 0.007082 0.000000
# 2 -0.002246 0.015709 -0.002090 0.000000 -0.000619 0.000000
# 3 -0.003606 -0.002090 0.010724 0.000000 -0.001705 0.000000
# 4 0.000000 0.000000 0.000000 -0.014687 0.000000 -0.049976
# 5 0.007082 -0.000619 -0.001705 0.000000 0.025225 0.000000
# 6 0.000000 0.000000 0.000000 -0.049976 0.000000 0.017366
#
#
# Mechanical properties :
#
#
# Convention : Reuss Voigt Hill
#
# Bulk Modulus (GPa) = 43.62620 49.06664 46.34642
# Shear Modulus (GPa) = 55.41295 23.49156 39.45225
#
# Velocity S-wave (km/s) = 5.28633 3.44195 4.46051
# Velocity P-wave (km/s) = 7.69815 6.36717 7.06408
#
# Compressibility (1/GPa) = 0.02292201
#
# Stress axis : x y z
#
# Youngs Moduli (GPa) = 80.83499 63.65679 93.24532
#
# Poissons Ratio (x) = 0.14295 0.33624
# Poissons Ratio (y) = 0.18152 0.19485
# Poissons Ratio (z) = 0.29149 0.13302
#
# Static dielectric constant tensor:
#      x y z
#    x 3.838650 0.000000 0.135650 
#    y 0.000000 3.297540 0.000000 
#    z 0.135650 0.000000 3.888770 
# 
# 
# High freq. dielectric constant tensor:
#      x y z
#    x 1.782180 0.000000 0.002480 
#    y 0.000000 1.754620 0.000000 
#    z 0.002480 0.000000 1.793000 
# 
# From -- ./inp_files/204872.got.cif
#   From: 2010.06.25/outbox.cif.g09.slc.cpg/sg12_103_cif.got.tgz:204872.got - 2010.06.28 00:19:55.
