data_PCOD8099585
_publ_section_title
;
Structure prediction by ZEFSAII (Michael W. Deem and Ramdas Pophale) SiO2 
 PCOD8099585
Probable space group: C 2/M
;
_chemical_formula_sum "Si O2"
_cell_formula_units_Z 56
_cell_length_a 5.137427
_cell_length_b 19.601370
_cell_length_c 29.492392
_cell_angle_alpha 90.000000
_cell_angle_beta 67.389755
_cell_angle_gamma 90.000000
_cell_volume 2741.639555
_symmetry_space_group_name_H-M "C 2/M"
_symmetry_group_IT_number 12
_symmetry_cell_setting 'monoclinic'
loop_
_space_group_symop_operation_xyz
x,y,z
-x,y,-z
-x,-y,-z
x,-y,z
1/2+x,1/2+y,z
1/2-x,1/2+y,-z
1/2-x,1/2-y,-z
1/2+x,1/2-y,z
loop_
_atom_site_type_symbol
_atom_site_label
_atom_site_fract_x
_atom_site_fract_y
_atom_site_fract_z
Si Si1 0.491016 0.857605 0.815609
Si Si2 0.816832 0.209090 0.715936
Si Si3 0.823171 0.077621 0.466911
Si Si4 0.915753 0.074578 0.847684
Si Si5 0.473418 0.077584 0.949223
Si Si6 0.685370 0.791237 0.086238
Si Si7 0.987859 0.796223 0.394731
O O1 0.651495 0.843028 0.758433
O O2 0.666999 0.917782 0.827484
O O3 0.467160 0.796498 0.854071
O O4 0.171934 0.874426 0.823225
O O5 0.606371 0.272656 0.722115
O O6 0.888450 0.178640 0.661801
O O7 0.500000 0.089796 0.500000
O O8 0.916443 0.133135 0.423969
O O9 0.000000 0.090342 0.500000
O O10 0.871928 0.000000 0.445318
O O11 0.783868 0.086068 0.906418
O O12 0.045152 0.000000 0.834124
O O13 0.270427 0.133365 0.938795
O O14 0.358040 0.000000 0.948527
O O15 0.500000 0.093737 0.000000
O O16 0.487475 0.744533 0.068085
O O17 0.716229 0.747681 0.407322
#
# Coordination Sequence:
#
# PCOD8099585 Si02
#       7
#     8   8   8   8   8   8   8
#     4  11  20  36  59  81 112 150 184 226 284 341
#     4  10  20  35  56  82 113 147 186 234 284 337
#     4  10  21  37  57  82 116 157 197 239 290 344
#     4  10  21  37  57  82 110 142 189 238 275 329
#     4   9  20  40  62  83 112 152 189 225 281 347
#     4  11  22  37  58  86 113 140 181 230 275 324
#     4  10  21  36  57  86 117 150 194 243 287 334
#
# _framework density 20.425732
#
# number of rings (size 3 to 8) (size 9 to 14) (size 15 to 20)
#    0.000    1.857    0.000    4.714    0.000    2.857 
#    0.000    7.857    0.000   21.429    0.000    0.000 
#    0.000    0.000    0.000    0.000    0.000    0.000 
#
# Total GULP energy -347081.523174 kJ/mol
# GULP energy per Si atom -12395.768685 kJ/mol
# Density = 2.037924 g / cm^3
# Si number density = 20.425732 Si / 1000 Ang^3
#
#
#
# Elastic Constant Matrix: (Units=GPa)
#
#
# Indices 1 2 3 4 5 6 
#
# 1 110.8193 28.3429 23.3972 0.0000 1.0967 0.0000
# 2 28.3429 103.3952 53.7978 0.0000 8.0077 0.0000
# 3 23.3972 53.7978 116.0462 0.0000 3.5929 0.0000
# 4 0.0000 0.0000 0.0000 23.5365 0.0000 -4.7832
# 5 1.0967 8.0077 3.5929 0.0000 20.3166 0.0000
# 6 0.0000 0.0000 0.0000 -4.7832 0.0000 21.9988
#
#
#
# Elastic Compliance Matrix: (Units=1/GPa)
#
#
# Indices 1 2 3 4 5 6 
#
# 1 0.009790 -0.002225 -0.000958 0.000000 0.000518 0.000000
# 2 -0.002225 0.013584 -0.005718 0.000000 -0.004223 0.000000
# 3 -0.000958 -0.005718 0.011453 0.000000 0.000280 0.000000
# 4 0.000000 0.000000 0.000000 0.044451 0.000000 0.009665
# 5 0.000518 -0.004223 0.000280 0.000000 0.050808 0.000000
# 6 0.000000 0.000000 0.000000 0.009665 0.000000 0.047558
#
#
# Mechanical properties :
#
#
# Convention : Reuss Voigt Hill
#
# Bulk Modulus (GPa) = 58.74228 60.14852 59.44540
# Shear Modulus (GPa) = 24.86068 28.15192 26.50630
#
# Velocity S-wave (km/s) = 3.49252 3.71652 3.60626
# Velocity P-wave (km/s) = 6.71453 6.92301 6.81957
#
# Compressibility (1/GPa) = 0.01702351
#
# Stress axis : x y z
#
# Youngs Moduli (GPa) = 102.14497 73.61758 87.31668
#
# Poissons Ratio (x) = 0.16381 0.08368
# Poissons Ratio (y) = 0.22729 0.49927
# Poissons Ratio (z) = 0.09789 0.42094
#
# Static dielectric constant tensor:
#      x y z
#    x 3.819670 0.000000 0.040460 
#    y 0.000000 3.707050 0.000000 
#    z 0.040460 0.000000 3.706610 
# 
# 
# High freq. dielectric constant tensor:
#      x y z
#    x 1.812870 0.000000 0.000500 
#    y 0.000000 1.789740 0.000000 
#    z 0.000500 0.000000 1.787210 
# 
# From -- ./inp_files/371587.got.cif
#   From: 2010.06.25/outbox.cif.g09.slc.cpg/sg12_186_cif.got.tgz:371587.got - 2010.06.28 00:19:55.
