data_PCOD8099842
_publ_section_title
;
Structure prediction by ZEFSAII (Michael W. Deem and Ramdas Pophale) SiO2 
 PCOD8099842
Probable space group: C 2/M
;
_chemical_formula_sum "Si O2"
_cell_formula_units_Z 48
_cell_length_a 18.875583
_cell_length_b 14.193401
_cell_length_c 15.437623
_cell_angle_alpha 90.000000
_cell_angle_beta 34.218356
_cell_angle_gamma 90.000000
_cell_volume 2325.801694
_symmetry_space_group_name_H-M "C 2/M"
_symmetry_group_IT_number 12
_symmetry_cell_setting 'monoclinic'
loop_
_space_group_symop_operation_xyz
x,y,z
-x,y,-z
-x,-y,-z
x,-y,z
1/2+x,1/2+y,z
1/2-x,1/2+y,-z
1/2-x,1/2-y,-z
1/2+x,1/2-y,z
loop_
_atom_site_type_symbol
_atom_site_label
_atom_site_fract_x
_atom_site_fract_y
_atom_site_fract_z
Si Si1 0.261717 0.608051 0.351226
Si Si2 0.358562 0.895088 0.174616
Si Si3 0.108958 0.252626 0.176161
Si Si4 0.260148 0.778169 0.790069
Si Si5 0.595450 0.889503 0.680042
Si Si6 0.953576 0.890218 0.890465
O O1 0.229595 0.500000 0.364677
O O2 0.198438 0.668216 0.338729
O O3 0.200985 0.639175 0.503562
O O4 0.411220 0.624609 0.202054
O O5 0.281717 0.827375 0.189596
O O6 0.353769 0.855656 0.277928
O O7 0.298999 0.000000 0.229995
O O8 0.500000 0.898515 0.000000
O O9 0.117603 0.265926 0.271356
O O10 0.043516 0.155650 0.209189
O O11 0.036599 0.340708 0.208189
O O12 0.250000 0.250000 0.000000
O O13 0.147884 0.837490 0.947627
O O14 0.566974 0.000000 0.711286
O O15 0.919011 0.000000 0.917305
#
# Coordination Sequence:
#
# PCOD8099842 Si02
#       6
#     8   8   8   8   8   8
#     4  10  21  37  60  86 112 148 193 240 288 337
#     4  10  20  35  57  82 109 146 192 238 281 332
#     4  10  22  36  54  82 113 149 186 226 283 344
#     4  11  21  35  57  87 119 150 190 237 288 341
#     4  10  22  40  60  84 114 149 191 238 287 339
#     4  10  21  38  59  83 114 152 194 238 285 340
#
# _framework density 20.638045000000002
#
# number of rings (size 3 to 8) (size 9 to 14) (size 15 to 20)
#    0.000    1.833    0.000    5.000    0.000    8.667 
#    0.000    1.667    0.000    0.000    0.000    7.000 
#    0.000    0.000    0.000    0.000    0.000    0.000 
#
# Total GULP energy -297585.749085 kJ/mol
# GULP energy per Si atom -12399.406212 kJ/mol
# Density = 2.059107 g / cm^3
# Si number density = 20.638045 Si / 1000 Ang^3
#
#
#
# Elastic Constant Matrix: (Units=GPa)
#
#
# Indices 1 2 3 4 5 6 
#
# 1 115.7230 62.2408 10.6820 0.0000 23.7388 0.0000
# 2 62.2408 104.5305 21.3576 0.0000 11.9855 0.0000
# 3 10.6820 21.3576 57.8572 0.0000 19.0958 0.0000
# 4 0.0000 0.0000 0.0000 23.9762 0.0000 6.4295
# 5 23.7388 11.9855 19.0958 0.0000 31.4798 0.0000
# 6 0.0000 0.0000 0.0000 6.4295 0.0000 31.2731
#
#
#
# Elastic Compliance Matrix: (Units=1/GPa)
#
#
# Indices 1 2 3 4 5 6 
#
# 1 0.015000 -0.008518 0.003798 0.000000 -0.010372 0.000000
# 2 -0.008518 0.015289 -0.005339 0.000000 0.003841 0.000000
# 3 0.003798 -0.005339 0.023541 0.000000 -0.015112 0.000000
# 4 0.000000 0.000000 0.000000 0.044142 0.000000 -0.009075
# 5 -0.010372 0.003841 -0.015112 0.000000 0.047293 0.000000
# 6 0.000000 0.000000 0.000000 -0.009075 0.000000 0.033842
#
#
# Mechanical properties :
#
#
# Convention : Reuss Voigt Hill
#
# Bulk Modulus (GPa) = 29.66238 51.85240 40.75739
# Shear Modulus (GPa) = 23.75731 29.60116 26.67923
#
# Velocity S-wave (km/s) = 3.39653 3.79132 3.59934
# Velocity P-wave (km/s) = 5.45763 6.65918 6.08812
#
# Compressibility (1/GPa) = 0.03371273
#
# Stress axis : x y z
#
# Youngs Moduli (GPa) = 66.66712 65.40633 42.47880
#
# Poissons Ratio (x) = 0.55715 -0.16135
# Poissons Ratio (y) = 0.56789 0.22679
# Poissons Ratio (z) = -0.25323 0.34920
#
# Static dielectric constant tensor:
#      x y z
#    x 4.371290 0.000000 0.337820 
#    y 0.000000 3.991900 0.000000 
#    z 0.337820 0.000000 3.603180 
# 
# 
# High freq. dielectric constant tensor:
#      x y z
#    x 1.809570 0.000000 0.018260 
#    y 0.000000 1.819300 0.000000 
#    z 0.018260 0.000000 1.789790 
# 
# From -- ./inp_files/225079.got.cif
#   From: 2010.06.25/outbox.cif.g09.slc.cpg/sg12_113_cif.got.tgz:225079.got - 2010.06.28 00:19:55.
