data_PCOD8099310
_publ_section_title
;
Structure prediction by ZEFSAII (Michael W. Deem and Ramdas Pophale) SiO2 
 PCOD8099310
Probable space group: C 2/M
;
_chemical_formula_sum "Si O2"
_cell_formula_units_Z 40
_cell_length_a 8.713596
_cell_length_b 25.359635
_cell_length_c 13.328081
_cell_angle_alpha 90.000000
_cell_angle_beta 50.051510
_cell_angle_gamma 90.000000
_cell_volume 2257.820059
_symmetry_space_group_name_H-M "C 2/M"
_symmetry_group_IT_number 12
_symmetry_cell_setting 'monoclinic'
loop_
_space_group_symop_operation_xyz
x,y,z
-x,y,-z
-x,-y,-z
x,-y,z
1/2+x,1/2+y,z
1/2-x,1/2+y,-z
1/2-x,1/2-y,-z
1/2+x,1/2-y,z
loop_
_atom_site_type_symbol
_atom_site_label
_atom_site_fract_x
_atom_site_fract_y
_atom_site_fract_z
Si Si1 0.653396 0.592014 0.525975
Si Si2 0.850078 0.438857 0.973431
Si Si3 0.945667 0.389732 0.726260
Si Si4 0.414379 0.441012 0.230701
Si Si5 0.351963 0.805946 0.469427
O O1 0.500000 0.585372 0.500000
O O2 0.583653 0.557272 0.649162
O O3 0.668582 0.652626 0.559660
O O4 0.873139 0.573925 0.393840
O O5 0.860912 0.500000 0.936025
O O6 0.629283 0.422648 0.100694
O O7 0.911460 0.401150 0.856718
O O8 0.000000 0.426636 0.000000
O O9 0.748107 0.401130 0.744866
O O10 0.013938 0.328086 0.681446
O O11 0.368051 0.500000 0.211219
O O12 0.500000 0.804924 0.500000
O O13 0.250000 0.750000 0.500000
#
# Coordination Sequence:
#
# PCOD8099310 Si02
#       5
#     8   8   8   8   8
#     4  10  20  35  55  85 114 151 192 242 288 340
#     4  10  21  36  56  84 120 160 195 229 281 347
#     4  10  20  36  55  86 111 151 196 236 287 344
#     4  11  21  35  56  83 121 159 191 232 284 347
#     4  10  20  38  60  88 108 145 189 246 300 347
#
# _framework density 17.716204000000001
#
# number of rings (size 3 to 8) (size 9 to 14) (size 15 to 20)
#    1.200    0.600    2.000    3.600    0.000    4.400 
#    0.000    0.000    0.000    1.200    0.000    0.000 
#    0.000    0.000    0.000    0.000    0.000    0.000 
#
# Total GULP energy -247807.664451 kJ/mol
# GULP energy per Si atom -12390.383223 kJ/mol
# Density = 1.767588 g / cm^3
# Si number density = 17.716204 Si / 1000 Ang^3
#
#
#
# Elastic Constant Matrix: (Units=GPa)
#
#
# Indices 1 2 3 4 5 6 
#
# 1 123.4815 41.9904 57.2679 0.0000 3.8064 0.0000
# 2 41.9904 74.2319 46.1984 0.0000 -5.7314 0.0000
# 3 57.2679 46.1984 146.8031 0.0000 -0.3003 0.0000
# 4 0.0000 0.0000 0.0000 26.5145 0.0000 -7.6874
# 5 3.8064 -5.7314 -0.3003 0.0000 34.9362 0.0000
# 6 0.0000 0.0000 0.0000 -7.6874 0.0000 26.6335
#
#
#
# Elastic Compliance Matrix: (Units=1/GPa)
#
#
# Indices 1 2 3 4 5 6 
#
# 1 0.011061 -0.004629 -0.002862 0.000000 -0.001989 0.000000
# 2 -0.004629 0.018949 -0.004150 0.000000 0.003577 0.000000
# 3 -0.002862 -0.004150 0.009234 0.000000 -0.000290 0.000000
# 4 0.000000 0.000000 0.000000 0.041160 0.000000 0.011880
# 5 -0.001989 0.003577 -0.000290 0.000000 0.029425 0.000000
# 6 0.000000 0.000000 0.000000 0.011880 0.000000 0.040976
#
#
# Mechanical properties :
#
#
# Convention : Reuss Voigt Hill
#
# Bulk Modulus (GPa) = 62.65264 70.60332 66.62798
# Shear Modulus (GPa) = 27.86951 30.88749 29.37850
#
# Velocity S-wave (km/s) = 3.97055 4.18001 4.07662
# Velocity P-wave (km/s) = 7.51410 7.95208 7.73619
#
# Compressibility (1/GPa) = 0.01596102
#
# Stress axis : x y z
#
# Youngs Moduli (GPa) = 90.40480 52.77369 108.29771
#
# Poissons Ratio (x) = 0.24430 0.30998
# Poissons Ratio (y) = 0.41851 0.44943
# Poissons Ratio (z) = 0.25877 0.21901
#
# Static dielectric constant tensor:
#      x y z
#    x 3.327810 0.000000 -0.061160 
#    y 0.000000 2.519590 0.000000 
#    z -0.061160 0.000000 3.312580 
# 
# 
# High freq. dielectric constant tensor:
#      x y z
#    x 1.705220 0.000000 -0.001600 
#    y 0.000000 1.650560 0.000000 
#    z -0.001600 0.000000 1.681620 
# 
# From -- ./inp_files/124716.got.cif
#   From: 2010.06.25/outbox.cif.g09.slc.cpg/sg12_63_cif.got.tgz:124716.got - 2010.06.28 00:19:55.
