data_PCOD8099827
_publ_section_title
;
Structure prediction by ZEFSAII (Michael W. Deem and Ramdas Pophale) SiO2 
 PCOD8099827
Probable space group: C 2/M
;
_chemical_formula_sum "Si O2"
_cell_formula_units_Z 48
_cell_length_a 20.552678
_cell_length_b 8.989056
_cell_length_c 26.684560
_cell_angle_alpha 90.000000
_cell_angle_beta 30.218070
_cell_angle_gamma 90.000000
_cell_volume 2481.207052
_symmetry_space_group_name_H-M "C 2/M"
_symmetry_group_IT_number 12
_symmetry_cell_setting 'monoclinic'
loop_
_space_group_symop_operation_xyz
x,y,z
-x,y,-z
-x,-y,-z
x,-y,z
1/2+x,1/2+y,z
1/2-x,1/2+y,-z
1/2-x,1/2-y,-z
1/2+x,1/2-y,z
loop_
_atom_site_type_symbol
_atom_site_label
_atom_site_fract_x
_atom_site_fract_y
_atom_site_fract_z
Si Si1 0.882430 0.327711 0.716938
Si Si2 0.617910 0.676474 0.388029
Si Si3 0.872521 0.827383 0.053323
Si Si4 0.638677 0.825786 0.605690
Si Si5 0.129199 0.323146 0.724824
Si Si6 0.367563 0.176589 0.950655
O O1 0.882189 0.500000 0.702102
O O2 0.900622 0.232269 0.655464
O O3 0.749622 0.282220 0.831905
O O4 0.998808 0.288010 0.676592
O O5 0.500000 0.736682 0.500000
O O6 0.618948 0.500000 0.386402
O O7 0.750842 0.739272 0.322866
O O8 0.865950 0.000000 0.041631
O O9 0.870878 0.725566 0.005775
O O10 0.000000 0.791478 0.000000
O O11 0.750000 0.750000 0.500000
O O12 0.640613 0.761511 0.660769
O O13 0.666582 0.000000 0.586838
O O14 0.130130 0.500000 0.723255
O O15 0.997944 0.265262 0.837404
O O16 0.354344 0.000000 0.956277
O O17 0.250000 0.250000 0.000000
#
# Coordination Sequence:
#
# PCOD8099827 Si02
#       6
#     8   8   8   8   8   8
#     4  10  21  36  55  80 111 144 174 216 274 325
#     4  10  20  35  57  82 107 139 180 223 265 316
#     4  10  21  38  59  83 112 145 182 226 276 329
#     4  10  20  36  56  77 105 140 178 218 263 314
#     4   9  19  36  56  78 107 142 176 217 269 318
#     4  11  22  37  58  82 111 147 186 227 273 326
#
# _framework density 19.345423
#
# number of rings (size 3 to 8) (size 9 to 14) (size 15 to 20)
#    0.000    2.000    0.000    3.500    0.000    6.000 
#    0.000    5.000    0.000    0.000    0.000    0.000 
#    0.000    0.000    0.000    0.000    0.000    0.000 
#
# Total GULP energy -297697.381226 kJ/mol
# GULP energy per Si atom -12404.057551 kJ/mol
# Density = 1.930139 g / cm^3
# Si number density = 19.345423 Si / 1000 Ang^3
#
#
#
# Elastic Constant Matrix: (Units=GPa)
#
#
# Indices 1 2 3 4 5 6 
#
# 1 92.6940 32.8379 31.3895 -0.0001 5.6101 -0.0001
# 2 32.8379 38.5848 34.7789 0.0002 -0.2168 -0.0010
# 3 31.3895 34.7789 135.8025 0.0012 -1.7700 -0.0003
# 4 -0.0001 0.0002 0.0012 30.0719 -0.0002 4.2204
# 5 5.6101 -0.2168 -1.7700 -0.0002 40.8601 0.0000
# 6 -0.0001 -0.0010 -0.0003 4.2204 0.0000 35.1895
#
#
#
# Elastic Compliance Matrix: (Units=1/GPa)
#
#
# Indices 1 2 3 4 5 6 
#
# 1 0.015653 -0.013062 -0.000302 0.000000 -0.002231 0.000000
# 2 -0.013062 0.044596 -0.008380 0.000000 0.001667 0.000001
# 3 -0.000302 -0.008380 0.009585 0.000000 0.000412 0.000000
# 4 0.000000 0.000000 0.000000 0.033823 0.000000 -0.004057
# 5 -0.002231 0.001667 0.000412 0.000000 0.024807 0.000000
# 6 0.000000 0.000001 0.000000 -0.004057 0.000000 0.028904
#
#
# Mechanical properties :
#
#
# Convention : Reuss Voigt Hill
#
# Bulk Modulus (GPa) = 37.95634 51.67710 44.81672
# Shear Modulus (GPa) = 23.85064 32.42930 28.13997
#
# Velocity S-wave (km/s) = 3.51505 4.09874 3.81807
# Velocity P-wave (km/s) = 6.01141 7.01216 6.53098
#
# Compressibility (1/GPa) = 0.02634606
#
# Stress axis : x y z
#
# Youngs Moduli (GPa) = 63.88636 22.42338 104.32987
#
# Poissons Ratio (x) = 0.29289 0.03150
# Poissons Ratio (y) = 0.83447 0.87431
# Poissons Ratio (z) = 0.01929 0.18791
#
# Static dielectric constant tensor:
#      x y z
#    x 3.561210 0.000000 -0.044970 
#    y 0.000000 3.296390 0.000000 
#    z -0.044970 0.000000 3.779500 
# 
# 
# High freq. dielectric constant tensor:
#      x y z
#    x 1.771540 0.000000 -0.003680 
#    y 0.000000 1.727420 0.000000 
#    z -0.003680 0.000000 1.773610 
# 
# From -- ./inp_files/365365.got.cif
#   From: 2010.06.25/outbox.cif.g09.slc.cpg/sg12_183_cif.got.tgz:365365.got - 2010.06.28 00:19:55.
