data_PCOD8099418
_publ_section_title
;
Structure prediction by ZEFSAII (Michael W. Deem and Ramdas Pophale) SiO2 
 PCOD8099418
Probable space group: C 2/M
;
_chemical_formula_sum "Si O2"
_cell_formula_units_Z 48
_cell_length_a 17.414255
_cell_length_b 13.292052
_cell_length_c 15.505121
_cell_angle_alpha 90.000000
_cell_angle_beta 137.289117
_cell_angle_gamma 90.000000
_cell_volume 2434.408345
_symmetry_space_group_name_H-M "C 2/M"
_symmetry_group_IT_number 12
_symmetry_cell_setting 'monoclinic'
loop_
_space_group_symop_operation_xyz
x,y,z
-x,y,-z
-x,-y,-z
x,-y,z
1/2+x,1/2+y,z
1/2-x,1/2+y,-z
1/2-x,1/2-y,-z
1/2+x,1/2-y,z
loop_
_atom_site_type_symbol
_atom_site_label
_atom_site_fract_x
_atom_site_fract_y
_atom_site_fract_z
Si Si1 0.370306 0.116559 0.724756
Si Si2 0.223919 0.291680 0.185592
Si Si3 0.080207 0.879823 0.754819
Si Si4 0.848013 0.114466 0.773199
Si Si5 0.673682 0.385039 0.443951
Si Si6 0.058301 0.233949 0.901535
O O1 0.334077 0.133232 0.794007
O O2 0.274838 0.166228 0.582339
O O3 0.485106 0.176022 0.798916
O O4 0.392861 0.000000 0.725286
O O5 0.346114 0.336833 0.262981
O O6 0.235894 0.179759 0.235967
O O7 0.148813 0.285628 0.038017
O O8 0.121070 0.829606 0.878550
O O9 0.950535 0.844983 0.632124
O O10 0.092407 0.000000 0.772597
O O11 0.804989 0.125340 0.640030
O O12 0.975288 0.158847 0.886121
O O13 0.846886 0.000000 0.804511
O O14 0.677450 0.500000 0.476266
#
# Coordination Sequence:
#
# PCOD8099418 Si02
#       6
#     8   8   8   8   8   8
#     4  10  20  35  56  80 108 137 171 222 264 301
#     4  11  22  33  51  83 111 135 175 211 258 323
#     4  10  21  38  56  75 106 141 174 218 262 307
#     4   9  18  34  56  79 105 136 174 223 260 298
#     4   8  17  35  57  79 100 135 182 213 255 313
#     4  10  21  35  53  79 105 139 182 210 252 321
#
# _framework density 19.717316
#
# number of rings (size 3 to 8) (size 9 to 14) (size 15 to 20)
#    0.000    2.333    0.000    4.500    0.000   10.667 
#    0.000    3.333    0.000    0.000    0.000   14.000 
#    0.000    0.000    0.000    0.000    0.000    0.000 
#
# Total GULP energy -297528.872559 kJ/mol
# GULP energy per Si atom -12397.036357 kJ/mol
# Density = 1.967244 g / cm^3
# Si number density = 19.717316 Si / 1000 Ang^3
#
#
#
# Elastic Constant Matrix: (Units=GPa)
#
#
# Indices 1 2 3 4 5 6 
#
# 1 84.7615 32.7575 16.0116 0.0000 1.4102 0.0000
# 2 32.7575 85.7097 29.0706 0.0000 12.9902 0.0000
# 3 16.0116 29.0706 86.8175 0.0000 7.8745 0.0000
# 4 0.0000 0.0000 0.0000 26.2067 0.0000 -7.9759
# 5 1.4102 12.9902 7.8745 0.0000 12.6171 0.0000
# 6 0.0000 0.0000 0.0000 -7.9759 0.0000 32.2006
#
#
#
# Elastic Compliance Matrix: (Units=1/GPa)
#
#
# Indices 1 2 3 4 5 6 
#
# 1 0.014170 -0.005804 -0.001132 0.000000 0.005099 0.000000
# 2 -0.005804 0.017310 -0.003358 0.000000 -0.015077 0.000000
# 3 -0.001132 -0.003358 0.013278 0.000000 -0.004703 0.000000
# 4 0.000000 0.000000 0.000000 0.041269 0.000000 0.010222
# 5 0.005099 -0.015077 -0.004703 0.000000 0.097146 0.000000
# 6 0.000000 0.000000 0.000000 0.010222 0.000000 0.033587
#
#
# Mechanical properties :
#
#
# Convention : Reuss Voigt Hill
#
# Bulk Modulus (GPa) = 41.37616 45.88535 43.63075
# Shear Modulus (GPa) = 20.37439 26.16816 23.27127
#
# Velocity S-wave (km/s) = 3.21802 3.64698 3.43920
# Velocity P-wave (km/s) = 5.90236 6.40750 6.16011
#
# Compressibility (1/GPa) = 0.02416851
#
# Stress axis : x y z
#
# Youngs Moduli (GPa) = 70.57120 57.77090 75.31097
#
# Poissons Ratio (x) = 0.33533 0.08527
# Poissons Ratio (y) = 0.40963 0.25290
# Poissons Ratio (z) = 0.07990 0.19400
#
# Static dielectric constant tensor:
#      x y z
#    x 3.408890 0.000000 -0.060840 
#    y 0.000000 3.716800 0.000000 
#    z -0.060840 0.000000 3.645380 
# 
# 
# High freq. dielectric constant tensor:
#      x y z
#    x 1.743580 0.000000 -0.010250 
#    y 0.000000 1.777650 0.000000 
#    z -0.010250 0.000000 1.766060 
# 
# From -- ./inp_files/166536.got.cif
#   From: 2010.06.25/outbox.cif.g09.slc.cpg/sg12_84_cif.got.tgz:166536.got - 2010.06.28 00:19:55.
