data_PCOD8099320
_publ_section_title
;
Structure prediction by ZEFSAII (Michael W. Deem and Ramdas Pophale) SiO2 
 PCOD8099320
Probable space group: C 2/M
;
_chemical_formula_sum "Si O2"
_cell_formula_units_Z 56
_cell_length_a 23.547404
_cell_length_b 8.918032
_cell_length_c 15.603806
_cell_angle_alpha 90.000000
_cell_angle_beta 56.696181
_cell_angle_gamma 90.000000
_cell_volume 2738.607411
_symmetry_space_group_name_H-M "C 2/M"
_symmetry_group_IT_number 12
_symmetry_cell_setting 'monoclinic'
loop_
_space_group_symop_operation_xyz
x,y,z
-x,y,-z
-x,-y,-z
x,-y,z
1/2+x,1/2+y,z
1/2-x,1/2+y,-z
1/2-x,1/2-y,-z
1/2+x,1/2-y,z
loop_
_atom_site_type_symbol
_atom_site_label
_atom_site_fract_x
_atom_site_fract_y
_atom_site_fract_z
Si Si1 0.073243 0.825322 0.977037
Si Si2 0.573940 0.172975 0.652741
Si Si3 0.563690 0.675708 0.181352
Si Si4 0.426413 0.828166 0.543713
Si Si5 0.200639 0.325771 0.789246
Si Si6 0.337362 0.671856 0.754651
Si Si7 0.203492 0.822120 0.611190
O O1 0.127977 0.730894 0.880089
O O2 0.089618 0.000000 0.950765
O O3 0.076959 0.777402 0.072878
O O4 0.000000 0.783904 0.000000
O O5 0.497975 0.230042 0.729375
O O6 0.595063 0.191707 0.536668
O O7 0.625165 0.272863 0.665707
O O8 0.578912 0.000000 0.677382
O O9 0.546153 0.500000 0.202209
O O10 0.630787 0.720912 0.180427
O O11 0.500000 0.752647 0.500000
O O12 0.369499 0.755095 0.648179
O O13 0.430677 0.000000 0.568033
O O14 0.194878 0.500000 0.769794
O O15 0.256210 0.298756 0.818903
O O16 0.226861 0.235321 0.684638
O O17 0.354475 0.500000 0.724917
O O18 0.250000 0.750000 0.500000
O O19 0.210406 0.000000 0.600579
#
# Coordination Sequence:
#
# PCOD8099320 Si02
#       7
#     8   8   8   8   8   8   8
#     4  10  22  41  64  89 118 156 203 255 311 368
#     4  11  22  37  60  90 123 159 203 253 304 358
#     4  10  21  38  60  88 122 160 204 251 303 361
#     4  10  20  35  55  85 123 161 200 245 294 352
#     4  11  24  42  63  90 123 160 204 253 306 363
#     4  10  22  38  58  87 123 162 204 250 302 362
#     4  12  25  42  63  89 122 160 202 248 303 363
#
# _framework density 20.448349
#
# number of rings (size 3 to 8) (size 9 to 14) (size 15 to 20)
#    0.000    1.429    1.429    3.857    0.000    7.429 
#    0.000    0.000    0.000    0.000    0.000    0.000 
#    0.000    0.000    0.000    0.000    0.000    0.000 
#
# Total GULP energy -347298.496890 kJ/mol
# GULP energy per Si atom -12403.517746 kJ/mol
# Density = 2.040181 g / cm^3
# Si number density = 20.448349 Si / 1000 Ang^3
#
#
#
# Elastic Constant Matrix: (Units=GPa)
#
#
# Indices 1 2 3 4 5 6 
#
# 1 137.2023 51.4329 51.6090 0.0000 6.9116 0.0000
# 2 51.4329 100.9865 51.4510 0.0000 1.8341 0.0000
# 3 51.6090 51.4510 117.7289 0.0000 6.2926 0.0000
# 4 0.0000 0.0000 0.0000 32.1022 0.0000 -3.2396
# 5 6.9116 1.8341 6.2926 0.0000 32.9693 0.0000
# 6 0.0000 0.0000 0.0000 -3.2396 0.0000 27.3633
#
#
#
# Elastic Compliance Matrix: (Units=1/GPa)
#
#
# Indices 1 2 3 4 5 6 
#
# 1 0.009677 -0.003575 -0.002608 0.000000 -0.001332 0.000000
# 2 -0.003575 0.014064 -0.004624 0.000000 0.000850 0.000000
# 3 -0.002608 -0.004624 0.011735 0.000000 -0.001436 0.000000
# 4 0.000000 0.000000 0.000000 0.031527 0.000000 0.003733
# 5 -0.001332 0.000850 -0.001436 0.000000 0.030837 0.000000
# 6 0.000000 0.000000 0.000000 0.003733 0.000000 0.036987
#
#
# Mechanical properties :
#
#
# Convention : Reuss Voigt Hill
#
# Bulk Modulus (GPa) = 72.15109 73.87817 73.01463
# Shear Modulus (GPa) = 31.04350 31.91528 31.47939
#
# Velocity S-wave (km/s) = 3.90056 3.95495 3.92785
# Velocity P-wave (km/s) = 7.45969 7.55401 7.50700
#
# Compressibility (1/GPa) = 0.01385981
#
# Stress axis : x y z
#
# Youngs Moduli (GPa) = 103.33690 71.10378 85.21319
#
# Poissons Ratio (x) = 0.25423 0.22227
# Poissons Ratio (y) = 0.36948 0.39406
# Poissons Ratio (z) = 0.26954 0.32881
#
# Static dielectric constant tensor:
#      x y z
#    x 4.028430 0.000000 0.173490 
#    y 0.000000 3.688630 0.000000 
#    z 0.173490 0.000000 3.581430 
# 
# 
# High freq. dielectric constant tensor:
#      x y z
#    x 1.819480 0.000000 0.005320 
#    y 0.000000 1.796010 0.000000 
#    z 0.005320 0.000000 1.792560 
# 
# From -- ./inp_files/238289.got.cif
#   From: 2010.06.25/outbox.cif.g09.slc.cpg/sg12_120_cif.got.tgz:238289.got - 2010.06.28 00:19:55.
