data_PCOD8099123
_publ_section_title
;
Structure prediction by ZEFSAII (Michael W. Deem and Ramdas Pophale) SiO2 
 PCOD8099123
Probable space group: C 2/M
;
_chemical_formula_sum "Si O2"
_cell_formula_units_Z 56
_cell_length_a 18.900065
_cell_length_b 8.843570
_cell_length_c 18.509278
_cell_angle_alpha 90.000000
_cell_angle_beta 65.578018
_cell_angle_gamma 90.000000
_cell_volume 2816.905758
_symmetry_space_group_name_H-M "C 2/M"
_symmetry_group_IT_number 12
_symmetry_cell_setting 'monoclinic'
loop_
_space_group_symop_operation_xyz
x,y,z
-x,y,-z
-x,-y,-z
x,-y,z
1/2+x,1/2+y,z
1/2-x,1/2+y,-z
1/2-x,1/2-y,-z
1/2+x,1/2-y,z
loop_
_atom_site_type_symbol
_atom_site_label
_atom_site_fract_x
_atom_site_fract_y
_atom_site_fract_z
Si Si1 0.661189 0.677755 0.260635
Si Si2 0.937167 0.675365 0.809631
Si Si3 0.330908 0.172016 0.477940
Si Si4 0.174976 0.827103 0.778816
Si Si5 0.079829 0.826659 0.679634
Si Si6 0.925414 0.671706 0.575012
Si Si7 0.972444 0.322567 0.090271
O O1 0.664152 0.500000 0.261151
O O2 0.636413 0.732447 0.190623
O O3 0.746055 0.737517 0.242997
O O4 0.595718 0.732576 0.345266
O O5 0.917449 0.500000 0.810356
O O6 0.012010 0.715412 0.731173
O O7 0.957490 0.719249 0.883945
O O8 0.250000 0.250000 0.500000
O O9 0.395067 0.269422 0.409150
O O10 0.350870 0.175496 0.554091
O O11 0.328652 0.000000 0.449855
O O12 0.151628 0.812095 0.704789
O O13 0.106576 0.764124 0.858205
O O14 0.189475 0.000000 0.794346
O O15 0.050218 0.000000 0.688351
O O16 0.943816 0.500000 0.592043
O O17 0.000000 0.737339 0.500000
O O18 0.954042 0.500000 0.101872
O O19 0.000000 0.270596 0.000000
#
# Coordination Sequence:
#
# PCOD8099123 Si02
#       7
#     8   8   8   8   8   8   8
#     4  12  24  37  56  82 113 148 191 238 278 326
#     4  10  20  36  59  83 111 146 179 217 271 331
#     4  11  22  34  51  75 104 140 182 231 283 332
#     4  10  21  37  58  84 115 151 188 227 277 333
#     4  10  20  35  55  79 107 140 184 233 276 328
#     4  10  22  39  56  75 104 145 190 235 285 335
#     4   9  19  38  64  92 118 144 179 223 271 328
#
# _framework density 19.879968000000002
#
# number of rings (size 3 to 8) (size 9 to 14) (size 15 to 20)
#    0.000    1.714    0.000    4.714    0.000    8.571 
#    0.000    0.714    0.000    0.000    0.000    0.000 
#    0.000    0.000    0.000    0.000    0.000    0.000 
#
# Total GULP energy -347246.120878 kJ/mol
# GULP energy per Si atom -12401.647174 kJ/mol
# Density = 1.983472 g / cm^3
# Si number density = 19.879968 Si / 1000 Ang^3
#
#
#
# Elastic Constant Matrix: (Units=GPa)
#
#
# Indices 1 2 3 4 5 6 
#
# 1 90.9491 44.0025 17.0170 0.0000 10.6533 -0.0001
# 2 44.0025 110.6390 41.2039 0.0000 3.4360 -0.0001
# 3 17.0170 41.2039 87.0213 0.0000 12.1627 -0.0001
# 4 0.0000 0.0000 0.0000 25.1700 0.0000 -1.3603
# 5 10.6533 3.4360 12.1627 0.0000 22.7144 0.0000
# 6 -0.0001 -0.0001 -0.0001 -1.3603 0.0000 35.7507
#
#
#
# Elastic Compliance Matrix: (Units=1/GPa)
#
#
# Indices 1 2 3 4 5 6 
#
# 1 0.014407 -0.005844 0.000833 0.000000 -0.006319 0.000000
# 2 -0.005844 0.013375 -0.005718 0.000000 0.003780 0.000000
# 3 0.000833 -0.005718 0.015100 0.000000 -0.007611 0.000000
# 4 0.000000 0.000000 0.000000 0.039812 0.000000 0.001515
# 5 -0.006319 0.003780 -0.007611 0.000000 0.050492 0.000000
# 6 0.000000 0.000000 0.000000 0.001515 0.000000 0.028029
#
#
# Mechanical properties :
#
#
# Convention : Reuss Voigt Hill
#
# Bulk Modulus (GPa) = 46.67856 54.78403 50.73130
# Shear Modulus (GPa) = 26.34155 29.15273 27.74714
#
# Velocity S-wave (km/s) = 3.64405 3.83356 3.74001
# Velocity P-wave (km/s) = 6.42157 6.87111 6.65014
#
# Compressibility (1/GPa) = 0.02142311
#
# Stress axis : x y z
#
# Youngs Moduli (GPa) = 69.41187 74.76777 66.22546
#
# Poissons Ratio (x) = 0.43692 -0.05516
# Poissons Ratio (y) = 0.40562 0.37870
# Poissons Ratio (z) = -0.05781 0.42755
#
# Static dielectric constant tensor:
#      x y z
#    x 3.724000 0.000000 0.304120 
#    y 0.000000 3.649500 0.000000 
#    z 0.304120 0.000000 3.577910 
# 
# 
# High freq. dielectric constant tensor:
#      x y z
#    x 1.786250 0.000000 0.012690 
#    y 0.000000 1.780850 0.000000 
#    z 0.012690 0.000000 1.755860 
# 
# From -- ./inp_files/275047.got.cif
#   From: 2010.06.25/outbox.cif.g09.slc.cpg/sg12_138_cif.got.tgz:275047.got - 2010.06.28 00:19:55.
