data_PCOD8099326
_publ_section_title
;
Structure prediction by ZEFSAII (Michael W. Deem and Ramdas Pophale) SiO2 
 PCOD8099326
Probable space group: C 2/M
;
_chemical_formula_sum "Si O2"
_cell_formula_units_Z 64
_cell_length_a 21.503336
_cell_length_b 16.362270
_cell_length_c 17.421036
_cell_angle_alpha 90.000000
_cell_angle_beta 32.618537
_cell_angle_gamma 90.000000
_cell_volume 3304.053265
_symmetry_space_group_name_H-M "C 2/M"
_symmetry_group_IT_number 12
_symmetry_cell_setting 'monoclinic'
loop_
_space_group_symop_operation_xyz
x,y,z
-x,y,-z
-x,-y,-z
x,-y,z
1/2+x,1/2+y,z
1/2-x,1/2+y,-z
1/2-x,1/2-y,-z
1/2+x,1/2-y,z
loop_
_atom_site_type_symbol
_atom_site_label
_atom_site_fract_x
_atom_site_fract_y
_atom_site_fract_z
Si Si1 0.732392 0.403231 0.650096
Si Si2 0.370514 0.269588 0.334624
Si Si3 0.402788 0.300039 0.651199
Si Si4 0.769018 0.592969 0.082002
Si Si5 0.709700 0.682885 0.828519
Si Si6 0.309221 0.091544 0.868654
Si Si7 0.529380 0.813549 0.633895
Si Si8 0.027095 0.309172 0.053926
O O1 0.734498 0.500000 0.633109
O O2 0.637072 0.361535 0.692476
O O3 0.701492 0.385636 0.771121
O O4 0.853371 0.360956 0.505831
O O5 0.250000 0.250000 0.500000
O O6 0.462621 0.255054 0.306795
O O7 0.408796 0.208891 0.224613
O O8 0.500000 0.346694 0.500000
O O9 0.344887 0.366688 0.765048
O O10 0.302214 0.253160 0.707915
O O11 0.479161 0.231210 0.612812
O O12 0.777898 0.500000 0.100530
O O13 0.745282 0.599644 0.016225
O O14 0.887052 0.636266 0.985013
O O15 0.746745 0.647729 0.872019
O O16 0.585276 0.722471 0.971745
O O17 0.440443 0.116140 0.749819
O O18 0.306979 0.000000 0.838848
O O19 0.000000 0.353022 0.000000
#
# Coordination Sequence:
#
# PCOD8099326 Si02
#       8
#     8   8   8   8   8   8   8   8
#     4  11  21  37  57  89 123 149 187 241 287 339
#     4  10  22  38  58  84 112 157 199 235 281 342
#     4  10  20  36  60  84 116 150 193 232 287 353
#     4  10  23  38  57  88 116 146 195 250 292 329
#     4  10  21  34  57  88 118 154 189 224 290 355
#     4  10  20  35  55  87 119 147 185 236 291 340
#     4  10  20  36  61  83 112 158 195 228 282 345
#     4  11  21  39  63  80 113 156 202 237 283 349
#
# _framework density 19.370148
#
# number of rings (size 3 to 8) (size 9 to 14) (size 15 to 20)
#    0.000    1.750    3.750    0.750    1.750    2.000 
#    0.000    4.375    0.000    3.000    0.000    0.000 
#    0.000    0.000    0.000    0.000    0.000    0.000 
#
# Total GULP energy -396532.871577 kJ/mol
# GULP energy per Si atom -12391.652237 kJ/mol
# Density = 1.932606 g / cm^3
# Si number density = 19.370148 Si / 1000 Ang^3
#
#
#
# Elastic Constant Matrix: (Units=GPa)
#
#
# Indices 1 2 3 4 5 6 
#
# 1 66.7317 23.0018 13.0765 0.0000 9.2214 0.0000
# 2 23.0018 101.1409 36.5720 0.0000 4.6780 0.0000
# 3 13.0765 36.5720 115.7014 0.0000 6.8663 0.0000
# 4 0.0000 0.0000 0.0000 24.6753 0.0000 2.0606
# 5 9.2214 4.6780 6.8663 0.0000 20.8168 0.0000
# 6 0.0000 0.0000 0.0000 2.0606 0.0000 25.9394
#
#
#
# Elastic Compliance Matrix: (Units=1/GPa)
#
#
# Indices 1 2 3 4 5 6 
#
# 1 0.017183 -0.003432 -0.000460 0.000000 -0.006689 0.000000
# 2 -0.003432 0.011887 -0.003367 0.000000 -0.000040 0.000000
# 3 -0.000460 -0.003367 0.009896 0.000000 -0.002304 0.000000
# 4 0.000000 0.000000 0.000000 0.040797 0.000000 -0.003241
# 5 -0.006689 -0.000040 -0.002304 0.000000 0.051770 0.000000
# 6 0.000000 0.000000 0.000000 -0.003241 0.000000 0.038809
#
#
# Mechanical properties :
#
#
# Convention : Reuss Voigt Hill
#
# Bulk Modulus (GPa) = 40.90451 47.65274 44.27863
# Shear Modulus (GPa) = 25.90549 28.34790 27.12669
#
# Velocity S-wave (km/s) = 3.66100 3.82970 3.74630
# Velocity P-wave (km/s) = 6.24770 6.64906 6.45150
#
# Compressibility (1/GPa) = 0.02444718
#
# Stress axis : x y z
#
# Youngs Moduli (GPa) = 58.19770 84.12478 101.05132
#
# Poissons Ratio (x) = 0.28872 0.04651
# Poissons Ratio (y) = 0.19973 0.34025
# Poissons Ratio (z) = 0.02679 0.28326
#
# Static dielectric constant tensor:
#      x y z
#    x 3.683250 0.000000 0.058220 
#    y 0.000000 3.416580 0.000000 
#    z 0.058220 0.000000 3.747480 
# 
# 
# High freq. dielectric constant tensor:
#      x y z
#    x 1.757460 0.000000 0.006690 
#    y 0.000000 1.729100 0.000000 
#    z 0.006690 0.000000 1.766170 
# 
# From -- ./inp_files/290102.got.cif
#   From: 2010.06.25/outbox.cif.g09.slc.cpg/sg12_146_cif.got.tgz:290102.got - 2010.06.28 00:19:55.
