data_PCOD8099253
_publ_section_title
;
Structure prediction by ZEFSAII (Michael W. Deem and Ramdas Pophale) SiO2 
 PCOD8099253
Probable space group: C 2/M
;
_chemical_formula_sum "Si O2"
_cell_formula_units_Z 56
_cell_length_a 16.582718
_cell_length_b 15.108285
_cell_length_c 13.111358
_cell_angle_alpha 90.000000
_cell_angle_beta 120.803835
_cell_angle_gamma 90.000000
_cell_volume 2821.461432
_symmetry_space_group_name_H-M "C 2/M"
_symmetry_group_IT_number 12
_symmetry_cell_setting 'monoclinic'
loop_
_space_group_symop_operation_xyz
x,y,z
-x,y,-z
-x,-y,-z
x,-y,z
1/2+x,1/2+y,z
1/2-x,1/2+y,-z
1/2-x,1/2-y,-z
1/2+x,1/2-y,z
loop_
_atom_site_type_symbol
_atom_site_label
_atom_site_fract_x
_atom_site_fract_y
_atom_site_fract_z
Si Si1 0.593319 0.163426 0.778439
Si Si2 0.101767 0.236309 0.588571
Si Si3 0.884345 0.897427 0.734303
Si Si4 0.048254 0.215099 0.924894
Si Si5 0.094992 0.599561 0.436811
Si Si6 0.205438 0.900927 0.115168
Si Si7 0.286037 0.601759 0.461660
O O1 0.613500 0.246790 0.716597
O O2 0.571869 0.196482 0.878411
O O3 0.505457 0.107055 0.681802
O O4 0.685401 0.103151 0.842291
O O5 0.108114 0.331350 0.536540
O O6 0.180977 0.166541 0.606896
O O7 0.000000 0.193235 0.500000
O O8 0.809874 0.876226 0.775730
O O9 0.837690 0.867406 0.598500
O O10 0.979765 0.844200 0.811883
O O11 0.910996 0.000000 0.749265
O O12 0.144938 0.163170 0.004948
O O13 0.000000 0.241491 0.000000
O O14 0.106201 0.500000 0.489713
O O15 0.174778 0.615381 0.403171
O O16 0.168797 0.000000 0.071444
O O17 0.309878 0.500000 0.449541
#
# Coordination Sequence:
#
# PCOD8099253 Si02
#       7
#     8   8   8   8   8   8   8
#     4  11  22  35  54  79 110 142 176 220 275 324
#     4  10  21  34  53  82 115 146 179 223 271 321
#     4   9  17  32  55  79 103 136 178 221 265 310
#     4  10  21  37  56  77 101 135 179 227 273 323
#     4  10  21  36  56  83 113 148 187 220 257 316
#     4  10  20  35  56  80 103 132 177 232 277 311
#     4  10  20  35  55  81 116 152 181 212 259 328
#
# _framework density 19.84787
#
# number of rings (size 3 to 8) (size 9 to 14) (size 15 to 20)
#    0.000    2.000    0.000    4.286    0.000    8.571 
#    0.000    1.429    0.000    3.429    0.000    0.000 
#    0.000    0.000    0.000    0.000    0.000    0.000 
#
# Total GULP energy -347274.447724 kJ/mol
# GULP energy per Si atom -12402.658847 kJ/mol
# Density = 1.980269 g / cm^3
# Si number density = 19.847870 Si / 1000 Ang^3
#
#
#
# Elastic Constant Matrix: (Units=GPa)
#
#
# Indices 1 2 3 4 5 6 
#
# 1 111.3212 37.8118 27.2281 0.0000 8.9587 0.0000
# 2 37.8118 64.5570 20.2281 0.0000 -7.2368 0.0000
# 3 27.2281 20.2281 53.7608 0.0000 0.2557 0.0000
# 4 0.0000 0.0000 0.0000 11.4644 0.0000 2.3211
# 5 8.9587 -7.2368 0.2557 0.0000 29.6396 0.0000
# 6 0.0000 0.0000 0.0000 2.3211 0.0000 35.0136
#
#
#
# Elastic Compliance Matrix: (Units=1/GPa)
#
#
# Indices 1 2 3 4 5 6 
#
# 1 0.012683 -0.006844 -0.003822 0.000000 -0.005472 0.000000
# 2 -0.006844 0.021832 -0.004783 0.000000 0.007440 0.000000
# 3 -0.003822 -0.004783 0.022338 0.000000 -0.000205 0.000000
# 4 0.000000 0.000000 0.000000 0.088413 0.000000 -0.005861
# 5 -0.005472 0.007440 -0.000205 0.000000 0.037211 0.000000
# 6 0.000000 0.000000 0.000000 -0.005861 0.000000 0.028949
#
#
# Mechanical properties :
#
#
# Convention : Reuss Voigt Hill
#
# Bulk Modulus (GPa) = 38.53205 44.46388 41.49796
# Shear Modulus (GPa) = 19.92221 24.84824 22.38523
#
# Velocity S-wave (km/s) = 3.17163 3.54211 3.36198
# Velocity P-wave (km/s) = 5.73308 6.25937 6.00199
#
# Compressibility (1/GPa) = 0.02595242
#
# Stress axis : x y z
#
# Youngs Moduli (GPa) = 78.84572 45.80456 44.76762
#
# Poissons Ratio (x) = 0.31350 0.17111
# Poissons Ratio (y) = 0.53964 0.21414
# Poissons Ratio (z) = 0.30137 0.21910
#
# Static dielectric constant tensor:
#      x y z
#    x 3.761520 0.000000 0.083040 
#    y 0.000000 3.396650 0.000000 
#    z 0.083040 0.000000 3.420500 
# 
# 
# High freq. dielectric constant tensor:
#      x y z
#    x 1.786610 0.000000 0.011410 
#    y 0.000000 1.761200 0.000000 
#    z 0.011410 0.000000 1.755010 
# 
# From -- ./inp_files/156710.got.cif
#   From: 2010.06.25/outbox.cif.g09.slc.cpg/sg12_79_cif.got.tgz:156710.got - 2010.06.28 00:19:55.
