data_PCOD8099126
_publ_section_title
;
Structure prediction by ZEFSAII (Michael W. Deem and Ramdas Pophale) SiO2 
 PCOD8099126
Probable space group: C 2/M
;
_chemical_formula_sum "Si O2"
_cell_formula_units_Z 56
_cell_length_a 21.224487
_cell_length_b 8.885868
_cell_length_c 18.004547
_cell_angle_alpha 90.000000
_cell_angle_beta 120.143267
_cell_angle_gamma 90.000000
_cell_volume 2936.439838
_symmetry_space_group_name_H-M "C 2/M"
_symmetry_group_IT_number 12
_symmetry_cell_setting 'monoclinic'
loop_
_space_group_symop_operation_xyz
x,y,z
-x,y,-z
-x,-y,-z
x,-y,z
1/2+x,1/2+y,z
1/2-x,1/2+y,-z
1/2-x,1/2-y,-z
1/2+x,1/2-y,z
loop_
_atom_site_type_symbol
_atom_site_label
_atom_site_fract_x
_atom_site_fract_y
_atom_site_fract_z
Si Si1 0.667224 0.169624 0.528956
Si Si2 0.670416 0.821086 0.944018
Si Si3 0.419310 0.167929 0.253354
Si Si4 0.072677 0.823447 0.586837
Si Si5 0.338765 0.331115 0.622112
Si Si6 0.549584 0.167949 0.224079
Si Si7 0.040127 0.823721 0.949088
O O1 0.640237 0.239058 0.589708
O O2 0.637031 0.268949 0.443560
O O3 0.753443 0.173458 0.582332
O O4 0.638357 0.000000 0.501874
O O5 0.638272 0.776729 0.843816
O O6 0.616466 0.761247 0.977188
O O7 0.674904 0.000000 0.954945
O O8 0.750000 0.750000 0.000000
O O9 0.424316 0.281079 0.324960
O O10 0.499527 0.164279 0.266918
O O11 0.397448 0.000000 0.267549
O O12 0.000000 0.770909 0.500000
O O13 0.083485 0.000000 0.585805
O O14 0.369702 0.500000 0.646864
O O15 0.371185 0.226264 0.705658
O O16 0.518069 0.287314 0.148281
O O17 0.555208 0.000000 0.192692
O O18 0.057510 0.000000 0.962199
O O19 0.000000 0.767944 0.000000
#
# Coordination Sequence:
#
# PCOD8099126 Si02
#       7
#     8   8   8   8   8   8   8
#     4  10  21  36  54  76 107 146 183 226 275 327
#     4  10  21  39  63  89 118 155 197 243 297 356
#     4   9  20  37  56  81 111 145 185 228 275 336
#     4  11  23  36  53  80 111 144 185 232 278 327
#     4  10  20  35  55  79 107 142 183 227 275 329
#     4  10  20  35  58  84 110 144 184 227 277 335
#     4  10  21  38  60  87 118 152 191 239 291 346
#
# _framework density 19.070710999999999
#
# number of rings (size 3 to 8) (size 9 to 14) (size 15 to 20)
#    0.000    2.000    0.000    4.286    0.000    9.714 
#    2.571    0.000    0.000    0.000    0.000    0.000 
#    0.000    0.000    0.000    0.000    0.000    0.000 
#
# Total GULP energy -347180.355234 kJ/mol
# GULP energy per Si atom -12399.298401 kJ/mol
# Density = 1.902731 g / cm^3
# Si number density = 19.070711 Si / 1000 Ang^3
#
#
#
# Elastic Constant Matrix: (Units=GPa)
#
#
# Indices 1 2 3 4 5 6 
#
# 1 73.5835 52.3576 54.3219 0.0000 -15.0267 0.0000
# 2 52.3576 100.3831 39.4588 0.0000 -0.6347 0.0000
# 3 54.3219 39.4588 88.3264 0.0000 2.8679 0.0000
# 4 0.0000 0.0000 0.0000 31.9479 0.0000 -2.8038
# 5 -15.0267 -0.6347 2.8679 0.0000 27.9310 0.0000
# 6 0.0000 0.0000 0.0000 -2.8038 0.0000 31.0576
#
#
#
# Elastic Compliance Matrix: (Units=1/GPa)
#
#
# Indices 1 2 3 4 5 6 
#
# 1 0.047020 -0.015328 -0.022957 0.000000 0.027305 0.000000
# 2 -0.015328 0.017100 0.002050 0.000000 -0.008068 0.000000
# 3 -0.022957 0.002050 0.025008 0.000000 -0.014872 0.000000
# 4 0.000000 0.000000 0.000000 0.031551 0.000000 0.002848
# 5 0.027305 -0.008068 -0.014872 0.000000 0.051836 0.000000
# 6 0.000000 0.000000 0.000000 0.002848 0.000000 0.032455
#
#
# Mechanical properties :
#
#
# Convention : Reuss Voigt Hill
#
# Bulk Modulus (GPa) = 60.03422 61.61883 60.82652
# Shear Modulus (GPa) = 17.66823 25.93096 21.79959
#
# Velocity S-wave (km/s) = 3.04708 3.69145 3.38463
# Velocity P-wave (km/s) = 6.62780 7.10985 6.87305
#
# Compressibility (1/GPa) = 0.01665717
#
# Stress axis : x y z
#
# Youngs Moduli (GPa) = 21.26735 58.47984 39.98774
#
# Poissons Ratio (x) = 0.89639 0.91800
# Poissons Ratio (y) = 0.32599 -0.08197
# Poissons Ratio (z) = 0.48824 -0.11987
#
# Static dielectric constant tensor:
#      x y z
#    x 3.459880 0.000000 -0.003640 
#    y 0.000000 3.678210 0.000000 
#    z -0.003640 0.000000 3.431560 
# 
# 
# High freq. dielectric constant tensor:
#      x y z
#    x 1.734950 0.000000 0.003700 
#    y 0.000000 1.755490 0.000000 
#    z 0.003700 0.000000 1.736200 
# 
# From -- ./inp_files/287915.got.cif
#   From: 2010.06.25/outbox.cif.g09.slc.cpg/sg12_144_cif.got.tgz:287915.got - 2010.06.28 00:19:55.
