data_PCOD8099996
_publ_section_title
;
Structure prediction by ZEFSAII (Michael W. Deem and Ramdas Pophale) SiO2 
 PCOD8099996
Probable space group: C 2/M
;
_chemical_formula_sum "Si O2"
_cell_formula_units_Z 48
_cell_length_a 30.137934
_cell_length_b 9.063165
_cell_length_c 9.285420
_cell_angle_alpha 90.000000
_cell_angle_beta 89.532220
_cell_angle_gamma 90.000000
_cell_volume 2536.182155
_symmetry_space_group_name_H-M "C 2/M"
_symmetry_group_IT_number 12
_symmetry_cell_setting 'monoclinic'
loop_
_space_group_symop_operation_xyz
x,y,z
-x,y,-z
-x,-y,-z
x,-y,z
1/2+x,1/2+y,z
1/2-x,1/2+y,-z
1/2-x,1/2-y,-z
1/2+x,1/2-y,z
loop_
_atom_site_type_symbol
_atom_site_label
_atom_site_fract_x
_atom_site_fract_y
_atom_site_fract_z
Si Si1 0.003817 0.671479 0.668031
Si Si2 0.426750 0.672654 0.842435
Si Si3 0.753203 0.329240 0.650172
Si Si4 0.077951 0.168365 0.825059
Si Si5 0.321679 0.328425 0.131874
Si Si6 0.163518 0.328301 0.160285
O O1 0.997005 0.500000 0.702904
O O2 0.967470 0.765369 0.752267
O O3 0.000000 0.704535 0.500000
O O4 0.052211 0.722188 0.719683
O O5 0.421706 0.500000 0.813178
O O6 0.381762 0.749801 0.790782
O O7 0.435138 0.704697 0.010233
O O8 0.744315 0.500000 0.623669
O O9 0.750000 0.250000 0.500000
O O10 0.715118 0.267916 0.757336
O O11 0.801467 0.299668 0.714446
O O12 0.130058 0.196158 0.799176
O O13 0.065089 0.000000 0.788571
O O14 0.314514 0.500000 0.093272
O O15 0.316421 0.236956 0.986348
O O16 0.154039 0.500000 0.136673
#
# Coordination Sequence:
#
# PCOD8099996 Si02
#       6
#     8   8   8   8   8   8
#     4  11  24  38  53  79 114 146 178 221 272 324
#     4  10  21  38  60  83 107 140 183 226 269 323
#     4  10  22  37  54  80 114 149 185 225 269 321
#     4   9  19  36  58  82 106 137 182 228 268 320
#     4   9  19  37  58  81 109 142 183 227 269 321
#     4  10  20  35  57  85 112 140 180 228 274 320
#
# _framework density 18.926086000000002
#
# number of rings (size 3 to 8) (size 9 to 14) (size 15 to 20)
#    0.000    2.167    0.000    3.500    0.000   10.000 
#    0.000    3.333    0.000    0.000    0.000    0.000 
#    0.000    0.000    0.000    0.000    0.000    0.000 
#
# Total GULP energy -297701.828941 kJ/mol
# GULP energy per Si atom -12404.242873 kJ/mol
# Density = 1.888301 g / cm^3
# Si number density = 18.926086 Si / 1000 Ang^3
#
#
#
# Elastic Constant Matrix: (Units=GPa)
#
#
# Indices 1 2 3 4 5 6 
#
# 1 66.4309 39.0285 24.5904 0.0000 13.0118 0.0000
# 2 39.0285 86.9338 44.6102 0.0000 17.2672 0.0000
# 3 24.5904 44.6102 65.7648 0.0000 21.3578 0.0000
# 4 0.0000 0.0000 0.0000 35.2694 0.0000 1.2782
# 5 13.0118 17.2672 21.3578 0.0000 20.8230 0.0000
# 6 0.0000 0.0000 0.0000 1.2782 0.0000 34.1216
#
#
#
# Elastic Compliance Matrix: (Units=1/GPa)
#
#
# Indices 1 2 3 4 5 6 
#
# 1 0.021141 -0.008040 -0.000489 0.000000 -0.006042 0.000000
# 2 -0.008040 0.020878 -0.010744 0.000000 -0.001269 0.000000
# 3 -0.000489 -0.010744 0.029515 0.000000 -0.021059 0.000000
# 4 0.000000 0.000000 0.000000 0.028392 0.000000 -0.001064
# 5 -0.006042 -0.001269 -0.021059 0.000000 0.074451 0.000000
# 6 0.000000 0.000000 0.000000 -0.001064 0.000000 0.029347
#
#
# Mechanical properties :
#
#
# Convention : Reuss Voigt Hill
#
# Bulk Modulus (GPa) = 30.31319 48.39863 39.35591
# Shear Modulus (GPa) = 19.74210 25.43616 22.58913
#
# Velocity S-wave (km/s) = 3.23323 3.67000 3.45852
# Velocity P-wave (km/s) = 5.47629 6.60201 6.06532
#
# Compressibility (1/GPa) = 0.03298894
#
# Stress axis : x y z
#
# Youngs Moduli (GPa) = 47.30053 47.89779 33.88086
#
# Poissons Ratio (x) = 0.38512 0.01656
# Poissons Ratio (y) = 0.38031 0.36400
# Poissons Ratio (z) = 0.02312 0.51459
#
# Static dielectric constant tensor:
#      x y z
#    x 3.624340 0.000000 -0.021230 
#    y 0.000000 3.507760 0.000000 
#    z -0.021230 0.000000 3.345810 
# 
# 
# High freq. dielectric constant tensor:
#      x y z
#    x 1.750240 0.000000 0.000260 
#    y 0.000000 1.740000 0.000000 
#    z 0.000260 0.000000 1.726330 
# 
# From -- ./inp_files/108696.got.cif
#   From: 2010.06.25/outbox.cif.g09.slc.cpg/sg12_55_cif.got.tgz:108696.got - 2010.06.28 00:19:55.
