data_PCOD8099657
_publ_section_title
;
Structure prediction by ZEFSAII (Michael W. Deem and Ramdas Pophale) SiO2 
 PCOD8099657
Probable space group: C 2/M
;
_chemical_formula_sum "Si O2"
_cell_formula_units_Z 64
_cell_length_a 30.014575
_cell_length_b 8.882744
_cell_length_c 14.768272
_cell_angle_alpha 90.000000
_cell_angle_beta 52.212655
_cell_angle_gamma 90.000000
_cell_volume 3111.685634
_symmetry_space_group_name_H-M "C 2/M"
_symmetry_group_IT_number 12
_symmetry_cell_setting 'monoclinic'
loop_
_space_group_symop_operation_xyz
x,y,z
-x,y,-z
-x,-y,-z
x,-y,z
1/2+x,1/2+y,z
1/2-x,1/2+y,-z
1/2-x,1/2-y,-z
1/2+x,1/2-y,z
loop_
_atom_site_type_symbol
_atom_site_label
_atom_site_fract_x
_atom_site_fract_y
_atom_site_fract_z
Si Si1 0.114296 0.675893 0.126035
Si Si2 0.836356 0.665372 0.222857
Si Si3 0.385862 0.678794 0.505668
Si Si4 0.193421 0.671035 0.540563
Si Si5 0.484376 0.179140 0.278698
Si Si6 0.455334 0.174128 0.119489
Si Si7 0.665305 0.176774 0.255461
Si Si8 0.206940 0.174685 0.883509
O O1 0.116276 0.500000 0.105125
O O2 0.136230 0.718517 0.197661
O O3 0.049682 0.733206 0.199605
O O4 0.156612 0.745453 0.999708
O O5 0.814767 0.500000 0.219613
O O6 0.841981 0.674621 0.324034
O O7 0.901431 0.693925 0.121541
O O8 0.798519 0.786730 0.217238
O O9 0.388122 0.500000 0.499085
O O10 0.337478 0.736559 0.498431
O O11 0.447503 0.744965 0.404450
O O12 0.368482 0.731206 0.627167
O O13 0.203443 0.500000 0.493895
O O14 0.250000 0.750000 0.500000
O O15 0.456399 0.240289 0.220067
O O16 0.479601 0.000000 0.298287
O O17 0.471385 0.000000 0.113643
O O18 0.500000 0.258030 0.000000
O O19 0.730720 0.228198 0.165095
O O20 0.661725 0.000000 0.282989
O O21 0.199707 0.000000 0.908709
#
# Coordination Sequence:
#
# PCOD8099657 Si02
#       8
#     8   8   8   8   8   8   8   8
#     4  10  22  41  68  93 116 157 211 261 313 378
#     4  10  20  35  56  83 115 154 197 236 283 352
#     4  12  25  40  61  90 126 168 209 256 312 373
#     4  11  22  38  60  87 121 160 203 253 302 358
#     4  10  20  39  64  89 121 161 206 259 311 367
#     4   9  16  30  55  84 112 146 190 240 293 350
#     4  10  23  43  64  89 120 161 211 261 315 374
#     4  11  23  38  60  91 129 162 195 253 317 371
#
# _framework density 20.567630999999999
#
# number of rings (size 3 to 8) (size 9 to 14) (size 15 to 20)
#    0.000    1.625    1.250    3.750    0.000    7.500 
#    0.000    2.500    0.000    1.500    0.000    0.000 
#    0.000    0.000    0.000    0.000    0.000    0.000 
#
# Total GULP energy -396597.698019 kJ/mol
# GULP energy per Si atom -12393.678063 kJ/mol
# Density = 2.052082 g / cm^3
# Si number density = 20.567631 Si / 1000 Ang^3
#
#
#
# Elastic Constant Matrix: (Units=GPa)
#
#
# Indices 1 2 3 4 5 6 
#
# 1 110.7076 33.4460 34.7590 0.0000 -1.4264 0.0000
# 2 33.4460 69.5908 38.0808 0.0000 -2.8676 0.0000
# 3 34.7590 38.0808 89.9030 0.0000 -12.1064 0.0000
# 4 0.0000 0.0000 0.0000 29.4935 0.0000 -1.3276
# 5 -1.4264 -2.8676 -12.1064 0.0000 32.5348 0.0000
# 6 0.0000 0.0000 0.0000 -1.3276 0.0000 27.0865
#
#
#
# Elastic Compliance Matrix: (Units=1/GPa)
#
#
# Indices 1 2 3 4 5 6 
#
# 1 0.011048 -0.003832 -0.002767 0.000000 -0.000883 0.000000
# 2 -0.003832 0.020092 -0.007173 0.000000 -0.001066 0.000000
# 3 -0.002767 -0.007173 0.015928 0.000000 0.005173 0.000000
# 4 0.000000 0.000000 0.000000 0.033981 0.000000 0.001666
# 5 -0.000883 -0.001066 0.005173 0.000000 0.032529 0.000000
# 6 0.000000 0.000000 0.000000 0.001666 0.000000 0.037000
#
#
# Mechanical properties :
#
#
# Convention : Reuss Voigt Hill
#
# Bulk Modulus (GPa) = 51.21778 53.64145 52.42961
# Shear Modulus (GPa) = 27.08122 28.75066 27.91594
#
# Velocity S-wave (km/s) = 3.63256 3.74285 3.68812
# Velocity P-wave (km/s) = 6.52305 6.69445 6.60931
#
# Compressibility (1/GPa) = 0.01952447
#
# Stress axis : x y z
#
# Youngs Moduli (GPa) = 90.51479 49.77005 62.78314
#
# Poissons Ratio (x) = 0.19071 0.17374
# Poissons Ratio (y) = 0.34684 0.45033
# Poissons Ratio (z) = 0.25048 0.35699
#
# Static dielectric constant tensor:
#      x y z
#    x 3.839050 0.000000 -0.090510 
#    y 0.000000 3.448680 0.000000 
#    z -0.090510 0.000000 3.512120 
# 
# 
# High freq. dielectric constant tensor:
#      x y z
#    x 1.814040 0.000000 -0.005550 
#    y 0.000000 1.776280 0.000000 
#    z -0.005550 0.000000 1.820460 
# 
# From -- ./inp_files/249897.got.cif
#   From: 2010.06.25/outbox.cif.g09.slc.cpg/sg12_125_cif.got.tgz:249897.got - 2010.06.28 00:19:55.
