data_PCOD8099027
_publ_section_title
;
Structure prediction by ZEFSAII (Michael W. Deem and Ramdas Pophale) SiO2 
 PCOD8099027
Probable space group: C 2/M
;
_chemical_formula_sum "Si O2"
_cell_formula_units_Z 56
_cell_length_a 14.987712
_cell_length_b 15.951791
_cell_length_c 22.670929
_cell_angle_alpha 90.000000
_cell_angle_beta 143.192367
_cell_angle_gamma 90.000000
_cell_volume 3247.396866
_symmetry_space_group_name_H-M "C 2/M"
_symmetry_group_IT_number 12
_symmetry_cell_setting 'monoclinic'
loop_
_space_group_symop_operation_xyz
x,y,z
-x,y,-z
-x,-y,-z
x,-y,z
1/2+x,1/2+y,z
1/2-x,1/2+y,-z
1/2-x,1/2-y,-z
1/2+x,1/2-y,z
loop_
_atom_site_type_symbol
_atom_site_label
_atom_site_fract_x
_atom_site_fract_y
_atom_site_fract_z
Si Si1 0.245146 0.159861 0.264244
Si Si2 0.655984 0.500000 0.149454
Si Si3 0.331804 0.403438 0.176756
Si Si4 0.211703 0.346027 0.994390
Si Si5 0.691773 0.500000 0.031980
Si Si6 0.537426 0.906807 0.451451
Si Si7 0.660839 0.597811 0.343606
Si Si8 0.581522 0.199740 0.102781
O O1 0.224496 0.079526 0.214811
O O2 0.427430 0.163601 0.364732
O O3 0.176197 0.153456 0.292879
O O4 0.160744 0.232095 0.184942
O O5 0.711683 0.500000 0.112037
O O6 0.482179 0.500000 0.071976
O O7 0.292585 0.500000 0.155806
O O8 0.322064 0.370367 0.105185
O O9 0.499955 0.384871 0.287830
O O10 0.213272 0.362617 0.156949
O O11 0.250000 0.250000 0.000000
O O12 0.235565 0.413801 0.954939
O O13 0.039677 0.350972 0.923380
O O14 0.500000 0.914982 0.500000
O O15 0.711728 0.878526 0.540665
O O16 0.517081 0.000000 0.411871
O O17 0.675994 0.500000 0.333232
O O18 0.500000 0.236427 0.000000
#
# Coordination Sequence:
#
# PCOD8099027 Si02
#       8
#     8   4   8   8   4   8   8   8
#     4  11  18  33  49  76 108 139 160 204 266 306
#     4  11  22  30  49  74 107 131 164 203 255 322
#     4  10  20  35  55  75  98 134 179 218 253 297
#     4  11  22  37  52  73 103 139 177 214 255 303
#     4  11  24  34  51  72 101 143 178 205 251 308
#     4   8  14  27  49  78 103 131 164 204 255 318
#     4   9  16  30  55  80 102 129 168 210 259 314
#     4  10  24  34  51  72 104 135 177 218 246 290
#
# _framework density 17.244582000000001
#
# number of rings (size 3 to 8) (size 9 to 14) (size 15 to 20)
#    0.000    2.000    2.143    3.429    7.000    0.857 
#    0.000    0.714    0.000    0.000    0.000    0.000 
#    0.000    6.286    0.000    0.000    0.000    0.000 
#
# Total GULP energy -346882.524511 kJ/mol
# GULP energy per Si atom -12388.661590 kJ/mol
# Density = 1.720533 g / cm^3
# Si number density = 17.244582 Si / 1000 Ang^3
#
#
#
# Elastic Constant Matrix: (Units=GPa)
#
#
# Indices 1 2 3 4 5 6 
#
# 1 90.1270 37.0878 47.0828 0.0000 20.4601 0.0001
# 2 37.0878 84.6221 46.6382 0.0000 9.1010 0.0001
# 3 47.0828 46.6382 131.9678 0.0004 33.2968 -0.0006
# 4 0.0000 0.0000 0.0004 139.6455 0.0001 -227.5689
# 5 20.4601 9.1010 33.2968 0.0001 30.0303 -0.0002
# 6 0.0001 0.0001 -0.0006 -227.5689 -0.0002 476.9586
#
#
#
# Elastic Compliance Matrix: (Units=1/GPa)
#
#
# Indices 1 2 3 4 5 6 
#
# 1 0.015847 -0.005026 -0.002135 0.000000 -0.006906 0.000000
# 2 -0.005026 0.016341 -0.004993 0.000000 0.004008 0.000000
# 3 -0.002135 -0.004993 0.012989 0.000000 -0.011434 0.000000
# 4 0.000000 0.000000 0.000000 0.032189 0.000000 0.015358
# 5 -0.006906 0.004008 -0.011434 0.000000 0.049468 0.000000
# 6 0.000000 0.000000 0.000000 0.015358 0.000000 0.009424
#
#
# Mechanical properties :
#
#
# Convention : Reuss Voigt Hill
#
# Bulk Modulus (GPa) = 47.91955 63.14827 55.53391
# Shear Modulus (GPa) = 29.84694 141.05410 85.45052
#
# Velocity S-wave (km/s) = 4.16480 9.05394 7.04696
# Velocity P-wave (km/s) = 7.13974 12.08292 9.92404
#
# Compressibility (1/GPa) = 0.02086831
#
# Stress axis : x y z
#
# Youngs Moduli (GPa) = 63.10437 61.19668 76.98928
#
# Poissons Ratio (x) = 0.30756 0.16438
# Poissons Ratio (y) = 0.31715 0.38442
# Poissons Ratio (z) = 0.13473 0.30556
#
# Static dielectric constant tensor:
#      x y z
#    x 3.171970 0.000000 0.307520 
#    y 0.000000 2.899480 0.000000 
#    z 0.307520 0.000000 3.731310 
# 
# 
# High freq. dielectric constant tensor:
#      x y z
#    x 1.650720 0.000000 0.023070 
#    y 0.000000 1.646720 0.000000 
#    z 0.023070 0.000000 1.673780 
# 
# From -- ./inp_files/339959.got.cif
#   From: 2010.06.25/outbox.cif.g09.slc.cpg/sg12_170_cif.got.tgz:339959.got - 2010.06.28 00:19:55.
