data_PCOD8099408
_publ_section_title
;
Structure prediction by ZEFSAII (Michael W. Deem and Ramdas Pophale) SiO2 
 PCOD8099408
Probable space group: C 2/M
;
_chemical_formula_sum "Si O2"
_cell_formula_units_Z 48
_cell_length_a 31.614439
_cell_length_b 9.071641
_cell_length_c 20.388193
_cell_angle_alpha 90.000000
_cell_angle_beta 154.573322
_cell_angle_gamma 90.000000
_cell_volume 2510.540898
_symmetry_space_group_name_H-M "C 2/M"
_symmetry_group_IT_number 12
_symmetry_cell_setting 'monoclinic'
loop_
_space_group_symop_operation_xyz
x,y,z
-x,y,-z
-x,-y,-z
x,-y,z
1/2+x,1/2+y,z
1/2-x,1/2+y,-z
1/2-x,1/2-y,-z
1/2+x,1/2-y,z
loop_
_atom_site_type_symbol
_atom_site_label
_atom_site_fract_x
_atom_site_fract_y
_atom_site_fract_z
Si Si1 0.350418 0.828089 0.622826
Si Si2 0.236236 0.674627 0.218010
Si Si3 0.979250 0.675289 0.043529
Si Si4 0.617539 0.830095 0.483057
Si Si5 0.894855 0.330369 0.189755
Si Si6 0.250390 0.171627 0.103726
O O1 0.250000 0.750000 0.500000
O O2 0.436839 0.764535 0.790167
O O3 0.380992 0.794360 0.591608
O O4 0.335758 0.000000 0.615147
O O5 0.240474 0.500000 0.217202
O O6 0.305524 0.723917 0.374310
O O7 0.274670 0.746558 0.205034
O O8 0.126291 0.732123 0.079216
O O9 0.979488 0.500000 0.042696
O O10 0.000000 0.738618 0.000000
O O11 0.509258 0.792928 0.358749
O O12 0.645224 0.000000 0.535723
O O13 0.879699 0.500000 0.147509
O O14 0.842284 0.295443 0.184831
O O15 0.849826 0.232171 0.068670
O O16 0.237077 0.000000 0.099108
#
# Coordination Sequence:
#
# PCOD8099408 Si02
#       6
#     8   8   8   8   8   8
#     4  10  20  35  56  80 107 139 175 219 270 322
#     4  11  22  36  56  80 108 143 183 225 270 322
#     4   9  18  34  56  79 104 138 179 219 262 317
#     4  10  21  37  55  77 109 146 184 225 268 316
#     4   9  19  37  59  80 106 144 184 220 265 322
#     4  10  20  35  57  83 110 140 178 225 272 320
#
# _framework density 19.119385999999999
#
# number of rings (size 3 to 8) (size 9 to 14) (size 15 to 20)
#    0.000    2.167    0.000    3.000    0.000    6.667 
#    0.000    6.667    0.000    4.500    0.000    0.000 
#    0.000    0.000    0.000    0.000    0.000    0.000 
#
# Total GULP energy -297705.825423 kJ/mol
# GULP energy per Si atom -12404.409393 kJ/mol
# Density = 1.907587 g / cm^3
# Si number density = 19.119386 Si / 1000 Ang^3
#
#
#
# Elastic Constant Matrix: (Units=GPa)
#
#
# Indices 1 2 3 4 5 6 
#
# 1 112.2675 43.8138 70.6035 0.0000 -2.8074 0.0000
# 2 43.8138 63.9879 48.9939 0.0000 -4.4283 0.0000
# 3 70.6035 48.9939 155.1946 0.0000 -0.4907 0.0000
# 4 0.0000 0.0000 0.0000 35.3987 0.0000 -2.7631
# 5 -2.8074 -4.4283 -0.4907 0.0000 37.8724 0.0000
# 6 0.0000 0.0000 0.0000 -2.7631 0.0000 25.8067
#
#
#
# Elastic Compliance Matrix: (Units=1/GPa)
#
#
# Indices 1 2 3 4 5 6 
#
# 1 0.014167 -0.006262 -0.004467 0.000000 0.000260 0.000000
# 2 -0.006262 0.023584 -0.004590 0.000000 0.002234 0.000000
# 3 -0.004467 -0.004590 0.009922 0.000000 -0.000739 0.000000
# 4 0.000000 0.000000 0.000000 0.028488 0.000000 0.003050
# 5 0.000260 0.002234 -0.000739 0.000000 0.026675 0.000000
# 6 0.000000 0.000000 0.000000 0.003050 0.000000 0.039076
#
#
# Mechanical properties :
#
#
# Convention : Reuss Voigt Hill
#
# Bulk Modulus (GPa) = 58.69907 73.14138 65.92023
# Shear Modulus (GPa) = 28.05367 31.01815 29.53591
#
# Velocity S-wave (km/s) = 3.83468 4.03220 3.93468
# Velocity P-wave (km/s) = 7.09749 7.74702 7.42935
#
# Compressibility (1/GPa) = 0.01703604
#
# Stress axis : x y z
#
# Youngs Moduli (GPa) = 70.58607 42.40105 100.78122
#
# Poissons Ratio (x) = 0.26551 0.45024
# Poissons Ratio (y) = 0.44200 0.46254
# Poissons Ratio (z) = 0.31534 0.19460
#
# Static dielectric constant tensor:
#      x y z
#    x 3.707400 0.000000 0.035980 
#    y 0.000000 3.351060 0.000000 
#    z 0.035980 0.000000 3.548020 
# 
# 
# High freq. dielectric constant tensor:
#      x y z
#    x 1.757880 0.000000 -0.000060 
#    y 0.000000 1.725260 0.000000 
#    z -0.000060 0.000000 1.749200 
# 
# From -- ./inp_files/295912.got.cif
#   From: 2010.06.25/outbox.cif.g09.slc.cpg/sg12_148_cif.got.tgz:295912.got - 2010.06.28 00:19:55.
