data_PCOD8099351
_publ_section_title
;
Structure prediction by ZEFSAII (Michael W. Deem and Ramdas Pophale) SiO2 
 PCOD8099351
Probable space group: C 2/M
;
_chemical_formula_sum "Si O2"
_cell_formula_units_Z 56
_cell_length_a 17.876399
_cell_length_b 9.017718
_cell_length_c 18.665698
_cell_angle_alpha 90.000000
_cell_angle_beta 104.089043
_cell_angle_gamma 90.000000
_cell_volume 2918.476534
_symmetry_space_group_name_H-M "C 2/M"
_symmetry_group_IT_number 12
_symmetry_cell_setting 'monoclinic'
loop_
_space_group_symop_operation_xyz
x,y,z
-x,y,-z
-x,-y,-z
x,-y,z
1/2+x,1/2+y,z
1/2-x,1/2+y,-z
1/2-x,1/2-y,-z
1/2+x,1/2-y,z
loop_
_atom_site_type_symbol
_atom_site_label
_atom_site_fract_x
_atom_site_fract_y
_atom_site_fract_z
Si Si1 0.344787 0.323951 0.213182
Si Si2 0.412822 0.826483 0.496798
Si Si3 0.014705 0.174216 0.216662
Si Si4 0.871342 0.325281 0.646866
Si Si5 0.775748 0.675997 0.932941
Si Si6 0.931824 0.828581 0.929195
Si Si7 0.800695 0.175813 0.359484
O O1 0.344068 0.500000 0.213513
O O2 0.428661 0.263932 0.210033
O O3 0.281706 0.265742 0.142205
O O4 0.323609 0.262130 0.286721
O O5 0.500000 0.781825 0.500000
O O6 0.394005 0.774821 0.572636
O O7 0.358096 0.739805 0.430915
O O8 0.398128 0.000000 0.482911
O O9 0.071888 0.250369 0.284552
O O10 0.038677 0.215916 0.142158
O O11 0.017751 0.000000 0.230847
O O12 0.878861 0.500000 0.658373
O O13 0.785206 0.269462 0.642753
O O14 0.771988 0.500000 0.940478
O O15 0.861420 0.723725 0.932716
O O16 0.750000 0.750000 0.000000
O O17 0.905824 0.000000 0.927080
O O18 0.000000 0.796079 0.000000
O O19 0.806415 0.000000 0.363672
#
# Coordination Sequence:
#
# PCOD8099351 Si02
#       7
#     8   8   8   8   8   8   8
#     4   9  19  36  56  79 108 142 178 222 277 327
#     4  10  21  36  53  76 108 143 177 219 274 327
#     4  10  20  35  57  81 105 140 184 223 266 326
#     4  10  21  36  53  77 110 143 176 222 278 325
#     4  11  22  38  60  84 114 149 186 229 276 329
#     4  10  21  38  58  81 113 149 184 228 281 332
#     4  10  20  35  56  79 104 138 180 222 266 322
#
# _framework density 19.188092999999999
#
# number of rings (size 3 to 8) (size 9 to 14) (size 15 to 20)
#    0.000    2.000    0.000    3.429    0.000    5.714 
#    0.000    4.286    0.000    0.000    0.000    0.000 
#    0.000    0.000    0.000    0.000    0.000    0.000 
#
# Total GULP energy -347315.975884 kJ/mol
# GULP energy per Si atom -12404.141996 kJ/mol
# Density = 1.914442 g / cm^3
# Si number density = 19.188093 Si / 1000 Ang^3
#
#
#
# Elastic Constant Matrix: (Units=GPa)
#
#
# Indices 1 2 3 4 5 6 
#
# 1 176.6468 43.9136 98.5038 0.0000 -6.4735 0.0000
# 2 43.9136 38.9703 47.2685 0.0000 1.0868 0.0000
# 3 98.5038 47.2685 193.7695 0.0000 -3.8792 0.0000
# 4 0.0000 0.0000 0.0000 41.3273 0.0000 26.2746
# 5 -6.4735 1.0868 -3.8792 0.0000 39.6127 0.0000
# 6 0.0000 0.0000 0.0000 26.2746 0.0000 65.2831
#
#
#
# Elastic Compliance Matrix: (Units=1/GPa)
#
#
# Indices 1 2 3 4 5 6 
#
# 1 0.008988 -0.006615 -0.002928 0.000000 0.001364 0.000000
# 2 -0.006615 0.041451 -0.006807 0.000000 -0.002885 0.000000
# 3 -0.002928 -0.006807 0.008320 0.000000 0.000523 0.000000
# 4 0.000000 0.000000 0.000000 0.032518 0.000000 -0.013087
# 5 0.001364 -0.002885 0.000523 0.000000 0.025598 0.000000
# 6 0.000000 0.000000 0.000000 -0.013087 0.000000 0.020585
#
#
# Mechanical properties :
#
#
# Convention : Reuss Voigt Hill
#
# Bulk Modulus (GPa) = 38.37295 87.63981 63.00638
# Shear Modulus (GPa) = 27.95698 43.89132 35.92415
#
# Velocity S-wave (km/s) = 3.82120 4.78789 4.33160
# Velocity P-wave (km/s) = 6.28574 8.73719 7.61081
#
# Compressibility (1/GPa) = 0.02606002
#
# Stress axis : x y z
#
# Youngs Moduli (GPa) = 111.25594 24.12499 120.18700
#
# Poissons Ratio (x) = 0.15958 0.35195
# Poissons Ratio (y) = 0.73590 0.81809
# Poissons Ratio (z) = 0.32580 0.16421
#
# Static dielectric constant tensor:
#      x y z
#    x 3.898110 0.000000 -0.138480 
#    y 0.000000 3.270470 0.000000 
#    z -0.138480 0.000000 3.673840 
# 
# 
# High freq. dielectric constant tensor:
#      x y z
#    x 1.767140 0.000000 -0.003000 
#    y 0.000000 1.723350 0.000000 
#    z -0.003000 0.000000 1.766760 
# 
# From -- ./inp_files/268863.got.cif
#   From: 2010.06.25/outbox.cif.g09.slc.cpg/sg12_135_cif.got.tgz:268863.got - 2010.06.28 00:19:55.
