data_PCOD8099346
_publ_section_title
;
Structure prediction by ZEFSAII (Michael W. Deem and Ramdas Pophale) SiO2 
 PCOD8099346
Probable space group: C 2/M
;
_chemical_formula_sum "Si O2"
_cell_formula_units_Z 48
_cell_length_a 8.998444
_cell_length_b 11.960140
_cell_length_c 23.754240
_cell_angle_alpha 90.000000
_cell_angle_beta 73.296639
_cell_angle_gamma 90.000000
_cell_volume 2448.624610
_symmetry_space_group_name_H-M "C 2/M"
_symmetry_group_IT_number 12
_symmetry_cell_setting 'monoclinic'
loop_
_space_group_symop_operation_xyz
x,y,z
-x,y,-z
-x,-y,-z
x,-y,z
1/2+x,1/2+y,z
1/2-x,1/2+y,-z
1/2-x,1/2-y,-z
1/2+x,1/2-y,z
loop_
_atom_site_type_symbol
_atom_site_label
_atom_site_fract_x
_atom_site_fract_y
_atom_site_fract_z
Si Si1 0.238893 0.621470 0.951412
Si Si2 0.558718 0.819933 0.077349
Si Si3 0.519592 0.875393 0.206042
Si Si4 0.848575 0.867604 0.478494
Si Si5 0.271785 0.236007 0.727530
Si Si6 0.934122 0.873494 0.340228
O O1 0.284797 0.500000 0.924919
O O2 0.396850 0.690219 0.932587
O O3 0.120544 0.674105 0.919580
O O4 0.165118 0.612469 0.021677
O O5 0.588591 0.867647 0.135853
O O6 0.656296 0.847072 0.234528
O O7 0.370246 0.797719 0.227182
O O8 0.463895 0.000000 0.225157
O O9 0.750000 0.750000 0.500000
O O10 0.896337 0.856979 0.409148
O O11 0.000000 0.857717 0.500000
O O12 0.779274 0.000000 0.495280
O O13 0.210128 0.172517 0.679520
O O14 0.403105 0.318158 0.691566
O O15 0.956346 0.000000 0.320466
#
# Coordination Sequence:
#
# PCOD8099346 Si02
#       6
#     8   8   8   8   8   8
#     4  10  20  37  55  76 106 137 170 214 270 323
#     4  10  20  35  56  79 104 136 175 216 265 326
#     4  11  21  36  55  78 107 138 177 225 269 312
#     4  10  21  37  59  88 118 149 187 230 276 327
#     4  10  22  36  55  81 106 142 187 219 263 324
#     4  10  20  38  58  79 113 148 180 224 270 316
#
# _framework density 19.602841000000002
#
# number of rings (size 3 to 8) (size 9 to 14) (size 15 to 20)
#    0.000    1.833    0.000    5.000    0.000    0.333 
#    0.000   18.333    0.000    0.000    0.000    0.000 
#    0.000    0.000    0.000    0.000    0.000    0.000 
#
# Total GULP energy -297342.146021 kJ/mol
# GULP energy per Si atom -12389.256084 kJ/mol
# Density = 1.955822 g / cm^3
# Si number density = 19.602841 Si / 1000 Ang^3
#
#
#
# Elastic Constant Matrix: (Units=GPa)
#
#
# Indices 1 2 3 4 5 6 
#
# 1 83.6616 54.9314 44.1142 0.0000 23.0883 0.0000
# 2 54.9314 149.6985 35.4117 0.0000 5.6636 0.0000
# 3 44.1142 35.4117 107.1904 0.0000 32.7895 0.0000
# 4 0.0000 0.0000 0.0000 46.4379 0.0000 28.2319
# 5 23.0883 5.6636 32.7895 0.0000 29.2458 0.0000
# 6 0.0000 0.0000 0.0000 28.2319 0.0000 -7.8028
#
#
#
# Elastic Compliance Matrix: (Units=1/GPa)
#
#
# Indices 1 2 3 4 5 6 
#
# 1 0.021177 -0.006656 -0.002734 0.000000 -0.012364 0.000000
# 2 -0.006656 0.009412 -0.002161 0.000000 0.005855 0.000000
# 3 -0.002734 -0.002161 0.015798 0.000000 -0.015135 0.000000
# 4 0.000000 0.000000 0.000000 0.006730 0.000000 0.024351
# 5 -0.012364 0.005855 -0.015135 0.000000 0.059789 0.000000
# 6 0.000000 0.000000 0.000000 0.024351 0.000000 -0.040054
#
#
# Mechanical properties :
#
#
# Convention : Reuss Voigt Hill
#
# Bulk Modulus (GPa) = 42.94755 67.71833 55.33294
# Shear Modulus (GPa) = 48.20728 27.31572 37.76150
#
# Velocity S-wave (km/s) = 4.96441 3.73695 4.39376
# Velocity P-wave (km/s) = 7.40384 7.29657 7.35040
#
# Compressibility (1/GPa) = 0.02328422
#
# Stress axis : x y z
#
# Youngs Moduli (GPa) = 47.22034 106.24369 63.29730
#
# Poissons Ratio (x) = 0.70719 0.17308
# Poissons Ratio (y) = 0.31431 0.13680
# Poissons Ratio (z) = 0.12912 0.22961
#
# Static dielectric constant tensor:
#      x y z
#    x 3.545000 0.000000 0.171930 
#    y 0.000000 4.334780 0.000000 
#    z 0.171930 0.000000 3.545590 
# 
# 
# High freq. dielectric constant tensor:
#      x y z
#    x 1.762910 0.000000 0.020330 
#    y 0.000000 1.779990 0.000000 
#    z 0.020330 0.000000 1.764310 
# 
# From -- ./inp_files/332213.got.cif
#   From: 2010.06.25/outbox.cif.g09.slc.cpg/sg12_167_cif.got.tgz:332213.got - 2010.06.28 00:19:55.
