data_PCOD8099274
_publ_section_title
;
Structure prediction by ZEFSAII (Michael W. Deem and Ramdas Pophale) SiO2 
 PCOD8099274
Probable space group: C 2/M
;
_chemical_formula_sum "Si O2"
_cell_formula_units_Z 56
_cell_length_a 26.608048
_cell_length_b 8.646163
_cell_length_c 13.343939
_cell_angle_alpha 90.000000
_cell_angle_beta 65.074443
_cell_angle_gamma 90.000000
_cell_volume 2783.933583
_symmetry_space_group_name_H-M "C 2/M"
_symmetry_group_IT_number 12
_symmetry_cell_setting 'monoclinic'
loop_
_space_group_symop_operation_xyz
x,y,z
-x,y,-z
-x,-y,-z
x,-y,z
1/2+x,1/2+y,z
1/2-x,1/2+y,-z
1/2-x,1/2-y,-z
1/2+x,1/2-y,z
loop_
_atom_site_type_symbol
_atom_site_label
_atom_site_fract_x
_atom_site_fract_y
_atom_site_fract_z
Si Si1 0.914555 0.680874 0.402562
Si Si2 0.902710 0.820382 0.623216
Si Si3 0.810418 0.319751 0.821998
Si Si4 0.022210 0.178982 0.253144
Si Si5 0.698733 0.817433 0.603119
Si Si6 0.701617 0.818445 0.829104
Si Si7 0.628112 0.319111 0.044843
O O1 0.911851 0.500000 0.427270
O O2 0.924386 0.774356 0.496271
O O3 0.858471 0.740674 0.397625
O O4 0.966722 0.719528 0.287028
O O5 0.847801 0.721741 0.694051
O O6 0.950612 0.782803 0.662335
O O7 0.886423 0.000000 0.640563
O O8 0.814772 0.500000 0.843713
O O9 0.747723 0.275919 0.850537
O O10 0.830263 0.221907 0.900224
O O11 0.065356 0.224683 0.129220
O O12 0.006036 0.000000 0.259423
O O13 0.750000 0.750000 0.500000
O O14 0.699929 0.759416 0.716470
O O15 0.702538 0.000000 0.595734
O O16 0.713569 0.000000 0.825053
O O17 0.643501 0.776924 0.932102
O O18 0.633252 0.500000 0.018462
#
# Coordination Sequence:
#
# PCOD8099274 Si02
#       7
#     8   8   8   8   8   8   8
#     4  11  22  36  56  83 112 144 187 232 277 329
#     4  10  20  35  55  82 116 150 185 226 275 331
#     4  11  21  34  55  85 117 147 183 227 278 332
#     4   9  20  37  56  80 112 147 182 223 275 332
#     4  10  24  42  59  82 111 144 183 228 274 325
#     4  11  22  38  58  80 110 149 189 228 277 329
#     4  10  21  38  58  83 114 146 184 228 274 328
#
# _framework density 20.115423
#
# number of rings (size 3 to 8) (size 9 to 14) (size 15 to 20)
#    0.000    1.714    0.000    5.571    0.000    9.714 
#    0.000    0.714    0.000    4.286    0.000    0.000 
#    0.000    0.000    0.000    0.000    0.000    0.000 
#
# Total GULP energy -347322.719261 kJ/mol
# GULP energy per Si atom -12404.382831 kJ/mol
# Density = 2.006964 g / cm^3
# Si number density = 20.115423 Si / 1000 Ang^3
#
#
#
# Elastic Constant Matrix: (Units=GPa)
#
#
# Indices 1 2 3 4 5 6 
#
# 1 106.8415 28.7124 51.7573 0.0000 -22.7174 0.0000
# 2 28.7124 50.7856 19.9391 0.0000 -4.8364 0.0000
# 3 51.7573 19.9391 132.3152 0.0000 -16.2470 0.0000
# 4 0.0000 0.0000 0.0000 34.0917 0.0000 -8.9533
# 5 -22.7174 -4.8364 -16.2470 0.0000 24.4611 0.0000
# 6 0.0000 0.0000 0.0000 -8.9533 0.0000 28.8391
#
#
#
# Elastic Compliance Matrix: (Units=1/GPa)
#
#
# Indices 1 2 3 4 5 6 
#
# 1 0.014938 -0.006026 -0.003678 0.000000 0.010239 0.000000
# 2 -0.006026 0.023472 -0.001412 0.000000 -0.001894 0.000000
# 3 -0.003678 -0.001412 0.009533 0.000000 0.002637 0.000000
# 4 0.000000 0.000000 0.000000 0.031937 0.000000 0.009915
# 5 0.010239 -0.001894 0.002637 0.000000 0.051767 0.000000
# 6 0.000000 0.000000 0.000000 0.009915 0.000000 0.037753
#
#
# Mechanical properties :
#
#
# Convention : Reuss Voigt Hill
#
# Bulk Modulus (GPa) = 38.89594 54.52889 46.71241
# Shear Modulus (GPa) = 24.97474 30.11395 27.54434
#
# Velocity S-wave (km/s) = 3.52742 3.87338 3.70444
# Velocity P-wave (km/s) = 5.99738 6.86811 6.44746
#
# Compressibility (1/GPa) = 0.02570963
#
# Stress axis : x y z
#
# Youngs Moduli (GPa) = 66.94397 42.60428 104.89907
#
# Poissons Ratio (x) = 0.25675 0.38580
# Poissons Ratio (y) = 0.40343 0.14815
# Poissons Ratio (z) = 0.24621 0.06017
#
# Static dielectric constant tensor:
#      x y z
#    x 3.545390 0.000000 -0.072490 
#    y 0.000000 3.545980 0.000000 
#    z -0.072490 0.000000 3.615010 
# 
# 
# High freq. dielectric constant tensor:
#      x y z
#    x 1.773290 0.000000 -0.020410 
#    y 0.000000 1.785850 0.000000 
#    z -0.020410 0.000000 1.790310 
# 
# From -- ./inp_files/180638.got.cif
#   From: 2010.06.25/outbox.cif.g09.slc.cpg/sg12_91_cif.got.tgz:180638.got - 2010.06.28 00:19:55.
