data_PCOD8099968
_publ_section_title
;
Structure prediction by ZEFSAII (Michael W. Deem and Ramdas Pophale) SiO2 
 PCOD8099968
Probable space group: C 2/M
;
_chemical_formula_sum "Si O2"
_cell_formula_units_Z 64
_cell_length_a 19.145604
_cell_length_b 13.048043
_cell_length_c 31.748856
_cell_angle_alpha 90.000000
_cell_angle_beta 154.771669
_cell_angle_gamma 90.000000
_cell_volume 3380.517056
_symmetry_space_group_name_H-M "C 2/M"
_symmetry_group_IT_number 12
_symmetry_cell_setting 'monoclinic'
loop_
_space_group_symop_operation_xyz
x,y,z
-x,y,-z
-x,-y,-z
x,-y,z
1/2+x,1/2+y,z
1/2-x,1/2+y,-z
1/2-x,1/2-y,-z
1/2+x,1/2-y,z
loop_
_atom_site_type_symbol
_atom_site_label
_atom_site_fract_x
_atom_site_fract_y
_atom_site_fract_z
Si Si1 0.413499 0.197041 0.048938
Si Si2 0.651930 0.385015 0.844025
Si Si3 0.540972 0.187821 0.265728
Si Si4 0.270547 0.115801 0.818204
Si Si5 0.704002 0.115630 0.931982
Si Si6 0.009259 0.805543 0.389651
Si Si7 0.144260 0.883060 0.611862
Si Si8 0.869409 0.617935 0.592518
O O1 0.590075 0.188972 0.124147
O O2 0.423554 0.154231 0.101890
O O3 0.268979 0.134057 0.947472
O O4 0.369197 0.317256 0.024081
O O5 0.580281 0.500000 0.806931
O O6 0.496780 0.309116 0.757576
O O7 0.767406 0.369960 0.866459
O O8 0.386474 0.126559 0.162249
O O9 0.700176 0.166430 0.325245
O O10 0.562212 0.151932 0.325026
O O11 0.092229 0.144973 0.703676
O O12 0.315150 0.000000 0.829808
O O13 0.759295 0.000000 0.969565
O O14 0.050909 0.687454 0.400882
O O15 0.173748 0.870856 0.485495
O O16 0.902623 0.812357 0.373978
O O17 0.000000 0.883093 0.500000
O O18 0.181974 0.000000 0.647064
O O19 0.915760 0.500000 0.609061
#
# Coordination Sequence:
#
# PCOD8099968 Si02
#       8
#     8   8   8   8   8   8   8   8
#     4  10  21  35  56  83 116 150 193 245 292 347
#     4  10  21  37  58  84 116 155 193 239 295 347
#     4  11  21  38  61  90 120 152 199 242 290 354
#     4  11  20  34  57  84 113 148 192 242 288 337
#     4  10  20  35  57  84 114 153 194 237 292 352
#     4  11  23  38  58  90 118 151 196 245 285 351
#     4  11  21  35  59  87 117 151 189 241 293 334
#     4  11  22  40  62  85 120 161 194 239 294 346
#
# _framework density 18.932015
#
# number of rings (size 3 to 8) (size 9 to 14) (size 15 to 20)
#    0.000    1.375    2.500    4.500    0.000    1.000 
#    0.000    1.250    0.000    2.250    0.000    0.000 
#    0.000    0.000    0.000    0.000    0.000    0.000 
#
# Total GULP energy -396899.013358 kJ/mol
# GULP energy per Si atom -12403.094167 kJ/mol
# Density = 1.888893 g / cm^3
# Si number density = 18.932015 Si / 1000 Ang^3
#
#
#
# Elastic Constant Matrix: (Units=GPa)
#
#
# Indices 1 2 3 4 5 6 
#
# 1 80.6208 54.6393 20.8802 -0.0003 2.3947 -0.0002
# 2 54.6393 149.3069 46.8505 0.0001 6.5006 0.0000
# 3 20.8802 46.8505 75.3860 0.0063 -4.1596 -0.0007
# 4 -0.0003 0.0001 0.0063 41.9329 -0.0004 8.9358
# 5 2.3947 6.5006 -4.1596 -0.0004 28.7682 -0.0004
# 6 -0.0002 0.0000 -0.0007 8.9358 -0.0004 27.9762
#
#
#
# Elastic Compliance Matrix: (Units=1/GPa)
#
#
# Indices 1 2 3 4 5 6 
#
# 1 0.016559 -0.005722 -0.001043 0.000000 -0.000236 0.000000
# 2 -0.005722 0.010503 -0.005087 0.000001 -0.002632 0.000000
# 3 -0.001043 -0.005087 0.016919 -0.000003 0.003683 0.000001
# 4 0.000000 0.000001 -0.000003 0.025589 0.000000 -0.008173
# 5 -0.000236 -0.002632 0.003683 0.000000 0.035908 0.000001
# 6 0.000000 0.000000 0.000001 -0.008173 0.000001 0.038355
#
#
# Mechanical properties :
#
#
# Convention : Reuss Voigt Hill
#
# Bulk Modulus (GPa) = 49.32245 61.11707 55.21976
# Shear Modulus (GPa) = 28.68665 31.93173 30.30919
#
# Velocity S-wave (km/s) = 3.89684 4.11134 4.00553
# Velocity P-wave (km/s) = 6.80853 7.40878 7.11499
#
# Compressibility (1/GPa) = 0.02027474
#
# Stress axis : x y z
#
# Youngs Moduli (GPa) = 60.38984 95.21410 59.10521
#
# Poissons Ratio (x) = 0.54483 0.06167
# Poissons Ratio (y) = 0.34556 0.30070
# Poissons Ratio (z) = 0.06301 0.48440
#
# Static dielectric constant tensor:
#      x y z
#    x 3.651760 0.000000 0.343520 
#    y 0.000000 3.562080 -0.000010 
#    z 0.343520 -0.000010 5.321850 
# 
# 
# High freq. dielectric constant tensor:
#      x y z
#    x 1.733300 0.000000 -0.018720 
#    y 0.000000 1.732460 0.000000 
#    z -0.018720 0.000000 1.741890 
# 
# From -- ./inp_files/379099.got.cif
#   From: 2010.06.25/outbox.cif.g09.slc.cpg/sg12_190_cif.got.tgz:379099.got - 2010.06.28 00:19:55.
