data_PCOD8099209
_publ_section_title
;
Structure prediction by ZEFSAII (Michael W. Deem and Ramdas Pophale) SiO2 
 PCOD8099209
Probable space group: C 2/M
;
_chemical_formula_sum "Si O2"
_cell_formula_units_Z 56
_cell_length_a 27.418787
_cell_length_b 8.712653
_cell_length_c 13.731907
_cell_angle_alpha 90.000000
_cell_angle_beta 59.921240
_cell_angle_gamma 90.000000
_cell_volume 2838.670083
_symmetry_space_group_name_H-M "C 2/M"
_symmetry_group_IT_number 12
_symmetry_cell_setting 'monoclinic'
loop_
_space_group_symop_operation_xyz
x,y,z
-x,y,-z
-x,-y,-z
x,-y,z
1/2+x,1/2+y,z
1/2-x,1/2+y,-z
1/2-x,1/2-y,-z
1/2+x,1/2-y,z
loop_
_atom_site_type_symbol
_atom_site_label
_atom_site_fract_x
_atom_site_fract_y
_atom_site_fract_z
Si Si1 0.594013 0.816973 0.259910
Si Si2 0.165673 0.820391 0.842158
Si Si3 0.759634 0.318904 0.595341
Si Si4 0.973794 0.317566 0.310415
Si Si5 0.053745 0.677557 0.878767
Si Si6 0.692209 0.818999 0.021147
Si Si7 0.879120 0.317102 0.551958
O O1 0.533974 0.751063 0.284356
O O2 0.641874 0.755237 0.139149
O O3 0.606760 0.753300 0.354996
O O4 0.592862 0.000000 0.261374
O O5 0.208925 0.766864 0.715630
O O6 0.103039 0.782373 0.870882
O O7 0.171588 0.000000 0.858474
O O8 0.180460 0.726481 0.922923
O O9 0.762376 0.500000 0.582226
O O10 0.750000 0.250000 0.500000
O O11 0.818036 0.255069 0.581134
O O12 0.975541 0.500000 0.312457
O O13 0.961069 0.262149 0.213979
O O14 0.925559 0.253068 0.430177
O O15 0.073069 0.500000 0.858312
O O16 0.000000 0.700674 0.000000
O O17 0.695991 0.000000 0.026105
O O18 0.750000 0.750000 0.000000
O O19 0.879806 0.500000 0.552080
#
# Coordination Sequence:
#
# PCOD8099209 Si02
#       7
#     8   8   8   8   8   8   8
#     4   9  17  30  49  75 106 137 171 218 272 322
#     4  11  23  38  56  81 113 147 185 229 280 338
#     4  10  21  36  54  78 109 144 182 228 279 333
#     4   9  16  27  48  77 105 136 175 218 268 324
#     4  10  20  35  55  80 111 146 187 233 278 329
#     4  11  22  37  57  80 110 146 184 229 279 333
#     4   9  16  28  48  74 104 135 171 218 269 321
#
# _framework density 19.727547999999999
#
# number of rings (size 3 to 8) (size 9 to 14) (size 15 to 20)
#    0.000    2.143    0.000    3.857    0.000    8.857 
#    0.000    0.000    0.000    0.000    0.000    0.000 
#    0.000   11.429    0.000    0.000    0.000    0.000 
#
# Total GULP energy -347276.994726 kJ/mol
# GULP energy per Si atom -12402.749812 kJ/mol
# Density = 1.968265 g / cm^3
# Si number density = 19.727548 Si / 1000 Ang^3
#
#
#
# Elastic Constant Matrix: (Units=GPa)
#
#
# Indices 1 2 3 4 5 6 
#
# 1 167.2900 21.7706 72.7316 0.0000 4.1670 0.0000
# 2 21.7706 24.1437 25.5939 0.0000 -3.4201 0.0000
# 3 72.7316 25.5939 169.3239 0.0000 5.1725 0.0000
# 4 0.0000 0.0000 0.0000 17.5358 0.0000 5.6948
# 5 4.1670 -3.4201 5.1725 0.0000 45.2986 0.0000
# 6 0.0000 0.0000 0.0000 5.6948 0.0000 26.1648
#
#
#
# Elastic Compliance Matrix: (Units=1/GPa)
#
#
# Indices 1 2 3 4 5 6 
#
# 1 0.007697 -0.004242 -0.002643 0.000000 -0.000726 0.000000
# 2 -0.004242 0.052629 -0.006288 0.000000 0.005082 0.000000
# 3 -0.002643 -0.006288 0.008027 0.000000 -0.001148 0.000000
# 4 0.000000 0.000000 0.000000 0.061363 0.000000 -0.013356
# 5 -0.000726 0.005082 -0.001148 0.000000 0.022657 0.000000
# 6 0.000000 0.000000 0.000000 -0.013356 0.000000 0.041126
#
#
# Mechanical properties :
#
#
# Convention : Reuss Voigt Hill
#
# Bulk Modulus (GPa) = 23.80548 66.77221 45.28884
# Shear Modulus (GPa) = 21.38146 33.84395 27.61271
#
# Velocity S-wave (km/s) = 3.29574 4.14643 3.74532
# Velocity P-wave (km/s) = 5.15518 7.53953 6.45834
#
# Compressibility (1/GPa) = 0.04200714
#
# Stress axis : x y z
#
# Youngs Moduli (GPa) = 129.92604 19.00080 124.58596
#
# Poissons Ratio (x) = 0.08059 0.32925
# Poissons Ratio (y) = 0.55110 0.78345
# Poissons Ratio (z) = 0.34336 0.11948
#
# Static dielectric constant tensor:
#      x y z
#    x 3.691800 0.000000 -0.156120 
#    y 0.000000 3.091770 0.000000 
#    z -0.156120 0.000000 3.807390 
# 
# 
# High freq. dielectric constant tensor:
#      x y z
#    x 1.789380 0.000000 -0.000270 
#    y 0.000000 1.717660 0.000000 
#    z -0.000270 0.000000 1.790600 
# 
# From -- ./inp_files/180843.got.cif
#   From: 2010.06.25/outbox.cif.g09.slc.cpg/sg12_91_cif.got.tgz:180843.got - 2010.06.28 00:19:55.
