data_PCOD8099342
_publ_section_title
;
Structure prediction by ZEFSAII (Michael W. Deem and Ramdas Pophale) SiO2 
 PCOD8099342
Probable space group: C 2/M
;
_chemical_formula_sum "Si O2"
_cell_formula_units_Z 32
_cell_length_a 22.533573
_cell_length_b 13.253424
_cell_length_c 18.465820
_cell_angle_alpha 90.000000
_cell_angle_beta 162.308097
_cell_angle_gamma 90.000000
_cell_volume 1675.927412
_symmetry_space_group_name_H-M "C 2/M"
_symmetry_group_IT_number 12
_symmetry_cell_setting 'monoclinic'
loop_
_space_group_symop_operation_xyz
x,y,z
-x,y,-z
-x,-y,-z
x,-y,z
1/2+x,1/2+y,z
1/2-x,1/2+y,-z
1/2-x,1/2-y,-z
1/2+x,1/2-y,z
loop_
_atom_site_type_symbol
_atom_site_label
_atom_site_fract_x
_atom_site_fract_y
_atom_site_fract_z
Si Si1 0.538562 0.614824 0.438820
Si Si2 0.720334 0.765475 0.381532
Si Si3 0.729785 0.210084 0.170522
Si Si4 0.228509 0.110964 0.269177
O O1 0.467924 0.500000 0.352566
O O2 0.632017 0.645830 0.470692
O O3 0.351169 0.686302 0.238645
O O4 0.705402 0.627570 0.694304
O O5 0.750000 0.750000 0.500000
O O6 0.779190 0.665986 0.404067
O O7 0.499309 0.799202 0.109030
O O8 0.791071 0.320327 0.273169
O O9 0.330374 0.000000 0.384500
O O10 0.000000 0.095393 0.000000
#
# Coordination Sequence:
#
# PCOD8099342 Si02
#       4
#     8   8   8   8
#     4  10  20  35  56  79 103 136 179 221 258 301
#     4  10  21  34  51  77 110 140 168 209 263 316
#     4   9  18  34  55  77 102 133 174 222 258 300
#     4   8  15  31  53  73  96 131 172 211 252 299
#
# _framework density 19.093906
#
# number of rings (size 3 to 8) (size 9 to 14) (size 15 to 20)
#    0.000    2.750    0.000    3.750    0.000    5.000 
#    0.000   10.000    0.000    0.000    0.000    0.000 
#    0.000    0.000    0.000    0.000    0.000    0.000 
#
# Total GULP energy -198271.642199 kJ/mol
# GULP energy per Si atom -12391.977637 kJ/mol
# Density = 1.905045 g / cm^3
# Si number density = 19.093906 Si / 1000 Ang^3
#
#
#
# Elastic Constant Matrix: (Units=GPa)
#
#
# Indices 1 2 3 4 5 6 
#
# 1 130.3343 60.9861 43.1571 0.0076 17.4036 0.0016
# 2 60.9861 155.5586 35.4548 0.0499 16.2741 0.0298
# 3 43.1571 35.4548 44.1508 0.0161 23.1552 0.0212
# 4 0.0076 0.0499 0.0161 17.5833 0.0073 6.4894
# 5 17.4036 16.2741 23.1552 0.0073 27.8784 0.0049
# 6 0.0016 0.0298 0.0212 6.4894 0.0049 17.9780
#
#
#
# Elastic Compliance Matrix: (Units=1/GPa)
#
#
# Indices 1 2 3 4 5 6 
#
# 1 0.012307 -0.002482 -0.011991 0.000006 0.003725 0.000014
# 2 -0.002482 0.008390 -0.004528 -0.000018 0.000412 -0.000002
# 3 -0.011991 -0.004528 0.057928 -0.000001 -0.037985 -0.000049
# 4 0.000006 -0.000018 -0.000001 0.065613 -0.000005 -0.023684
# 5 0.003725 0.000412 -0.037985 -0.000005 0.064854 0.000028
# 6 0.000014 -0.000002 -0.000049 -0.023684 0.000028 0.064172
#
#
# Mechanical properties :
#
#
# Convention : Reuss Voigt Hill
#
# Bulk Modulus (GPa) = 24.61564 67.69328 46.15446
# Shear Modulus (GPa) = 15.39376 25.38433 20.38904
#
# Velocity S-wave (km/s) = 2.84247 3.65011 3.27131
# Velocity P-wave (km/s) = 4.86752 7.30029 6.20431
#
# Compressibility (1/GPa) = 0.04062458
#
# Stress axis : x y z
#
# Youngs Moduli (GPa) = 81.25604 119.18533 17.26271
#
# Poissons Ratio (x) = 0.29578 0.20699
# Poissons Ratio (y) = 0.20165 0.07817
# Poissons Ratio (z) = 0.97431 0.53970
#
# Static dielectric constant tensor:
#      x y z
#    x 3.479060 -0.000050 0.250640 
#    y -0.000050 3.891790 -0.000060 
#    z 0.250640 -0.000060 3.338300 
# 
# 
# High freq. dielectric constant tensor:
#      x y z
#    x 1.732720 0.000000 0.025470 
#    y 0.000000 1.738440 0.000000 
#    z 0.025470 0.000000 1.718500 
# 
# From -- ./inp_files/71614.got.cif
#   From: 2010.06.25/outbox.cif.g09.slc.cpg/sg12_36_cif.got.tgz:71614.got - 2010.06.28 00:19:55.
