data_PCOD8099664
_publ_section_title
;
Structure prediction by ZEFSAII (Michael W. Deem and Ramdas Pophale) SiO2 
 PCOD8099664
Probable space group: C 2/M
;
_chemical_formula_sum "Si O2"
_cell_formula_units_Z 48
_cell_length_a 12.606612
_cell_length_b 18.773794
_cell_length_c 15.408463
_cell_angle_alpha 90.000000
_cell_angle_beta 138.700762
_cell_angle_gamma 90.000000
_cell_volume 2406.845500
_symmetry_space_group_name_H-M "C 2/M"
_symmetry_group_IT_number 12
_symmetry_cell_setting 'monoclinic'
loop_
_space_group_symop_operation_xyz
x,y,z
-x,y,-z
-x,-y,-z
x,-y,z
1/2+x,1/2+y,z
1/2-x,1/2+y,-z
1/2-x,1/2-y,-z
1/2+x,1/2-y,z
loop_
_atom_site_type_symbol
_atom_site_label
_atom_site_fract_x
_atom_site_fract_y
_atom_site_fract_z
Si Si1 0.600615 0.195633 0.637925
Si Si2 0.223305 0.919586 0.017090
Si Si3 0.015266 0.678262 0.246043
Si Si4 0.835609 0.146656 0.367980
Si Si5 0.460780 0.696656 0.881294
Si Si6 0.176500 0.421268 0.113960
O O1 0.500000 0.153012 0.500000
O O2 0.497043 0.204454 0.662232
O O3 0.633158 0.270588 0.614195
O O4 0.778991 0.165207 0.766060
O O5 0.378511 0.880178 0.149544
O O6 0.210651 0.000000 0.048392
O O7 0.235609 0.925002 0.922251
O O8 0.065714 0.874259 0.939290
O O9 0.183523 0.635568 0.338390
O O10 0.998887 0.744500 0.168251
O O11 0.792895 0.123792 0.245325
O O12 0.000000 0.106882 0.500000
O O13 0.500000 0.731777 0.000000
O O14 0.154160 0.500000 0.141250
O O15 0.000000 0.384972 0.000000
#
# Coordination Sequence:
#
# PCOD8099664 Si02
#       6
#     8   8   8   8   8   8
#     4  10  23  40  58  87 121 159 198 250 309 354
#     4  11  23  38  61  91 123 159 203 254 303 352
#     4  11  22  38  63  88 125 159 204 247 306 364
#     4  10  22  35  58  88 120 156 194 250 305 357
#     4  11  23  37  64  96 119 157 205 253 297 361
#     4  10  20  35  56  83 116 157 198 240 295 359
#
# _framework density 19.943114999999999
#
# number of rings (size 3 to 8) (size 9 to 14) (size 15 to 20)
#    0.000    1.500    3.333    1.500    4.667    8.000 
#    0.000    0.000    0.000    2.000    0.000    0.000 
#    0.000    0.000    0.000    0.000    0.000    0.000 
#
# Total GULP energy -297402.199863 kJ/mol
# GULP energy per Si atom -12391.758328 kJ/mol
# Density = 1.989772 g / cm^3
# Si number density = 19.943115 Si / 1000 Ang^3
#
#
#
# Elastic Constant Matrix: (Units=GPa)
#
#
# Indices 1 2 3 4 5 6 
#
# 1 110.9802 22.1381 54.3203 0.0228 -3.2495 -0.0254
# 2 22.1381 62.3577 25.4933 0.0092 8.5501 -0.0102
# 3 54.3203 25.4933 161.7182 0.0108 17.1254 -0.0118
# 4 0.0228 0.0092 0.0108 2522.6326 0.0244-2790.1837
# 5 -3.2495 8.5501 17.1254 0.0244 37.2119 -0.0271
# 6 -0.0254 -0.0102 -0.0118-2790.1837 -0.0271 3131.0157
#
#
#
# Elastic Compliance Matrix: (Units=1/GPa)
#
#
# Indices 1 2 3 4 5 6 
#
# 1 0.011562 -0.003036 -0.003770 0.000000 0.003442 0.000000
# 2 -0.003036 0.018227 -0.001453 0.000000 -0.003784 0.000000
# 3 -0.003770 -0.001453 0.008072 0.000000 -0.003710 0.000000
# 4 0.000000 0.000000 0.000000 0.027640 0.000000 0.024632
# 5 0.003442 -0.003784 -0.003710 0.000000 0.029751 0.000000
# 6 0.000000 0.000000 0.000000 0.024632 0.000000 0.022270
#
#
# Mechanical properties :
#
#
# Convention : Reuss Voigt Hill
#
# Bulk Modulus (GPa) = 46.85019 59.88438 53.36728
# Shear Modulus (GPa) = 35.42273 1153.71234 594.56753
#
# Velocity S-wave (km/s) = 4.21906 24.07815 17.28522
# Velocity P-wave (km/s) = 6.87582 28.33907 20.62013
#
# Compressibility (1/GPa) = 0.02134463
#
# Stress axis : x y z
#
# Youngs Moduli (GPa) = 86.49044 54.86342 123.88967
#
# Poissons Ratio (x) = 0.16654 0.46701
# Poissons Ratio (y) = 0.26255 0.18000
# Poissons Ratio (z) = 0.32603 0.07971
#
# Static dielectric constant tensor:
#      x y z
#    x 3.873190 0.000000 0.369050 
#    y 0.000000 3.528820 0.000000 
#    z 0.369050 0.000000 5.034230 
# 
# 
# High freq. dielectric constant tensor:
#      x y z
#    x 1.787160 0.000000 0.007910 
#    y 0.000000 1.745570 0.000000 
#    z 0.007910 0.000000 1.789140 
# 
# From -- ./inp_files/89439.got.cif
#   From: 2010.06.25/outbox.cif.g09.slc.cpg/sg12_45_cif.got.tgz:89439.got - 2010.06.28 00:19:55.
