data_PCOD8099736
_publ_section_title
;
Structure prediction by ZEFSAII (Michael W. Deem and Ramdas Pophale) SiO2 
 PCOD8099736
Probable space group: C 2/M
;
_chemical_formula_sum "Si O2"
_cell_formula_units_Z 64
_cell_length_a 29.537297
_cell_length_b 8.776489
_cell_length_c 14.596137
_cell_angle_alpha 90.000000
_cell_angle_beta 60.149937
_cell_angle_gamma 90.000000
_cell_volume 3281.816581
_symmetry_space_group_name_H-M "C 2/M"
_symmetry_group_IT_number 12
_symmetry_cell_setting 'monoclinic'
loop_
_space_group_symop_operation_xyz
x,y,z
-x,y,-z
-x,-y,-z
x,-y,z
1/2+x,1/2+y,z
1/2-x,1/2+y,-z
1/2-x,1/2-y,-z
1/2+x,1/2-y,z
loop_
_atom_site_type_symbol
_atom_site_label
_atom_site_fract_x
_atom_site_fract_y
_atom_site_fract_z
Si Si1 0.119143 0.680420 0.476961
Si Si2 0.865715 0.821587 0.050915
Si Si3 0.305541 0.679786 0.462057
Si Si4 0.750558 0.821643 0.099569
Si Si5 0.083335 0.678894 0.169508
Si Si6 0.109290 0.178402 0.770426
Si Si7 0.535454 0.178556 0.708707
Si Si8 0.852407 0.179914 0.735148
O O1 0.122822 0.500000 0.465608
O O2 0.171739 0.745824 0.468771
O O3 0.069145 0.733294 0.587052
O O4 0.113546 0.750768 0.381755
O O5 0.805003 0.787750 0.094435
O O6 0.880326 0.763982 0.137538
O O7 0.877862 0.000000 0.024676
O O8 0.901645 0.721080 0.948824
O O9 0.301670 0.500000 0.479457
O O10 0.250000 0.750000 0.500000
O O11 0.341427 0.726818 0.340415
O O12 0.705954 0.747268 0.207453
O O13 0.739561 0.000000 0.101014
O O14 0.750000 0.750000 0.000000
O O15 0.091685 0.500000 0.178783
O O16 0.120288 0.776055 0.197712
O O17 0.023875 0.729154 0.247661
O O18 0.056825 0.250214 0.781439
O O19 0.101214 0.000000 0.777346
O O20 0.539993 0.000000 0.716403
O O21 0.849467 0.000000 0.728968
#
# Coordination Sequence:
#
# PCOD8099736 Si02
#       8
#     8   8   8   8   8   8   8   8
#     4  10  21  40  62  84 116 155 195 245 300 353
#     4  10  22  39  59  87 120 156 197 240 288 351
#     4  10  20  35  56  85 117 154 198 243 292 351
#     4  11  22  38  61  86 120 159 198 242 293 347
#     4  11  23  40  62  87 116 154 199 246 299 352
#     4   9  20  38  59  84 117 155 194 238 292 349
#     4   9  21  41  63  87 116 152 196 247 298 351
#     4  12  25  40  59  89 122 154 199 244 294 358
#
# _framework density 19.501394999999999
#
# number of rings (size 3 to 8) (size 9 to 14) (size 15 to 20)
#    0.000    1.750    1.250    2.625    1.750    4.000 
#    0.000    5.000    0.000    0.000    0.000    0.000 
#    0.000    0.000    0.000    0.000    0.000    0.000 
#
# Total GULP energy -396953.641331 kJ/mol
# GULP energy per Si atom -12404.801292 kJ/mol
# Density = 1.945701 g / cm^3
# Si number density = 19.501395 Si / 1000 Ang^3
#
#
#
# Elastic Constant Matrix: (Units=GPa)
#
#
# Indices 1 2 3 4 5 6 
#
# 1 61.2078 27.1213 42.1232 0.0000 -6.1024 0.0000
# 2 27.1213 77.1870 35.9414 0.0000 -3.8615 0.0000
# 3 42.1232 35.9414 104.6354 0.0000 5.4276 0.0000
# 4 0.0000 0.0000 0.0000 34.1649 0.0000 2.6063
# 5 -6.1024 -3.8615 5.4276 0.0000 37.8662 0.0000
# 6 0.0000 0.0000 0.0000 2.6063 0.0000 32.5722
#
#
#
# Elastic Compliance Matrix: (Units=1/GPa)
#
#
# Indices 1 2 3 4 5 6 
#
# 1 0.024756 -0.004408 -0.008700 0.000000 0.004787 0.000000
# 2 -0.004408 0.016417 -0.003944 0.000000 0.001529 0.000000
# 3 -0.008700 -0.003944 0.014616 0.000000 -0.003899 0.000000
# 4 0.000000 0.000000 0.000000 0.029450 0.000000 -0.002356
# 5 0.004787 0.001529 -0.003899 0.000000 0.027895 0.000000
# 6 0.000000 0.000000 0.000000 -0.002356 0.000000 0.030890
#
#
# Mechanical properties :
#
#
# Convention : Reuss Voigt Hill
#
# Bulk Modulus (GPa) = 46.11413 50.37800 48.24607
# Shear Modulus (GPa) = 26.97510 30.11029 28.54269
#
# Velocity S-wave (km/s) = 3.72323 3.93365 3.82988
# Velocity P-wave (km/s) = 6.49470 6.82060 6.65964
#
# Compressibility (1/GPa) = 0.02168532
#
# Stress axis : x y z
#
# Youngs Moduli (GPa) = 40.39493 60.91116 68.41599
#
# Poissons Ratio (x) = 0.26848 0.59523
# Poissons Ratio (y) = 0.17805 0.26984
# Poissons Ratio (z) = 0.35144 0.24024
#
# Static dielectric constant tensor:
#      x y z
#    x 3.677310 0.000000 0.023780 
#    y 0.000000 3.557350 0.000000 
#    z 0.023780 0.000000 3.884090 
# 
# 
# High freq. dielectric constant tensor:
#      x y z
#    x 1.762510 0.000000 0.000910 
#    y 0.000000 1.763650 0.000000 
#    z 0.000910 0.000000 1.765530 
# 
# From -- ./inp_files/249799.got.cif
#   From: 2010.06.25/outbox.cif.g09.slc.cpg/sg12_125_cif.got.tgz:249799.got - 2010.06.28 00:19:55.
