data_PCOD8099387
_publ_section_title
;
Structure prediction by ZEFSAII (Michael W. Deem and Ramdas Pophale) SiO2 
 PCOD8099387
Probable space group: C 2/M
;
_chemical_formula_sum "Si O2"
_cell_formula_units_Z 64
_cell_length_a 9.688641
_cell_length_b 20.803973
_cell_length_c 24.008423
_cell_angle_alpha 90.000000
_cell_angle_beta 133.563398
_cell_angle_gamma 90.000000
_cell_volume 3506.537256
_symmetry_space_group_name_H-M "C 2/M"
_symmetry_group_IT_number 12
_symmetry_cell_setting 'monoclinic'
loop_
_space_group_symop_operation_xyz
x,y,z
-x,y,-z
-x,-y,-z
x,-y,z
1/2+x,1/2+y,z
1/2-x,1/2+y,-z
1/2-x,1/2-y,-z
1/2+x,1/2-y,z
loop_
_atom_site_type_symbol
_atom_site_label
_atom_site_fract_x
_atom_site_fract_y
_atom_site_fract_z
Si Si1 0.631799 0.073696 0.279606
Si Si2 0.804337 0.807833 0.474990
Si Si3 0.958043 0.672190 0.151307
Si Si4 0.443280 0.858447 0.323542
Si Si5 0.357878 0.072835 0.412955
Si Si6 0.061983 0.073383 0.418675
Si Si7 0.685235 0.710447 0.171178
Si Si8 0.363550 0.309525 0.010145
O O1 0.569928 0.112292 0.207712
O O2 0.491129 0.085783 0.292404
O O3 0.843388 0.094560 0.356425
O O4 0.625122 0.000000 0.260444
O O5 0.750000 0.750000 0.500000
O O6 0.631452 0.814449 0.383117
O O7 0.825629 0.877625 0.510141
O O8 0.000000 0.787771 0.500000
O O9 0.852753 0.712084 0.171424
O O10 0.109004 0.717828 0.161865
O O11 0.797809 0.644085 0.062600
O O12 0.371083 0.884867 0.361952
O O13 0.267731 0.817096 0.251468
O O14 0.500000 0.099381 0.500000
O O15 0.145393 0.077282 0.379201
O O16 0.414773 0.000000 0.413340
O O17 0.086878 0.000000 0.448645
O O18 0.505712 0.665570 0.098971
O O19 0.500000 0.283018 0.000000
O O20 0.250000 0.250000 0.000000
#
# Coordination Sequence:
#
# PCOD8099387 Si02
#       8
#     8   8   8   8   8   8   8   8
#     4  10  21  37  56  79 106 142 188 229 263 314
#     4  12  27  40  55  80 113 147 181 229 288 332
#     4   9  18  33  54  80 109 141 171 217 267 321
#     4  11  22  36  55  78 108 144 175 227 274 327
#     4  10  20  35  56  79  99 133 182 227 271 316
#     4  10  22  40  59  78 103 142 194 232 266 327
#     4   9  19  31  52  81 109 140 174 213 269 324
#     4   8  14  29  50  75 107 136 170 210 254 318
#
# _framework density 18.251624
#
# number of rings (size 3 to 8) (size 9 to 14) (size 15 to 20)
#    0.000    2.125    2.500    0.375    3.500    1.750 
#    0.000    0.000    0.000   10.125    0.000    0.000 
#    0.000   48.000    0.000    0.000    0.000    0.000 
#
# Total GULP energy -396500.771648 kJ/mol
# GULP energy per Si atom -12390.649114 kJ/mol
# Density = 1.821008 g / cm^3
# Si number density = 18.251624 Si / 1000 Ang^3
#
#
#
# Elastic Constant Matrix: (Units=GPa)
#
#
# Indices 1 2 3 4 5 6 
#
# 1 70.0524 22.3369 24.5659 0.0000 6.2336 -0.0001
# 2 22.3369 69.2127 50.4667 0.0000 3.9503 0.0000
# 3 24.5659 50.4667 148.0323 -0.0001 5.9412 -0.0001
# 4 0.0000 0.0000 -0.0001 25.0064 -0.0001 -0.2665
# 5 6.2336 3.9503 5.9412 -0.0001 22.9225 -0.0001
# 6 -0.0001 0.0000 -0.0001 -0.2665 -0.0001 23.0468
#
#
#
# Elastic Compliance Matrix: (Units=1/GPa)
#
#
# Indices 1 2 3 4 5 6 
#
# 1 0.016330 -0.004257 -0.001121 0.000000 -0.003416 0.000000
# 2 -0.004257 0.020398 -0.006218 0.000000 -0.000746 0.000000
# 3 -0.001121 -0.006218 0.009101 0.000000 -0.000982 0.000000
# 4 0.000000 0.000000 0.000000 0.039995 0.000000 0.000462
# 5 -0.003416 -0.000746 -0.000982 0.000000 0.044938 0.000000
# 6 0.000000 0.000000 0.000000 0.000462 0.000000 0.043395
#
#
# Mechanical properties :
#
#
# Convention : Reuss Voigt Hill
#
# Bulk Modulus (GPa) = 44.17795 53.55958 48.86877
# Shear Modulus (GPa) = 24.40278 26.85700 25.62989
#
# Velocity S-wave (km/s) = 3.66049 3.84016 3.75140
# Velocity P-wave (km/s) = 6.49023 7.00508 6.75257
#
# Compressibility (1/GPa) = 0.02263572
#
# Stress axis : x y z
#
# Youngs Moduli (GPa) = 61.23772 49.02326 109.88374
#
# Poissons Ratio (x) = 0.20871 0.12322
# Poissons Ratio (y) = 0.26072 0.68323
# Poissons Ratio (z) = 0.06867 0.30481
#
# Static dielectric constant tensor:
#      x y z
#    x 3.511650 0.000000 0.188270 
#    y 0.000000 3.081970 0.000000 
#    z 0.188270 0.000000 3.848860 
# 
# 
# High freq. dielectric constant tensor:
#      x y z
#    x 1.719520 0.000000 0.008870 
#    y 0.000000 1.668240 0.000000 
#    z 0.008870 0.000000 1.717030 
# 
# From -- ./inp_files/333773.got.cif
#   From: 2010.06.25/outbox.cif.g09.slc.cpg/sg12_167_cif.got.tgz:333773.got - 2010.06.28 00:19:55.
