data_PCOD8099718
_publ_section_title
;
Structure prediction by ZEFSAII (Michael W. Deem and Ramdas Pophale) SiO2 
 PCOD8099718
Probable space group: C 2/M
;
_chemical_formula_sum "Si O2"
_cell_formula_units_Z 56
_cell_length_a 17.685981
_cell_length_b 15.201784
_cell_length_c 14.185189
_cell_angle_alpha 90.000000
_cell_angle_beta 127.308135
_cell_angle_gamma 90.000000
_cell_volume 3033.455044
_symmetry_space_group_name_H-M "C 2/M"
_symmetry_group_IT_number 12
_symmetry_cell_setting 'monoclinic'
loop_
_space_group_symop_operation_xyz
x,y,z
-x,y,-z
-x,-y,-z
x,-y,z
1/2+x,1/2+y,z
1/2-x,1/2+y,-z
1/2-x,1/2-y,-z
1/2+x,1/2-y,z
loop_
_atom_site_type_symbol
_atom_site_label
_atom_site_fract_x
_atom_site_fract_y
_atom_site_fract_z
Si Si1 0.936190 0.212981 0.706855
Si Si2 0.211504 0.681707 0.295528
Si Si3 0.410147 0.000000 0.068994
Si Si4 0.090304 0.104401 0.500478
Si Si5 0.301846 0.277708 0.907656
Si Si6 0.624423 0.000000 0.165644
Si Si7 0.613323 0.820370 0.864468
Si Si8 0.456137 0.405377 0.067062
O O1 0.837824 0.265383 0.654673
O O2 0.928616 0.143503 0.616823
O O3 0.015044 0.286854 0.745150
O O4 0.974604 0.159060 0.824834
O O5 0.322422 0.661964 0.394257
O O6 0.195807 0.748658 0.198110
O O7 0.164165 0.587503 0.243827
O O8 0.389440 0.924012 0.128054
O O9 0.514179 0.000000 0.104404
O O10 0.347252 0.000000 0.924865
O O11 0.000000 0.119217 0.500000
O O12 0.114275 0.000000 0.511563
O O13 0.193205 0.281575 0.856704
O O14 0.366128 0.208453 0.012824
O O15 0.349320 0.371112 0.968113
O O16 0.447767 0.500000 0.113160
O O17 0.500000 0.419833 0.000000
#
# Coordination Sequence:
#
# PCOD8099718 Si02
#       8
#     8   8   4   8   8   4   8   8
#     4  11  22  39  61  86 117 156 198 245 295 352
#     4  12  21  40  62  89 116 153 198 248 295 355
#     4  11  20  34  58  88 127 156 192 242 294 351
#     4  11  25  43  63  87 116 153 198 252 304 351
#     4  10  21  35  54  85 119 160 193 235 293 349
#     4  11  22  34  61  92 118 152 198 246 294 340
#     4  10  21  34  54  85 123 155 194 238 291 353
#     4  10  20  35  56  84 119 155 195 235 282 349
#
# _framework density 18.460796999999999
#
# number of rings (size 3 to 8) (size 9 to 14) (size 15 to 20)
#    0.000    1.286    5.000    1.714    1.000    0.000 
#    0.000    0.000    0.000    0.000    0.000    2.000 
#    0.000    0.000    0.000    0.000    0.000    0.000 
#
# Total GULP energy -346971.681288 kJ/mol
# GULP energy per Si atom -12391.845760 kJ/mol
# Density = 1.841878 g / cm^3
# Si number density = 18.460797 Si / 1000 Ang^3
#
#
#
# Elastic Constant Matrix: (Units=GPa)
#
#
# Indices 1 2 3 4 5 6 
#
# 1 80.0969 28.3058 41.1242 0.0000 9.3568 0.0000
# 2 28.3058 113.4426 35.8947 0.0000 2.4602 0.0000
# 3 41.1242 35.8947 67.7038 0.0000 9.5748 0.0000
# 4 0.0000 0.0000 0.0000 35.9055 0.0000 -5.7363
# 5 9.3568 2.4602 9.5748 0.0000 29.7543 0.0000
# 6 0.0000 0.0000 0.0000 -5.7363 0.0000 30.7530
#
#
#
# Elastic Compliance Matrix: (Units=1/GPa)
#
#
# Indices 1 2 3 4 5 6 
#
# 1 0.018457 -0.001338 -0.010158 0.000000 -0.002424 0.000000
# 2 -0.001338 0.010716 -0.005032 0.000000 0.001154 0.000000
# 3 -0.010158 -0.005032 0.024199 0.000000 -0.004177 0.000000
# 4 0.000000 0.000000 0.000000 0.028706 0.000000 0.005355
# 5 -0.002424 0.001154 -0.004177 0.000000 0.035620 0.000000
# 6 0.000000 0.000000 0.000000 0.005355 0.000000 0.033516
#
#
# Mechanical properties :
#
#
# Convention : Reuss Voigt Hill
#
# Bulk Modulus (GPa) = 49.22520 52.43252 50.82886
# Shear Modulus (GPa) = 26.17230 29.67714 27.92472
#
# Velocity S-wave (km/s) = 3.76935 4.01381 3.89350
# Velocity P-wave (km/s) = 6.75771 7.06715 6.91416
#
# Compressibility (1/GPa) = 0.02031480
#
# Stress axis : x y z
#
# Youngs Moduli (GPa) = 54.18083 93.31829 41.32440
#
# Poissons Ratio (x) = 0.12490 0.41979
# Poissons Ratio (y) = 0.07252 0.20793
# Poissons Ratio (z) = 0.55039 0.46953
#
# Static dielectric constant tensor:
#      x y z
#    x 3.414670 0.000000 0.140320 
#    y 0.000000 3.643220 0.000000 
#    z 0.140320 0.000000 3.348620 
# 
# 
# High freq. dielectric constant tensor:
#      x y z
#    x 1.717510 0.000000 0.009570 
#    y 0.000000 1.728490 0.000000 
#    z 0.009570 0.000000 1.701690 
# 
# From -- ./inp_files/225433.got.cif
#   From: 2010.06.25/outbox.cif.g09.slc.cpg/sg12_113_cif.got.tgz:225433.got - 2010.06.28 00:19:55.
