data_PCOD8099098
_publ_section_title
;
Structure prediction by ZEFSAII (Michael W. Deem and Ramdas Pophale) SiO2 
 PCOD8099098
Probable space group: C 2/M
;
_chemical_formula_sum "Si O2"
_cell_formula_units_Z 48
_cell_length_a 31.082820
_cell_length_b 8.677240
_cell_length_c 17.974047
_cell_angle_alpha 90.000000
_cell_angle_beta 149.956829
_cell_angle_gamma 90.000000
_cell_volume 2427.080536
_symmetry_space_group_name_H-M "C 2/M"
_symmetry_group_IT_number 12
_symmetry_cell_setting 'monoclinic'
loop_
_space_group_symop_operation_xyz
x,y,z
-x,y,-z
-x,-y,-z
x,-y,z
1/2+x,1/2+y,z
1/2-x,1/2+y,-z
1/2-x,1/2-y,-z
1/2+x,1/2-y,z
loop_
_atom_site_type_symbol
_atom_site_label
_atom_site_fract_x
_atom_site_fract_y
_atom_site_fract_z
Si Si1 0.668100 0.683221 0.585419
Si Si2 0.668642 0.682194 0.919890
Si Si3 0.994534 0.820109 0.078684
Si Si4 0.331240 0.682063 0.580912
Si Si5 0.999688 0.816353 0.583261
Si Si6 0.164522 0.681336 0.076453
O O1 0.665040 0.500000 0.579587
O O2 0.667082 0.748287 0.500193
O O3 0.584718 0.749804 0.502531
O O4 0.753204 0.741308 0.754529
O O5 0.673597 0.500000 0.922502
O O6 0.583560 0.744917 0.751504
O O7 0.750000 0.750000 0.000000
O O8 0.664209 0.731977 0.998205
O O9 0.082827 0.765330 0.248423
O O10 0.976430 0.000000 0.066427
O O11 0.919282 0.720463 0.001700
O O12 0.000000 0.782682 0.000000
O O13 0.322950 0.500000 0.568701
O O14 0.250000 0.750000 0.500000
O O15 0.000000 0.751674 0.500000
O O16 0.998032 0.000000 0.580671
O O17 0.169560 0.500000 0.069210
#
# Coordination Sequence:
#
# PCOD8099098 Si02
#       6
#     8   8   8   8   8   8
#     4   9  18  33  53  78 106 139 181 223 264 316
#     4  11  22  37  59  84 112 145 181 225 276 328
#     4  10  21  37  57  82 113 147 182 225 280 334
#     4  10  20  35  55  78 107 143 183 226 270 320
#     4   9  17  32  56  81 104 136 178 219 262 319
#     4  11  22  36  57  83 111 144 184 229 273 322
#
# _framework density 19.776847
#
# number of rings (size 3 to 8) (size 9 to 14) (size 15 to 20)
#    0.000    2.000    0.000    4.000    0.000    6.333 
#    0.000    0.833    0.000   13.000    0.000    0.000 
#    0.000    0.000    0.000    0.000    0.000    0.000 
#
# Total GULP energy -297679.251339 kJ/mol
# GULP energy per Si atom -12403.302139 kJ/mol
# Density = 1.973183 g / cm^3
# Si number density = 19.776847 Si / 1000 Ang^3
#
#
#
# Elastic Constant Matrix: (Units=GPa)
#
#
# Indices 1 2 3 4 5 6 
#
# 1 183.0308 21.4117 105.0867 0.0000 0.2163 0.0000
# 2 21.4117 31.4764 30.2614 0.0000 2.2055 0.0000
# 3 105.0867 30.2614 212.1557 0.0000 -1.4579 0.0000
# 4 0.0000 0.0000 0.0000 23.5283 0.0000 4.6040
# 5 0.2163 2.2055 -1.4579 0.0000 49.2427 0.0000
# 6 0.0000 0.0000 0.0000 4.6040 0.0000 34.0832
#
#
#
# Elastic Compliance Matrix: (Units=1/GPa)
#
#
# Indices 1 2 3 4 5 6 
#
# 1 0.007725 -0.001821 -0.003567 0.000000 -0.000058 0.000000
# 2 -0.001821 0.037409 -0.004446 0.000000 -0.001799 0.000000
# 3 -0.003567 -0.004446 0.007117 0.000000 0.000426 0.000000
# 4 0.000000 0.000000 0.000000 0.043656 0.000000 -0.005897
# 5 -0.000058 -0.001799 0.000426 0.000000 0.020401 0.000000
# 6 0.000000 0.000000 0.000000 -0.005897 0.000000 0.030137
#
#
# Mechanical properties :
#
#
# Convention : Reuss Voigt Hill
#
# Bulk Modulus (GPa) = 30.69119 82.24251 56.46685
# Shear Modulus (GPa) = 28.25265 39.36439 33.80852
#
# Velocity S-wave (km/s) = 3.78375 4.46626 4.13910
# Velocity P-wave (km/s) = 5.88570 8.26270 7.17334
#
# Compressibility (1/GPa) = 0.03258264
#
# Stress axis : x y z
#
# Youngs Moduli (GPa) = 129.45695 26.73120 140.50142
#
# Poissons Ratio (x) = 0.04869 0.50114
# Poissons Ratio (y) = 0.23580 0.62469
# Poissons Ratio (z) = 0.46175 0.11885
#
# Static dielectric constant tensor:
#      x y z
#    x 3.444010 0.000000 -0.011360 
#    y 0.000000 3.235310 0.000000 
#    z -0.011360 0.000000 3.970960 
# 
# 
# High freq. dielectric constant tensor:
#      x y z
#    x 1.791830 0.000000 -0.001540 
#    y 0.000000 1.734280 0.000000 
#    z -0.001540 0.000000 1.793330 
# 
# From -- ./inp_files/274115.got.cif
#   From: 2010.06.25/outbox.cif.g09.slc.cpg/sg12_138_cif.got.tgz:274115.got - 2010.06.28 00:19:55.
