data_PCOD8099101
_publ_section_title
;
Structure prediction by ZEFSAII (Michael W. Deem and Ramdas Pophale) SiO2 
 PCOD8099101
Probable space group: C 2/M
;
_chemical_formula_sum "Si O2"
_cell_formula_units_Z 56
_cell_length_a 19.190141
_cell_length_b 9.003110
_cell_length_c 19.953275
_cell_angle_alpha 90.000000
_cell_angle_beta 119.050216
_cell_angle_gamma 90.000000
_cell_volume 3013.651049
_symmetry_space_group_name_H-M "C 2/M"
_symmetry_group_IT_number 12
_symmetry_cell_setting 'monoclinic'
loop_
_space_group_symop_operation_xyz
x,y,z
-x,y,-z
-x,-y,-z
x,-y,z
1/2+x,1/2+y,z
1/2-x,1/2+y,-z
1/2-x,1/2-y,-z
1/2+x,1/2-y,z
loop_
_atom_site_type_symbol
_atom_site_label
_atom_site_fract_x
_atom_site_fract_y
_atom_site_fract_z
Si Si1 0.734763 0.670311 0.134678
Si Si2 0.110809 0.675405 0.872891
Si Si3 0.584242 0.175778 0.011544
Si Si4 0.652543 0.829234 0.693095
Si Si5 0.712330 0.830048 0.575964
Si Si6 0.021944 0.174944 0.714766
Si Si7 0.364373 0.829830 0.598129
O O1 0.711362 0.500000 0.112278
O O2 0.800732 0.720425 0.110644
O O3 0.655277 0.766414 0.091285
O O4 0.769196 0.697666 0.225058
O O5 0.098335 0.500000 0.859995
O O6 0.044821 0.753585 0.796461
O O7 0.098081 0.732658 0.942366
O O8 0.585709 0.000000 0.015000
O O9 0.500000 0.236892 0.000000
O O10 0.670599 0.785585 0.625611
O O11 0.580730 0.726566 0.683478
O O12 0.624843 0.000000 0.687251
O O13 0.647313 0.810368 0.487040
O O14 0.784665 0.717799 0.599303
O O15 0.743800 0.000000 0.592566
O O16 0.933607 0.222880 0.654679
O O17 0.026094 0.000000 0.723980
O O18 0.384011 0.000000 0.625602
#
# Coordination Sequence:
#
# PCOD8099101 Si02
#       7
#     8   8   8   8   8   8   8
#     4   9  18  33  54  76 100 134 171 209 254 308
#     4   9  19  37  56  74 101 137 174 212 261 314
#     4  10  21  35  52  77 107 135 167 211 259 309
#     4   9  19  37  57  79 108 138 173 218 268 316
#     4   9  19  36  57  79 105 141 182 219 259 315
#     4  11  22  35  54  80 107 137 179 224 263 312
#     4  10  20  35  55  78 108 144 178 217 266 314
#
# _framework density 18.582111000000001
#
# number of rings (size 3 to 8) (size 9 to 14) (size 15 to 20)
#    0.000    2.429    0.000    3.000    0.000    6.000 
#    0.000    5.714    0.000    0.000    0.000    0.000 
#    0.000    0.000    0.000    0.000    0.000    0.000 
#
# Total GULP energy -347279.215641 kJ/mol
# GULP energy per Si atom -12402.829130 kJ/mol
# Density = 1.853982 g / cm^3
# Si number density = 18.582111 Si / 1000 Ang^3
#
#
#
# Elastic Constant Matrix: (Units=GPa)
#
#
# Indices 1 2 3 4 5 6 
#
# 1 42.9865 16.2928 13.9219 0.0000 14.5826 0.0000
# 2 16.2928 51.1930 21.3081 0.0000 6.8969 0.0000
# 3 13.9219 21.3081 51.0618 0.0000 15.4660 0.0000
# 4 0.0000 0.0000 0.0000 24.7922 0.0000 9.4876
# 5 14.5826 6.8969 15.4660 0.0000 29.3109 0.0000
# 6 0.0000 0.0000 0.0000 9.4876 0.0000 27.5084
#
#
#
# Elastic Compliance Matrix: (Units=1/GPa)
#
#
# Indices 1 2 3 4 5 6 
#
# 1 0.030940 -0.007533 -0.001389 0.000000 -0.012888 0.000000
# 2 -0.007533 0.025478 -0.009400 0.000000 0.002712 0.000000
# 3 -0.001389 -0.009400 0.027382 0.000000 -0.011546 0.000000
# 4 0.000000 0.000000 0.000000 0.046469 0.000000 -0.016027
# 5 -0.012888 0.002712 -0.011546 0.000000 0.045983 0.000000
# 6 0.000000 0.000000 0.000000 -0.016027 0.000000 0.041880
#
#
# Mechanical properties :
#
#
# Convention : Reuss Voigt Hill
#
# Bulk Modulus (GPa) = 21.20531 27.58744 24.39637
# Shear Modulus (GPa) = 18.48466 22.57019 20.52743
#
# Velocity S-wave (km/s) = 3.15740 3.48892 3.32729
# Velocity P-wave (km/s) = 4.97279 5.57750 5.28381
#
# Compressibility (1/GPa) = 0.04715801
#
# Stress axis : x y z
#
# Youngs Moduli (GPa) = 32.32063 39.24892 36.51976
#
# Poissons Ratio (x) = 0.29565 0.05072
# Poissons Ratio (y) = 0.24346 0.34328
# Poissons Ratio (z) = 0.04489 0.36894
#
# Static dielectric constant tensor:
#      x y z
#    x 3.393380 0.000000 -0.127070 
#    y 0.000000 3.310910 0.000000 
#    z -0.127070 0.000000 3.483240 
# 
# 
# High freq. dielectric constant tensor:
#      x y z
#    x 1.715660 0.000000 -0.002250 
#    y 0.000000 1.715650 0.000000 
#    z -0.002250 0.000000 1.727570 
# 
# From -- ./inp_files/275162.got.cif
#   From: 2010.06.25/outbox.cif.g09.slc.cpg/sg12_138_cif.got.tgz:275162.got - 2010.06.28 00:19:55.
