data_PCOD8099348
_publ_section_title
;
Structure prediction by ZEFSAII (Michael W. Deem and Ramdas Pophale) SiO2 
 PCOD8099348
Probable space group: C 2/M
;
_chemical_formula_sum "Si O2"
_cell_formula_units_Z 48
_cell_length_a 8.909616
_cell_length_b 11.947317
_cell_length_c 24.679726
_cell_angle_alpha 90.000000
_cell_angle_beta 112.537012
_cell_angle_gamma 90.000000
_cell_volume 2426.435443
_symmetry_space_group_name_H-M "C 2/M"
_symmetry_group_IT_number 12
_symmetry_cell_setting 'monoclinic'
loop_
_space_group_symop_operation_xyz
x,y,z
-x,y,-z
-x,-y,-z
x,-y,z
1/2+x,1/2+y,z
1/2-x,1/2+y,-z
1/2-x,1/2-y,-z
1/2+x,1/2-y,z
loop_
_atom_site_type_symbol
_atom_site_label
_atom_site_fract_x
_atom_site_fract_y
_atom_site_fract_z
Si Si1 0.859797 0.125482 0.159545
Si Si2 0.964875 0.322211 0.577111
Si Si3 0.464462 0.875642 0.294502
Si Si4 0.192038 0.632145 0.021792
Si Si5 0.242406 0.879255 0.451590
Si Si6 0.337105 0.225107 0.772482
O O1 0.769639 0.144394 0.091008
O O2 0.730779 0.148318 0.189117
O O3 0.017267 0.202710 0.182894
O O4 0.923697 0.000000 0.174742
O O5 0.919730 0.192240 0.565919
O O6 0.841138 0.389505 0.521478
O O7 0.948267 0.367148 0.635370
O O8 0.147816 0.330987 0.581485
O O9 0.597511 0.849067 0.267534
O O10 0.307822 0.798173 0.271495
O O11 0.400766 0.000000 0.275738
O O12 0.233386 0.500000 0.005444
O O13 0.250000 0.750000 0.000000
O O14 0.000000 0.640439 0.000000
O O15 0.180822 0.000000 0.425407
#
# Coordination Sequence:
#
# PCOD8099348 Si02
#       6
#     8   8   8   8   8   8
#     4  10  20  38  58  79 113 149 182 225 272 320
#     4  10  20  35  56  79 104 137 177 217 267 330
#     4  11  21  36  55  78 107 138 178 228 272 314
#     4  10  21  37  59  88 119 151 188 231 278 329
#     4  10  20  37  55  76 107 139 171 215 272 326
#     4  10  22  36  55  81 106 142 188 222 266 326
#
# _framework density 19.782102999999999
#
# number of rings (size 3 to 8) (size 9 to 14) (size 15 to 20)
#    0.000    1.833    0.000    5.000    0.000    0.333 
#    0.000   18.333    0.000    0.000    0.000    0.000 
#    0.000    0.000    0.000    0.000    0.000    0.000 
#
# Total GULP energy -297348.325451 kJ/mol
# GULP energy per Si atom -12389.513560 kJ/mol
# Density = 1.973708 g / cm^3
# Si number density = 19.782103 Si / 1000 Ang^3
#
#
#
# Elastic Constant Matrix: (Units=GPa)
#
#
# Indices 1 2 3 4 5 6 
#
# 1 40.2117 31.6887 21.3348 0.0000 -1.7874 0.0000
# 2 31.6887 140.2857 35.2126 0.0000 -6.4343 0.0000
# 3 21.3348 35.2126 92.1244 0.0000 -15.4259 0.0000
# 4 0.0000 0.0000 0.0000 542.8554 0.0000 -304.4276
# 5 -1.7874 -6.4343 -15.4259 0.0000 18.9150 0.0000
# 6 0.0000 0.0000 0.0000 -304.4276 0.0000 338.0095
#
#
#
# Elastic Compliance Matrix: (Units=1/GPa)
#
#
# Indices 1 2 3 4 5 6 
#
# 1 0.032588 -0.006063 -0.005859 0.000000 -0.003761 0.000000
# 2 -0.006063 0.009014 -0.001881 0.000000 0.000960 0.000000
# 3 -0.005859 -0.001881 0.014744 0.000000 0.010831 0.000000
# 4 0.000000 0.000000 0.000000 0.003722 0.000000 0.003352
# 5 -0.003761 0.000960 0.010831 0.000000 0.061672 0.000000
# 6 0.000000 0.000000 0.000000 0.003352 0.000000 0.005978
#
#
# Mechanical properties :
#
#
# Convention : Reuss Voigt Hill
#
# Bulk Modulus (GPa) = 34.79443 49.89936 42.34690
# Shear Modulus (GPa) = 30.32075 192.24837 111.28456
#
# Velocity S-wave (km/s) = 3.91926 9.86884 7.50848
# Velocity P-wave (km/s) = 6.17316 12.45543 9.82969
#
# Compressibility (1/GPa) = 0.02874023
#
# Stress axis : x y z
#
# Youngs Moduli (GPa) = 30.68635 110.93974 67.82294
#
# Poissons Ratio (x) = 0.67262 0.39740
# Poissons Ratio (y) = 0.18605 0.12755
# Poissons Ratio (z) = 0.17980 0.20863
#
# Static dielectric constant tensor:
#      x y z
#    x 3.540400 0.000000 -0.119020 
#    y 0.000000 4.165490 0.000000 
#    z -0.119020 0.000000 3.586960 
# 
# 
# High freq. dielectric constant tensor:
#      x y z
#    x 1.765900 0.000000 -0.000120 
#    y 0.000000 1.788700 0.000000 
#    z -0.000120 0.000000 1.773750 
# 
# From -- ./inp_files/332035.got.cif
#   From: 2010.06.25/outbox.cif.g09.slc.cpg/sg12_167_cif.got.tgz:332035.got - 2010.06.28 00:19:55.
