data_PCOD8099015
_publ_section_title
;
Structure prediction by ZEFSAII (Michael W. Deem and Ramdas Pophale) SiO2 
 PCOD8099015
Probable space group: C 2/M
;
_chemical_formula_sum "Si O2"
_cell_formula_units_Z 52
_cell_length_a 16.709813
_cell_length_b 21.184597
_cell_length_c 11.986211
_cell_angle_alpha 90.000000
_cell_angle_beta 43.069642
_cell_angle_gamma 90.000000
_cell_volume 2897.493265
_symmetry_space_group_name_H-M "C 2/M"
_symmetry_group_IT_number 12
_symmetry_cell_setting 'monoclinic'
loop_
_space_group_symop_operation_xyz
x,y,z
-x,y,-z
-x,-y,-z
x,-y,z
1/2+x,1/2+y,z
1/2-x,1/2+y,-z
1/2-x,1/2-y,-z
1/2+x,1/2-y,z
loop_
_atom_site_type_symbol
_atom_site_label
_atom_site_fract_x
_atom_site_fract_y
_atom_site_fract_z
Si Si1 0.875076 0.295685 0.674426
Si Si2 0.056730 0.364639 0.181438
Si Si3 0.194439 0.685234 0.602824
Si Si4 0.313722 0.204289 0.131551
Si Si5 0.966775 0.500000 0.713061
Si Si6 0.206416 0.873151 0.692880
Si Si7 0.000000 0.196563 0.000000
Si Si8 0.194103 0.500000 0.327963
O O1 0.883907 0.347833 0.761452
O O2 0.809155 0.233221 0.787174
O O3 0.798714 0.324177 0.652071
O O4 0.000000 0.275158 0.500000
O O5 0.029216 0.439031 0.211124
O O6 0.943160 0.320601 0.283643
O O7 0.147001 0.352804 0.988036
O O8 0.250000 0.750000 0.500000
O O9 0.206521 0.678618 0.723080
O O10 0.263606 0.627977 0.470183
O O11 0.411776 0.259108 0.021196
O O12 0.849945 0.500000 0.755065
O O13 0.081546 0.500000 0.520787
O O14 0.222585 0.940881 0.731975
O O15 0.073814 0.848718 0.842905
#
# Coordination Sequence:
#
# PCOD8099015 Si02
#       8
#     8   8   8   8   4   8   4   4
#     4  11  19  34  57  86 109 145 185 233 284 339
#     4  12  21  36  54  87 115 145 191 231 284 332
#     4  12  19  35  58  78 114 152 179 228 283 342
#     4  11  22  36  55  84 120 148 180 232 287 339
#     4  11  22  34  58  81 112 152 184 240 276 334
#     4  11  21  34  58  82 112 144 190 224 286 334
#     4  10  20  35  54  83 112 148 172 232 284 332
#     4  11  20  37  55  82 112 145 192 235 278 326
#
# _framework density 17.946546999999999
#
# number of rings (size 3 to 8) (size 9 to 14) (size 15 to 20)
#    0.000    0.769    9.231    0.462    0.000    0.308 
#    0.000    2.308    0.000    0.000    0.000    0.538 
#    0.000    0.000    0.000    0.000    0.000    0.000 
#
# Total GULP energy -322338.331089 kJ/mol
# GULP energy per Si atom -12397.628119 kJ/mol
# Density = 1.790570 g / cm^3
# Si number density = 17.946547 Si / 1000 Ang^3
#
#
#
# Elastic Constant Matrix: (Units=GPa)
#
#
# Indices 1 2 3 4 5 6 
#
# 1 50.6352 25.7495 34.8965 -0.0001 -5.4992 0.0000
# 2 25.7495 85.1110 39.8810 0.0000 -3.5262 0.0000
# 3 34.8965 39.8810 125.9713 -0.0001 -0.7517 0.0001
# 4 -0.0001 0.0000 -0.0001 23.3941 0.0001 4.3097
# 5 -5.4992 -3.5262 -0.7517 0.0001 26.2675 -0.0001
# 6 0.0000 0.0000 0.0001 4.3097 -0.0001 19.0325
#
#
#
# Elastic Compliance Matrix: (Units=1/GPa)
#
#
# Indices 1 2 3 4 5 6 
#
# 1 0.026905 -0.005241 -0.005766 0.000000 0.004764 0.000000
# 2 -0.005241 0.014896 -0.003259 0.000000 0.000809 0.000000
# 3 -0.005766 -0.003259 0.010559 0.000000 -0.001342 0.000000
# 4 0.000000 0.000000 0.000000 0.044607 0.000000 -0.010101
# 5 0.004764 0.000809 -0.001342 0.000000 0.039137 0.000000
# 6 0.000000 0.000000 0.000000 -0.010101 0.000000 0.054829
#
#
# Mechanical properties :
#
#
# Convention : Reuss Voigt Hill
#
# Bulk Modulus (GPa) = 41.96601 51.41908 46.69254
# Shear Modulus (GPa) = 21.98702 24.48487 23.23594
#
# Velocity S-wave (km/s) = 3.50400 3.69768 3.60214
# Velocity P-wave (km/s) = 6.30914 6.85156 6.58594
#
# Compressibility (1/GPa) = 0.02382881
#
# Stress axis : x y z
#
# Youngs Moduli (GPa) = 37.16759 67.13389 94.70331
#
# Poissons Ratio (x) = 0.35184 0.54602
# Poissons Ratio (y) = 0.19479 0.30865
# Poissons Ratio (z) = 0.21429 0.21880
#
# Static dielectric constant tensor:
#      x y z
#    x 3.296030 0.000000 -0.027080 
#    y 0.000000 3.276690 0.000000 
#    z -0.027080 0.000000 3.628210 
# 
# 
# High freq. dielectric constant tensor:
#      x y z
#    x 1.678760 0.000000 -0.001840 
#    y 0.000000 1.672630 0.000000 
#    z -0.001840 0.000000 1.706060 
# 
# From -- ./inp_files/159498.got.cif
#   From: 2010.06.25/outbox.cif.g09.slc.cpg/sg12_80_cif.got.tgz:159498.got - 2010.06.28 00:19:55.
