data_PCOD8099122
_publ_section_title
;
Structure prediction by ZEFSAII (Michael W. Deem and Ramdas Pophale) SiO2 
 PCOD8099122
Probable space group: C 2/M
;
_chemical_formula_sum "Si O2"
_cell_formula_units_Z 64
_cell_length_a 19.155297
_cell_length_b 9.008996
_cell_length_c 31.095063
_cell_angle_alpha 90.000000
_cell_angle_beta 39.474875
_cell_angle_gamma 90.000000
_cell_volume 3411.427295
_symmetry_space_group_name_H-M "C 2/M"
_symmetry_group_IT_number 12
_symmetry_cell_setting 'monoclinic'
loop_
_space_group_symop_operation_xyz
x,y,z
-x,y,-z
-x,-y,-z
x,-y,z
1/2+x,1/2+y,z
1/2-x,1/2+y,-z
1/2-x,1/2-y,-z
1/2+x,1/2-y,z
loop_
_atom_site_type_symbol
_atom_site_label
_atom_site_fract_x
_atom_site_fract_y
_atom_site_fract_z
Si Si1 0.050683 0.172902 0.704681
Si Si2 0.202444 0.825321 0.178805
Si Si3 0.913216 0.829235 0.921254
Si Si4 0.875303 0.168686 0.551582
Si Si5 0.164966 0.825624 0.808197
Si Si6 0.729629 0.827199 0.077211
Si Si7 0.308245 0.171082 0.293133
Si Si8 0.764728 0.827776 0.448174
O O1 0.091457 0.265605 0.726311
O O2 0.120355 0.216813 0.629214
O O3 0.925506 0.213748 0.754385
O O4 0.066127 0.000000 0.708675
O O5 0.268757 0.752430 0.185707
O O6 0.246132 0.759805 0.113469
O O7 0.223180 0.000000 0.169304
O O8 0.876970 0.730978 0.897755
O O9 0.036690 0.788734 0.875429
O O10 0.901884 0.000000 0.912321
O O11 0.838488 0.794243 0.997935
O O12 0.807015 0.190239 0.627679
O O13 0.834886 0.280594 0.534680
O O14 0.000000 0.211870 0.500000
O O15 0.863236 0.000000 0.540514
O O16 0.205935 0.762695 0.743539
O O17 0.187963 0.000000 0.798886
O O18 0.713649 0.000000 0.094543
O O19 0.333733 0.000000 0.270561
O O20 0.750000 0.750000 0.500000
O O21 0.758417 0.000000 0.459930
#
# Coordination Sequence:
#
# PCOD8099122 Si02
#       8
#     8   8   8   8   8   8   8   8
#     4   9  20  38  57  76 104 143 179 215 263 318
#     4  11  23  38  55  78 109 142 178 219 266 316
#     4   9  20  38  58  80 108 143 178 213 259 316
#     4   9  19  36  56  78 107 142 176 213 263 319
#     4  11  23  38  55  77 109 145 178 215 264 317
#     4  10  20  36  59  84 108 137 177 220 261 310
#     4  10  20  35  57  82 106 136 178 223 262 309
#     4  10  20  35  55  79 107 139 177 219 264 313
#
# _framework density 18.760475
#
# number of rings (size 3 to 8) (size 9 to 14) (size 15 to 20)
#    0.000    2.125    0.000    2.625    0.000    8.250 
#    0.000    7.500    0.000    0.000    0.000    0.000 
#    0.000    0.000    0.000    0.000    0.000    0.000 
#
# Total GULP energy -396934.463481 kJ/mol
# GULP energy per Si atom -12404.201984 kJ/mol
# Density = 1.871778 g / cm^3
# Si number density = 18.760475 Si / 1000 Ang^3
#
#
#
# Elastic Constant Matrix: (Units=GPa)
#
#
# Indices 1 2 3 4 5 6 
#
# 1 151.0436 78.0245 80.8586 0.0020 7.3627 0.0146
# 2 78.0245 98.0981 55.9116 0.0040 8.5477 0.0068
# 3 80.8586 55.9116 98.8889 0.0005 4.2028 -0.0008
# 4 0.0020 0.0040 0.0005 32.4189 0.0001 5.1541
# 5 7.3627 8.5477 4.2028 0.0001 35.6308 0.0026
# 6 0.0146 0.0068 -0.0008 5.1541 0.0026 41.6736
#
#
#
# Elastic Compliance Matrix: (Units=1/GPa)
#
#
# Indices 1 2 3 4 5 6 
#
# 1 0.014450 -0.006986 -0.007849 0.000001 -0.000384 -0.000004
# 2 -0.006986 0.018665 -0.004736 -0.000002 -0.002476 0.000000
# 3 -0.007849 -0.004736 0.019187 0.000000 0.000495 0.000004
# 4 0.000001 -0.000002 0.000000 0.031465 0.000000 -0.003892
# 5 -0.000384 -0.002476 0.000495 0.000000 0.028680 -0.000001
# 6 -0.000004 0.000000 0.000004 -0.003892 -0.000001 0.024477
#
#
# Mechanical properties :
#
#
# Convention : Reuss Voigt Hill
#
# Bulk Modulus (GPa) = 75.98628 86.40222 81.19425
# Shear Modulus (GPa) = 27.70794 30.82705 29.26750
#
# Velocity S-wave (km/s) = 3.84726 4.05803 3.95405
# Velocity P-wave (km/s) = 7.76701 8.25301 8.01370
#
# Compressibility (1/GPa) = 0.01316027
#
# Stress axis : x y z
#
# Youngs Moduli (GPa) = 69.20431 53.57546 52.11859
#
# Poissons Ratio (x) = 0.37428 0.40909
# Poissons Ratio (y) = 0.48346 0.24683
# Poissons Ratio (z) = 0.54319 0.25373
#
# Static dielectric constant tensor:
#      x y z
#    x 3.336870 -0.000280 0.022400 
#    y -0.000280 3.525200 0.000080 
#    z 0.022400 0.000080 3.620170 
# 
# 
# High freq. dielectric constant tensor:
#      x y z
#    x 1.724030 0.000000 0.001470 
#    y 0.000000 1.738860 0.000000 
#    z 0.001470 0.000000 1.739130 
# 
# From -- ./inp_files/378220.got.cif
#   From: 2010.06.25/outbox.cif.g09.slc.cpg/sg12_190_cif.got.tgz:378220.got - 2010.06.28 00:19:55.
