data_PCOD8099953
_publ_section_title
;
Structure prediction by ZEFSAII (Michael W. Deem and Ramdas Pophale) SiO2 
 PCOD8099953
Probable space group: C 2/M
;
_chemical_formula_sum "Si O2"
_cell_formula_units_Z 64
_cell_length_a 15.035036
_cell_length_b 8.971681
_cell_length_c 23.988103
_cell_angle_alpha 90.000000
_cell_angle_beta 91.131605
_cell_angle_gamma 90.000000
_cell_volume 3235.113277
_symmetry_space_group_name_H-M "C 2/M"
_symmetry_group_IT_number 12
_symmetry_cell_setting 'monoclinic'
loop_
_space_group_symop_operation_xyz
x,y,z
-x,y,-z
-x,-y,-z
x,-y,z
1/2+x,1/2+y,z
1/2-x,1/2+y,-z
1/2-x,1/2-y,-z
1/2+x,1/2-y,z
loop_
_atom_site_type_symbol
_atom_site_label
_atom_site_fract_x
_atom_site_fract_y
_atom_site_fract_z
Si Si1 0.103036 0.669656 0.603430
Si Si2 0.605528 0.667401 0.004524
Si Si3 0.236577 0.173988 0.316014
Si Si4 0.654500 0.323452 0.495876
Si Si5 0.238265 0.826425 0.188326
Si Si6 0.594659 0.824342 0.115828
Si Si7 0.905496 0.670309 0.615150
Si Si8 0.108684 0.325517 0.893624
O O1 0.121951 0.500000 0.584312
O O2 0.178829 0.725048 0.646635
O O3 0.099076 0.774376 0.549246
O O4 0.008857 0.680008 0.633924
O O5 0.643017 0.500000 0.008696
O O6 0.635965 0.755533 0.059863
O O7 0.500000 0.670150 0.000000
O O8 0.644256 0.744958 0.949782
O O9 0.257200 0.213483 0.252540
O O10 0.150854 0.265703 0.334412
O O11 0.216765 0.000000 0.323816
O O12 0.662849 0.500000 0.493999
O O13 0.750000 0.250000 0.500000
O O14 0.606388 0.268016 0.440027
O O15 0.151511 0.736133 0.168142
O O16 0.326493 0.778423 0.155752
O O17 0.217795 0.000000 0.179523
O O18 0.491785 0.775866 0.123265
O O19 0.603970 0.000000 0.112290
O O20 0.876904 0.500000 0.602803
O O21 0.111181 0.500000 0.905886
#
# Coordination Sequence:
#
# PCOD8099953 Si02
#       8
#     8   8   8   8   8   8   8   8
#     4  10  22  40  62  88 119 155 194 236 288 346
#     4   9  17  31  54  83 114 146 182 227 283 341
#     4  10  22  41  61  81 112 154 195 239 289 340
#     4  12  23  37  61  91 124 157 191 234 289 344
#     4  10  22  39  58  81 110 149 195 237 285 338
#     4  10  20  35  57  84 113 146 186 233 286 341
#     4  11  23  39  62  91 120 153 194 238 287 344
#     4   9  19  36  57  81 112 148 188 231 281 343
#
# _framework density 19.782924000000001
#
# number of rings (size 3 to 8) (size 9 to 14) (size 15 to 20)
#    0.000    1.875    1.250    2.625    0.000    7.000 
#    0.000    2.500    0.000    0.000    0.000    0.000 
#    0.000    0.000    0.000    0.000    0.000    0.000 
#
# Total GULP energy -396914.510132 kJ/mol
# GULP energy per Si atom -12403.578442 kJ/mol
# Density = 1.973790 g / cm^3
# Si number density = 19.782924 Si / 1000 Ang^3
#
#
#
# Elastic Constant Matrix: (Units=GPa)
#
#
# Indices 1 2 3 4 5 6 
#
# 1 91.4453 35.7195 40.5787 0.0000 -15.9640 0.0000
# 2 35.7195 92.2867 45.9046 0.0000 -8.1766 0.0000
# 3 40.5787 45.9046 121.0010 0.0000 -16.8120 0.0000
# 4 0.0000 0.0000 0.0000 32.8299 0.0000 -0.5481
# 5 -15.9640 -8.1766 -16.8120 0.0000 25.7351 0.0000
# 6 0.0000 0.0000 0.0000 -0.5481 0.0000 28.8353
#
#
#
# Elastic Compliance Matrix: (Units=1/GPa)
#
#
# Indices 1 2 3 4 5 6 
#
# 1 0.014668 -0.003833 -0.002606 0.000000 0.006178 0.000000
# 2 -0.003833 0.014383 -0.004252 0.000000 -0.000586 0.000000
# 3 -0.002606 -0.004252 0.011371 0.000000 0.004461 0.000000
# 4 0.000000 0.000000 0.000000 0.030470 0.000000 0.000579
# 5 0.006178 -0.000586 0.004461 0.000000 0.045418 0.000000
# 6 0.000000 0.000000 0.000000 0.000579 0.000000 0.034691
#
#
# Mechanical properties :
#
#
# Convention : Reuss Voigt Hill
#
# Bulk Modulus (GPa) = 52.52632 61.01540 56.77086
# Shear Modulus (GPa) = 27.97509 29.64875 28.81192
#
# Velocity S-wave (km/s) = 3.76454 3.87551 3.82043
# Velocity P-wave (km/s) = 6.74571 7.13691 6.94407
#
# Compressibility (1/GPa) = 0.01903807
#
# Stress axis : x y z
#
# Youngs Moduli (GPa) = 68.17572 69.52779 87.93951
#
# Poissons Ratio (x) = 0.26653 0.22920
# Poissons Ratio (y) = 0.26135 0.37395
# Poissons Ratio (z) = 0.17769 0.29565
#
# Static dielectric constant tensor:
#      x y z
#    x 3.678900 0.000000 -0.023010 
#    y 0.000000 3.646370 0.000000 
#    z -0.023010 0.000000 3.614570 
# 
# 
# High freq. dielectric constant tensor:
#      x y z
#    x 1.775060 0.000000 -0.001820 
#    y 0.000000 1.771250 0.000000 
#    z -0.001820 0.000000 1.765120 
# 
# From -- ./inp_files/338673.got.cif
#   From: 2010.06.25/outbox.cif.g09.slc.cpg/sg12_170_cif.got.tgz:338673.got - 2010.06.28 00:19:55.
