data_PCOD8099972
_publ_section_title
;
Structure prediction by ZEFSAII (Michael W. Deem and Ramdas Pophale) SiO2 
 PCOD8099972
Probable space group: C 2/M
;
_chemical_formula_sum "Si O2"
_cell_formula_units_Z 64
_cell_length_a 30.273408
_cell_length_b 9.194128
_cell_length_c 22.705595
_cell_angle_alpha 90.000000
_cell_angle_beta 148.585826
_cell_angle_gamma 90.000000
_cell_volume 3294.021732
_symmetry_space_group_name_H-M "C 2/M"
_symmetry_group_IT_number 12
_symmetry_cell_setting 'monoclinic'
loop_
_space_group_symop_operation_xyz
x,y,z
-x,y,-z
-x,-y,-z
x,-y,z
1/2+x,1/2+y,z
1/2-x,1/2+y,-z
1/2-x,1/2-y,-z
1/2+x,1/2-y,z
loop_
_atom_site_type_symbol
_atom_site_label
_atom_site_fract_x
_atom_site_fract_y
_atom_site_fract_z
Si Si1 0.370799 0.170361 0.000592
Si Si2 0.677152 0.330861 0.767255
Si Si3 0.498449 0.828503 0.754162
Si Si4 0.914340 0.170052 0.935667
Si Si5 0.472921 0.172894 0.344668
Si Si6 0.294727 0.833766 0.714956
Si Si7 0.673053 0.828436 0.381518
Si Si8 0.378924 0.665107 0.427808
O O1 0.272663 0.214891 0.892273
O O2 0.418795 0.254759 0.003813
O O3 0.380695 0.000000 0.998680
O O4 0.417265 0.216027 0.113986
O O5 0.661030 0.500000 0.762214
O O6 0.618172 0.234400 0.741526
O O7 0.660151 0.294185 0.679805
O O8 0.505484 0.767193 0.696003
O O9 0.414243 0.767249 0.690211
O O10 0.490220 0.000000 0.742232
O O11 0.835848 0.229041 0.809326
O O12 0.902117 0.000000 0.930750
O O13 0.000000 0.210508 0.000000
O O14 0.543259 0.229109 0.470299
O O15 0.470187 0.000000 0.344090
O O16 0.325610 0.787467 0.685684
O O17 0.193300 0.814961 0.604787
O O18 0.320236 0.000000 0.758574
O O19 0.750000 0.750000 0.500000
O O20 0.683497 0.000000 0.402481
O O21 0.413449 0.500000 0.466821
#
# Coordination Sequence:
#
# PCOD8099972 Si02
#       8
#     8   8   8   8   8   8   8   8
#     4  10  20  40  65  83 108 152 196 238 284 339
#     4  10  21  38  60  85 112 145 190 244 294 336
#     4   9  20  38  58  83 115 150 193 239 281 334
#     4  11  23  36  53  84 121 150 180 229 287 338
#     4  11  23  37  56  84 116 153 193 233 289 352
#     4  10  20  36  59  85 109 148 198 234 276 342
#     4  10  20  35  57  84 115 151 194 238 281 335
#     4  10  20  37  58  85 116 144 188 244 289 338
#
# _framework density 19.429137000000001
#
# number of rings (size 3 to 8) (size 9 to 14) (size 15 to 20)
#    0.000    1.875    1.250    2.625    0.000    6.000 
#    0.000    2.500    0.000    0.000    0.000    0.000 
#    0.000    0.000    0.000    0.000    0.000    0.000 
#
# Total GULP energy -396926.352920 kJ/mol
# GULP energy per Si atom -12403.948529 kJ/mol
# Density = 1.938492 g / cm^3
# Si number density = 19.429137 Si / 1000 Ang^3
#
#
#
# Elastic Constant Matrix: (Units=GPa)
#
#
# Indices 1 2 3 4 5 6 
#
# 1 119.8019 34.3288 46.6929 0.0000 10.0737 0.0000
# 2 34.3288 47.3346 33.8329 0.0000 5.7056 0.0000
# 3 46.6929 33.8329 129.2216 0.0000 4.0421 0.0000
# 4 0.0000 0.0000 0.0000 28.6203 0.0000 3.3890
# 5 10.0737 5.7056 4.0421 0.0000 30.1655 0.0000
# 6 0.0000 0.0000 0.0000 3.3890 0.0000 29.7589
#
#
#
# Elastic Compliance Matrix: (Units=1/GPa)
#
#
# Indices 1 2 3 4 5 6 
#
# 1 0.011232 -0.006179 -0.002370 0.000000 -0.002265 0.000000
# 2 -0.006179 0.029884 -0.005502 0.000000 -0.002852 0.000000
# 3 -0.002370 -0.005502 0.010020 0.000000 0.000489 0.000000
# 4 0.000000 0.000000 0.000000 0.035418 0.000000 -0.004033
# 5 -0.002265 -0.002852 0.000489 0.000000 0.034380 0.000000
# 6 0.000000 0.000000 0.000000 -0.004033 0.000000 0.034063
#
#
# Mechanical properties :
#
#
# Convention : Reuss Voigt Hill
#
# Bulk Modulus (GPa) = 43.41443 58.45191 50.93317
# Shear Modulus (GPa) = 26.20861 29.80917 28.00889
#
# Velocity S-wave (km/s) = 3.67677 3.92120 3.80095
# Velocity P-wave (km/s) = 6.35754 7.11696 6.74794
#
# Compressibility (1/GPa) = 0.02303382
#
# Stress axis : x y z
#
# Youngs Moduli (GPa) = 89.03366 33.46282 99.79722
#
# Poissons Ratio (x) = 0.20676 0.23651
# Poissons Ratio (y) = 0.55012 0.54912
# Poissons Ratio (z) = 0.21100 0.18413
#
# Static dielectric constant tensor:
#      x y z
#    x 3.929390 0.000000 -0.147010 
#    y 0.000000 3.360540 0.000000 
#    z -0.147010 0.000000 3.868070 
# 
# 
# High freq. dielectric constant tensor:
#      x y z
#    x 1.767220 0.000000 0.004840 
#    y 0.000000 1.737370 0.000000 
#    z 0.004840 0.000000 1.763460 
# 
# From -- ./inp_files/353435.got.cif
#   From: 2010.06.25/outbox.cif.g09.slc.cpg/sg12_177_cif.got.tgz:353435.got - 2010.06.28 00:19:55.
