data_PCOD8099469
_publ_section_title
;
Structure prediction by ZEFSAII (Michael W. Deem and Ramdas Pophale) SiO2 
 PCOD8099469
Probable space group: C 2/M
;
_chemical_formula_sum "Si O2"
_cell_formula_units_Z 48
_cell_length_a 18.323947
_cell_length_b 8.948173
_cell_length_c 15.320336
_cell_angle_alpha 90.000000
_cell_angle_beta 87.763350
_cell_angle_gamma 90.000000
_cell_volume 2510.098121
_symmetry_space_group_name_H-M "C 2/M"
_symmetry_group_IT_number 12
_symmetry_cell_setting 'monoclinic'
loop_
_space_group_symop_operation_xyz
x,y,z
-x,y,-z
-x,-y,-z
x,-y,z
1/2+x,1/2+y,z
1/2-x,1/2+y,-z
1/2-x,1/2-y,-z
1/2+x,1/2-y,z
loop_
_atom_site_type_symbol
_atom_site_label
_atom_site_fract_x
_atom_site_fract_y
_atom_site_fract_z
Si Si1 0.671174 0.825458 0.097380
Si Si2 0.827566 0.827835 0.395402
Si Si3 0.157739 0.672908 0.429770
Si Si4 0.076691 0.322796 0.263575
Si Si5 0.660285 0.326089 0.918110
Si Si6 0.087107 0.677151 0.761803
O O1 0.625960 0.762830 0.181659
O O2 0.756111 0.794985 0.112531
O O3 0.656745 0.000000 0.080339
O O4 0.643899 0.733735 0.015313
O O5 0.862237 0.765932 0.483139
O O6 0.741181 0.803790 0.398593
O O7 0.857735 0.737448 0.312623
O O8 0.849144 0.000000 0.384157
O O9 0.141057 0.500000 0.450489
O O10 0.107976 0.737285 0.353952
O O11 0.082262 0.500000 0.263797
O O12 0.994228 0.266351 0.256734
O O13 0.641436 0.500000 0.914920
O O14 0.607761 0.239084 0.855198
O O15 0.091364 0.500000 0.763629
#
# Coordination Sequence:
#
# PCOD8099469 Si02
#       6
#     8   8   8   8   8   8
#     4   9  18  36  59  79 102 136 178 218 256 306
#     4  10  20  35  56  81 107 135 171 219 268 309
#     4   9  18  36  59  79 102 136 178 218 256 306
#     4   9  19  35  55  77 102 139 182 216 250 303
#     4  10  20  35  56  81 107 135 171 219 268 309
#     4  11  22  35  53  77 106 141 178 214 256 311
#
# _framework density 19.12276
#
# number of rings (size 3 to 8) (size 9 to 14) (size 15 to 20)
#    0.000    2.333    0.000    2.500    0.000    5.333 
#    0.000   10.833    0.000    0.000    0.000    0.000 
#    0.000    0.000    0.000    0.000    0.000    0.000 
#
# Total GULP energy -297685.267896 kJ/mol
# GULP energy per Si atom -12403.552829 kJ/mol
# Density = 1.907924 g / cm^3
# Si number density = 19.122760 Si / 1000 Ang^3
#
#
#
# Elastic Constant Matrix: (Units=GPa)
#
#
# Indices 1 2 3 4 5 6 
#
# 1 56.5544 31.5258 38.1650 0.0000 27.1946 0.0000
# 2 31.5258 67.2157 38.2831 0.0000 15.4108 0.0000
# 3 38.1650 38.2831 107.0175 0.0000 31.1897 0.0000
# 4 0.0000 0.0000 0.0000 33.3410 0.0000 -3.3224
# 5 27.1946 15.4108 31.1897 0.0000 28.2641 0.0000
# 6 0.0000 0.0000 0.0000 -3.3224 0.0000 17.8943
#
#
#
# Elastic Compliance Matrix: (Units=1/GPa)
#
#
# Indices 1 2 3 4 5 6 
#
# 1 0.039094 -0.010639 -0.001274 0.000000 -0.030409 0.000000
# 2 -0.010639 0.021915 -0.005228 0.000000 0.004056 0.000000
# 3 -0.001274 -0.005228 0.015449 0.000000 -0.012973 0.000000
# 4 0.000000 0.000000 0.000000 0.030558 0.000000 0.005674
# 5 -0.030409 0.004056 -0.012973 0.000000 0.076743 0.000000
# 6 0.000000 0.000000 0.000000 0.005674 0.000000 0.056937
#
#
# Mechanical properties :
#
#
# Convention : Reuss Voigt Hill
#
# Bulk Modulus (GPa) = 23.70884 49.63725 36.67304
# Shear Modulus (GPa) = 17.29886 24.08748 20.69317
#
# Velocity S-wave (km/s) = 3.01096 3.55297 3.29313
# Velocity P-wave (km/s) = 4.95106 6.54561 5.80336
#
# Compressibility (1/GPa) = 0.04217837
#
# Stress axis : x y z
#
# Youngs Moduli (GPa) = 25.57912 45.63131 64.72744
#
# Poissons Ratio (x) = 0.48546 0.08244
# Poissons Ratio (y) = 0.27213 0.33837
# Poissons Ratio (z) = 0.03258 0.23854
#
# Static dielectric constant tensor:
#      x y z
#    x 3.498120 0.000000 0.094810 
#    y 0.000000 3.375800 0.000000 
#    z 0.094810 0.000000 3.646890 
# 
# 
# High freq. dielectric constant tensor:
#      x y z
#    x 1.737070 0.000000 0.004970 
#    y 0.000000 1.730500 0.000000 
#    z 0.004970 0.000000 1.759030 
# 
# From -- ./inp_files/221718.got.cif
#   From: 2010.06.25/outbox.cif.g09.slc.cpg/sg12_111_cif.got.tgz:221718.got - 2010.06.28 00:19:55.
