data_PCOD8099711
_publ_section_title
;
Structure prediction by ZEFSAII (Michael W. Deem and Ramdas Pophale) SiO2 
 PCOD8099711
Probable space group: C 2/M
;
_chemical_formula_sum "Si O2"
_cell_formula_units_Z 64
_cell_length_a 25.100034
_cell_length_b 19.166673
_cell_length_c 22.071121
_cell_angle_alpha 90.000000
_cell_angle_beta 18.072506
_cell_angle_gamma 90.000000
_cell_volume 3293.939502
_symmetry_space_group_name_H-M "C 2/M"
_symmetry_group_IT_number 12
_symmetry_cell_setting 'monoclinic'
loop_
_space_group_symop_operation_xyz
x,y,z
-x,y,-z
-x,-y,-z
x,-y,z
1/2+x,1/2+y,z
1/2-x,1/2+y,-z
1/2-x,1/2-y,-z
1/2+x,1/2-y,z
loop_
_atom_site_type_symbol
_atom_site_label
_atom_site_fract_x
_atom_site_fract_y
_atom_site_fract_z
Si Si1 0.361139 0.581088 0.395727
Si Si2 0.409425 0.920938 0.415840
Si Si3 0.671650 0.677652 0.892529
Si Si4 0.279504 0.314296 0.298815
Si Si5 0.780039 0.079519 0.053253
Si Si6 0.146779 0.163330 0.474202
Si Si7 0.859597 0.187167 0.702787
Si Si8 0.309032 0.081221 0.195162
O O1 0.368929 0.500000 0.408390
O O2 0.196189 0.593664 0.531302
O O3 0.330460 0.634917 0.483185
O O4 0.542019 0.603687 0.170184
O O5 0.353659 0.865884 0.526261
O O6 0.616492 0.911474 0.184364
O O7 0.368833 0.000000 0.481612
O O8 0.747615 0.672734 0.742968
O O9 0.757347 0.621880 0.844755
O O10 0.715776 0.754613 0.868335
O O11 0.469467 0.664685 0.112986
O O12 0.251931 0.234258 0.348674
O O13 0.800350 0.000000 0.051734
O O14 0.203254 0.101711 0.368474
O O15 0.947545 0.177061 0.673215
O O16 0.765964 0.116411 0.784015
O O17 0.000000 0.209850 0.500000
O O18 0.299360 0.000000 0.193657
O O19 0.500000 0.108313 0.000000
#
# Coordination Sequence:
#
# PCOD8099711 Si02
#       8
#     8   8   8   8   8   8   8   8
#     4  10  22  44  63  86 123 162 206 254 299 354
#     4  10  22  42  64  88 121 160 202 257 305 359
#     4  11  21  38  61  89 126 161 192 254 308 361
#     4  11  22  37  63  90 122 159 202 246 312 368
#     4  10  22  41  65  90 120 159 206 251 304 362
#     4  11  22  37  61  87 120 159 203 246 305 357
#     4  10  20  35  56  84 118 154 193 246 302 361
#     4  10  20  36  57  85 119 155 199 251 307 364
#
# _framework density 19.429621999999998
#
# number of rings (size 3 to 8) (size 9 to 14) (size 15 to 20)
#    0.000    1.625    3.750    1.875    0.000    3.750 
#    4.500    3.750    0.000    0.000    0.000    0.000 
#    0.000    0.000    0.000    0.000    0.000    0.000 
#
# Total GULP energy -396724.273105 kJ/mol
# GULP energy per Si atom -12397.633535 kJ/mol
# Density = 1.938540 g / cm^3
# Si number density = 19.429622 Si / 1000 Ang^3
#
#
#
# Elastic Constant Matrix: (Units=GPa)
#
#
# Indices 1 2 3 4 5 6 
#
# 1 118.2704 43.4876 36.7274 -0.0310 -11.6913 0.1175
# 2 43.4876 66.9026 23.8412 0.5272 1.9183 0.2523
# 3 36.7274 23.8412 52.3268 -0.3749 -15.5602 0.0864
# 4 -0.0310 0.5272 -0.3749 17.3385 -0.2889 -10.4942
# 5 -11.6913 1.9183 -15.5602 -0.2889 31.1880 -0.1257
# 6 0.1175 0.2523 0.0864 -10.4942 -0.1257 23.3607
#
#
#
# Elastic Compliance Matrix: (Units=1/GPa)
#
#
# Indices 1 2 3 4 5 6 
#
# 1 0.012708 -0.006484 -0.005199 0.000239 0.002571 0.000146
# 2 -0.006484 0.022207 -0.007880 -0.001537 -0.007746 -0.000910
# 3 -0.005199 -0.007880 0.030448 0.001595 0.013744 0.000789
# 4 0.000239 -0.001537 0.001595 0.079384 0.001859 0.035681
# 5 0.002571 -0.007746 0.013744 0.001859 0.040383 0.001072
# 6 0.000146 -0.000910 0.000789 0.035681 0.001072 0.058848
#
#
# Mechanical properties :
#
#
# Convention : Reuss Voigt Hill
#
# Bulk Modulus (GPa) = 38.11485 49.51247 43.81366
# Shear Modulus (GPa) = 17.13215 23.27366 20.20290
#
# Velocity S-wave (km/s) = 2.97266 3.46474 3.22809
# Velocity P-wave (km/s) = 5.60729 6.44548 6.04094
#
# Compressibility (1/GPa) = 0.02623649
#
# Stress axis : x y z
#
# Youngs Moduli (GPa) = 78.69128 45.03009 32.84335
#
# Poissons Ratio (x) = 0.29196 0.17076
# Poissons Ratio (y) = 0.51021 0.25881
# Poissons Ratio (z) = 0.40914 0.35485
#
# Static dielectric constant tensor:
#      x y z
#    x 3.641590 -0.000560 -0.330150 
#    y -0.000560 3.513040 0.000540 
#    z -0.330150 0.000540 3.613270 
# 
# 
# High freq. dielectric constant tensor:
#      x y z
#    x 1.751890 -0.000020 -0.029300 
#    y -0.000020 1.761420 0.000030 
#    z -0.029300 0.000030 1.752860 
# 
# From -- ./inp_files/326107.got.cif
#   From: 2010.06.25/outbox.cif.g09.slc.cpg/sg12_164_cif.got.tgz:326107.got - 2010.06.28 00:19:55.
