data_PCOD8099839
_publ_section_title
;
Structure prediction by ZEFSAII (Michael W. Deem and Ramdas Pophale) SiO2 
 PCOD8099839
Probable space group: C 2/M
;
_chemical_formula_sum "Si O2"
_cell_formula_units_Z 32
_cell_length_a 20.725647
_cell_length_b 8.872126
_cell_length_c 17.923654
_cell_angle_alpha 90.000000
_cell_angle_beta 149.991132
_cell_angle_gamma 90.000000
_cell_volume 1648.347442
_symmetry_space_group_name_H-M "C 2/M"
_symmetry_group_IT_number 12
_symmetry_cell_setting 'monoclinic'
loop_
_space_group_symop_operation_xyz
x,y,z
-x,y,-z
-x,-y,-z
x,-y,z
1/2+x,1/2+y,z
1/2-x,1/2+y,-z
1/2-x,1/2-y,-z
1/2+x,1/2-y,z
loop_
_atom_site_type_symbol
_atom_site_label
_atom_site_fract_x
_atom_site_fract_y
_atom_site_fract_z
Si Si1 0.368734 0.821698 0.660924
Si Si2 0.371894 0.822093 0.161901
Si Si3 0.876257 0.176259 0.326153
Si Si4 0.372550 0.179177 0.832939
O O1 0.250000 0.750000 0.500000
O O2 0.501279 0.769898 0.755485
O O3 0.367509 0.758749 0.743908
O O4 0.352880 0.000000 0.643123
O O5 0.386287 0.768365 0.260602
O O6 0.355216 0.000000 0.143139
O O7 0.250000 0.750000 0.000000
O O8 0.751992 0.235112 0.246632
O O9 0.000000 0.211286 0.500000
O O10 0.865327 0.000000 0.295795
O O11 0.377260 0.000000 0.836400
O O12 0.500000 0.245096 0.000000
#
# Coordination Sequence:
#
# PCOD8099839 Si02
#       4
#     8   8   8   8
#     4  10  21  37  58  83 110 144 185 229 277 329
#     4  11  23  38  58  84 115 150 188 232 281 334
#     4  10  20  35  57  82 109 145 186 228 277 332
#     4   9  17  32  54  77 103 138 181 224 265 317
#
# _framework density 19.413383
#
# number of rings (size 3 to 8) (size 9 to 14) (size 15 to 20)
#    0.000    2.000    0.000    3.750    0.000    8.500 
#    0.000    1.250    0.000    3.000    0.000    0.000 
#    0.000    0.000    0.000    0.000    0.000    0.000 
#
# Total GULP energy -198454.944361 kJ/mol
# GULP energy per Si atom -12403.434023 kJ/mol
# Density = 1.936920 g / cm^3
# Si number density = 19.413383 Si / 1000 Ang^3
#
#
#
# Elastic Constant Matrix: (Units=GPa)
#
#
# Indices 1 2 3 4 5 6 
#
# 1 156.3024 42.7347 59.3788 0.0000 1.1684 0.0000
# 2 42.7347 38.3499 42.3862 0.0000 4.0018 0.0000
# 3 59.3788 42.3862 148.0780 0.0000 6.0576 0.0000
# 4 0.0000 0.0000 0.0000 27.2454 0.0000 -6.8617
# 5 1.1684 4.0018 6.0576 0.0000 44.5266 0.0000
# 6 0.0000 0.0000 0.0000 -6.8617 0.0000 29.7381
#
#
#
# Elastic Compliance Matrix: (Units=1/GPa)
#
#
# Indices 1 2 3 4 5 6 
#
# 1 0.009350 -0.009243 -0.001134 0.000000 0.000740 0.000000
# 2 -0.009243 0.047450 -0.009766 0.000000 -0.002693 0.000000
# 3 -0.001134 -0.009766 0.010022 0.000000 -0.000456 0.000000
# 4 0.000000 0.000000 0.000000 0.038968 0.000000 0.008991
# 5 0.000740 -0.002693 -0.000456 0.000000 0.022743 0.000000
# 6 0.000000 0.000000 0.000000 0.008991 0.000000 0.035702
#
#
# Mechanical properties :
#
#
# Convention : Reuss Voigt Hill
#
# Bulk Modulus (GPa) = 37.68333 70.19216 53.93774
# Shear Modulus (GPa) = 23.43387 33.51740 28.47564
#
# Velocity S-wave (km/s) = 3.47810 4.15964 3.83404
# Velocity P-wave (km/s) = 5.96513 7.70099 6.88796
#
# Compressibility (1/GPa) = 0.02653693
#
# Stress axis : x y z
#
# Youngs Moduli (GPa) = 106.94827 21.07466 99.78218
#
# Poissons Ratio (x) = 0.19480 0.11314
# Poissons Ratio (y) = 0.98856 0.97443
# Poissons Ratio (z) = 0.12126 0.20581
#
# Static dielectric constant tensor:
#      x y z
#    x 3.764620 0.000000 0.061160 
#    y 0.000000 3.222710 0.000000 
#    z 0.061160 0.000000 3.648400 
# 
# 
# High freq. dielectric constant tensor:
#      x y z
#    x 1.778010 0.000000 0.000990 
#    y 0.000000 1.722890 0.000000 
#    z 0.000990 0.000000 1.777530 
# 
# From -- ./inp_files/70724.got.cif
#   From: 2010.06.25/outbox.cif.g09.slc.cpg/sg12_36_cif.got.tgz:70724.got - 2010.06.28 00:19:55.
