data_PCOD8099901
_publ_section_title
;
Structure prediction by ZEFSAII (Michael W. Deem and Ramdas Pophale) SiO2 
 PCOD8099901
Probable space group: C 2/M
;
_chemical_formula_sum "Si O2"
_cell_formula_units_Z 48
_cell_length_a 29.685850
_cell_length_b 12.813501
_cell_length_c 21.801958
_cell_angle_alpha 90.000000
_cell_angle_beta 17.127355
_cell_angle_gamma 90.000000
_cell_volume 2442.266824
_symmetry_space_group_name_H-M "C 2/M"
_symmetry_group_IT_number 12
_symmetry_cell_setting 'monoclinic'
loop_
_space_group_symop_operation_xyz
x,y,z
-x,y,-z
-x,-y,-z
x,-y,z
1/2+x,1/2+y,z
1/2-x,1/2+y,-z
1/2-x,1/2-y,-z
1/2+x,1/2-y,z
loop_
_atom_site_type_symbol
_atom_site_label
_atom_site_fract_x
_atom_site_fract_y
_atom_site_fract_z
Si Si1 0.559080 0.619364 0.857815
Si Si2 0.630303 0.381182 0.374325
Si Si3 0.794813 0.377646 0.884455
Si Si4 0.623807 0.253552 0.002932
Si Si5 0.488422 0.695260 0.678346
Si Si6 0.654918 0.788199 0.566039
O O1 0.512552 0.500000 0.917438
O O2 0.743205 0.630605 0.606330
O O3 0.500000 0.666983 0.000000
O O4 0.476096 0.671547 0.908954
O O5 0.500000 0.334578 0.500000
O O6 0.664253 0.500000 0.313574
O O7 0.784287 0.318666 0.162690
O O8 0.577433 0.370583 0.512412
O O9 0.837270 0.500000 0.819179
O O10 0.734127 0.324895 0.900921
O O11 0.944244 0.312898 0.712756
O O12 0.664743 0.368386 0.105791
O O13 0.512003 0.177613 0.189526
O O14 0.606819 0.696941 0.581189
O O15 0.750000 0.750000 0.500000
#
# Coordination Sequence:
#
# PCOD8099901 Si02
#       6
#     8   8   8   8   8   8
#     4  10  20  35  58  84 113 151 189 230 284 341
#     4  11  22  37  58  84 116 155 192 235 294 351
#     4  10  20  35  57  83 112 151 190 237 295 347
#     4  10  20  38  57  83 117 148 189 242 286 342
#     4  10  20  37  56  83 117 149 193 242 288 347
#     4   9  20  37  59  81 111 151 190 235 283 332
#
# _framework density 19.653873000000001
#
# number of rings (size 3 to 8) (size 9 to 14) (size 15 to 20)
#    0.000    2.000    1.667    2.000    0.000    1.333 
#    0.000    3.333    0.000   10.500    0.000    0.000 
#    0.000    0.000    0.000    0.000    0.000    0.000 
#
# Total GULP energy -297359.385483 kJ/mol
# GULP energy per Si atom -12389.974395 kJ/mol
# Density = 1.960914 g / cm^3
# Si number density = 19.653873 Si / 1000 Ang^3
#
#
#
# Elastic Constant Matrix: (Units=GPa)
#
#
# Indices 1 2 3 4 5 6 
#
# 1 102.3269 10.4238 22.6231 -0.0006 1.6609 0.0000
# 2 10.4238 68.3640 26.3858 0.0016 -3.1782 -0.0008
# 3 22.6231 26.3858 84.0031 0.0005 16.4828 -0.0005
# 4 -0.0006 0.0016 0.0005 22.3395 0.0028 0.7275
# 5 1.6609 -3.1782 16.4828 0.0028 35.6211 -0.0018
# 6 0.0000 -0.0008 -0.0005 0.7275 -0.0018 19.6488
#
#
#
# Elastic Compliance Matrix: (Units=1/GPa)
#
#
# Indices 1 2 3 4 5 6 
#
# 1 0.010430 -0.000468 -0.002814 0.000000 0.000774 0.000000
# 2 -0.000468 0.017286 -0.006171 -0.000002 0.004419 0.000001
# 3 -0.002814 -0.006171 0.016149 0.000001 -0.007892 -0.000001
# 4 0.000000 -0.000002 0.000001 0.044818 -0.000004 -0.001659
# 5 0.000774 0.004419 -0.007892 -0.000004 0.032083 0.000003
# 6 0.000000 0.000001 -0.000001 -0.001659 0.000003 0.050955
#
#
# Mechanical properties :
#
#
# Convention : Reuss Voigt Hill
#
# Bulk Modulus (GPa) = 40.06508 41.50661 40.78584
# Shear Modulus (GPa) = 25.13243 28.53928 26.83586
#
# Velocity S-wave (km/s) = 3.57984 3.81477 3.69917
# Velocity P-wave (km/s) = 6.12508 6.36930 6.24838
#
# Compressibility (1/GPa) = 0.02495939
#
# Stress axis : x y z
#
# Youngs Moduli (GPa) = 95.87908 57.84998 61.92401
#
# Poissons Ratio (x) = 0.02710 0.17423
# Poissons Ratio (y) = 0.04491 0.38211
# Poissons Ratio (z) = 0.26977 0.35697
#
# Static dielectric constant tensor:
#      x y z
#    x 3.748600 0.000000 0.121380 
#    y 0.000000 3.243280 0.000020 
#    z 0.121380 0.000020 4.001360 
# 
# 
# High freq. dielectric constant tensor:
#      x y z
#    x 1.780780 0.000000 0.009890 
#    y 0.000000 1.729670 0.000000 
#    z 0.009890 0.000000 1.775890 
# 
# From -- ./inp_files/153626.got.cif
#   From: 2010.06.25/outbox.cif.g09.slc.cpg/sg12_77_cif.got.tgz:153626.got - 2010.06.28 00:19:55.
