data_PCOD8099188
_publ_section_title
;
Structure prediction by ZEFSAII (Michael W. Deem and Ramdas Pophale) SiO2 
 PCOD8099188
Probable space group: C 2/M
;
_chemical_formula_sum "Si O2"
_cell_formula_units_Z 64
_cell_length_a 20.154911
_cell_length_b 9.024926
_cell_length_c 24.188250
_cell_angle_alpha 90.000000
_cell_angle_beta 53.078531
_cell_angle_gamma 90.000000
_cell_volume 3517.430434
_symmetry_space_group_name_H-M "C 2/M"
_symmetry_group_IT_number 12
_symmetry_cell_setting 'monoclinic'
loop_
_space_group_symop_operation_xyz
x,y,z
-x,y,-z
-x,-y,-z
x,-y,z
1/2+x,1/2+y,z
1/2-x,1/2+y,-z
1/2-x,1/2-y,-z
1/2+x,1/2-y,z
loop_
_atom_site_type_symbol
_atom_site_label
_atom_site_fract_x
_atom_site_fract_y
_atom_site_fract_z
Si Si1 0.571714 0.673226 0.506420
Si Si2 0.396994 0.171660 0.791072
Si Si3 0.572693 0.826246 0.006084
Si Si4 0.310081 0.324659 0.641948
Si Si5 0.839140 0.171963 0.230539
Si Si6 0.296038 0.671483 0.130222
Si Si7 0.546217 0.675895 0.344300
Si Si8 0.529017 0.326449 0.141875
O O1 0.500000 0.712688 0.500000
O O2 0.582380 0.500000 0.506960
O O3 0.656307 0.734627 0.435303
O O4 0.539741 0.731253 0.582277
O O5 0.301242 0.197249 0.825853
O O6 0.451627 0.240421 0.714719
O O7 0.416528 0.253929 0.837875
O O8 0.419558 0.000000 0.785771
O O9 0.555618 0.743345 0.071122
O O10 0.578644 0.000000 0.014590
O O11 0.500000 0.785587 0.000000
O O12 0.659630 0.769154 0.938483
O O13 0.300203 0.500000 0.645660
O O14 0.220785 0.253846 0.696647
O O15 0.374218 0.279539 0.658381
O O16 0.825353 0.230922 0.175261
O O17 0.932562 0.205628 0.202325
O O18 0.816787 0.000000 0.243797
O O19 0.320784 0.500000 0.109640
O O20 0.545039 0.500000 0.334729
O O21 0.547436 0.500000 0.130153
#
# Coordination Sequence:
#
# PCOD8099188 Si02
#       8
#     8   8   8   8   8   8   8   8
#     4   7  12  24  43  73 109 142 177 218 264 315
#     4  11  23  38  56  81 114 144 179 227 272 317
#     4  11  23  38  60  88 113 137 175 227 272 313
#     4   9  16  27  50  81 110 141 180 226 268 312
#     4  10  20  35  55  80 109 142 181 223 269 321
#     4  10  21  38  59  81 109 146 180 217 270 326
#     4   9  16  29  51  77 109 147 183 217 264 325
#     4  11  24  41  60  79 107 147 184 218 267 330
#
# _framework density 18.195101000000001
#
# number of rings (size 3 to 8) (size 9 to 14) (size 15 to 20)
#    0.000    2.250    2.500    2.625    0.000    3.500 
#    0.000    0.625    0.000    3.000    0.000    0.000 
#    0.000    0.000    0.000    0.000    0.000    0.000 
#
# Total GULP energy -396651.216670 kJ/mol
# GULP energy per Si atom -12395.350521 kJ/mol
# Density = 1.815369 g / cm^3
# Si number density = 18.195101 Si / 1000 Ang^3
#
#
#
# Elastic Constant Matrix: (Units=GPa)
#
#
# Indices 1 2 3 4 5 6 
#
# 1 40.1300 28.0855 9.9094 -0.0013 8.6761 -0.0007
# 2 28.0855 64.1020 50.9064 -0.0017 4.1584 -0.0012
# 3 9.9094 50.9064 126.7546 -0.0013 -1.1407 -0.0003
# 4 -0.0013 -0.0017 -0.0013 195.5442 0.0005 -4.3353
# 5 8.6761 4.1584 -1.1407 0.0005 21.7458 -0.0002
# 6 -0.0007 -0.0012 -0.0003 -4.3353 -0.0002 25.7012
#
#
#
# Elastic Compliance Matrix: (Units=1/GPa)
#
#
# Indices 1 2 3 4 5 6 
#
# 1 0.041277 -0.021515 0.005305 0.000000 -0.012076 0.000000
# 2 -0.021515 0.034646 -0.012220 0.000000 0.001318 0.000001
# 3 0.005305 -0.012220 0.012390 0.000000 0.000870 0.000000
# 4 0.000000 0.000000 0.000000 0.005133 0.000000 0.000866
# 5 -0.012076 0.001318 0.000870 0.000000 0.050598 0.000000
# 6 0.000000 0.000001 0.000000 0.000866 0.000000 0.039055
#
#
# Mechanical properties :
#
#
# Convention : Reuss Voigt Hill
#
# Bulk Modulus (GPa) = 31.79334 45.42099 38.60717
# Shear Modulus (GPa) = 19.96460 58.07060 39.01760
#
# Velocity S-wave (km/s) = 3.31607 5.65551 4.63579
# Velocity P-wave (km/s) = 5.67215 8.22581 7.06531
#
# Compressibility (1/GPa) = 0.03145313
#
# Stress axis : x y z
#
# Youngs Moduli (GPa) = 24.22646 28.86352 80.70856
#
# Poissons Ratio (x) = 0.62099 -0.42815
# Poissons Ratio (y) = 0.52122 0.98629
# Poissons Ratio (z) = -0.12852 0.35272
#
# Static dielectric constant tensor:
#      x y z
#    x 3.144870 0.000000 -0.050470 
#    y 0.000000 3.219910 0.000000 
#    z -0.050470 0.000000 3.718380 
# 
# 
# High freq. dielectric constant tensor:
#      x y z
#    x 1.672810 0.000000 -0.004740 
#    y 0.000000 1.692850 0.000000 
#    z -0.004740 0.000000 1.727530 
# 
# From -- ./inp_files/345922.got.cif
#   From: 2010.06.25/outbox.cif.g09.slc.cpg/sg12_173_cif.got.tgz:345922.got - 2010.06.28 00:19:55.
