data_PCOD8099644
_publ_section_title
;
Structure prediction by ZEFSAII (Michael W. Deem and Ramdas Pophale) SiO2 
 PCOD8099644
Probable space group: C 2/M
;
_chemical_formula_sum "Si O2"
_cell_formula_units_Z 56
_cell_length_a 31.375632
_cell_length_b 9.086536
_cell_length_c 11.852588
_cell_angle_alpha 90.000000
_cell_angle_beta 56.350618
_cell_angle_gamma 90.000000
_cell_volume 2812.930726
_symmetry_space_group_name_H-M "C 2/M"
_symmetry_group_IT_number 12
_symmetry_cell_setting 'monoclinic'
loop_
_space_group_symop_operation_xyz
x,y,z
-x,y,-z
-x,-y,-z
x,-y,z
1/2+x,1/2+y,z
1/2-x,1/2+y,-z
1/2-x,1/2-y,-z
1/2+x,1/2-y,z
loop_
_atom_site_type_symbol
_atom_site_label
_atom_site_fract_x
_atom_site_fract_y
_atom_site_fract_z
Si Si1 0.323629 0.172197 0.136217
Si Si2 0.378013 0.169468 0.676164
Si Si3 0.196674 0.670498 0.590208
Si Si4 0.597802 0.169308 0.607020
Si Si5 0.508073 0.674094 0.858820
Si Si6 0.918452 0.326924 0.857222
Si Si7 0.727561 0.673409 0.141457
O O1 0.331342 0.223008 0.253552
O O2 0.266451 0.218825 0.184147
O O3 0.330007 0.000000 0.111368
O O4 0.368009 0.240662 0.992342
O O5 0.410404 0.198229 0.514382
O O6 0.413831 0.207418 0.730496
O O7 0.328387 0.270696 0.746312
O O8 0.359748 0.000000 0.709546
O O9 0.210318 0.500000 0.578470
O O10 0.250000 0.750000 0.500000
O O11 0.157414 0.704812 0.546705
O O12 0.563229 0.274074 0.734117
O O13 0.585181 0.000000 0.656564
O O14 0.504226 0.500000 0.855572
O O15 0.467021 0.744779 0.835703
O O16 0.500000 0.726474 0.000000
O O17 0.925837 0.500000 0.867944
O O18 0.725382 0.500000 0.124465
O O19 0.750000 0.750000 0.000000
#
# Coordination Sequence:
#
# PCOD8099644 Si02
#       7
#     8   8   8   8   8   8   8
#     4   9  18  33  54  80 111 151 194 235 281 339
#     4  10  21  38  59  88 121 152 195 243 290 348
#     4  10  20  35  56  83 114 149 192 234 280 340
#     4  10  22  40  63  88 117 156 197 236 286 354
#     4  11  25  43  62  87 117 147 190 247 299 346
#     4  10  20  38  62  84 113 151 193 241 290 348
#     4  11  20  33  54  82 119 160 199 240 290 345
#
# _framework density 19.908061
#
# number of rings (size 3 to 8) (size 9 to 14) (size 15 to 20)
#    0.000    1.857    1.429    2.571    0.000    4.571 
#    0.000    4.286    0.000    0.000    0.000    0.000 
#    0.000    0.000    0.000    0.000    0.000    0.000 
#
# Total GULP energy -347186.343262 kJ/mol
# GULP energy per Si atom -12399.512259 kJ/mol
# Density = 1.986275 g / cm^3
# Si number density = 19.908061 Si / 1000 Ang^3
#
#
#
# Elastic Constant Matrix: (Units=GPa)
#
#
# Indices 1 2 3 4 5 6 
#
# 1 118.6404 42.3482 54.7529 0.0000 9.2652 0.0000
# 2 42.3482 64.2502 40.1572 0.0000 0.3152 0.0000
# 3 54.7529 40.1572 123.8591 0.0000 11.0672 0.0000
# 4 0.0000 0.0000 0.0000 29.2242 0.0000 -7.0776
# 5 9.2652 0.3152 11.0672 0.0000 36.2161 0.0000
# 6 0.0000 0.0000 0.0000 -7.0776 0.0000 32.3987
#
#
#
# Elastic Compliance Matrix: (Units=1/GPa)
#
#
# Indices 1 2 3 4 5 6 
#
# 1 0.012252 -0.006015 -0.003280 0.000000 -0.002080 0.000000
# 2 -0.006015 0.022589 -0.004919 0.000000 0.002845 0.000000
# 3 -0.003280 -0.004919 0.011350 0.000000 -0.002586 0.000000
# 4 0.000000 0.000000 0.000000 0.036130 0.000000 0.007893
# 5 -0.002080 0.002845 -0.002586 0.000000 0.028910 0.000000
# 6 0.000000 0.000000 0.000000 0.007893 0.000000 0.032590
#
#
# Mechanical properties :
#
#
# Convention : Reuss Voigt Hill
#
# Bulk Modulus (GPa) = 56.29866 64.58515 60.44190
# Shear Modulus (GPa) = 28.06314 30.86721 29.46518
#
# Velocity S-wave (km/s) = 3.75859 3.94190 3.85133
# Velocity P-wave (km/s) = 6.86853 7.29590 7.08544
#
# Compressibility (1/GPa) = 0.01776241
#
# Stress axis : x y z
#
# Youngs Moduli (GPa) = 81.61845 44.26863 88.10888
#
# Poissons Ratio (x) = 0.26629 0.28900
# Poissons Ratio (y) = 0.49096 0.43341
# Poissons Ratio (z) = 0.26771 0.21776
#
# Static dielectric constant tensor:
#      x y z
#    x 4.036560 0.000000 -0.080160 
#    y 0.000000 3.843450 0.000000 
#    z -0.080160 0.000000 3.888190 
# 
# 
# High freq. dielectric constant tensor:
#      x y z
#    x 1.784530 0.000000 0.010820 
#    y 0.000000 1.753970 0.000000 
#    z 0.010820 0.000000 1.784980 
# 
# From -- ./inp_files/187179.got.cif
#   From: 2010.06.25/outbox.cif.g09.slc.cpg/sg12_94_cif.got.tgz:187179.got - 2010.06.28 00:19:55.
