data_PCOD8099452
_publ_section_title
;
Structure prediction by ZEFSAII (Michael W. Deem and Ramdas Pophale) SiO2 
 PCOD8099452
Probable space group: C 2/M
;
_chemical_formula_sum "Si O2"
_cell_formula_units_Z 64
_cell_length_a 11.190533
_cell_length_b 13.237253
_cell_length_c 22.992006
_cell_angle_alpha 90.000000
_cell_angle_beta 72.611780
_cell_angle_gamma 90.000000
_cell_volume 3250.208673
_symmetry_space_group_name_H-M "C 2/M"
_symmetry_group_IT_number 12
_symmetry_cell_setting 'monoclinic'
loop_
_space_group_symop_operation_xyz
x,y,z
-x,y,-z
-x,-y,-z
x,-y,z
1/2+x,1/2+y,z
1/2-x,1/2+y,-z
1/2-x,1/2-y,-z
1/2+x,1/2-y,z
loop_
_atom_site_type_symbol
_atom_site_label
_atom_site_fract_x
_atom_site_fract_y
_atom_site_fract_z
Si Si1 0.909288 0.171039 0.465901
Si Si2 0.059917 0.882782 0.873176
Si Si3 0.984156 0.245987 0.231891
Si Si4 0.965442 0.113696 0.665079
Si Si5 0.602077 0.764569 0.035303
Si Si6 0.690736 0.112888 0.676371
Si Si7 0.359162 0.113925 0.449274
Si Si8 0.840592 0.616274 0.864269
O O1 0.775885 0.132496 0.504622
O O2 0.938143 0.292475 0.462964
O O3 0.000000 0.120313 0.500000
O O4 0.926042 0.131598 0.397805
O O5 0.064639 0.829273 0.810319
O O6 0.191238 0.864392 0.887196
O O7 0.947634 0.839236 0.928893
O O8 0.032212 0.000000 0.867410
O O9 0.868222 0.314905 0.266959
O O10 0.029293 0.184623 0.280496
O O11 0.099532 0.315218 0.194697
O O12 0.837238 0.136683 0.649918
O O13 0.973869 0.000000 0.687391
O O14 0.597641 0.854979 0.082867
O O15 0.500000 0.793929 0.000000
O O16 0.750000 0.750000 0.000000
O O17 0.633680 0.126762 0.621054
O O18 0.667529 0.000000 0.702724
O O19 0.406264 0.000000 0.459512
O O20 0.870648 0.500000 0.846309
#
# Coordination Sequence:
#
# PCOD8099452 Si02
#       8
#     8   8   8   8   8   8   8   8
#     4  11  21  36  57  78 106 144 186 239 301 370
#     4  10  22  40  63  89 124 169 205 243 300 357
#     4  11  21  38  59  84 117 154 202 249 294 351
#     4  11  22  35  55  83 110 145 192 246 298 358
#     4  11  22  40  68  99 130 165 204 251 297 352
#     4  10  20  35  56  80 110 146 187 239 301 358
#     4  10  21  36  54  79 107 140 183 235 299 367
#     4  10  22  40  63  91 126 165 205 249 296 351
#
# _framework density 19.691043000000001
#
# number of rings (size 3 to 8) (size 9 to 14) (size 15 to 20)
#    0.000    1.500    3.750    1.875    0.000    1.750 
#    0.000    0.000    0.000    0.750    0.000    0.000 
#    0.000    0.000    0.000    0.000    0.000    0.000 
#
# Total GULP energy -396615.884160 kJ/mol
# GULP energy per Si atom -12394.246380 kJ/mol
# Density = 1.964623 g / cm^3
# Si number density = 19.691043 Si / 1000 Ang^3
#
#
#
# Elastic Constant Matrix: (Units=GPa)
#
#
# Indices 1 2 3 4 5 6 
#
# 1 77.9151 38.6018 40.0945 0.0000 3.4026 0.0000
# 2 38.6018 111.9432 49.9484 0.0000 -2.5603 0.0000
# 3 40.0945 49.9484 119.1322 0.0000 -1.1610 0.0000
# 4 0.0000 0.0000 0.0000 -53.6486 0.0000 -112.2613
# 5 3.4026 -2.5603 -1.1610 0.0000 34.0390 0.0000
# 6 0.0000 0.0000 0.0000 -112.2613 0.0000 -140.0179
#
#
#
# Elastic Compliance Matrix: (Units=1/GPa)
#
#
# Indices 1 2 3 4 5 6 
#
# 1 0.017047 -0.004131 -0.004026 0.000000 -0.002152 0.000000
# 2 -0.004131 0.012005 -0.003631 0.000000 0.001192 0.000000
# 3 -0.004026 -0.003631 0.011277 0.000000 0.000514 0.000000
# 4 0.000000 0.000000 0.000000 0.027504 0.000000 -0.022052
# 5 -0.002152 0.001192 0.000514 0.000000 0.029700 0.000000
# 6 0.000000 0.000000 0.000000 -0.022052 0.000000 0.010538
#
#
# Mechanical properties :
#
#
# Convention : Reuss Voigt Hill
#
# Bulk Modulus (GPa) = 59.69664 62.91998 61.30831
# Shear Modulus (GPa) = 36.43442 -19.90245 8.26598
#
# Velocity S-wave (km/s) = 4.30618 -3.18266 2.05109
# Velocity P-wave (km/s) = 7.42339 4.30317 6.06729
#
# Compressibility (1/GPa) = 0.01675136
#
# Stress axis : x y z
#
# Youngs Moduli (GPa) = 58.66127 83.29677 88.67904
#
# Poissons Ratio (x) = 0.34411 0.35704
# Poissons Ratio (y) = 0.24234 0.32203
# Poissons Ratio (z) = 0.23618 0.30249
#
# Static dielectric constant tensor:
#      x y z
#    x 3.322580 0.000000 -0.296260 
#    y 0.000000 3.795510 0.000000 
#    z -0.296260 0.000000 3.113420 
# 
# 
# High freq. dielectric constant tensor:
#      x y z
#    x 1.756060 0.000000 -0.001620 
#    y 0.000000 1.777160 0.000000 
#    z -0.001620 0.000000 1.776540 
# 
# From -- ./inp_files/335647.got.cif
#   From: 2010.06.25/outbox.cif.g09.slc.cpg/sg12_168_cif.got.tgz:335647.got - 2010.06.28 00:19:55.
