data_PCOD8099907
_publ_section_title
;
Structure prediction by ZEFSAII (Michael W. Deem and Ramdas Pophale) SiO2 
 PCOD8099907
Probable space group: C 2/M
;
_chemical_formula_sum "Si O2"
_cell_formula_units_Z 56
_cell_length_a 27.493510
_cell_length_b 9.225077
_cell_length_c 14.235281
_cell_angle_alpha 90.000000
_cell_angle_beta 52.719096
_cell_angle_gamma 90.000000
_cell_volume 2872.778663
_symmetry_space_group_name_H-M "C 2/M"
_symmetry_group_IT_number 12
_symmetry_cell_setting 'monoclinic'
loop_
_space_group_symop_operation_xyz
x,y,z
-x,y,-z
-x,-y,-z
x,-y,z
1/2+x,1/2+y,z
1/2-x,1/2+y,-z
1/2-x,1/2-y,-z
1/2+x,1/2-y,z
loop_
_atom_site_type_symbol
_atom_site_label
_atom_site_fract_x
_atom_site_fract_y
_atom_site_fract_z
Si Si1 0.654287 0.167817 0.641332
Si Si2 0.074017 0.171224 0.154356
Si Si3 0.663897 0.160019 0.316955
Si Si4 0.220659 0.831205 0.403468
Si Si5 0.563059 0.343929 0.378598
Si Si6 0.980595 0.668944 0.129403
Si Si7 0.188510 0.337191 0.069863
O O1 0.709882 0.198942 0.647508
O O2 0.668739 0.261892 0.531862
O O3 0.590349 0.211840 0.766277
O O4 0.653054 0.000000 0.612916
O O5 0.052587 0.210096 0.284609
O O6 0.139220 0.251591 0.063532
O O7 0.023684 0.234860 0.143858
O O8 0.081366 0.000000 0.126834
O O9 0.715402 0.256089 0.307775
O O10 0.598118 0.234473 0.406925
O O11 0.670251 0.155754 0.198816
O O12 0.664407 0.000000 0.360737
O O13 0.206144 0.000000 0.413538
O O14 0.500000 0.369571 0.500000
O O15 0.598086 0.500000 0.333077
O O16 0.991211 0.500000 0.139382
O O17 0.000000 0.703894 0.000000
O O18 0.196458 0.500000 0.019608
O O19 0.250000 0.250000 0.000000
#
# Coordination Sequence:
#
# PCOD8099907 Si02
#       7
#     8   8   8   8   8   8   8
#     4   9  20  38  57  80 110 147 192 241 293 347
#     4  10  21  37  57  84 117 150 189 236 285 338
#     4  10  21  35  53  82 114 144 183 228 278 338
#     4  10  20  35  57  83 113 149 190 237 292 348
#     4   9  19  35  54  80 113 147 183 224 275 337
#     4  10  22  40  60  83 114 153 197 243 295 353
#     4  10  21  38  59  83 114 152 192 234 283 338
#
# _framework density 19.493321999999999
#
# number of rings (size 3 to 8) (size 9 to 14) (size 15 to 20)
#    0.000    2.286    0.000    1.714    2.000    5.143 
#    0.000    1.429    0.000    0.000    0.000    0.000 
#    0.000    0.000    0.000    0.000    0.000    0.000 
#
# Total GULP energy -347030.231981 kJ/mol
# GULP energy per Si atom -12393.936856 kJ/mol
# Density = 1.944895 g / cm^3
# Si number density = 19.493322 Si / 1000 Ang^3
#
#
#
# Elastic Constant Matrix: (Units=GPa)
#
#
# Indices 1 2 3 4 5 6 
#
# 1 134.0322 83.2437 45.0238 0.0000 -10.1583 0.0000
# 2 83.2437 135.8798 38.9903 0.0000 -6.7867 -0.0002
# 3 45.0238 38.9903 60.8066 0.0000 -21.7247 0.0000
# 4 0.0000 0.0000 0.0000 26.3177 0.0000 1.7815
# 5 -10.1583 -6.7867 -21.7247 0.0000 31.1750 0.0000
# 6 0.0000 -0.0002 0.0000 1.7815 0.0000 41.7916
#
#
#
# Elastic Compliance Matrix: (Units=1/GPa)
#
#
# Indices 1 2 3 4 5 6 
#
# 1 0.013555 -0.006555 -0.006345 0.000000 -0.001432 0.000000
# 2 -0.006555 0.012370 -0.003834 0.000000 -0.002114 0.000000
# 3 -0.006345 -0.003834 0.030045 0.000000 0.018035 0.000000
# 4 0.000000 0.000000 0.000000 0.038107 0.000000 -0.001624
# 5 -0.001432 -0.002114 0.018035 0.000000 0.043718 0.000000
# 6 0.000000 0.000000 0.000000 -0.001624 0.000000 0.023998
#
#
# Mechanical properties :
#
#
# Convention : Reuss Voigt Hill
#
# Bulk Modulus (GPa) = 44.43850 73.91491 59.17671
# Shear Modulus (GPa) = 24.65959 30.75422 27.70690
#
# Velocity S-wave (km/s) = 3.56058 3.97631 3.77417
# Velocity P-wave (km/s) = 6.30475 7.68647 7.02964
#
# Compressibility (1/GPa) = 0.02250301
#
# Stress axis : x y z
#
# Youngs Moduli (GPa) = 73.77428 80.84354 33.28293
#
# Poissons Ratio (x) = 0.52992 0.21118
# Poissons Ratio (y) = 0.48358 0.12759
# Poissons Ratio (z) = 0.46810 0.30991
#
# Static dielectric constant tensor:
#      x y z
#    x 3.567910 0.000000 -0.009770 
#    y 0.000000 3.996790 0.000000 
#    z -0.009770 0.000000 3.413940 
# 
# 
# High freq. dielectric constant tensor:
#      x y z
#    x 1.764490 0.000000 -0.001370 
#    y 0.000000 1.770950 0.000000 
#    z -0.001370 0.000000 1.743370 
# 
# From -- ./inp_files/238424.got.cif
#   From: 2010.06.25/outbox.cif.g09.slc.cpg/sg12_120_cif.got.tgz:238424.got - 2010.06.28 00:19:55.
