data_PCOD8099356
_publ_section_title
;
Structure prediction by ZEFSAII (Michael W. Deem and Ramdas Pophale) SiO2 
 PCOD8099356
Probable space group: C 2/M
;
_chemical_formula_sum "Si O2"
_cell_formula_units_Z 56
_cell_length_a 19.061114
_cell_length_b 9.136868
_cell_length_c 19.775344
_cell_angle_alpha 90.000000
_cell_angle_beta 119.644757
_cell_angle_gamma 90.000000
_cell_volume 2993.255801
_symmetry_space_group_name_H-M "C 2/M"
_symmetry_group_IT_number 12
_symmetry_cell_setting 'monoclinic'
loop_
_space_group_symop_operation_xyz
x,y,z
-x,y,-z
-x,-y,-z
x,-y,z
1/2+x,1/2+y,z
1/2-x,1/2+y,-z
1/2-x,1/2-y,-z
1/2+x,1/2-y,z
loop_
_atom_site_type_symbol
_atom_site_label
_atom_site_fract_x
_atom_site_fract_y
_atom_site_fract_z
Si Si1 0.624091 0.168240 0.924502
Si Si2 0.932157 0.327646 0.519552
Si Si3 0.194836 0.330148 0.222004
Si Si4 0.738774 0.828250 0.622594
Si Si5 0.748727 0.834391 0.097317
Si Si6 0.592488 0.331772 0.358103
Si Si7 0.536299 0.328922 0.183792
O O1 0.684013 0.220696 0.894281
O O2 0.544668 0.265574 0.886188
O O3 0.601428 0.000000 0.900216
O O4 0.665459 0.190747 0.017116
O O5 0.939650 0.500000 0.530409
O O6 0.843757 0.280021 0.452289
O O7 0.946579 0.260824 0.600277
O O8 0.000000 0.268245 0.500000
O O9 0.181084 0.500000 0.231973
O O10 0.255655 0.261016 0.305343
O O11 0.234998 0.305522 0.169020
O O12 0.109626 0.249260 0.181271
O O13 0.814114 0.787015 0.610278
O O14 0.740747 0.000000 0.641077
O O15 0.779677 0.000000 0.098947
O O16 0.587059 0.500000 0.376676
O O17 0.540440 0.299346 0.266192
O O18 0.542032 0.500000 0.170925
#
# Coordination Sequence:
#
# PCOD8099356 Si02
#       7
#     8   8   8   8   8   8   8
#     4  10  20  35  56  79 105 142 183 218 260 317
#     4  10  21  35  52  77 107 135 167 212 260 307
#     4  10  20  35  56  80 105 137 179 221 263 314
#     4   9  19  36  54  75 105 137 171 213 262 311
#     4   9  20  37  54  77 110 142 176 222 267 308
#     4   9  19  35  54  74  99 135 173 211 256 307
#     4  10  21  37  55  79 111 139 171 220 270 313
#
# _framework density 18.708725000000001
#
# number of rings (size 3 to 8) (size 9 to 14) (size 15 to 20)
#    0.000    2.429    0.000    2.571    0.000    7.143 
#    0.000    5.714    0.000    0.000    0.000    0.000 
#    0.000    0.000    0.000    0.000    0.000    0.000 
#
# Total GULP energy -347282.827006 kJ/mol
# GULP energy per Si atom -12402.958107 kJ/mol
# Density = 1.866614 g / cm^3
# Si number density = 18.708725 Si / 1000 Ang^3
#
#
#
# Elastic Constant Matrix: (Units=GPa)
#
#
# Indices 1 2 3 4 5 6 
#
# 1 33.1146 15.3110 0.2754 0.0000 -9.5171 0.0000
# 2 15.3110 65.3329 20.1398 0.0000 -7.1496 0.0000
# 3 0.2754 20.1398 30.1386 0.0000 -7.5972 0.0000
# 4 0.0000 0.0000 0.0000 34.3102 0.0000 0.0111
# 5 -9.5171 -7.1496 -7.5972 0.0000 31.1933 0.0000
# 6 0.0000 0.0000 0.0000 0.0111 0.0000 29.1044
#
#
#
# Elastic Compliance Matrix: (Units=1/GPa)
#
#
# Indices 1 2 3 4 5 6 
#
# 1 0.038429 -0.010741 0.009760 0.000000 0.011640 0.000000
# 2 -0.010741 0.022334 -0.015301 0.000000 -0.001885 0.000000
# 3 0.009760 -0.015301 0.046007 0.000000 0.010676 0.000000
# 4 0.000000 0.000000 0.000000 0.029146 0.000000 -0.000011
# 5 0.011640 -0.001885 0.010676 0.000000 0.037778 0.000000
# 6 0.000000 0.000000 0.000000 -0.000011 0.000000 0.034359
#
#
# Mechanical properties :
#
#
# Convention : Reuss Voigt Hill
#
# Bulk Modulus (GPa) = 13.47603 22.22652 17.85128
# Shear Modulus (GPa) = 18.84295 25.11223 21.97759
#
# Velocity S-wave (km/s) = 3.17704 3.66768 3.43114
# Velocity P-wave (km/s) = 4.54718 5.46278 5.02587
#
# Compressibility (1/GPa) = 0.07420581
#
# Stress axis : x y z
#
# Youngs Moduli (GPa) = 26.02234 44.77474 21.73580
#
# Poissons Ratio (x) = 0.48092 -0.21215
# Poissons Ratio (y) = 0.27950 0.33259
# Poissons Ratio (z) = -0.25399 0.68512
#
# Static dielectric constant tensor:
#      x y z
#    x 3.356190 0.000000 0.065410 
#    y 0.000000 3.465440 0.000000 
#    z 0.065410 0.000000 3.426810 
# 
# 
# High freq. dielectric constant tensor:
#      x y z
#    x 1.720560 0.000000 0.000700 
#    y 0.000000 1.731150 0.000000 
#    z 0.000700 0.000000 1.728780 
# 
# From -- ./inp_files/280960.got.cif
#   From: 2010.06.25/outbox.cif.g09.slc.cpg/sg12_141_cif.got.tgz:280960.got - 2010.06.28 00:19:55.
