data_PCOD8099228
_publ_section_title
;
Structure prediction by ZEFSAII (Michael W. Deem and Ramdas Pophale) SiO2 
 PCOD8099228
Probable space group: C 2/M
;
_chemical_formula_sum "Si O2"
_cell_formula_units_Z 48
_cell_length_a 15.110639
_cell_length_b 9.018898
_cell_length_c 19.114477
_cell_angle_alpha 90.000000
_cell_angle_beta 89.659420
_cell_angle_gamma 90.000000
_cell_volume 2604.899980
_symmetry_space_group_name_H-M "C 2/M"
_symmetry_group_IT_number 12
_symmetry_cell_setting 'monoclinic'
loop_
_space_group_symop_operation_xyz
x,y,z
-x,y,-z
-x,-y,-z
x,-y,z
1/2+x,1/2+y,z
1/2-x,1/2+y,-z
1/2-x,1/2-y,-z
1/2+x,1/2-y,z
loop_
_atom_site_type_symbol
_atom_site_label
_atom_site_fract_x
_atom_site_fract_y
_atom_site_fract_z
Si Si1 0.619778 0.825539 0.329668
Si Si2 0.275406 0.673279 0.428520
Si Si3 0.727851 0.824003 0.926613
Si Si4 0.471770 0.174716 0.074665
Si Si5 0.870115 0.324240 0.830264
Si Si6 0.524213 0.673847 0.577349
O O1 0.709324 0.773337 0.367937
O O2 0.626264 0.773256 0.249854
O O3 0.534629 0.752550 0.364618
O O4 0.607000 0.000000 0.334908
O O5 0.267338 0.500000 0.442329
O O6 0.250000 0.750000 0.500000
O O7 0.374675 0.715730 0.405674
O O8 0.627926 0.779387 0.905757
O O9 0.788821 0.760000 0.865687
O O10 0.739686 0.000000 0.933510
O O11 0.750000 0.750000 0.000000
O O12 0.538717 0.230238 0.134279
O O13 0.479662 0.000000 0.068230
O O14 0.500000 0.245981 0.000000
O O15 0.855578 0.500000 0.838373
O O16 0.500000 0.732627 0.500000
O O17 0.505868 0.500000 0.582039
#
# Coordination Sequence:
#
# PCOD8099228 Si02
#       6
#     8   8   8   8   8   8
#     4  10  22  37  56  82 112 143 179 228 278 322
#     4  10  20  35  55  81 109 143 183 224 272 324
#     4  11  21  35  58  85 109 143 186 226 268 322
#     4   9  17  33  57  79 105 145 182 215 265 329
#     4  10  21  39  57  79 113 146 178 225 279 325
#     4  10  20  35  56  80 108 144 181 222 271 323
#
# _framework density 18.42681
#
# number of rings (size 3 to 8) (size 9 to 14) (size 15 to 20)
#    0.000    2.000    3.333    0.500    0.000    3.000 
#    0.000    2.500    0.000    0.000    0.000    0.000 
#    0.000    0.000    0.000    0.000    0.000    0.000 
#
# Total GULP energy -297630.899650 kJ/mol
# GULP energy per Si atom -12401.287485 kJ/mol
# Density = 1.838487 g / cm^3
# Si number density = 18.426810 Si / 1000 Ang^3
#
#
#
# Elastic Constant Matrix: (Units=GPa)
#
#
# Indices 1 2 3 4 5 6 
#
# 1 185.6728 45.4515 106.4325 0.0000 0.1707 0.0000
# 2 45.4515 38.3369 45.4405 0.0000 -6.6575 0.0000
# 3 106.4325 45.4405 180.1192 0.0000 -1.4726 0.0000
# 4 0.0000 0.0000 0.0000 26.9162 0.0000 -9.1031
# 5 0.1707 -6.6575 -1.4726 0.0000 37.4201 0.0000
# 6 0.0000 0.0000 0.0000 -9.1031 0.0000 29.4995
#
#
#
# Elastic Compliance Matrix: (Units=1/GPa)
#
#
# Indices 1 2 3 4 5 6 
#
# 1 0.009166 -0.006666 -0.003746 0.000000 -0.001375 0.000000
# 2 -0.006666 0.043582 -0.006995 0.000000 0.007509 0.000000
# 3 -0.003746 -0.006995 0.009523 0.000000 -0.000853 0.000000
# 4 0.000000 0.000000 0.000000 0.041481 0.000000 0.012801
# 5 -0.001375 0.007509 -0.000853 0.000000 0.028032 0.000000
# 6 0.000000 0.000000 0.000000 0.012801 0.000000 0.037849
#
#
# Mechanical properties :
#
#
# Convention : Reuss Voigt Hill
#
# Bulk Modulus (GPa) = 36.41865 88.75308 62.58587
# Shear Modulus (GPa) = 23.40829 32.55414 27.98122
#
# Velocity S-wave (km/s) = 3.56805 4.20774 3.90103
# Velocity P-wave (km/s) = 6.06477 8.47800 7.37082
#
# Compressibility (1/GPa) = 0.02745846
#
# Stress axis : x y z
#
# Youngs Moduli (GPa) = 109.09811 22.94505 105.01053
#
# Poissons Ratio (x) = 0.15295 0.39334
# Poissons Ratio (y) = 0.72726 0.73450
# Poissons Ratio (z) = 0.40865 0.16049
#
# Static dielectric constant tensor:
#      x y z
#    x 3.720390 0.000000 0.132880 
#    y 0.000000 3.214660 0.000000 
#    z 0.132880 0.000000 3.869220 
# 
# 
# High freq. dielectric constant tensor:
#      x y z
#    x 1.733200 0.000000 0.003390 
#    y 0.000000 1.693460 0.000000 
#    z 0.003390 0.000000 1.715240 
# 
# From -- ./inp_files/267595.got.cif
#   From: 2010.06.25/outbox.cif.g09.slc.cpg/sg12_134_cif.got.tgz:267595.got - 2010.06.28 00:19:55.
