data_PCOD8099192
_publ_section_title
;
Structure prediction by ZEFSAII (Michael W. Deem and Ramdas Pophale) SiO2 
 PCOD8099192
Probable space group: C 2/M
;
_chemical_formula_sum "Si O2"
_cell_formula_units_Z 56
_cell_length_a 18.731106
_cell_length_b 12.449365
_cell_length_c 13.993483
_cell_angle_alpha 90.000000
_cell_angle_beta 117.908961
_cell_angle_gamma 90.000000
_cell_volume 2883.617043
_symmetry_space_group_name_H-M "C 2/M"
_symmetry_group_IT_number 12
_symmetry_cell_setting 'monoclinic'
loop_
_space_group_symop_operation_xyz
x,y,z
-x,y,-z
-x,-y,-z
x,-y,z
1/2+x,1/2+y,z
1/2-x,1/2+y,-z
1/2-x,1/2-y,-z
1/2+x,1/2-y,z
loop_
_atom_site_type_symbol
_atom_site_label
_atom_site_fract_x
_atom_site_fract_y
_atom_site_fract_z
Si Si1 0.764294 0.118509 0.698336
Si Si2 0.335921 0.243222 0.222748
Si Si3 0.833442 0.297206 0.522873
Si Si4 0.693567 0.120532 0.101169
Si Si5 0.060177 0.371469 0.867478
Si Si6 0.380721 0.190470 0.753633
Si Si7 0.405543 0.378762 0.440569
O O1 0.721945 0.152368 0.769835
O O2 0.690084 0.119709 0.575275
O O3 0.844012 0.189303 0.725265
O O4 0.799317 0.000000 0.730012
O O5 0.273696 0.314303 0.121163
O O6 0.405170 0.185070 0.205535
O O7 0.374945 0.321855 0.325302
O O8 0.750000 0.250000 0.500000
O O9 0.873363 0.356292 0.640185
O O10 0.885765 0.196564 0.518331
O O11 0.672830 0.127696 0.201562
O O12 0.713768 0.000000 0.086047
O O13 0.616994 0.159429 0.991828
O O14 0.051235 0.500000 0.847334
O O15 0.974475 0.317704 0.839901
O O16 0.500000 0.391337 0.500000
O O17 0.367569 0.500000 0.425349
#
# Coordination Sequence:
#
# PCOD8099192 Si02
#       7
#     8   8   8   8   8   8   8
#     4   9  19  35  54  76 105 142 176 211 263 323
#     4  10  20  36  56  78 108 140 178 221 263 317
#     4   9  19  33  51  79 109 139 176 213 256 317
#     4  10  21  37  57  79 104 140 184 225 266 312
#     4  11  22  36  56  80 106 139 179 225 274 316
#     4  10  20  35  55  80 110 139 176 223 267 314
#     4  10  20  35  56  82 113 144 175 217 266 317
#
# _framework density 19.420054
#
# number of rings (size 3 to 8) (size 9 to 14) (size 15 to 20)
#    0.000    2.143    0.000    3.857    0.000    4.571 
#    0.000    3.571    0.000   13.286    0.000    0.000 
#    0.000    0.000    0.000    0.000    0.000    0.000 
#
# Total GULP energy -346937.888087 kJ/mol
# GULP energy per Si atom -12390.638860 kJ/mol
# Density = 1.937585 g / cm^3
# Si number density = 19.420054 Si / 1000 Ang^3
#
#
#
# Elastic Constant Matrix: (Units=GPa)
#
#
# Indices 1 2 3 4 5 6 
#
# 1 85.3206 29.0212 4.9504 0.0000 5.7983 0.0000
# 2 29.0212 84.9424 23.7905 0.0000 10.3088 0.0000
# 3 4.9504 23.7905 72.5552 0.0000 5.6615 0.0000
# 4 0.0000 0.0000 0.0000 15.8741 0.0000 3.5382
# 5 5.7983 10.3088 5.6615 0.0000 33.9390 0.0000
# 6 0.0000 0.0000 0.0000 3.5382 0.0000 24.0164
#
#
#
# Elastic Compliance Matrix: (Units=1/GPa)
#
#
# Indices 1 2 3 4 5 6 
#
# 1 0.013320 -0.004623 0.000684 0.000000 -0.000986 0.000000
# 2 -0.004623 0.014936 -0.004346 0.000000 -0.003022 0.000000
# 3 0.000684 -0.004346 0.015266 0.000000 -0.001343 0.000000
# 4 0.000000 0.000000 0.000000 0.065134 0.000000 -0.009596
# 5 -0.000986 -0.003022 -0.001343 0.000000 0.030775 0.000000
# 6 0.000000 0.000000 0.000000 -0.009596 0.000000 0.043052
#
#
# Mechanical properties :
#
#
# Convention : Reuss Voigt Hill
#
# Bulk Modulus (GPa) = 37.10332 39.81582 38.45957
# Shear Modulus (GPa) = 24.03407 27.10299 25.56853
#
# Velocity S-wave (km/s) = 3.52176 3.73985 3.63244
# Velocity P-wave (km/s) = 5.97362 6.26064 6.11881
#
# Compressibility (1/GPa) = 0.02695176
#
# Stress axis : x y z
#
# Youngs Moduli (GPa) = 75.07377 66.95152 65.50553
#
# Poissons Ratio (x) = 0.30951 -0.04480
# Poissons Ratio (y) = 0.34706 0.28471
# Poissons Ratio (z) = -0.05134 0.29099
#
# Static dielectric constant tensor:
#      x y z
#    x 3.559220 0.000000 0.420990 
#    y 0.000000 3.377020 0.000000 
#    z 0.420990 0.000000 6.777250 
# 
# 
# High freq. dielectric constant tensor:
#      x y z
#    x 1.753630 0.000000 0.003230 
#    y 0.000000 1.744140 0.000000 
#    z 0.003230 0.000000 1.762190 
# 
# From -- ./inp_files/223345.got.cif
#   From: 2010.06.25/outbox.cif.g09.slc.cpg/sg12_112_cif.got.tgz:223345.got - 2010.06.28 00:19:55.
