data_PCOD8099671
_publ_section_title
;
Structure prediction by ZEFSAII (Michael W. Deem and Ramdas Pophale) SiO2 
 PCOD8099671
Probable space group: C 2/M
;
_chemical_formula_sum "Si O2"
_cell_formula_units_Z 56
_cell_length_a 23.621615
_cell_length_b 14.692118
_cell_length_c 8.856582
_cell_angle_alpha 90.000000
_cell_angle_beta 109.113272
_cell_angle_gamma 90.000000
_cell_volume 2904.247492
_symmetry_space_group_name_H-M "C 2/M"
_symmetry_group_IT_number 12
_symmetry_cell_setting 'monoclinic'
loop_
_space_group_symop_operation_xyz
x,y,z
-x,y,-z
-x,-y,-z
x,-y,z
1/2+x,1/2+y,z
1/2-x,1/2+y,-z
1/2-x,1/2-y,-z
1/2+x,1/2-y,z
loop_
_atom_site_type_symbol
_atom_site_label
_atom_site_fract_x
_atom_site_fract_y
_atom_site_fract_z
Si Si1 0.067113 0.000000 0.125428
Si Si2 0.936111 0.000000 0.522613
Si Si3 0.929807 0.191080 0.433731
Si Si4 0.836474 0.153591 0.832202
Si Si5 0.705388 0.897643 0.695081
Si Si6 0.566753 0.894042 0.056988
Si Si7 0.137725 0.281778 0.881866
Si Si8 0.865648 0.696245 0.620296
O O1 0.056816 0.000000 0.293060
O O2 0.104376 0.910070 0.108517
O O3 0.000000 0.000000 0.000000
O O4 0.900393 0.908510 0.442115
O O5 0.000000 0.000000 0.500000
O O6 0.909671 0.222769 0.252488
O O7 0.912754 0.265270 0.542343
O O8 0.000000 0.179630 0.500000
O O9 0.777120 0.094030 0.760886
O O10 0.838322 0.221697 0.692404
O O11 0.828865 0.211693 0.978569
O O12 0.683985 0.833022 0.812718
O O13 0.685965 0.856957 0.516053
O O14 0.679383 0.000000 0.690945
O O15 0.599641 0.873867 0.242636
O O16 0.563166 0.000000 0.027603
O O17 0.500000 0.851378 0.000000
O O18 0.602220 0.855402 0.946565
#
# Coordination Sequence:
#
# PCOD8099671 Si02
#       8
#     4   4   8   8   8   8   8   8
#     4  12  26  40  66  98 128 164 201 253 317 380
#     4  10  22  38  58  84 130 158 196 249 299 368
#     4  10  20  35  56  83 118 155 194 241 303 366
#     4  11  23  41  61  87 123 158 205 254 310 371
#     4  11  22  41  62  85 118 160 210 263 307 356
#     4  10  20  36  58  87 121 152 194 252 309 361
#     4  10  23  37  60  85 118 160 204 248 308 366
#     4  10  21  37  60  86 115 158 205 248 304 368
#
# _framework density 19.282104
#
# number of rings (size 3 to 8) (size 9 to 14) (size 15 to 20)
#    0.000    1.571    2.143    2.571    4.000    2.286 
#    0.000    0.000    0.000    6.857    0.000    0.000 
#    0.000    0.000    0.000    0.000    0.000    0.000 
#
# Total GULP energy -347178.544377 kJ/mol
# GULP energy per Si atom -12399.233728 kJ/mol
# Density = 1.923822 g / cm^3
# Si number density = 19.282104 Si / 1000 Ang^3
#
#
#
# Elastic Constant Matrix: (Units=GPa)
#
#
# Indices 1 2 3 4 5 6 
#
# 1 80.1035 31.0409 54.6816 0.0000 13.4850 0.0000
# 2 31.0409 112.1501 56.5751 0.0000 6.4890 0.0000
# 3 54.6816 56.5751 128.5238 0.0000 -6.1333 0.0000
# 4 0.0000 0.0000 0.0000 -14.3832 0.0000 20.5424
# 5 13.4850 6.4890 -6.1333 0.0000 31.2868 0.0000
# 6 0.0000 0.0000 0.0000 20.5424 0.0000 15.3895
#
#
#
# Elastic Compliance Matrix: (Units=1/GPa)
#
#
# Indices 1 2 3 4 5 6 
#
# 1 0.020651 -0.000537 -0.009054 0.000000 -0.010564 0.000000
# 2 -0.000537 0.011845 -0.005140 0.000000 -0.003233 0.000000
# 3 -0.009054 -0.005140 0.014266 0.000000 0.007765 0.000000
# 4 0.000000 0.000000 0.000000 -0.023921 0.000000 0.031931
# 5 -0.010564 -0.003233 0.007765 0.000000 0.038708 0.000000
# 6 0.000000 0.000000 0.000000 0.031931 0.000000 0.022357
#
#
# Mechanical properties :
#
#
# Convention : Reuss Voigt Hill
#
# Bulk Modulus (GPa) = 57.80312 67.26364 62.53338
# Shear Modulus (GPa) = 41.96938 18.35726 30.16332
#
# Velocity S-wave (km/s) = 4.67046 3.08886 3.95944
# Velocity P-wave (km/s) = 7.68941 6.90515 7.30781
#
# Compressibility (1/GPa) = 0.01730011
#
# Stress axis : x y z
#
# Youngs Moduli (GPa) = 48.42406 84.42226 70.09808
#
# Poissons Ratio (x) = 0.04536 0.63465
# Poissons Ratio (y) = 0.02602 0.36029
# Poissons Ratio (z) = 0.43842 0.43392
#
# Static dielectric constant tensor:
#      x y z
#    x 3.384660 0.000000 -0.084000 
#    y 0.000000 3.778060 0.000000 
#    z -0.084000 0.000000 3.668090 
# 
# 
# High freq. dielectric constant tensor:
#      x y z
#    x 1.743980 0.000000 -0.009730 
#    y 0.000000 1.765860 0.000000 
#    z -0.009730 0.000000 1.757790 
# 
# From -- ./inp_files/97007.got.cif
#   From: 2010.06.25/outbox.cif.g09.slc.cpg/sg12_49_cif.got.tgz:97007.got - 2010.06.28 00:19:55.
