data_PCOD8099507
_publ_section_title
;
Structure prediction by ZEFSAII (Michael W. Deem and Ramdas Pophale) SiO2 
 PCOD8099507
Probable space group: C 2/M
;
_chemical_formula_sum "Si O2"
_cell_formula_units_Z 64
_cell_length_a 18.897717
_cell_length_b 8.908958
_cell_length_c 20.668311
_cell_angle_alpha 90.000000
_cell_angle_beta 79.782967
_cell_angle_gamma 90.000000
_cell_volume 3424.517682
_symmetry_space_group_name_H-M "C 2/M"
_symmetry_group_IT_number 12
_symmetry_cell_setting 'monoclinic'
loop_
_space_group_symop_operation_xyz
x,y,z
-x,y,-z
-x,-y,-z
x,-y,z
1/2+x,1/2+y,z
1/2-x,1/2+y,-z
1/2-x,1/2-y,-z
1/2+x,1/2-y,z
loop_
_atom_site_type_symbol
_atom_site_label
_atom_site_fract_x
_atom_site_fract_y
_atom_site_fract_z
Si Si1 0.449988 0.674655 0.870966
Si Si2 0.404534 0.675236 0.333899
Si Si3 0.694288 0.672995 0.324192
Si Si4 0.586980 0.173926 0.911262
Si Si5 0.555960 0.321299 0.274721
Si Si6 0.828124 0.826005 0.988442
Si Si7 0.768566 0.821594 0.429194
Si Si8 0.337600 0.167811 0.230921
O O1 0.471745 0.500000 0.868160
O O2 0.509753 0.762742 0.902480
O O3 0.447256 0.740315 0.798260
O O4 0.370311 0.697729 0.913899
O O5 0.401052 0.500000 0.342937
O O6 0.486413 0.731714 0.328006
O O7 0.347652 0.742050 0.394947
O O8 0.382461 0.713315 0.264527
O O9 0.684633 0.500000 0.347222
O O10 0.623129 0.742715 0.303536
O O11 0.711370 0.769590 0.384947
O O12 0.753569 0.689372 0.258560
O O13 0.618144 0.260220 0.967141
O O14 0.647109 0.196828 0.846357
O O15 0.576775 0.000000 0.930626
O O16 0.561425 0.500000 0.269676
O O17 0.815255 0.000000 0.005160
O O18 0.750000 0.750000 0.000000
O O19 0.750000 0.750000 0.500000
O O20 0.766541 0.000000 0.435307
O O21 0.362071 0.000000 0.247280
#
# Coordination Sequence:
#
# PCOD8099507 Si02
#       8
#     8   8   8   8   8   8   8   8
#     4  10  21  38  60  81 107 147 192 231 279 339
#     4   9  17  32  55  81 107 136 178 223 261 311
#     4   9  18  33  55  80 109 142 177 219 270 320
#     4  11  22  36  57  82 113 147 186 232 281 337
#     4   9  17  32  57  83 107 137 176 227 276 321
#     4  11  25  41  58  80 109 146 189 237 287 341
#     4  10  20  35  56  81 110 144 181 219 260 315
#     4   9  18  31  51  79 107 139 177 218 267 324
#
# _framework density 18.688763999999999
#
# number of rings (size 3 to 8) (size 9 to 14) (size 15 to 20)
#    0.000    2.250    1.250    1.500    1.750    3.500 
#    0.000    1.875    0.000    3.750    0.000    0.000 
#    0.000    0.000    0.000    0.000    0.000    0.000 
#
# Total GULP energy -396672.279388 kJ/mol
# GULP energy per Si atom -12396.008731 kJ/mol
# Density = 1.864623 g / cm^3
# Si number density = 18.688764 Si / 1000 Ang^3
#
#
#
# Elastic Constant Matrix: (Units=GPa)
#
#
# Indices 1 2 3 4 5 6 
#
# 1 148.1779 44.3081 61.6758 0.0000 3.1604 0.0000
# 2 44.3081 59.4645 38.2587 0.0000 -3.2077 0.0000
# 3 61.6758 38.2587 107.0221 0.0000 -7.4450 0.0000
# 4 0.0000 0.0000 0.0000 25.4242 0.0000 2.3003
# 5 3.1604 -3.2077 -7.4450 0.0000 23.1294 0.0000
# 6 0.0000 0.0000 0.0000 2.3003 0.0000 28.4329
#
#
#
# Elastic Compliance Matrix: (Units=1/GPa)
#
#
# Indices 1 2 3 4 5 6 
#
# 1 0.010083 -0.004943 -0.004283 0.000000 -0.003442 0.000000
# 2 -0.004943 0.024269 -0.005673 0.000000 0.002215 0.000000
# 3 -0.004283 -0.005673 0.014143 0.000000 0.004351 0.000000
# 4 0.000000 0.000000 0.000000 0.039623 0.000000 -0.003206
# 5 -0.003442 0.002215 0.004351 0.000000 0.045413 0.000000
# 6 0.000000 0.000000 0.000000 -0.003206 0.000000 0.035430
#
#
# Mechanical properties :
#
#
# Convention : Reuss Voigt Hill
#
# Bulk Modulus (GPa) = 53.48550 67.01665 60.25107
# Shear Modulus (GPa) = 24.39126 26.75875 25.57500
#
# Velocity S-wave (km/s) = 3.61658 3.78803 3.70330
# Velocity P-wave (km/s) = 6.79122 7.42088 7.11302
#
# Compressibility (1/GPa) = 0.01869666
#
# Stress axis : x y z
#
# Youngs Moduli (GPa) = 99.17875 41.20413 70.70672
#
# Poissons Ratio (x) = 0.20367 0.30284
# Poissons Ratio (y) = 0.49023 0.40114
# Poissons Ratio (z) = 0.42479 0.23376
#
# Static dielectric constant tensor:
#      x y z
#    x 3.715040 0.000000 -0.219330 
#    y 0.000000 3.360910 0.000000 
#    z -0.219330 0.000000 3.443050 
# 
# 
# High freq. dielectric constant tensor:
#      x y z
#    x 1.733490 0.000000 -0.014540 
#    y 0.000000 1.712260 0.000000 
#    z -0.014540 0.000000 1.718010 
# 
# From -- ./inp_files/314054.got.cif
#   From: 2010.06.25/outbox.cif.g09.slc.cpg/sg12_158_cif.got.tgz:314054.got - 2010.06.28 00:19:55.
