data_PCOD8099463
_publ_section_title
;
Structure prediction by ZEFSAII (Michael W. Deem and Ramdas Pophale) SiO2 
 PCOD8099463
Probable space group: C 2/M
;
_chemical_formula_sum "Si O2"
_cell_formula_units_Z 48
_cell_length_a 18.672747
_cell_length_b 27.802482
_cell_length_c 6.231064
_cell_angle_alpha 90.000000
_cell_angle_beta 133.026924
_cell_angle_gamma 90.000000
_cell_volume 2364.781718
_symmetry_space_group_name_H-M "C 2/M"
_symmetry_group_IT_number 12
_symmetry_cell_setting 'monoclinic'
loop_
_space_group_symop_operation_xyz
x,y,z
-x,y,-z
-x,-y,-z
x,-y,z
1/2+x,1/2+y,z
1/2-x,1/2+y,-z
1/2-x,1/2-y,-z
1/2+x,1/2-y,z
loop_
_atom_site_type_symbol
_atom_site_label
_atom_site_fract_x
_atom_site_fract_y
_atom_site_fract_z
Si Si1 0.283572 0.946332 0.938161
Si Si2 0.773868 0.193914 0.319931
Si Si3 0.804690 0.103797 0.625422
Si Si4 0.395073 0.217280 0.691254
Si Si5 0.087394 0.945784 0.814383
Si Si6 0.323944 0.142596 0.256286
O O1 0.255872 0.935930 0.634767
O O2 0.185925 0.943734 0.878557
O O3 0.331112 0.000000 0.051109
O O4 0.356799 0.903784 0.177230
O O5 0.834444 0.148434 0.536500
O O6 0.676700 0.203695 0.260923
O O7 0.848474 0.238188 0.466339
O O8 0.740850 0.180399 0.012573
O O9 0.738152 0.122558 0.677991
O O10 0.900356 0.080382 0.930679
O O11 0.409917 0.173508 0.548500
O O12 0.500000 0.231432 0.000000
O O13 0.000000 0.920834 0.500000
O O14 0.056459 0.000000 0.804833
#
# Coordination Sequence:
#
# PCOD8099463 Si02
#       6
#     8   8   8   8   8   8
#     4   9  17  30  50  73  97 135 178 215 262 315
#     4   9  19  36  53  76 110 138 174 219 260 310
#     4   9  17  31  47  69  99 139 173 215 262 306
#     4  10  20  35  56  81 105 138 177 216 264 315
#     4   9  17  28  42  66  99 137 179 220 262 309
#     4   9  18  34  54  73 105 138 171 216 261 309
#
# _framework density 20.297855999999999
#
# number of rings (size 3 to 8) (size 9 to 14) (size 15 to 20)
#    0.000    2.833    0.000    1.000    0.000    2.000 
#    9.000    2.500    0.000    0.500    0.000   10.500 
#    0.000    0.000    0.000    0.000    0.000    0.000 
#
# Total GULP energy -297327.950259 kJ/mol
# GULP energy per Si atom -12388.664594 kJ/mol
# Density = 2.025166 g / cm^3
# Si number density = 20.297856 Si / 1000 Ang^3
#
#
#
# Elastic Constant Matrix: (Units=GPa)
#
#
# Indices 1 2 3 4 5 6 
#
# 1 22.0430 21.1140 26.3002 0.0000 -4.5188 0.0000
# 2 21.1140 126.1248 54.4170 0.0000 -4.6703 0.0000
# 3 26.3002 54.4170 109.7368 0.0000 -11.0151 0.0000
# 4 0.0000 0.0000 0.0000 36.9329 0.0000 -9.8294
# 5 -4.5188 -4.6703 -11.0151 0.0000 26.1343 0.0000
# 6 0.0000 0.0000 0.0000 -9.8294 0.0000 16.3828
#
#
#
# Elastic Compliance Matrix: (Units=1/GPa)
#
#
# Indices 1 2 3 4 5 6 
#
# 1 0.066972 -0.005494 -0.012804 0.000000 0.005201 0.000000
# 2 -0.005494 0.010540 -0.003985 0.000000 -0.000746 0.000000
# 3 -0.012804 -0.003985 0.014476 0.000000 0.003175 0.000000
# 4 0.000000 0.000000 0.000000 0.032221 0.000000 0.019332
# 5 0.005201 -0.000746 0.003175 0.000000 0.040368 0.000000
# 6 0.000000 0.000000 0.000000 0.019332 0.000000 0.072639
#
#
# Mechanical properties :
#
#
# Convention : Reuss Voigt Hill
#
# Bulk Modulus (GPa) = 21.08742 51.28523 36.18632
# Shear Modulus (GPa) = 16.80158 26.29488 21.54823
#
# Velocity S-wave (km/s) = 2.88019 3.60314 3.26176
# Velocity P-wave (km/s) = 4.63381 6.52927 5.66143
#
# Compressibility (1/GPa) = 0.04742164
#
# Stress axis : x y z
#
# Youngs Moduli (GPa) = 14.93153 94.87616 69.07896
#
# Poissons Ratio (x) = 0.52129 0.88451
# Poissons Ratio (y) = 0.08204 0.27526
# Poissons Ratio (z) = 0.19119 0.37805
#
# Static dielectric constant tensor:
#      x y z
#    x 3.159470 0.000000 -0.403720 
#    y 0.000000 4.414520 0.000000 
#    z -0.403720 0.000000 4.114020 
# 
# 
# High freq. dielectric constant tensor:
#      x y z
#    x 1.741850 0.000000 -0.039290 
#    y 0.000000 1.809830 0.000000 
#    z -0.039290 0.000000 1.795560 
# 
# From -- ./inp_files/12931.got.cif
#   From: 2010.06.25/outbox.cif.g09.slc.cpg/sg12_7_cif.got.tgz:12931.got - 2010.06.28 00:19:55.
