data_PCOD8099370
_publ_section_title
;
Structure prediction by ZEFSAII (Michael W. Deem and Ramdas Pophale) SiO2 
 PCOD8099370
Probable space group: C 2/M
;
_chemical_formula_sum "Si O2"
_cell_formula_units_Z 56
_cell_length_a 13.671628
_cell_length_b 13.848081
_cell_length_c 15.404157
_cell_angle_alpha 90.000000
_cell_angle_beta 77.149220
_cell_angle_gamma 90.000000
_cell_volume 2843.356232
_symmetry_space_group_name_H-M "C 2/M"
_symmetry_group_IT_number 12
_symmetry_cell_setting 'monoclinic'
loop_
_space_group_symop_operation_xyz
x,y,z
-x,y,-z
-x,-y,-z
x,-y,z
1/2+x,1/2+y,z
1/2-x,1/2+y,-z
1/2-x,1/2-y,-z
1/2+x,1/2-y,z
loop_
_atom_site_type_symbol
_atom_site_label
_atom_site_fract_x
_atom_site_fract_y
_atom_site_fract_z
Si Si1 0.366274 0.715868 0.665107
Si Si2 0.337064 0.190786 0.028361
Si Si3 0.840243 0.890611 0.847406
Si Si4 0.729588 0.890358 0.566130
Si Si5 0.505362 0.760915 0.122595
Si Si6 0.073240 0.747152 0.678257
Si Si7 0.745874 0.389590 0.643534
O O1 0.325846 0.662690 0.758506
O O2 0.325349 0.662618 0.587980
O O3 0.485794 0.713593 0.633516
O O4 0.331855 0.828157 0.674483
O O5 0.271884 0.106748 0.087189
O O6 0.403448 0.251452 0.086074
O O7 0.250000 0.250000 0.000000
O O8 0.418952 0.160051 0.938028
O O9 0.928702 0.838313 0.885500
O O10 0.875502 0.000000 0.826275
O O11 0.629599 0.838060 0.618177
O O12 0.737398 0.882961 0.462176
O O13 0.725620 0.000000 0.599060
O O14 0.475419 0.796037 0.224279
O O15 0.140604 0.839816 0.688441
O O16 0.747434 0.500000 0.676253
#
# Coordination Sequence:
#
# PCOD8099370 Si02
#       7
#     8   8   8   8   8   8   8
#     4  10  20  35  56  80 109 146 184 226 275 329
#     4   9  17  34  56  77 108 147 179 215 264 317
#     4  10  20  35  57  84 112 146 183 224 274 326
#     4  10  21  36  53  78 110 143 184 231 277 330
#     4   9  19  34  54  79 109 144 182 224 267 315
#     4  10  20  35  56  79 107 146 183 227 277 324
#     4  10  22  37  54  79 110 143 183 231 279 327
#
# _framework density 19.695035000000001
#
# number of rings (size 3 to 8) (size 9 to 14) (size 15 to 20)
#    0.000    2.286    0.000    3.857    0.000    5.714 
#    0.000   10.714    0.000   22.286    0.000    0.000 
#    0.000    0.000    0.000    0.000    0.000    0.000 
#
# Total GULP energy -346906.726342 kJ/mol
# GULP energy per Si atom -12389.525941 kJ/mol
# Density = 1.965021 g / cm^3
# Si number density = 19.695035 Si / 1000 Ang^3
#
#
#
# Elastic Constant Matrix: (Units=GPa)
#
#
# Indices 1 2 3 4 5 6 
#
# 1 90.0031 11.0908 25.3781 0.0000 -1.2914 0.0000
# 2 11.0908 93.2654 13.6569 0.0000 2.3810 0.0000
# 3 25.3781 13.6569 56.2215 0.0000 -3.4933 0.0000
# 4 0.0000 0.0000 0.0000 16.4775 0.0000 0.8603
# 5 -1.2914 2.3810 -3.4933 0.0000 24.3909 0.0000
# 6 0.0000 0.0000 0.0000 0.8603 0.0000 16.8919
#
#
#
# Elastic Compliance Matrix: (Units=1/GPa)
#
#
# Indices 1 2 3 4 5 6 
#
# 1 0.012775 -0.000698 -0.005601 0.000000 -0.000058 0.000000
# 2 -0.000698 0.011209 -0.002500 0.000000 -0.001489 0.000000
# 3 -0.005601 -0.002500 0.021107 0.000000 0.002970 0.000000
# 4 0.000000 0.000000 0.000000 0.060851 0.000000 -0.003099
# 5 -0.000058 -0.001489 0.002970 0.000000 0.041567 0.000000
# 6 0.000000 0.000000 0.000000 -0.003099 0.000000 0.059358
#
#
# Mechanical properties :
#
#
# Convention : Reuss Voigt Hill
#
# Bulk Modulus (GPa) = 36.37215 37.74907 37.06061
# Shear Modulus (GPa) = 21.40148 24.17633 22.78891
#
# Velocity S-wave (km/s) = 3.30000 3.50742 3.40529
# Velocity P-wave (km/s) = 5.74698 5.96750 5.85828
#
# Compressibility (1/GPa) = 0.02749356
#
# Stress axis : x y z
#
# Youngs Moduli (GPa) = 78.27732 89.21237 47.37787
#
# Poissons Ratio (x) = 0.06223 0.26535
# Poissons Ratio (y) = 0.05461 0.11847
# Poissons Ratio (z) = 0.43841 0.22308
#
# Static dielectric constant tensor:
#      x y z
#    x 3.965960 0.000000 -0.111190 
#    y 0.000000 3.501020 0.000000 
#    z -0.111190 0.000000 3.768800 
# 
# 
# High freq. dielectric constant tensor:
#      x y z
#    x 1.783710 0.000000 -0.002890 
#    y 0.000000 1.733290 0.000000 
#    z -0.002890 0.000000 1.776640 
# 
# From -- ./inp_files/214184.got.cif
#   From: 2010.06.25/outbox.cif.g09.slc.cpg/sg12_108_cif.got.tgz:214184.got - 2010.06.28 00:19:55.
