data_PCOD8099064
_publ_section_title
;
Structure prediction by ZEFSAII (Michael W. Deem and Ramdas Pophale) SiO2 
 PCOD8099064
Probable space group: C 2/M
;
_chemical_formula_sum "Si O2"
_cell_formula_units_Z 56
_cell_length_a 14.198648
_cell_length_b 9.091488
_cell_length_c 26.878841
_cell_angle_alpha 90.000000
_cell_angle_beta 119.280314
_cell_angle_gamma 90.000000
_cell_volume 3026.405992
_symmetry_space_group_name_H-M "C 2/M"
_symmetry_group_IT_number 12
_symmetry_cell_setting 'monoclinic'
loop_
_space_group_symop_operation_xyz
x,y,z
-x,y,-z
-x,-y,-z
x,-y,z
1/2+x,1/2+y,z
1/2-x,1/2+y,-z
1/2-x,1/2-y,-z
1/2+x,1/2-y,z
loop_
_atom_site_type_symbol
_atom_site_label
_atom_site_fract_x
_atom_site_fract_y
_atom_site_fract_z
Si Si1 0.675637 0.168739 0.046517
Si Si2 0.881845 0.672959 0.856483
Si Si3 0.409977 0.670573 0.066322
Si Si4 0.288705 0.671012 0.642283
Si Si5 0.769919 0.672421 0.261163
Si Si6 0.017292 0.828250 0.658788
Si Si7 0.922627 0.171221 0.436913
O O1 0.657243 0.212543 0.098415
O O2 0.800173 0.200008 0.067395
O O3 0.644851 0.000000 0.027851
O O4 0.598704 0.266592 0.991853
O O5 0.887431 0.500000 0.848065
O O6 0.799055 0.744804 0.797485
O O7 0.999323 0.743862 0.878989
O O8 0.440183 0.500000 0.071179
O O9 0.273203 0.500000 0.627810
O O10 0.283683 0.707020 0.699446
O O11 0.402906 0.726365 0.650531
O O12 0.193295 0.752236 0.588492
O O13 0.772379 0.500000 0.250266
O O14 0.891038 0.734834 0.289863
O O15 0.020138 0.795466 0.600787
O O16 0.036860 0.000000 0.675233
O O17 0.000000 0.234384 0.500000
O O18 0.901748 0.000000 0.439409
#
# Coordination Sequence:
#
# PCOD8099064 Si02
#       7
#     8   8   8   8   8   8   8
#     4   9  20  37  54  74 103 136 166 200 249 308
#     4  11  22  36  54  75 102 136 169 203 253 309
#     4  10  20  35  55  78 103 131 166 208 250 295
#     4   9  19  35  54  74 100 137 173 207 251 301
#     4  10  21  36  52  74 101 128 169 218 254 291
#     4   9  18  35  55  73 100 138 172 203 251 306
#     4   9  18  32  51  78 109 136 167 209 250 293
#
# _framework density 18.503796000000001
#
# number of rings (size 3 to 8) (size 9 to 14) (size 15 to 20)
#    0.000    2.429    0.000    1.714    0.000    6.571 
#    0.000    5.714    0.000    0.000    0.000    0.000 
#    0.000    0.000    0.000    0.000    0.000    0.000 
#
# Total GULP energy -347308.761601 kJ/mol
# GULP energy per Si atom -12403.884343 kJ/mol
# Density = 1.846168 g / cm^3
# Si number density = 18.503796 Si / 1000 Ang^3
#
#
#
# Elastic Constant Matrix: (Units=GPa)
#
#
# Indices 1 2 3 4 5 6 
#
# 1 120.7206 46.8638 54.8860 0.0000 19.9215 0.0000
# 2 46.8638 79.7431 57.6374 0.0000 17.2072 0.0000
# 3 54.8860 57.6374 122.3222 0.0000 28.9291 0.0000
# 4 0.0000 0.0000 0.0000 33.6877 0.0000 8.1805
# 5 19.9215 17.2072 28.9291 0.0000 23.6365 0.0000
# 6 0.0000 0.0000 0.0000 8.1805 0.0000 30.9905
#
#
#
# Elastic Compliance Matrix: (Units=1/GPa)
#
#
# Indices 1 2 3 4 5 6 
#
# 1 0.011646 -0.004387 -0.002241 0.000000 -0.003879 0.000000
# 2 -0.004387 0.020949 -0.007276 0.000000 -0.002647 0.000000
# 3 -0.002241 -0.007276 0.015354 0.000000 -0.011606 0.000000
# 4 0.000000 0.000000 0.000000 0.031718 0.000000 -0.008372
# 5 -0.003879 -0.002647 -0.011606 0.000000 0.061709 0.000000
# 6 0.000000 0.000000 0.000000 -0.008372 0.000000 0.034478
#
#
# Mechanical properties :
#
#
# Convention : Reuss Voigt Hill
#
# Bulk Modulus (GPa) = 49.65302 71.28450 60.46876
# Shear Modulus (GPa) = 23.76698 28.55618 26.16158
#
# Velocity S-wave (km/s) = 3.58779 3.93270 3.76420
# Velocity P-wave (km/s) = 6.63741 7.69606 7.18626
#
# Compressibility (1/GPa) = 0.02013976
#
# Stress axis : x y z
#
# Youngs Moduli (GPa) = 85.86912 47.73442 65.12935
#
# Poissons Ratio (x) = 0.20943 0.14594
# Poissons Ratio (y) = 0.37674 0.47391
# Poissons Ratio (z) = 0.19241 0.34734
#
# Static dielectric constant tensor:
#      x y z
#    x 3.544390 0.000000 0.052280 
#    y 0.000000 3.417220 0.000000 
#    z 0.052280 0.000000 3.402200 
# 
# 
# High freq. dielectric constant tensor:
#      x y z
#    x 1.724070 0.000000 0.006940 
#    y 0.000000 1.719950 0.000000 
#    z 0.006940 0.000000 1.716010 
# 
# From -- ./inp_files/308925.got.cif
#   From: 2010.06.25/outbox.cif.g09.slc.cpg/sg12_155_cif.got.tgz:308925.got - 2010.06.28 00:19:55.
