data_PCOD8099590
_publ_section_title
;
Structure prediction by ZEFSAII (Michael W. Deem and Ramdas Pophale) SiO2 
 PCOD8099590
Probable space group: C 2/M
;
_chemical_formula_sum "Si O2"
_cell_formula_units_Z 64
_cell_length_a 29.825758
_cell_length_b 9.128897
_cell_length_c 16.644343
_cell_angle_alpha 90.000000
_cell_angle_beta 43.883743
_cell_angle_gamma 90.000000
_cell_volume 3141.473128
_symmetry_space_group_name_H-M "C 2/M"
_symmetry_group_IT_number 12
_symmetry_cell_setting 'monoclinic'
loop_
_space_group_symop_operation_xyz
x,y,z
-x,y,-z
-x,-y,-z
x,-y,z
1/2+x,1/2+y,z
1/2-x,1/2+y,-z
1/2-x,1/2-y,-z
1/2+x,1/2-y,z
loop_
_atom_site_type_symbol
_atom_site_label
_atom_site_fract_x
_atom_site_fract_y
_atom_site_fract_z
Si Si1 0.442290 0.173282 0.845954
Si Si2 0.851924 0.170249 0.357174
Si Si3 0.498555 0.327074 0.369124
Si Si4 0.267197 0.331597 0.757872
Si Si5 0.726712 0.170362 0.414676
Si Si6 0.906486 0.830433 0.621343
Si Si7 0.010502 0.827237 0.893897
Si Si8 0.799386 0.330145 0.995904
O O1 0.499186 0.237825 0.716517
O O2 0.453786 0.244964 0.918291
O O3 0.447088 0.000000 0.848673
O O4 0.374050 0.220302 0.892607
O O5 0.793986 0.205323 0.371281
O O6 0.834644 0.252786 0.462761
O O7 0.918720 0.224172 0.229802
O O8 0.856677 0.000000 0.372486
O O9 0.502814 0.500000 0.343693
O O10 0.432743 0.281033 0.499889
O O11 0.556310 0.263028 0.350861
O O12 0.267389 0.500000 0.727867
O O13 0.261376 0.226767 0.690165
O O14 0.331850 0.292906 0.724001
O O15 0.212680 0.299697 0.893912
O O16 0.711078 0.000000 0.432305
O O17 0.923329 0.000000 0.605755
O O18 0.001910 0.000000 0.893878
O O19 0.000000 0.781972 0.000000
O O20 0.790235 0.500000 0.987811
O O21 0.750000 0.250000 0.000000
#
# Coordination Sequence:
#
# PCOD8099590 Si02
#       8
#     8   8   8   8   8   8   8   8
#     4  11  24  39  56  87 124 155 189 239 300 355
#     4   9  20  40  61  83 115 150 190 238 286 341
#     4   9  17  34  58  82 108 148 193 233 277 340
#     4  10  20  35  56  82 113 150 191 239 287 342
#     4  10  21  36  58  89 117 147 186 235 293 350
#     4   8  16  31  55  83 109 140 189 238 275 323
#     4  10  23  42  65  88 112 153 205 247 284 342
#     4  10  23  41  61  86 119 158 202 245 294 350
#
# _framework density 20.372609000000001
#
# number of rings (size 3 to 8) (size 9 to 14) (size 15 to 20)
#    0.000    2.375    0.000    2.250    3.500    3.750 
#    0.000    1.875    0.000    0.000    0.000    0.000 
#    0.000    0.000    0.000    0.000    0.000    0.000 
#
# Total GULP energy -396657.113256 kJ/mol
# GULP energy per Si atom -12395.534789 kJ/mol
# Density = 2.032624 g / cm^3
# Si number density = 20.372609 Si / 1000 Ang^3
#
#
#
# Elastic Constant Matrix: (Units=GPa)
#
#
# Indices 1 2 3 4 5 6 
#
# 1 70.0455 34.3865 28.8695 0.0001 15.3168 0.0000
# 2 34.3865 50.1390 32.0720 -0.0026 3.8202 0.0008
# 3 28.8695 32.0720 96.4896 -0.0016 4.4837 0.0004
# 4 0.0001 -0.0026 -0.0016 23.6517 0.0003 5.1364
# 5 15.3168 3.8202 4.4837 0.0003 29.8550 -0.0001
# 6 0.0000 0.0008 0.0004 5.1364 -0.0001 33.8426
#
#
#
# Elastic Compliance Matrix: (Units=1/GPa)
#
#
# Indices 1 2 3 4 5 6 
#
# 1 0.024670 -0.014874 -0.001951 -0.000002 -0.010460 0.000001
# 2 -0.014874 0.034416 -0.007189 0.000004 0.004307 -0.000001
# 3 -0.001951 -0.007189 0.013341 0.000000 -0.000083 0.000000
# 4 -0.000002 0.000004 0.000000 0.043721 0.000000 -0.006636
# 5 -0.010460 0.004307 -0.000083 0.000000 0.038323 0.000000
# 6 0.000001 -0.000001 0.000000 -0.006636 0.000000 0.030556
#
#
# Mechanical properties :
#
#
# Convention : Reuss Voigt Hill
#
# Bulk Modulus (GPa) = 40.98706 45.25889 43.12298
# Shear Modulus (GPa) = 20.73063 25.55961 23.14512
#
# Velocity S-wave (km/s) = 3.19340 3.54589 3.37425
# Velocity P-wave (km/s) = 5.81029 6.24725 6.03273
#
# Compressibility (1/GPa) = 0.02439795
#
# Stress axis : x y z
#
# Youngs Moduli (GPa) = 40.53516 29.05612 74.95650
#
# Poissons Ratio (x) = 0.43218 0.14625
# Poissons Ratio (y) = 0.60293 0.53889
# Poissons Ratio (z) = 0.07909 0.20889
#
# Static dielectric constant tensor:
#      x y z
#    x 3.359110 0.000000 0.077580 
#    y 0.000000 3.390790 0.000000 
#    z 0.077580 0.000000 3.795990 
# 
# 
# High freq. dielectric constant tensor:
#      x y z
#    x 1.799840 0.000000 0.003090 
#    y 0.000000 1.769010 0.000000 
#    z 0.003090 0.000000 1.807710 
# 
# From -- ./inp_files/295663.got.cif
#   From: 2010.06.25/outbox.cif.g09.slc.cpg/sg12_148_cif.got.tgz:295663.got - 2010.06.28 00:19:55.
