data_PCOD8099043
_publ_section_title
;
Structure prediction by ZEFSAII (Michael W. Deem and Ramdas Pophale) SiO2 
 PCOD8099043
Probable space group: C 2/M
;
_chemical_formula_sum "Si O2"
_cell_formula_units_Z 56
_cell_length_a 9.655890
_cell_length_b 17.523047
_cell_length_c 21.595096
_cell_angle_alpha 90.000000
_cell_angle_beta 129.652922
_cell_angle_gamma 90.000000
_cell_volume 2813.228550
_symmetry_space_group_name_H-M "C 2/M"
_symmetry_group_IT_number 12
_symmetry_cell_setting 'monoclinic'
loop_
_space_group_symop_operation_xyz
x,y,z
-x,y,-z
-x,-y,-z
x,-y,z
1/2+x,1/2+y,z
1/2-x,1/2+y,-z
1/2-x,1/2-y,-z
1/2+x,1/2-y,z
loop_
_atom_site_type_symbol
_atom_site_label
_atom_site_fract_x
_atom_site_fract_y
_atom_site_fract_z
Si Si1 0.144460 0.410094 0.993192
Si Si2 0.585542 0.089558 0.832849
Si Si3 0.391465 0.807040 0.406513
Si Si4 0.975981 0.090222 0.925277
Si Si5 0.612311 0.585895 0.384558
Si Si6 0.824030 0.413845 0.567541
Si Si7 0.737928 0.645403 0.672618
O O1 0.137315 0.500000 0.000498
O O2 0.096875 0.389457 0.908702
O O3 0.351877 0.380881 0.066839
O O4 0.000000 0.372345 0.000000
O O5 0.770513 0.110391 0.847403
O O6 0.433379 0.141772 0.759072
O O7 0.540654 0.000000 0.811456
O O8 0.500000 0.787011 0.500000
O O9 0.218916 0.858660 0.369932
O O10 0.516483 0.853244 0.394912
O O11 0.323038 0.732033 0.353356
O O12 0.995122 0.000000 0.935513
O O13 0.000000 0.125933 0.000000
O O14 0.649440 0.500000 0.372804
O O15 0.674484 0.599386 0.472735
O O16 0.401343 0.604472 0.320701
O O17 0.901204 0.500000 0.585303
O O18 0.731715 0.400279 0.606694
#
# Coordination Sequence:
#
# PCOD8099043 Si02
#       7
#     8   8   8   8   8   8   8
#     4   8  13  24  45  70  96 131 174 215 255 305
#     4   9  17  28  42  67 105 141 171 211 262 310
#     4  10  21  37  55  75 104 142 182 226 274 321
#     4   7  11  22  40  61  90 129 168 205 247 298
#     4  10  20  35  55  77 103 139 183 230 274 313
#     4  10  20  35  55  77 102 139 186 228 269 321
#     4  12  21  31  50  79 113 144 176 217 267 320
#
# _framework density 19.905954999999999
#
# number of rings (size 3 to 8) (size 9 to 14) (size 15 to 20)
#    0.000    2.571    0.000    5.571    0.000    5.143 
#    0.000    1.429    0.000    3.429    0.000    0.000 
#    0.000   59.429    0.000    7.429    0.000   11.429 
#
# Total GULP energy -346947.676128 kJ/mol
# GULP energy per Si atom -12390.988433 kJ/mol
# Density = 1.986065 g / cm^3
# Si number density = 19.905955 Si / 1000 Ang^3
#
#
#
# Elastic Constant Matrix: (Units=GPa)
#
#
# Indices 1 2 3 4 5 6 
#
# 1 121.6562 22.5439 31.2295 0.0000 34.4185 0.0000
# 2 22.5439 77.7174 30.3780 0.0000 12.1544 0.0000
# 3 31.2295 30.3780 56.6757 0.0000 30.6200 0.0000
# 4 0.0000 0.0000 0.0000 32.3411 0.0000 25.1670
# 5 34.4185 12.1544 30.6200 0.0000 33.1744 0.0000
# 6 0.0000 0.0000 0.0000 25.1670 0.0000 30.4719
#
#
#
# Elastic Compliance Matrix: (Units=1/GPa)
#
#
# Indices 1 2 3 4 5 6 
#
# 1 0.011879 -0.002027 0.001592 0.000000 -0.013052 0.000000
# 2 -0.002027 0.016917 -0.011446 0.000000 0.006470 0.000000
# 3 0.001592 -0.011446 0.042943 0.000000 -0.037095 0.000000
# 4 0.000000 0.000000 0.000000 0.086539 0.000000 -0.071473
# 5 -0.013052 0.006470 -0.037095 0.000000 0.075553 0.000000
# 6 0.000000 0.000000 0.000000 -0.071473 0.000000 0.091847
#
#
# Mechanical properties :
#
#
# Convention : Reuss Voigt Hill
#
# Bulk Modulus (GPa) = 20.84296 47.15023 33.99660
# Shear Modulus (GPa) = 13.68238 30.65733 22.16986
#
# Velocity S-wave (km/s) = 2.62458 3.92868 3.34088
# Velocity P-wave (km/s) = 4.43599 6.65712 5.65665
#
# Compressibility (1/GPa) = 0.04797783
#
# Stress axis : x y z
#
# Youngs Moduli (GPa) = 84.17967 59.11098 23.28669
#
# Poissons Ratio (x) = 0.11982 -0.03707
# Poissons Ratio (y) = 0.17063 0.26654
# Poissons Ratio (z) = -0.13402 0.67658
#
# Static dielectric constant tensor:
#      x y z
#    x 4.064680 0.000000 0.323470 
#    y 0.000000 3.297730 0.000000 
#    z 0.323470 0.000000 3.383600 
# 
# 
# High freq. dielectric constant tensor:
#      x y z
#    x 1.789730 0.000000 0.027450 
#    y 0.000000 1.744760 0.000000 
#    z 0.027450 0.000000 1.746060 
# 
# From -- ./inp_files/333404.got.cif
#   From: 2010.06.25/outbox.cif.g09.slc.cpg/sg12_167_cif.got.tgz:333404.got - 2010.06.28 00:19:55.
