data_PCOD8099494
_publ_section_title
;
Structure prediction by ZEFSAII (Michael W. Deem and Ramdas Pophale) SiO2 
 PCOD8099494
Probable space group: C 2/M
;
_chemical_formula_sum "Si O2"
_cell_formula_units_Z 56
_cell_length_a 18.809965
_cell_length_b 8.772845
_cell_length_c 31.633113
_cell_angle_alpha 90.000000
_cell_angle_beta 147.701539
_cell_angle_gamma 90.000000
_cell_volume 2789.199934
_symmetry_space_group_name_H-M "C 2/M"
_symmetry_group_IT_number 12
_symmetry_cell_setting 'monoclinic'
loop_
_space_group_symop_operation_xyz
x,y,z
-x,y,-z
-x,-y,-z
x,-y,z
1/2+x,1/2+y,z
1/2-x,1/2+y,-z
1/2-x,1/2-y,-z
1/2+x,1/2-y,z
loop_
_atom_site_type_symbol
_atom_site_label
_atom_site_fract_x
_atom_site_fract_y
_atom_site_fract_z
Si Si1 0.825735 0.670917 0.676633
Si Si2 0.640004 0.180983 0.914659
Si Si3 0.854066 0.179592 0.777266
Si Si4 0.607411 0.827005 0.521580
Si Si5 0.394610 0.175118 0.574080
Si Si6 0.132587 0.671808 0.816281
Si Si7 0.649095 0.321014 0.739427
O O1 0.786801 0.500000 0.670432
O O2 0.798124 0.778276 0.702992
O O3 0.739931 0.726456 0.593490
O O4 0.974547 0.678287 0.735401
O O5 0.497035 0.243894 0.856617
O O6 0.678217 0.228224 0.885738
O O7 0.634233 0.000000 0.915754
O O8 0.750000 0.250000 0.000000
O O9 0.751859 0.235960 0.761025
O O10 0.869782 0.000000 0.789067
O O11 0.500000 0.759600 0.500000
O O12 0.548953 0.815936 0.445214
O O13 0.643954 0.000000 0.551743
O O14 0.250000 0.250000 0.500000
O O15 0.498066 0.265399 0.655329
O O16 0.384766 0.000000 0.584719
O O17 0.183384 0.500000 0.833251
O O18 0.188737 0.781400 0.807838
O O19 0.658991 0.500000 0.736966
#
# Coordination Sequence:
#
# PCOD8099494 Si02
#       7
#     8   8   8   8   8   8   8
#     4  10  20  35  56  81 109 143 189 241 288 341
#     4  10  21  40  66  95 124 152 187 230 278 338
#     4  11  22  38  61  86 117 156 194 236 288 344
#     4  10  21  35  51  73 102 141 189 238 288 340
#     4  11  23  38  56  79 111 152 196 243 295 348
#     4   9  20  38  59  84 115 150 186 227 279 339
#     4  12  24  38  58  85 117 152 196 246 292 343
#
# _framework density 20.077441
#
# number of rings (size 3 to 8) (size 9 to 14) (size 15 to 20)
#    0.000    1.571    0.000    6.429    0.000    8.286 
#    0.000    0.714    0.000    4.286    0.000    0.000 
#    0.000    0.000    0.000    0.000    0.000    0.000 
#
# Total GULP energy -347258.401768 kJ/mol
# GULP energy per Si atom -12402.085777 kJ/mol
# Density = 2.003174 g / cm^3
# Si number density = 20.077441 Si / 1000 Ang^3
#
#
#
# Elastic Constant Matrix: (Units=GPa)
#
#
# Indices 1 2 3 4 5 6 
#
# 1 77.0318 27.8663 16.4243 -0.0001 -10.7977 0.0001
# 2 27.8663 112.1738 33.1255 -0.0002 -3.6859 0.0003
# 3 16.4243 33.1255 95.5349 -0.0001 -12.4248 0.0000
# 4 -0.0001 -0.0002 -0.0001 34.3156 0.0000 1.0996
# 5 -10.7977 -3.6859 -12.4248 0.0000 23.2302 0.0000
# 6 0.0001 0.0003 0.0000 1.0996 0.0000 32.0896
#
#
#
# Elastic Compliance Matrix: (Units=1/GPa)
#
#
# Indices 1 2 3 4 5 6 
#
# 1 0.015211 -0.003388 -0.000635 0.000000 0.006193 0.000000
# 2 -0.003388 0.010688 -0.003340 0.000000 -0.001665 0.000000
# 3 -0.000635 -0.003340 0.012497 0.000000 0.005859 0.000000
# 4 0.000000 0.000000 0.000000 0.029173 0.000000 -0.001000
# 5 0.006193 -0.001665 0.005859 0.000000 0.048795 0.000000
# 6 0.000000 0.000000 0.000000 -0.001000 0.000000 0.031197
#
#
# Mechanical properties :
#
#
# Convention : Reuss Voigt Hill
#
# Bulk Modulus (GPa) = 42.24786 48.84141 45.54464
# Shear Modulus (GPa) = 29.38133 31.74871 30.56502
#
# Velocity S-wave (km/s) = 3.82959 3.98089 3.90597
# Velocity P-wave (km/s) = 6.37515 6.74606 6.56322
#
# Compressibility (1/GPa) = 0.02366984
#
# Stress axis : x y z
#
# Youngs Moduli (GPa) = 65.74363 93.56360 80.02160
#
# Poissons Ratio (x) = 0.31696 0.05081
# Poissons Ratio (y) = 0.22272 0.26728
# Poissons Ratio (z) = 0.04174 0.31251
#
# Static dielectric constant tensor:
#      x y z
#    x 3.766910 0.000000 -0.228190 
#    y 0.000000 3.716520 0.000000 
#    z -0.228190 0.000000 3.644220 
# 
# 
# High freq. dielectric constant tensor:
#      x y z
#    x 1.789030 0.000000 -0.013290 
#    y 0.000000 1.790840 0.000000 
#    z -0.013290 0.000000 1.771480 
# 
# From -- ./inp_files/377753.got.cif
#   From: 2010.06.25/outbox.cif.g09.slc.cpg/sg12_189_cif.got.tgz:377753.got - 2010.06.28 00:19:55.
