data_PCOD8099446
_publ_section_title
;
Structure prediction by ZEFSAII (Michael W. Deem and Ramdas Pophale) SiO2 
 PCOD8099446
Probable space group: C 2/M
;
_chemical_formula_sum "Si O2"
_cell_formula_units_Z 56
_cell_length_a 15.895963
_cell_length_b 9.097800
_cell_length_c 22.961512
_cell_angle_alpha 90.000000
_cell_angle_beta 59.183594
_cell_angle_gamma 90.000000
_cell_volume 2851.822193
_symmetry_space_group_name_H-M "C 2/M"
_symmetry_group_IT_number 12
_symmetry_cell_setting 'monoclinic'
loop_
_space_group_symop_operation_xyz
x,y,z
-x,y,-z
-x,-y,-z
x,-y,z
1/2+x,1/2+y,z
1/2-x,1/2+y,-z
1/2-x,1/2-y,-z
1/2+x,1/2-y,z
loop_
_atom_site_type_symbol
_atom_site_label
_atom_site_fract_x
_atom_site_fract_y
_atom_site_fract_z
Si Si1 0.237473 0.332333 0.063991
Si Si2 0.203173 0.665963 0.785813
Si Si3 0.601446 0.835626 0.933758
Si Si4 0.284590 0.828219 0.348647
Si Si5 0.622374 0.173210 0.213850
Si Si6 0.459906 0.325125 0.339822
Si Si7 0.939665 0.825594 0.576162
O O1 0.236720 0.500000 0.047062
O O2 0.330280 0.294221 0.069651
O O3 0.143433 0.293436 0.137666
O O4 0.250000 0.250000 0.000000
O O5 0.247144 0.500000 0.771210
O O6 0.105659 0.674589 0.861532
O O7 0.172318 0.704782 0.731094
O O8 0.288518 0.772609 0.777475
O O9 0.636477 0.000000 0.940292
O O10 0.500000 0.801285 0.000000
O O11 0.349627 0.738230 0.372184
O O12 0.172379 0.770592 0.389426
O O13 0.290450 0.000000 0.362686
O O14 0.523929 0.259236 0.264546
O O15 0.608634 0.000000 0.229214
O O16 0.456242 0.500000 0.337150
O O17 0.507799 0.269813 0.383463
O O18 0.000000 0.762182 0.500000
O O19 0.940759 0.000000 0.575814
#
# Coordination Sequence:
#
# PCOD8099446 Si02
#       7
#     8   8   8   8   8   8   8
#     4  10  21  35  52  76 107 145 187 234 285 338
#     4   9  17  33  55  77 106 147 191 233 285 345
#     4   9  18  32  51  75 105 143 185 230 280 337
#     4  10  20  36  58  86 117 154 196 238 286 343
#     4  10  20  35  56  80 109 147 191 239 291 343
#     4  11  22  37  59  89 118 151 196 240 287 344
#     4   9  19  38  62  85 117 159 195 234 289 347
#
# _framework density 19.636569000000001
#
# number of rings (size 3 to 8) (size 9 to 14) (size 15 to 20)
#    0.000    2.286    1.429    1.286    0.000    4.286 
#    0.000    2.857    0.000    3.000    0.000    0.000 
#    0.000    0.000    0.000    0.000    0.000    0.000 
#
# Total GULP energy -346987.190196 kJ/mol
# GULP energy per Si atom -12392.399650 kJ/mol
# Density = 1.959188 g / cm^3
# Si number density = 19.636569 Si / 1000 Ang^3
#
#
#
# Elastic Constant Matrix: (Units=GPa)
#
#
# Indices 1 2 3 4 5 6 
#
# 1 119.9943 41.1345 63.5933 0.0000 -5.4401 0.0000
# 2 41.1345 63.1836 46.1728 0.0000 4.0533 0.0000
# 3 63.5933 46.1728 147.6164 0.0000 -4.8829 0.0000
# 4 0.0000 0.0000 0.0000 19.1525 0.0000 -1.4508
# 5 -5.4401 4.0533 -4.8829 0.0000 24.8995 0.0000
# 6 0.0000 0.0000 0.0000 -1.4508 0.0000 30.6703
#
#
#
# Elastic Compliance Matrix: (Units=1/GPa)
#
#
# Indices 1 2 3 4 5 6 
#
# 1 0.012201 -0.005652 -0.003392 0.000000 0.002921 0.000000
# 2 -0.005652 0.023679 -0.005173 0.000000 -0.006104 0.000000
# 3 -0.003392 -0.005173 0.009921 0.000000 0.002047 0.000000
# 4 0.000000 0.000000 0.000000 0.052400 0.000000 0.002479
# 5 0.002921 -0.006104 0.002047 0.000000 0.042195 0.000000
# 6 0.000000 0.000000 0.000000 0.002479 0.000000 0.032722
#
#
# Mechanical properties :
#
#
# Convention : Reuss Voigt Hill
#
# Bulk Modulus (GPa) = 57.58134 70.28840 63.93487
# Shear Modulus (GPa) = 24.11476 26.93738 25.52607
#
# Velocity S-wave (km/s) = 3.50816 3.70780 3.60936
# Velocity P-wave (km/s) = 6.76733 7.36225 7.07105
#
# Compressibility (1/GPa) = 0.01736674
#
# Stress axis : x y z
#
# Youngs Moduli (GPa) = 81.95885 42.23191 100.79233
#
# Poissons Ratio (x) = 0.23870 0.34186
# Poissons Ratio (y) = 0.46324 0.52144
# Poissons Ratio (z) = 0.27799 0.21848
#
# Static dielectric constant tensor:
#      x y z
#    x 3.486940 0.000000 0.160290 
#    y 0.000000 3.390740 0.000000 
#    z 0.160290 0.000000 4.445940 
# 
# 
# High freq. dielectric constant tensor:
#      x y z
#    x 1.744630 0.000000 0.000300 
#    y 0.000000 1.748560 0.000000 
#    z 0.000300 0.000000 1.780120 
# 
# From -- ./inp_files/338444.got.cif
#   From: 2010.06.25/outbox.cif.g09.slc.cpg/sg12_170_cif.got.tgz:338444.got - 2010.06.28 00:19:55.
