data_PCOD8099227
_publ_section_title
;
Structure prediction by ZEFSAII (Michael W. Deem and Ramdas Pophale) SiO2 
 PCOD8099227
Probable space group: C 2/M
;
_chemical_formula_sum "Si O2"
_cell_formula_units_Z 48
_cell_length_a 30.040007
_cell_length_b 9.243301
_cell_length_c 19.002416
_cell_angle_alpha 90.000000
_cell_angle_beta 150.779806
_cell_angle_gamma 90.000000
_cell_volume 2575.755430
_symmetry_space_group_name_H-M "C 2/M"
_symmetry_group_IT_number 12
_symmetry_cell_setting 'monoclinic'
loop_
_space_group_symop_operation_xyz
x,y,z
-x,y,-z
-x,-y,-z
x,-y,z
1/2+x,1/2+y,z
1/2-x,1/2+y,-z
1/2-x,1/2-y,-z
1/2+x,1/2-y,z
loop_
_atom_site_type_symbol
_atom_site_label
_atom_site_fract_x
_atom_site_fract_y
_atom_site_fract_z
Si Si1 0.645921 0.671621 0.534739
Si Si2 0.776451 0.837160 0.104052
Si Si3 0.985864 0.829811 0.061815
Si Si4 0.341212 0.670974 0.605221
Si Si5 0.012514 0.835279 0.591477
Si Si6 0.196232 0.672337 0.142857
O O1 0.645924 0.500000 0.533318
O O2 0.641175 0.729293 0.449008
O O3 0.554123 0.737023 0.443242
O O4 0.734678 0.725184 0.700511
O O5 0.883959 0.828511 0.245210
O O6 0.737148 0.775815 0.123720
O O7 0.740897 0.000000 0.047166
O O8 0.750000 0.750000 0.000000
O O9 0.075673 0.783643 0.229206
O O10 0.966700 0.000000 0.042378
O O11 0.900775 0.746086 0.977848
O O12 0.000000 0.784845 0.000000
O O13 0.325608 0.500000 0.586997
O O14 0.250000 0.750000 0.500000
O O15 0.000000 0.753610 0.500000
O O16 0.977177 0.000000 0.534193
O O17 0.184639 0.500000 0.128369
#
# Coordination Sequence:
#
# PCOD8099227 Si02
#       6
#     8   8   8   8   8   8
#     4   9  17  31  53  79 103 132 179 226 258 300
#     4  10  21  34  53  80 110 143 178 219 267 319
#     4  10  22  38  55  79 112 145 175 210 265 334
#     4  10  21  36  56  80 104 135 177 219 261 313
#     4   9  15  29  53  78 103 135 176 219 258 300
#     4  10  20  35  55  81 108 137 179 227 268 307
#
# _framework density 18.63531
#
# number of rings (size 3 to 8) (size 9 to 14) (size 15 to 20)
#    0.000    2.333    1.667    1.000    2.333    1.667 
#    0.000    0.000    0.000    1.500    0.000    0.000 
#    0.000    0.000    0.000    0.000    0.000    0.000 
#
# Total GULP energy -297438.466154 kJ/mol
# GULP energy per Si atom -12393.269423 kJ/mol
# Density = 1.859290 g / cm^3
# Si number density = 18.635310 Si / 1000 Ang^3
#
#
#
# Elastic Constant Matrix: (Units=GPa)
#
#
# Indices 1 2 3 4 5 6 
#
# 1 185.7440 36.1549 99.5999 0.0000 -3.4629 0.0000
# 2 36.1549 27.2679 35.4904 0.0000 0.8099 0.0000
# 3 99.5999 35.4904 136.8242 0.0000 -14.0606 0.0000
# 4 0.0000 0.0000 0.0000 19.5136 0.0000 5.6815
# 5 -3.4629 0.8099 -14.0606 0.0000 44.8585 0.0000
# 6 0.0000 0.0000 0.0000 5.6815 0.0000 26.1568
#
#
#
# Elastic Compliance Matrix: (Units=1/GPa)
#
#
# Indices 1 2 3 4 5 6 
#
# 1 0.009353 -0.005113 -0.005578 0.000000 -0.000934 0.000000
# 2 -0.005113 0.059599 -0.012284 0.000000 -0.005321 0.000000
# 3 -0.005578 -0.012284 0.015017 0.000000 0.004498 0.000000
# 4 0.000000 0.000000 0.000000 0.054706 0.000000 -0.011883
# 5 -0.000934 -0.005321 0.004498 0.000000 0.023726 0.000000
# 6 0.000000 0.000000 0.000000 -0.011883 0.000000 0.040812
#
#
# Mechanical properties :
#
#
# Convention : Reuss Voigt Hill
#
# Bulk Modulus (GPa) = 26.30253 76.92516 51.61385
# Shear Modulus (GPa) = 19.09593 30.01184 24.55388
#
# Velocity S-wave (km/s) = 3.20459 4.01744 3.63381
# Velocity P-wave (km/s) = 5.27613 7.93023 6.73521
#
# Compressibility (1/GPa) = 0.03801915
#
# Stress axis : x y z
#
# Youngs Moduli (GPa) = 106.92280 16.77887 66.58906
#
# Poissons Ratio (x) = 0.08579 0.37142
# Poissons Ratio (y) = 0.54672 0.81797
# Poissons Ratio (z) = 0.59639 0.20611
#
# Static dielectric constant tensor:
#      x y z
#    x 4.092060 0.000000 -0.314710 
#    y 0.000000 3.045550 0.000000 
#    z -0.314710 0.000000 3.456690 
# 
# 
# High freq. dielectric constant tensor:
#      x y z
#    x 1.747100 0.000000 -0.002270 
#    y 0.000000 1.674640 0.000000 
#    z -0.002270 0.000000 1.735840 
# 
# From -- ./inp_files/154309.got.cif
#   From: 2010.06.25/outbox.cif.g09.slc.cpg/sg12_78_cif.got.tgz:154309.got - 2010.06.28 00:19:55.
