data_PCOD8099362
_publ_section_title
;
Structure prediction by ZEFSAII (Michael W. Deem and Ramdas Pophale) SiO2 
 PCOD8099362
Probable space group: C 2/M
;
_chemical_formula_sum "Si O2"
_cell_formula_units_Z 52
_cell_length_a 22.536837
_cell_length_b 11.925199
_cell_length_c 22.483801
_cell_angle_alpha 90.000000
_cell_angle_beta 154.090228
_cell_angle_gamma 90.000000
_cell_volume 2640.372788
_symmetry_space_group_name_H-M "C 2/M"
_symmetry_group_IT_number 12
_symmetry_cell_setting 'monoclinic'
loop_
_space_group_symop_operation_xyz
x,y,z
-x,y,-z
-x,-y,-z
x,-y,z
1/2+x,1/2+y,z
1/2-x,1/2+y,-z
1/2-x,1/2-y,-z
1/2+x,1/2-y,z
loop_
_atom_site_type_symbol
_atom_site_label
_atom_site_fract_x
_atom_site_fract_y
_atom_site_fract_z
Si Si1 0.268322 0.625685 0.298207
Si Si2 0.186203 0.869568 0.963695
Si Si3 0.500000 0.206190 0.000000
Si Si4 0.882388 0.875457 0.648145
Si Si5 0.927753 0.314411 0.378711
Si Si6 0.334184 0.620180 0.919097
Si Si7 0.836982 0.226503 0.484389
O O1 0.319581 0.500000 0.339264
O O2 0.114869 0.632080 0.134778
O O3 0.373113 0.694365 0.352419
O O4 0.270931 0.661725 0.369425
O O5 0.029261 0.857335 0.808024
O O6 0.233873 0.000000 0.984970
O O7 0.250000 0.750000 0.000000
O O8 0.216005 0.862677 0.059815
O O9 0.562100 0.283237 0.004436
O O10 0.889020 0.854750 0.583325
O O11 0.779123 0.801021 0.591656
O O12 0.829676 0.000000 0.610738
O O13 0.799769 0.385477 0.242535
O O14 0.000000 0.375792 0.500000
O O15 0.034441 0.299351 0.421409
O O16 0.408677 0.500000 0.979142
#
# Coordination Sequence:
#
# PCOD8099362 Si02
#       7
#     8   8   4   8   8   8   8
#     4  10  20  35  56  79 106 141 177 221 275 328
#     4  10  21  39  60  84 114 148 189 234 280 332
#     4  10  20  36  54  80 110 136 178 224 270 326
#     4  10  21  36  56  80 109 146 183 225 276 328
#     4   9  20  35  53  80 109 137 176 223 267 324
#     4  10  20  35  56  79 108 144 180 222 274 328
#     4  10  20  36  55  79 110 139 180 223 267 327
#
# _framework density 19.694189999999999
#
# number of rings (size 3 to 8) (size 9 to 14) (size 15 to 20)
#    0.000    2.154    0.000    2.769    0.000    4.308 
#    0.000   20.000    0.000    0.000    0.000    0.000 
#    0.000    0.000    0.000    0.000    0.000    0.000 
#
# Total GULP energy -322099.140994 kJ/mol
# GULP energy per Si atom -12388.428500 kJ/mol
# Density = 1.964936 g / cm^3
# Si number density = 19.694190 Si / 1000 Ang^3
#
#
#
# Elastic Constant Matrix: (Units=GPa)
#
#
# Indices 1 2 3 4 5 6 
#
# 1 86.6449 29.1118 16.3533 -0.0055 -6.8971 0.0025
# 2 29.1118 105.9032 2.9453 -0.0107 -3.3932 0.0031
# 3 16.3533 2.9453 71.3422 -0.0133 -10.2414 0.0009
# 4 -0.0055 -0.0107 -0.0133 113.5381 -0.0063 -99.5234
# 5 -6.8971 -3.3932 -10.2414 -0.0063 30.2854 0.0032
# 6 0.0025 0.0031 0.0009 -99.5234 0.0032 102.1234
#
#
#
# Elastic Compliance Matrix: (Units=1/GPa)
#
#
# Indices 1 2 3 4 5 6 
#
# 1 0.013376 -0.003547 -0.002669 -0.000001 0.001746 -0.000001
# 2 -0.003547 0.010421 0.000457 0.000005 0.000514 0.000004
# 3 -0.002669 0.000457 0.015271 0.000012 0.004608 0.000012
# 4 -0.000001 0.000005 0.000012 0.060428 0.000011 0.058889
# 5 0.001746 0.000514 0.004608 0.000011 0.035033 0.000009
# 6 -0.000001 0.000004 0.000012 0.058889 0.000009 0.067182
#
#
# Mechanical properties :
#
#
# Convention : Reuss Voigt Hill
#
# Bulk Modulus (GPa) = 36.29724 40.07900 38.18812
# Shear Modulus (GPa) = 22.48074 63.55471 43.01773
#
# Velocity S-wave (km/s) = 3.38226 5.68690 4.67870
# Velocity P-wave (km/s) = 5.80718 7.96969 6.97278
#
# Compressibility (1/GPa) = 0.02755030
#
# Stress axis : x y z
#
# Youngs Moduli (GPa) = 74.76214 95.95721 65.48222
#
# Poissons Ratio (x) = 0.34033 0.17477
# Poissons Ratio (y) = 0.26516 -0.02990
# Poissons Ratio (z) = 0.19954 -0.04381
#
# Static dielectric constant tensor:
#      x y z
#    x 3.557200 0.000000 -0.217930 
#    y 0.000000 3.772280 0.000000 
#    z -0.217930 0.000000 3.820970 
# 
# 
# High freq. dielectric constant tensor:
#      x y z
#    x 1.760570 0.000000 -0.012520 
#    y 0.000000 1.769700 0.000000 
#    z -0.012520 0.000000 1.785660 
# 
# From -- ./inp_files/321580.got.cif
#   From: 2010.06.25/outbox.cif.g09.slc.cpg/sg12_161_cif.got.tgz:321580.got - 2010.06.28 00:19:55.
