data_PCOD8099543
_publ_section_title
;
Structure prediction by ZEFSAII (Michael W. Deem and Ramdas Pophale) SiO2 
 PCOD8099543
Probable space group: C 2/M
;
_chemical_formula_sum "Si O2"
_cell_formula_units_Z 56
_cell_length_a 19.042384
_cell_length_b 9.001592
_cell_length_c 25.187642
_cell_angle_alpha 90.000000
_cell_angle_beta 135.999551
_cell_angle_gamma 90.000000
_cell_volume 2999.182909
_symmetry_space_group_name_H-M "C 2/M"
_symmetry_group_IT_number 12
_symmetry_cell_setting 'monoclinic'
loop_
_space_group_symop_operation_xyz
x,y,z
-x,y,-z
-x,-y,-z
x,-y,z
1/2+x,1/2+y,z
1/2-x,1/2+y,-z
1/2-x,1/2-y,-z
1/2+x,1/2-y,z
loop_
_atom_site_type_symbol
_atom_site_label
_atom_site_fract_x
_atom_site_fract_y
_atom_site_fract_z
Si Si1 0.562198 0.327134 0.190510
Si Si2 0.264659 0.663074 0.454634
Si Si3 0.382645 0.824507 0.426833
Si Si4 0.836414 0.172624 0.079802
Si Si5 0.052589 0.338543 0.289994
Si Si6 0.759453 0.173266 0.265324
Si Si7 0.870938 0.828499 0.218583
O O1 0.584963 0.500000 0.194436
O O2 0.445635 0.286940 0.112891
O O3 0.575454 0.286198 0.258935
O O4 0.644790 0.233895 0.202976
O O5 0.316788 0.500000 0.490711
O O6 0.250000 0.750000 0.500000
O O7 0.326388 0.761619 0.447184
O O8 0.152716 0.632388 0.375622
O O9 0.500000 0.784666 0.500000
O O10 0.336059 0.752752 0.347922
O O11 0.365503 0.000000 0.413417
O O12 0.829198 0.220951 0.137845
O O13 0.816685 0.000000 0.064516
O O14 0.750000 0.250000 0.000000
O O15 0.017238 0.500000 0.247363
O O16 0.968241 0.272955 0.283992
O O17 0.791710 0.200893 0.222193
O O18 0.758648 0.000000 0.280223
O O19 0.904006 0.000000 0.234799
#
# Coordination Sequence:
#
# PCOD8099543 Si02
#       7
#     8   8   8   8   8   8   8
#     4  10  20  36  59  84 114 151 188 230 283 340
#     4  11  24  39  57  82 112 147 194 243 291 345
#     4  11  25  42  59  82 116 155 194 242 298 348
#     4   9  19  37  60  87 117 150 189 231 282 340
#     4  10  20  35  56  82 108 142 192 239 280 338
#     4  11  22  38  60  86 115 151 196 240 286 344
#     4   9  21  38  57  84 117 151 188 233 286 341
#
# _framework density 18.671752000000001
#
# number of rings (size 3 to 8) (size 9 to 14) (size 15 to 20)
#    0.000    1.857    1.429    3.000    2.000    6.857 
#    0.000    0.714    0.000    4.286    0.000    0.000 
#    0.000    0.000    0.000    0.000    0.000    0.000 
#
# Total GULP energy -347012.362012 kJ/mol
# GULP energy per Si atom -12393.298643 kJ/mol
# Density = 1.862925 g / cm^3
# Si number density = 18.671752 Si / 1000 Ang^3
#
#
#
# Elastic Constant Matrix: (Units=GPa)
#
#
# Indices 1 2 3 4 5 6 
#
# 1 141.8909 66.9603 63.3872 0.0000 9.9071 0.0000
# 2 66.9603 106.3987 58.5821 0.0000 11.7783 -0.0001
# 3 63.3872 58.5821 101.2034 0.0000 16.2799 0.0000
# 4 0.0000 0.0000 0.0000 32.0685 0.0000 1.4424
# 5 9.9071 11.7783 16.2799 0.0000 22.7710 0.0000
# 6 0.0000 -0.0001 0.0000 1.4424 0.0000 -22.4370
#
#
#
# Elastic Compliance Matrix: (Units=1/GPa)
#
#
# Indices 1 2 3 4 5 6 
#
# 1 0.011177 -0.004690 -0.004400 0.000000 0.000709 0.000000
# 2 -0.004690 0.015816 -0.005909 0.000000 -0.001915 0.000000
# 3 -0.004400 -0.005909 0.017241 0.000000 -0.007355 0.000000
# 4 0.000000 0.000000 0.000000 0.031093 0.000000 0.001999
# 5 0.000709 -0.001915 -0.007355 0.000000 0.049856 0.000000
# 6 0.000000 0.000000 0.000000 0.001999 0.000000 -0.044441
#
#
# Mechanical properties :
#
#
# Convention : Reuss Voigt Hill
#
# Bulk Modulus (GPa) = 70.24849 80.81691 75.53270
# Shear Modulus (GPa) = 43.29530 17.18474 30.24002
#
# Velocity S-wave (km/s) = 4.82057 3.03704 4.02874
# Velocity P-wave (km/s) = 8.28785 7.46157 7.88554
#
# Compressibility (1/GPa) = 0.01423518
#
# Stress axis : x y z
#
# Youngs Moduli (GPa) = 89.46967 63.22723 58.00255
#
# Poissons Ratio (x) = 0.29654 0.25519
# Poissons Ratio (y) = 0.41962 0.34276
# Poissons Ratio (z) = 0.39363 0.37364
#
# Static dielectric constant tensor:
#      x y z
#    x 3.763840 0.000000 0.143250 
#    y 0.000000 3.849890 0.000000 
#    z 0.143250 0.000000 3.459260 
# 
# 
# High freq. dielectric constant tensor:
#      x y z
#    x 1.727720 0.000000 0.013040 
#    y 0.000000 1.744020 0.000000 
#    z 0.013040 0.000000 1.708670 
# 
# From -- ./inp_files/342531.got.cif
#   From: 2010.06.25/outbox.cif.g09.slc.cpg/sg12_172_cif.got.tgz:342531.got - 2010.06.28 00:19:55.
