data_PCOD8099836
_publ_section_title
;
Structure prediction by ZEFSAII (Michael W. Deem and Ramdas Pophale) SiO2 
 PCOD8099836
Probable space group: C 2/M
;
_chemical_formula_sum "Si O2"
_cell_formula_units_Z 56
_cell_length_a 21.175809
_cell_length_b 9.290920
_cell_length_c 31.145254
_cell_angle_alpha 90.000000
_cell_angle_beta 151.324344
_cell_angle_gamma 90.000000
_cell_volume 2940.334938
_symmetry_space_group_name_H-M "C 2/M"
_symmetry_group_IT_number 12
_symmetry_cell_setting 'monoclinic'
loop_
_space_group_symop_operation_xyz
x,y,z
-x,y,-z
-x,-y,-z
x,-y,z
1/2+x,1/2+y,z
1/2-x,1/2+y,-z
1/2-x,1/2-y,-z
1/2+x,1/2-y,z
loop_
_atom_site_type_symbol
_atom_site_label
_atom_site_fract_x
_atom_site_fract_y
_atom_site_fract_z
Si Si1 0.110004 0.170662 0.917302
Si Si2 0.587738 0.332104 0.275961
Si Si3 0.789200 0.339283 0.869761
Si Si4 0.533893 0.163228 0.721829
Si Si5 0.618615 0.830948 0.542593
Si Si6 0.359440 0.164303 0.540072
Si Si7 0.003967 0.661392 0.931272
O O1 0.028239 0.219070 0.909925
O O2 0.020646 0.216900 0.823457
O O3 0.133661 0.000000 0.932553
O O4 0.250000 0.250000 0.000000
O O5 0.572633 0.500000 0.276296
O O6 0.565226 0.251030 0.307162
O O7 0.738042 0.297048 0.350760
O O8 0.728229 0.500000 0.831121
O O9 0.679797 0.221994 0.812610
O O10 0.864717 0.304866 0.870549
O O11 0.884281 0.328897 0.966669
O O12 0.492043 0.174647 0.647178
O O13 0.533305 0.000000 0.737888
O O14 0.500000 0.760562 0.500000
O O15 0.613281 0.768756 0.490769
O O16 0.593462 0.000000 0.525090
O O17 0.250000 0.250000 0.500000
O O18 0.310686 0.000000 0.506395
O O19 0.003798 0.500000 0.911218
#
# Coordination Sequence:
#
# PCOD8099836 Si02
#       7
#     8   8   8   8   8   8   8
#     4  11  23  36  54  81 111 147 188 230 278 334
#     4  10  21  37  57  79 107 149 191 226 274 343
#     4   9  19  36  57  79 106 145 186 224 272 337
#     4  11  22  33  53  86 114 139 181 234 281 325
#     4   9  18  35  59  83 108 144 188 231 276 331
#     4  10  20  35  57  82 109 143 181 227 277 329
#     4   9  19  37  57  77 106 144 187 229 273 329
#
# _framework density 19.045449999999999
#
# number of rings (size 3 to 8) (size 9 to 14) (size 15 to 20)
#    0.000    2.143    1.429    2.571    0.000    7.429 
#    0.000    4.286    0.000    1.714    0.000    0.000 
#    0.000    0.000    0.000    0.000    0.000    0.000 
#
# Total GULP energy -347141.295856 kJ/mol
# GULP energy per Si atom -12397.903423 kJ/mol
# Density = 1.900210 g / cm^3
# Si number density = 19.045450 Si / 1000 Ang^3
#
#
#
# Elastic Constant Matrix: (Units=GPa)
#
#
# Indices 1 2 3 4 5 6 
#
# 1 132.3691 41.9899 53.4787 -0.0002 3.4428 0.0000
# 2 41.9899 60.9610 35.8720 -0.0004 2.7524 0.0001
# 3 53.4787 35.8720 93.9059 -0.0004 8.2682 0.0002
# 4 -0.0002 -0.0004 -0.0004 20.2053 0.0001 -0.0177
# 5 3.4428 2.7524 8.2682 0.0001 32.9773 0.0000
# 6 0.0000 0.0001 0.0002 -0.0177 0.0000 32.5911
#
#
#
# Elastic Compliance Matrix: (Units=1/GPa)
#
#
# Indices 1 2 3 4 5 6 
#
# 1 0.010865 -0.004954 -0.004327 0.000000 0.000364 0.000000
# 2 -0.004954 0.023422 -0.006135 0.000000 0.000100 0.000000
# 3 -0.004327 -0.006135 0.015719 0.000000 -0.002977 0.000000
# 4 0.000000 0.000000 0.000000 0.049492 0.000000 0.000027
# 5 0.000364 0.000100 -0.002977 0.000000 0.031024 0.000000
# 6 0.000000 0.000000 0.000000 0.000027 0.000000 0.030683
#
#
# Mechanical properties :
#
#
# Convention : Reuss Voigt Hill
#
# Bulk Modulus (GPa) = 52.15436 61.10192 56.62814
# Shear Modulus (GPa) = 25.19817 27.54775 26.37296
#
# Velocity S-wave (km/s) = 3.64133 3.80731 3.72524
# Velocity P-wave (km/s) = 6.71734 7.17491 6.94989
#
# Compressibility (1/GPa) = 0.01917385
#
# Stress axis : x y z
#
# Youngs Moduli (GPa) = 92.04012 42.69578 63.61800
#
# Poissons Ratio (x) = 0.21151 0.27528
# Poissons Ratio (y) = 0.45595 0.39028
# Poissons Ratio (z) = 0.39827 0.26192
#
# Static dielectric constant tensor:
#      x y z
#    x 3.706710 0.000000 -0.047500 
#    y 0.000000 3.444820 0.000000 
#    z -0.047500 0.000000 3.592000 
# 
# 
# High freq. dielectric constant tensor:
#      x y z
#    x 1.743350 0.000000 0.001550 
#    y 0.000000 1.723030 0.000000 
#    z 0.001550 0.000000 1.744690 
# 
# From -- ./inp_files/329562.got.cif
#   From: 2010.06.25/outbox.cif.g09.slc.cpg/sg12_165_cif.got.tgz:329562.got - 2010.06.28 00:19:55.
