data_PCOD8099091
_publ_section_title
;
Structure prediction by ZEFSAII (Michael W. Deem and Ramdas Pophale) SiO2 
 PCOD8099091
Probable space group: C 2/M
;
_chemical_formula_sum "Si O2"
_cell_formula_units_Z 48
_cell_length_a 31.703319
_cell_length_b 8.823511
_cell_length_c 9.546928
_cell_angle_alpha 90.000000
_cell_angle_beta 104.346365
_cell_angle_gamma 90.000000
_cell_volume 2587.324520
_symmetry_space_group_name_H-M "C 2/M"
_symmetry_group_IT_number 12
_symmetry_cell_setting 'monoclinic'
loop_
_space_group_symop_operation_xyz
x,y,z
-x,y,-z
-x,-y,-z
x,-y,z
1/2+x,1/2+y,z
1/2-x,1/2+y,-z
1/2-x,1/2-y,-z
1/2+x,1/2-y,z
loop_
_atom_site_type_symbol
_atom_site_label
_atom_site_fract_x
_atom_site_fract_y
_atom_site_fract_z
Si Si1 0.381370 0.171619 0.192028
Si Si2 0.116282 0.177572 0.383229
Si Si3 0.450890 0.824087 0.471847
Si Si4 0.684858 0.675895 0.671342
Si Si5 0.236553 0.821479 0.136315
Si Si6 0.354088 0.174594 0.868297
O O1 0.427795 0.203868 0.302749
O O2 0.345003 0.285556 0.219587
O O3 0.365948 0.000000 0.213847
O O4 0.385342 0.195478 0.028976
O O5 0.073022 0.229701 0.427534
O O6 0.159166 0.219174 0.508822
O O7 0.118506 0.264933 0.239348
O O8 0.113369 0.000000 0.352812
O O9 0.500000 0.763634 0.500000
O O10 0.449908 0.000000 0.514097
O O11 0.696690 0.500000 0.686754
O O12 0.729264 0.771363 0.715621
O O13 0.189562 0.769691 0.148295
O O14 0.237078 0.000000 0.119748
O O15 0.250000 0.750000 0.000000
O O16 0.341455 0.000000 0.835021
#
# Coordination Sequence:
#
# PCOD8099091 Si02
#       6
#     8   8   8   8   8   8
#     4   9  18  33  55  81 108 141 182 226 274 327
#     4  10  22  38  56  81 113 146 182 226 279 331
#     4   9  18  36  62  87 109 138 179 226 276 334
#     4  10  20  35  55  78 106 145 189 230 272 321
#     4  12  23  35  54  80 111 146 188 231 269 319
#     4  11  22  36  55  80 111 148 186 228 276 323
#
# _framework density 18.551984000000001
#
# number of rings (size 3 to 8) (size 9 to 14) (size 15 to 20)
#    0.000    1.833    1.667    3.000    0.000    3.667 
#    0.000    0.833    0.000    5.000    0.000    0.000 
#    0.000    0.000    0.000    0.000    0.000    0.000 
#
# Total GULP energy -297668.843691 kJ/mol
# GULP energy per Si atom -12402.868487 kJ/mol
# Density = 1.850976 g / cm^3
# Si number density = 18.551984 Si / 1000 Ang^3
#
#
#
# Elastic Constant Matrix: (Units=GPa)
#
#
# Indices 1 2 3 4 5 6 
#
# 1 112.4233 40.8083 51.2993 0.0000 9.7500 0.0000
# 2 40.8083 99.3463 46.6640 0.0000 -0.7474 0.0000
# 3 51.2993 46.6640 118.3067 0.0000 -5.1654 0.0000
# 4 0.0000 0.0000 0.0000 27.5403 0.0000 -4.1089
# 5 9.7500 -0.7474 -5.1654 0.0000 21.3647 0.0000
# 6 0.0000 0.0000 0.0000 -4.1089 0.0000 28.5408
#
#
#
# Elastic Compliance Matrix: (Units=1/GPa)
#
#
# Indices 1 2 3 4 5 6 
#
# 1 0.012737 -0.003126 -0.004597 0.000000 -0.007034 0.000000
# 2 -0.003126 0.013134 -0.003783 0.000000 0.000971 0.000000
# 3 -0.004597 -0.003783 0.012152 0.000000 0.004904 0.000000
# 4 0.000000 0.000000 0.000000 0.037107 0.000000 0.005342
# 5 -0.007034 0.000971 0.004904 0.000000 0.051236 0.000000
# 6 0.000000 0.000000 0.000000 0.005342 0.000000 0.035807
#
#
# Mechanical properties :
#
#
# Convention : Reuss Voigt Hill
#
# Bulk Modulus (GPa) = 66.61309 67.51328 67.06318
# Shear Modulus (GPa) = 26.28977 28.24281 27.26629
#
# Velocity S-wave (km/s) = 3.76850 3.90598 3.83786
# Velocity P-wave (km/s) = 7.41078 7.53741 7.47436
#
# Compressibility (1/GPa) = 0.01501207
#
# Stress axis : x y z
#
# Youngs Moduli (GPa) = 78.50975 76.13969 82.28980
#
# Poissons Ratio (x) = 0.23798 0.37831
# Poissons Ratio (y) = 0.24539 0.31128
# Poissons Ratio (z) = 0.36093 0.28801
#
# Static dielectric constant tensor:
#      x y z
#    x 3.333150 0.000000 0.202900 
#    y 0.000000 3.495590 0.000000 
#    z 0.202900 0.000000 3.523510 
# 
# 
# High freq. dielectric constant tensor:
#      x y z
#    x 1.701910 0.000000 0.011470 
#    y 0.000000 1.729070 0.000000 
#    z 0.011470 0.000000 1.720060 
# 
# From -- ./inp_files/108694.got.cif
#   From: 2010.06.25/outbox.cif.g09.slc.cpg/sg12_55_cif.got.tgz:108694.got - 2010.06.28 00:19:55.
