data_PCOD8099107
_publ_section_title
;
Structure prediction by ZEFSAII (Michael W. Deem and Ramdas Pophale) SiO2 
 PCOD8099107
Probable space group: C 2/M
;
_chemical_formula_sum "Si O2"
_cell_formula_units_Z 64
_cell_length_a 17.965768
_cell_length_b 8.846306
_cell_length_c 30.335594
_cell_angle_alpha 90.000000
_cell_angle_beta 137.558809
_cell_angle_gamma 90.000000
_cell_volume 3253.543563
_symmetry_space_group_name_H-M "C 2/M"
_symmetry_group_IT_number 12
_symmetry_cell_setting 'monoclinic'
loop_
_space_group_symop_operation_xyz
x,y,z
-x,y,-z
-x,-y,-z
x,-y,z
1/2+x,1/2+y,z
1/2-x,1/2+y,-z
1/2-x,1/2-y,-z
1/2+x,1/2-y,z
loop_
_atom_site_type_symbol
_atom_site_label
_atom_site_fract_x
_atom_site_fract_y
_atom_site_fract_z
Si Si1 0.928572 0.676000 0.809386
Si Si2 0.487601 0.675498 0.319581
Si Si3 0.670146 0.678626 0.071464
Si Si4 0.411869 0.822006 0.198709
Si Si5 0.994161 0.821218 0.926950
Si Si6 0.782195 0.678076 0.560082
Si Si7 0.872664 0.324514 0.436801
Si Si8 0.684332 0.675424 0.678670
O O1 0.940247 0.500000 0.823227
O O2 0.988476 0.756537 0.875741
O O3 0.801382 0.725262 0.750153
O O4 0.989629 0.722075 0.791016
O O5 0.518929 0.500000 0.329735
O O6 0.424509 0.727696 0.248585
O O7 0.597213 0.772352 0.372481
O O8 0.409511 0.707185 0.326790
O O9 0.661026 0.500000 0.068142
O O10 0.796839 0.731077 0.126414
O O11 0.608805 0.738586 0.088733
O O12 0.607123 0.736313 0.999954
O O13 0.411526 0.000000 0.209592
O O14 0.992217 0.000000 0.922240
O O15 0.779674 0.500000 0.553479
O O16 0.750000 0.750000 0.500000
O O17 0.694967 0.724913 0.558626
O O18 0.845722 0.500000 0.432821
O O19 0.839868 0.280020 0.373335
O O20 0.000000 0.288052 0.500000
O O21 0.687333 0.500000 0.665462
#
# Coordination Sequence:
#
# PCOD8099107 Si02
#       8
#     8   8   8   8   8   8   8   8
#     4  10  21  35  51  77 111 143 179 227 284 342
#     4  11  23  39  60  86 115 148 192 241 286 339
#     4   8  16  32  53  77 104 139 186 232 276 333
#     4  10  20  35  55  78 109 149 188 230 285 347
#     4   9  17  32  54  76 102 140 185 232 279 332
#     4  12  25  42  64  89 120 155 192 235 284 336
#     4  11  24  41  63  92 122 152 191 235 278 333
#     4  10  22  39  58  82 115 153 189 233 290 343
#
# _framework density 19.670860999999999
#
# number of rings (size 3 to 8) (size 9 to 14) (size 15 to 20)
#    0.000    1.875    0.000    4.875    0.000    6.500 
#    0.000    1.875    0.000    0.000    0.000    0.000 
#    0.000    0.000    0.000    0.000    0.000    0.000 
#
# Total GULP energy -396888.463242 kJ/mol
# GULP energy per Si atom -12402.764476 kJ/mol
# Density = 1.962609 g / cm^3
# Si number density = 19.670861 Si / 1000 Ang^3
#
#
#
# Elastic Constant Matrix: (Units=GPa)
#
#
# Indices 1 2 3 4 5 6 
#
# 1 103.4389 52.8609 51.1546 0.0000 2.0735 0.0001
# 2 52.8609 82.9398 50.6993 -0.0002 -0.7747 -0.0002
# 3 51.1546 50.6993 125.9662 0.0000 -2.0292 0.0001
# 4 0.0000 -0.0002 0.0000 0.5762 0.0000 -57.8845
# 5 2.0735 -0.7747 -2.0292 0.0000 40.4290 -0.0001
# 6 0.0001 -0.0002 0.0001 -57.8845 -0.0001 -49.5562
#
#
#
# Elastic Compliance Matrix: (Units=1/GPa)
#
#
# Indices 1 2 3 4 5 6 
#
# 1 0.015196 -0.007842 -0.003032 0.000000 -0.001082 0.000000
# 2 -0.007842 0.020038 -0.004872 0.000000 0.000542 0.000000
# 3 -0.003032 -0.004872 0.011141 0.000000 0.000621 0.000000
# 4 0.000000 0.000000 0.000000 0.014665 0.000000 -0.017130
# 5 -0.001082 0.000542 0.000621 0.000000 0.024832 0.000000
# 6 0.000000 0.000000 0.000000 -0.017130 0.000000 -0.000171
#
#
# Mechanical properties :
#
#
# Convention : Reuss Voigt Hill
#
# Bulk Modulus (GPa) = 67.18909 69.08605 68.13757
# Shear Modulus (GPa) = 40.93199 8.79846 24.86523
#
# Velocity S-wave (km/s) = 4.56658 2.11720 3.55922
# Velocity P-wave (km/s) = 7.87627 6.41670 7.18365
#
# Compressibility (1/GPa) = 0.01488337
#
# Stress axis : x y z
#
# Youngs Moduli (GPa) = 65.80585 49.90589 89.75941
#
# Poissons Ratio (x) = 0.39134 0.27219
# Poissons Ratio (y) = 0.51602 0.43728
# Poissons Ratio (z) = 0.19955 0.24313
#
# Static dielectric constant tensor:
#      x y z
#    x 3.654840 0.000000 0.122440 
#    y 0.000000 3.433150 0.000000 
#    z 0.122440 0.000000 3.871860 
# 
# 
# High freq. dielectric constant tensor:
#      x y z
#    x 1.775580 0.000000 0.002670 
#    y 0.000000 1.751970 0.000000 
#    z 0.002670 0.000000 1.783810 
# 
# From -- ./inp_files/378454.got.cif
#   From: 2010.06.25/outbox.cif.g09.slc.cpg/sg12_190_cif.got.tgz:378454.got - 2010.06.28 00:19:55.
