data_PCOD8099906
_publ_section_title
;
Structure prediction by ZEFSAII (Michael W. Deem and Ramdas Pophale) SiO2 
 PCOD8099906
Probable space group: C 2/M
;
_chemical_formula_sum "Si O2"
_cell_formula_units_Z 64
_cell_length_a 20.033556
_cell_length_b 8.985360
_cell_length_c 31.552313
_cell_angle_alpha 90.000000
_cell_angle_beta 142.752685
_cell_angle_gamma 90.000000
_cell_volume 3437.671096
_symmetry_space_group_name_H-M "C 2/M"
_symmetry_group_IT_number 12
_symmetry_cell_setting 'monoclinic'
loop_
_space_group_symop_operation_xyz
x,y,z
-x,y,-z
-x,-y,-z
x,-y,z
1/2+x,1/2+y,z
1/2-x,1/2+y,-z
1/2-x,1/2-y,-z
1/2+x,1/2-y,z
loop_
_atom_site_type_symbol
_atom_site_label
_atom_site_fract_x
_atom_site_fract_y
_atom_site_fract_z
Si Si1 0.816959 0.673516 0.151323
Si Si2 0.226613 0.824359 0.443581
Si Si3 0.658000 0.675204 0.925240
Si Si4 0.392439 0.829127 0.919208
Si Si5 0.444882 0.829868 0.848336
Si Si6 0.297534 0.169160 0.697780
Si Si7 0.623340 0.175678 0.558094
Si Si8 0.049732 0.330060 0.302715
O O1 0.812866 0.500000 0.136866
O O2 0.830317 0.770755 0.116506
O O3 0.706078 0.719858 0.118810
O O4 0.919825 0.705712 0.234590
O O5 0.250000 0.750000 0.500000
O O6 0.319133 0.769738 0.456496
O O7 0.106096 0.775048 0.366221
O O8 0.228253 0.000000 0.450037
O O9 0.674694 0.500000 0.935041
O O10 0.539925 0.716158 0.884315
O O11 0.750000 0.750000 0.000000
O O12 0.414649 0.804423 0.881332
O O13 0.360525 0.000000 0.913116
O O14 0.500000 0.782227 0.000000
O O15 0.337677 0.794136 0.765549
O O16 0.483991 0.000000 0.859638
O O17 0.193057 0.270632 0.633790
O O18 0.399511 0.201741 0.717928
O O19 0.257686 0.000000 0.673463
O O20 0.500000 0.241577 0.500000
O O21 0.620333 0.000000 0.557784
O O22 0.070632 0.500000 0.327117
#
# Coordination Sequence:
#
# PCOD8099906 Si02
#       8
#     8   8   8   8   8   8   8   8
#     4  11  22  39  61  85 116 151 192 238 288 344
#     4  10  20  35  57  83 113 148 187 227 276 332
#     4  12  24  37  59  88 116 146 190 238 284 340
#     4  10  22  39  58  81 115 157 193 234 290 345
#     4  10  20  38  59  82 117 151 189 237 289 340
#     4   9  17  33  57  82 111 146 183 229 281 334
#     4   9  19  36  56  80 111 145 183 230 275 324
#     4   9  18  35  58  82 112 147 185 232 284 331
#
# _framework density 18.617256000000001
#
# number of rings (size 3 to 8) (size 9 to 14) (size 15 to 20)
#    0.000    2.000    1.250    2.625    0.000    4.000 
#    2.250    0.000    0.000    0.000    0.000    0.000 
#    0.000    0.000    0.000    0.000    0.000    0.000 
#
# Total GULP energy -396884.217981 kJ/mol
# GULP energy per Si atom -12402.631812 kJ/mol
# Density = 1.857488 g / cm^3
# Si number density = 18.617256 Si / 1000 Ang^3
#
#
#
# Elastic Constant Matrix: (Units=GPa)
#
#
# Indices 1 2 3 4 5 6 
#
# 1 87.1620 43.9348 72.1471 0.0000 -1.5022 0.0000
# 2 43.9348 86.8568 55.8629 0.0001 0.9946 0.0002
# 3 72.1471 55.8629 153.4228 0.0000 -2.9209 0.0000
# 4 0.0000 0.0001 0.0000 35.6630 0.0000 2.3356
# 5 -1.5022 0.9946 -2.9209 0.0000 39.1804 0.0000
# 6 0.0000 0.0002 0.0000 2.3356 0.0000 26.2585
#
#
#
# Elastic Compliance Matrix: (Units=1/GPa)
#
#
# Indices 1 2 3 4 5 6 
#
# 1 0.020605 -0.005483 -0.007686 0.000000 0.000356 0.000000
# 2 -0.005483 0.016518 -0.003453 0.000000 -0.000887 0.000000
# 3 -0.007686 -0.003453 0.011402 0.000000 0.000643 0.000000
# 4 0.000000 0.000000 0.000000 0.028205 0.000000 -0.002509
# 5 0.000356 -0.000887 0.000643 0.000000 0.025607 0.000000
# 6 0.000000 0.000000 0.000000 -0.002509 0.000000 0.038306
#
#
# Mechanical properties :
#
#
# Convention : Reuss Voigt Hill
#
# Bulk Modulus (GPa) = 65.44425 74.59236 70.01831
# Shear Modulus (GPa) = 27.93614 30.58684 29.26149
#
# Velocity S-wave (km/s) = 3.87790 4.05770 3.96882
# Velocity P-wave (km/s) = 7.43502 7.88077 7.66114
#
# Compressibility (1/GPa) = 0.01528018
#
# Stress axis : x y z
#
# Youngs Moduli (GPa) = 48.53169 60.54178 87.70565
#
# Poissons Ratio (x) = 0.33197 0.67413
# Poissons Ratio (y) = 0.26611 0.30281
# Poissons Ratio (z) = 0.37303 0.20903
#
# Static dielectric constant tensor:
#      x y z
#    x 3.338700 0.000000 0.030110 
#    y 0.000000 3.431180 0.000000 
#    z 0.030110 0.000000 3.599380 
# 
# 
# High freq. dielectric constant tensor:
#      x y z
#    x 1.709700 0.000000 -0.002750 
#    y 0.000000 1.721680 0.000000 
#    z -0.002750 0.000000 1.735470 
# 
# From -- ./inp_files/378427.got.cif
#   From: 2010.06.25/outbox.cif.g09.slc.cpg/sg12_190_cif.got.tgz:378427.got - 2010.06.28 00:19:55.
