data_PCOD8099719
_publ_section_title
;
Structure prediction by ZEFSAII (Michael W. Deem and Ramdas Pophale) SiO2 
 PCOD8099719
Probable space group: C 2/M
;
_chemical_formula_sum "Si O2"
_cell_formula_units_Z 44
_cell_length_a 8.475056
_cell_length_b 24.710552
_cell_length_c 12.382181
_cell_angle_alpha 90.000000
_cell_angle_beta 125.356990
_cell_angle_gamma 90.000000
_cell_volume 2114.849046
_symmetry_space_group_name_H-M "C 2/M"
_symmetry_group_IT_number 12
_symmetry_cell_setting 'monoclinic'
loop_
_space_group_symop_operation_xyz
x,y,z
-x,y,-z
-x,-y,-z
x,-y,z
1/2+x,1/2+y,z
1/2-x,1/2+y,-z
1/2-x,1/2-y,-z
1/2+x,1/2-y,z
loop_
_atom_site_type_symbol
_atom_site_label
_atom_site_fract_x
_atom_site_fract_y
_atom_site_fract_z
Si Si1 0.804744 0.200489 0.861881
Si Si2 0.080785 0.885922 0.642651
Si Si3 0.754340 0.000000 0.284904
Si Si4 0.078781 0.690535 0.149999
Si Si5 0.184042 0.000000 0.930546
Si Si6 0.876818 0.909217 0.769895
Si Si7 0.132690 0.500000 0.760153
O O1 0.790203 0.254777 0.782837
O O2 0.611043 0.194619 0.852493
O O3 0.849353 0.143920 0.827419
O O4 0.000000 0.217484 0.000000
O O5 0.117532 0.948676 0.638357
O O6 0.280050 0.857813 0.758240
O O7 0.000000 0.859454 0.500000
O O8 0.909548 0.885109 0.663575
O O9 0.688971 0.000000 0.130525
O O10 0.593141 0.000000 0.313101
O O11 0.000000 0.676324 0.000000
O O12 0.057442 0.945178 0.881215
O O13 0.293040 0.000000 0.086558
O O14 0.689523 0.947162 0.712479
#
# Coordination Sequence:
#
# PCOD8099719 Si02
#       7
#     8   8   4   8   4   8   4
#     4  11  20  37  62  92 125 158 195 246 302 359
#     4  11  24  44  62  84 120 163 203 248 299 357
#     4  10  22  37  58  85 115 160 202 238 296 366
#     4  11  23  39  63  92 120 158 203 247 297 355
#     4   9  19  32  54  87 125 158 191 243 299 347
#     4  10  20  35  56  84 120 161 198 244 298 352
#     4  11  19  33  57  94 125 152 197 251 300 351
#
# _framework density 20.805268000000002
#
# number of rings (size 3 to 8) (size 9 to 14) (size 15 to 20)
#    0.000    1.455    0.000    8.727    0.000    4.364 
#    0.000    8.182    0.000    0.000    0.000    0.000 
#    0.000    0.000    0.000    0.000    0.000    0.000 
#
# Total GULP energy -272539.188796 kJ/mol
# GULP energy per Si atom -12388.144945 kJ/mol
# Density = 2.075791 g / cm^3
# Si number density = 20.805268 Si / 1000 Ang^3
#
#
#
# Elastic Constant Matrix: (Units=GPa)
#
#
# Indices 1 2 3 4 5 6 
#
# 1 164.8517 33.9962 36.6655 0.0000 -19.9760 0.0000
# 2 33.9962 123.1435 28.5341 0.0000 -1.1605 0.0000
# 3 36.6655 28.5341 81.4776 0.0000 -9.4820 0.0000
# 4 0.0000 0.0000 0.0000 5.3916 0.0000 -0.1568
# 5 -19.9760 -1.1605 -9.4820 0.0000 20.0164 0.0000
# 6 0.0000 0.0000 0.0000 -0.1568 0.0000 43.9198
#
#
#
# Elastic Compliance Matrix: (Units=1/GPa)
#
#
# Indices 1 2 3 4 5 6 
#
# 1 0.007655 -0.001556 -0.002139 0.000000 0.006536 0.000000
# 2 -0.001556 0.009173 -0.002785 0.000000 -0.002340 0.000000
# 3 -0.002139 -0.002785 0.014758 0.000000 0.004695 0.000000
# 4 0.000000 0.000000 0.000000 0.185494 0.000000 0.000662
# 5 0.006536 -0.002340 0.004695 0.000000 0.058570 0.000000
# 6 0.000000 0.000000 0.000000 0.000662 0.000000 0.022771
#
#
# Mechanical properties :
#
#
# Convention : Reuss Voigt Hill
#
# Bulk Modulus (GPa) = 53.68879 63.09606 58.39243
# Shear Modulus (GPa) = 15.74365 31.88403 23.81384
#
# Velocity S-wave (km/s) = 2.75383 3.91896 3.38687
# Velocity P-wave (km/s) = 5.99774 7.13235 6.58951
#
# Compressibility (1/GPa) = 0.01862586
#
# Stress axis : x y z
#
# Youngs Moduli (GPa) = 130.63914 109.01116 67.76207
#
# Poissons Ratio (x) = 0.16962 0.14495
# Poissons Ratio (y) = 0.20327 0.18870
# Poissons Ratio (z) = 0.27946 0.30357
#
# Static dielectric constant tensor:
#      x y z
#    x 3.837630 0.000000 -0.330780 
#    y 0.000000 4.276330 0.000000 
#    z -0.330780 0.000000 3.469980 
# 
# 
# High freq. dielectric constant tensor:
#      x y z
#    x 1.833990 0.000000 -0.018640 
#    y 0.000000 1.835420 0.000000 
#    z -0.018640 0.000000 1.768210 
# 
# From -- ./inp_files/122697.got.cif
#   From: 2010.06.25/outbox.cif.g09.slc.cpg/sg12_62_cif.got.tgz:122697.got - 2010.06.28 00:19:55.
