data_PCOD8099612
_publ_section_title
;
Structure prediction by ZEFSAII (Michael W. Deem and Ramdas Pophale) SiO2 
 PCOD8099612
Probable space group: C 2/M
;
_chemical_formula_sum "Si O2"
_cell_formula_units_Z 48
_cell_length_a 17.919547
_cell_length_b 15.773425
_cell_length_c 13.315922
_cell_angle_alpha 90.000000
_cell_angle_beta 46.454306
_cell_angle_gamma 90.000000
_cell_volume 2728.082757
_symmetry_space_group_name_H-M "C 2/M"
_symmetry_group_IT_number 12
_symmetry_cell_setting 'monoclinic'
loop_
_space_group_symop_operation_xyz
x,y,z
-x,y,-z
-x,-y,-z
x,-y,z
1/2+x,1/2+y,z
1/2-x,1/2+y,-z
1/2-x,1/2-y,-z
1/2+x,1/2-y,z
loop_
_atom_site_type_symbol
_atom_site_label
_atom_site_fract_x
_atom_site_fract_y
_atom_site_fract_z
Si Si1 0.344716 0.500000 0.091931
Si Si2 0.394708 0.673162 0.363638
Si Si3 0.584503 0.777324 0.144250
Si Si4 0.737471 0.682935 0.867285
Si Si5 0.733971 0.217870 0.670429
Si Si6 0.551229 0.093860 0.845745
Si Si7 0.946922 0.000000 0.213789
O O1 0.275912 0.583710 0.142955
O O2 0.387273 0.500000 0.164600
O O3 0.432299 0.500000 0.924978
O O4 0.503605 0.719155 0.277973
O O5 0.325699 0.714179 0.341105
O O6 0.335642 0.680380 0.523832
O O7 0.415999 0.577810 0.312124
O O8 0.671627 0.809325 0.137692
O O9 0.525049 0.858877 0.158801
O O10 0.631894 0.722553 0.008773
O O11 0.768189 0.735154 0.740004
O O12 0.660246 0.138931 0.759488
O O13 0.570763 0.000000 0.783425
O O14 0.500000 0.087976 0.000000
#
# Coordination Sequence:
#
# PCOD8099612 Si02
#       7
#     4   8   8   8   8   8   4
#     4  11  22  34  64  91 118 145 193 258 300 337
#     4  10  21  37  57  86 115 154 187 241 290 354
#     4  10  22  37  59  82 118 153 192 238 292 352
#     4  11  21  38  58  89 115 156 192 239 294 351
#     4  10  21  37  59  79 116 156 195 230 293 348
#     4  10  20  35  56  83 110 150 197 242 277 341
#     4  11  20  34  62  93 118 145 197 254 300 337
#
# _framework density 17.594774000000001
#
# number of rings (size 3 to 8) (size 9 to 14) (size 15 to 20)
#    0.000    1.667    5.000    0.000    2.333    0.667 
#    0.000    0.000    1.833    2.000    0.000    0.000 
#    0.000    0.000    0.000    0.000    0.000    0.000 
#
# Total GULP energy -297636.325585 kJ/mol
# GULP energy per Si atom -12401.513566 kJ/mol
# Density = 1.755473 g / cm^3
# Si number density = 17.594774 Si / 1000 Ang^3
#
#
#
# Elastic Constant Matrix: (Units=GPa)
#
#
# Indices 1 2 3 4 5 6 
#
# 1 50.5410 38.6098 27.5205 0.0000 3.9568 0.0000
# 2 38.6098 162.1334 60.9559 0.0000 1.6880 0.0000
# 3 27.5205 60.9559 123.2967 0.0000 4.7227 0.0000
# 4 0.0000 0.0000 0.0000 20.8713 0.0000 10.0553
# 5 3.9568 1.6880 4.7227 0.0000 21.7865 0.0000
# 6 0.0000 0.0000 0.0000 10.0553 0.0000 14.3362
#
#
#
# Elastic Compliance Matrix: (Units=1/GPa)
#
#
# Indices 1 2 3 4 5 6 
#
# 1 0.025485 -0.004845 -0.003156 0.000000 -0.003569 0.000000
# 2 -0.004845 0.008498 -0.003155 0.000000 0.000905 0.000000
# 3 -0.003156 -0.003155 0.010430 0.000000 -0.001443 0.000000
# 4 0.000000 0.000000 0.000000 0.072366 0.000000 -0.050757
# 5 -0.003569 0.000905 -0.001443 0.000000 0.046791 0.000000
# 6 0.000000 0.000000 0.000000 -0.050757 0.000000 0.105354
#
#
# Mechanical properties :
#
#
# Convention : Reuss Voigt Hill
#
# Bulk Modulus (GPa) = 45.24645 65.57151 55.40898
# Shear Modulus (GPa) = 16.74464 25.32448 21.03456
#
# Velocity S-wave (km/s) = 3.08828 3.79795 3.46135
# Velocity P-wave (km/s) = 6.20390 7.52204 6.89454
#
# Compressibility (1/GPa) = 0.02210118
#
# Stress axis : x y z
#
# Youngs Moduli (GPa) = 39.23819 117.67298 95.87830
#
# Poissons Ratio (x) = 0.57014 0.30263
# Poissons Ratio (y) = 0.19011 0.30245
# Poissons Ratio (z) = 0.12385 0.37121
#
# Static dielectric constant tensor:
#      x y z
#    x 3.025830 0.000000 -0.019780 
#    y 0.000000 3.738860 0.000000 
#    z -0.019780 0.000000 3.410410 
# 
# 
# High freq. dielectric constant tensor:
#      x y z
#    x 1.666890 0.000000 -0.001620 
#    y 0.000000 1.692510 0.000000 
#    z -0.001620 0.000000 1.685110 
# 
# From -- ./inp_files/225133.got.cif
#   From: 2010.06.25/outbox.cif.g09.slc.cpg/sg12_113_cif.got.tgz:225133.got - 2010.06.28 00:19:55.
