data_PCOD8099890
_publ_section_title
;
Structure prediction by ZEFSAII (Michael W. Deem and Ramdas Pophale) SiO2 
 PCOD8099890
Probable space group: C 2/M
;
_chemical_formula_sum "Si O2"
_cell_formula_units_Z 64
_cell_length_a 19.682004
_cell_length_b 9.154730
_cell_length_c 25.901539
_cell_angle_alpha 90.000000
_cell_angle_beta 131.394725
_cell_angle_gamma 90.000000
_cell_volume 3501.073652
_symmetry_space_group_name_H-M "C 2/M"
_symmetry_group_IT_number 12
_symmetry_cell_setting 'monoclinic'
loop_
_space_group_symop_operation_xyz
x,y,z
-x,y,-z
-x,-y,-z
x,-y,z
1/2+x,1/2+y,z
1/2-x,1/2+y,-z
1/2-x,1/2-y,-z
1/2+x,1/2-y,z
loop_
_atom_site_type_symbol
_atom_site_label
_atom_site_fract_x
_atom_site_fract_y
_atom_site_fract_z
Si Si1 0.078930 0.332483 0.816078
Si Si2 0.397717 0.830145 0.437824
Si Si3 0.263798 0.171882 0.183108
Si Si4 0.751635 0.169360 0.554561
Si Si5 0.273954 0.329474 0.297035
Si Si6 0.370731 0.166395 0.691172
Si Si7 0.155841 0.170620 0.949621
Si Si8 0.095478 0.828614 0.031559
O O1 0.095717 0.500000 0.841337
O O2 0.144072 0.291986 0.801271
O O3 0.096663 0.228324 0.872980
O O4 0.976541 0.303907 0.748571
O O5 0.500000 0.779384 0.500000
O O6 0.341058 0.798984 0.461243
O O7 0.358481 0.738113 0.370512
O O8 0.393134 0.000000 0.419948
O O9 0.265090 0.254913 0.237474
O O10 0.179575 0.233757 0.107021
O O11 0.255014 0.000000 0.189475
O O12 0.750000 0.250000 0.500000
O O13 0.836447 0.226574 0.629683
O O14 0.765920 0.000000 0.551140
O O15 0.292698 0.500000 0.298860
O O16 0.180367 0.299885 0.280694
O O17 0.350846 0.000000 0.664419
O O18 0.173277 0.000000 0.951654
O O19 0.250000 0.250000 0.000000
O O20 0.103719 0.208040 0.975733
O O21 0.094017 0.000000 0.040956
O O22 0.000000 0.756645 0.000000
#
# Coordination Sequence:
#
# PCOD8099890 Si02
#       8
#     8   8   8   8   8   8   8   8
#     4  10  21  38  57  79 107 143 184 223 269 320
#     4   9  19  37  59  81 105 141 186 220 256 315
#     4  10  20  36  56  76 106 144 181 220 264 319
#     4  10  20  35  57  83 112 142 179 223 267 319
#     4  10  21  36  54  80 112 142 175 220 273 318
#     4   9  20  38  57  77 109 146 180 221 269 321
#     4  11  21  36  58  81 108 141 179 225 274 322
#     4   9  19  35  54  79 107 138 180 224 267 318
#
# _framework density 18.280107999999998
#
# number of rings (size 3 to 8) (size 9 to 14) (size 15 to 20)
#    0.000    2.250    1.250    1.125    1.750    3.250 
#    0.000    5.000    0.000    1.875    0.000    0.000 
#    0.000    0.000    0.000    0.000    0.000    0.000 
#
# Total GULP energy -396856.844891 kJ/mol
# GULP energy per Si atom -12401.776403 kJ/mol
# Density = 1.823850 g / cm^3
# Si number density = 18.280108 Si / 1000 Ang^3
#
#
#
# Elastic Constant Matrix: (Units=GPa)
#
#
# Indices 1 2 3 4 5 6 
#
# 1 134.6081 61.2370 89.1710 0.0000 7.5874 0.0000
# 2 61.2370 88.2089 72.8224 0.0000 -11.9808 0.0000
# 3 89.1710 72.8224 135.0819 0.0000 -9.2866 0.0000
# 4 0.0000 0.0000 0.0000 38.1196 0.0000 -5.5868
# 5 7.5874 -11.9808 -9.2866 0.0000 37.9703 0.0000
# 6 0.0000 0.0000 0.0000 -5.5868 0.0000 25.1522
#
#
#
# Elastic Compliance Matrix: (Units=1/GPa)
#
#
# Indices 1 2 3 4 5 6 
#
# 1 0.015264 -0.005039 -0.007810 0.000000 -0.006550 0.000000
# 2 -0.005039 0.022651 -0.008467 0.000000 0.006083 0.000000
# 3 -0.007810 -0.008467 0.017338 0.000000 0.003130 0.000000
# 4 0.000000 0.000000 0.000000 0.027116 0.000000 0.006023
# 5 -0.006550 0.006083 0.003130 0.000000 0.030330 0.000000
# 6 0.000000 0.000000 0.000000 0.006023 0.000000 0.041096
#
#
# Mechanical properties :
#
#
# Convention : Reuss Voigt Hill
#
# Bulk Modulus (GPa) = 79.22657 89.37330 84.29993
# Shear Modulus (GPa) = 24.92102 29.22632 27.07367
#
# Velocity S-wave (km/s) = 3.69628 4.00284 3.85261
# Velocity P-wave (km/s) = 7.85182 8.38814 8.12440
#
# Compressibility (1/GPa) = 0.01262203
#
# Stress axis : x y z
#
# Youngs Moduli (GPa) = 65.51175 44.14893 57.67581
#
# Poissons Ratio (x) = 0.22245 0.45048
# Poissons Ratio (y) = 0.33009 0.48832
# Poissons Ratio (z) = 0.51168 0.37379
#
# Static dielectric constant tensor:
#      x y z
#    x 3.582380 0.000000 0.280770 
#    y 0.000000 3.299580 0.000000 
#    z 0.280770 0.000000 3.773430 
# 
# 
# High freq. dielectric constant tensor:
#      x y z
#    x 1.717610 0.000000 0.001100 
#    y 0.000000 1.700320 0.000000 
#    z 0.001100 0.000000 1.713390 
# 
# From -- ./inp_files/346237.got.cif
#   From: 2010.06.25/outbox.cif.g09.slc.cpg/sg12_174_cif.got.tgz:346237.got - 2010.06.28 00:19:55.
