data_PCOD8099349
_publ_section_title
;
Structure prediction by ZEFSAII (Michael W. Deem and Ramdas Pophale) SiO2 
 PCOD8099349
Probable space group: C 2/M
;
_chemical_formula_sum "Si O2"
_cell_formula_units_Z 56
_cell_length_a 8.406957
_cell_length_b 12.557828
_cell_length_c 29.948483
_cell_angle_alpha 90.000000
_cell_angle_beta 118.339726
_cell_angle_gamma 90.000000
_cell_volume 2782.813524
_symmetry_space_group_name_H-M "C 2/M"
_symmetry_group_IT_number 12
_symmetry_cell_setting 'monoclinic'
loop_
_space_group_symop_operation_xyz
x,y,z
-x,y,-z
-x,-y,-z
x,-y,z
1/2+x,1/2+y,z
1/2-x,1/2+y,-z
1/2-x,1/2-y,-z
1/2+x,1/2-y,z
loop_
_atom_site_type_symbol
_atom_site_label
_atom_site_fract_x
_atom_site_fract_y
_atom_site_fract_z
Si Si1 0.436283 0.121435 0.406539
Si Si2 0.650068 0.382297 0.956803
Si Si3 0.189693 0.123326 0.289844
Si Si4 0.685207 0.294972 0.537492
Si Si5 0.631014 0.770013 0.769103
Si Si6 0.762042 0.825694 0.933202
Si Si7 0.052628 0.379064 0.173323
O O1 0.329944 0.149184 0.347542
O O2 0.364440 0.199027 0.435497
O O3 0.649919 0.133628 0.422375
O O4 0.401530 0.000000 0.417411
O O5 0.676962 0.500000 0.940553
O O6 0.754463 0.302293 0.937894
O O7 0.438531 0.353246 0.928323
O O8 0.730718 0.379135 0.017245
O O9 0.277214 0.153242 0.254407
O O10 0.011163 0.193039 0.274603
O O11 0.134294 0.000000 0.281945
O O12 0.500000 0.359554 0.500000
O O13 0.750000 0.250000 0.500000
O O14 0.777629 0.696999 0.814228
O O15 0.536818 0.845959 0.792058
O O16 0.587754 0.870890 0.885662
O O17 0.120869 0.500000 0.186437
#
# Coordination Sequence:
#
# PCOD8099349 Si02
#       7
#     8   8   8   8   8   8   8
#     4  10  20  35  57  79 105 145 182 217 264 311
#     4  10  20  37  55  76 107 139 172 218 263 306
#     4  10  20  37  57  79 106 138 179 222 263 310
#     4   9  19  34  52  79 112 141 176 218 258 307
#     4  10  22  36  55  80 107 137 174 220 268 318
#     4  10  20  35  56  79 104 138 179 213 259 323
#     4  11  21  36  55  78 107 139 173 215 268 319
#
# _framework density 20.123519000000002
#
# number of rings (size 3 to 8) (size 9 to 14) (size 15 to 20)
#    0.000    2.000    0.000    4.286    0.000    2.857 
#    0.000   14.286    0.000   12.000    0.000    0.000 
#    0.000    0.000    0.000    0.000    0.000    0.000 
#
# Total GULP energy -347157.186578 kJ/mol
# GULP energy per Si atom -12398.470949 kJ/mol
# Density = 2.007772 g / cm^3
# Si number density = 20.123519 Si / 1000 Ang^3
#
#
#
# Elastic Constant Matrix: (Units=GPa)
#
#
# Indices 1 2 3 4 5 6 
#
# 1 44.5869 10.0166 16.6709 0.0000 15.1068 0.0000
# 2 10.0166 108.6372 16.2142 0.0000 2.2446 0.0000
# 3 16.6709 16.2142 86.9475 0.0000 29.6723 0.0000
# 4 0.0000 0.0000 0.0000 16.4174 0.0000 -3.3616
# 5 15.1068 2.2446 29.6723 0.0000 33.9290 0.0000
# 6 0.0000 0.0000 0.0000 -3.3616 0.0000 21.2176
#
#
#
# Elastic Compliance Matrix: (Units=1/GPa)
#
#
# Indices 1 2 3 4 5 6 
#
# 1 0.027010 -0.002108 -0.001039 0.000000 -0.010978 0.000000
# 2 -0.002108 0.009674 -0.002141 0.000000 0.002171 0.000000
# 3 -0.001039 -0.002141 0.016953 0.000000 -0.014222 0.000000
# 4 0.000000 0.000000 0.000000 0.062953 0.000000 0.009974
# 5 -0.010978 0.002171 -0.014222 0.000000 0.046655 0.000000
# 6 0.000000 0.000000 0.000000 0.009974 0.000000 0.048711
#
#
# Mechanical properties :
#
#
# Convention : Reuss Voigt Hill
#
# Bulk Modulus (GPa) = 23.22324 36.21945 29.72135
# Shear Modulus (GPa) = 21.10719 27.46412 24.28565
#
# Velocity S-wave (km/s) = 3.24216 3.69830 3.47771
# Velocity P-wave (km/s) = 5.05775 6.02280 5.56125
#
# Compressibility (1/GPa) = 0.04306030
#
# Stress axis : x y z
#
# Youngs Moduli (GPa) = 37.02363 103.37000 58.98632
#
# Poissons Ratio (x) = 0.21795 0.06130
# Poissons Ratio (y) = 0.07806 0.12627
# Poissons Ratio (z) = 0.03848 0.22127
#
# Static dielectric constant tensor:
#      x y z
#    x 4.033420 0.000000 0.521910 
#    y 0.000000 3.625930 0.000000 
#    z 0.521910 0.000000 3.944350 
# 
# 
# High freq. dielectric constant tensor:
#      x y z
#    x 1.785480 0.000000 0.016570 
#    y 0.000000 1.784230 0.000000 
#    z 0.016570 0.000000 1.790930 
# 
# From -- ./inp_files/355768.got.cif
#   From: 2010.06.25/outbox.cif.g09.slc.cpg/sg12_178_cif.got.tgz:355768.got - 2010.06.28 00:19:55.
