data_PCOD8099935
_publ_section_title
;
Structure prediction by ZEFSAII (Michael W. Deem and Ramdas Pophale) SiO2 
 PCOD8099935
Probable space group: C 2/M
;
_chemical_formula_sum "Si O2"
_cell_formula_units_Z 48
_cell_length_a 29.317599
_cell_length_b 8.826960
_cell_length_c 16.358345
_cell_angle_alpha 90.000000
_cell_angle_beta 38.001753
_cell_angle_gamma 90.000000
_cell_volume 2606.381039
_symmetry_space_group_name_H-M "C 2/M"
_symmetry_group_IT_number 12
_symmetry_cell_setting 'monoclinic'
loop_
_space_group_symop_operation_xyz
x,y,z
-x,y,-z
-x,-y,-z
x,-y,z
1/2+x,1/2+y,z
1/2-x,1/2+y,-z
1/2-x,1/2-y,-z
1/2+x,1/2-y,z
loop_
_atom_site_type_symbol
_atom_site_label
_atom_site_fract_x
_atom_site_fract_y
_atom_site_fract_z
Si Si1 0.027878 0.322796 0.369717
Si Si2 0.669843 0.180053 0.609307
Si Si3 0.447237 0.321379 0.336339
Si Si4 0.095374 0.825820 0.036370
Si Si5 0.329334 0.321593 0.902818
Si Si6 0.082432 0.678698 0.890648
O O1 0.032675 0.500000 0.343272
O O2 0.109403 0.251379 0.243232
O O3 0.000000 0.290519 0.500000
O O4 0.967891 0.246132 0.395091
O O5 0.750000 0.250000 0.500000
O O6 0.627739 0.243942 0.589355
O O7 0.629493 0.238508 0.748066
O O8 0.673574 0.000000 0.598194
O O9 0.435831 0.500000 0.362076
O O10 0.512297 0.282103 0.180593
O O11 0.150925 0.786011 0.031172
O O12 0.100537 0.000000 0.005021
O O13 0.119506 0.731199 0.923056
O O14 0.328067 0.500000 0.887394
O O15 0.250000 0.250000 0.000000
O O16 0.079596 0.500000 0.893978
O O17 0.000000 0.748001 0.000000
#
# Coordination Sequence:
#
# PCOD8099935 Si02
#       6
#     8   8   8   8   8   8
#     4  10  21  38  61  87 114 149 191 235 284 342
#     4  11  23  39  57  81 115 151 187 232 284 336
#     4  10  20  36  59  85 113 148 189 232 281 338
#     4   9  19  34  56  85 112 143 185 229 276 331
#     4  10  21  38  59  86 117 151 189 235 287 339
#     4  10  20  35  57  84 110 141 186 231 272 328
#
# _framework density 18.416340999999999
#
# number of rings (size 3 to 8) (size 9 to 14) (size 15 to 20)
#    0.000    2.000    1.667    3.000    0.000    6.333 
#    3.000    0.000    0.000    0.000    0.000    0.000 
#    0.000    0.000    0.000    0.000    0.000    0.000 
#
# Total GULP energy -297661.785365 kJ/mol
# GULP energy per Si atom -12402.574390 kJ/mol
# Density = 1.837442 g / cm^3
# Si number density = 18.416341 Si / 1000 Ang^3
#
#
#
# Elastic Constant Matrix: (Units=GPa)
#
#
# Indices 1 2 3 4 5 6 
#
# 1 138.0488 59.9768 79.9639 0.0017 -13.4925 -0.0007
# 2 59.9768 89.2940 58.2950 0.0213 -1.6640 -0.0118
# 3 79.9639 58.2950 118.8438 0.0127 -3.9516 -0.0059
# 4 0.0017 0.0213 0.0127 30.6739 -0.0096 -0.8041
# 5 -13.4925 -1.6640 -3.9516 -0.0096 36.2447 0.0030
# 6 -0.0007 -0.0118 -0.0059 -0.8041 0.0030 38.4109
#
#
#
# Elastic Compliance Matrix: (Units=1/GPa)
#
#
# Indices 1 2 3 4 5 6 
#
# 1 0.013542 -0.004649 -0.006695 0.000006 0.004098 -0.000002
# 2 -0.004649 0.018071 -0.005787 -0.000010 -0.001532 0.000004
# 3 -0.006695 -0.005787 0.015723 -0.000002 -0.001044 0.000001
# 4 0.000006 -0.000010 -0.000002 0.032619 0.000010 0.000683
# 5 0.004098 -0.001532 -0.001044 0.000010 0.028932 -0.000003
# 6 -0.000002 0.000004 0.000001 0.000683 -0.000003 0.026049
#
#
# Mechanical properties :
#
#
# Convention : Reuss Voigt Hill
#
# Bulk Modulus (GPa) = 76.48698 82.51754 79.50226
# Shear Modulus (GPa) = 28.80913 30.92930 29.86921
#
# Velocity S-wave (km/s) = 3.95944 4.10255 4.03163
# Velocity P-wave (km/s) = 7.90729 8.20641 8.05824
#
# Compressibility (1/GPa) = 0.01307412
#
# Stress axis : x y z
#
# Youngs Moduli (GPa) = 73.84317 55.33744 63.59938
#
# Poissons Ratio (x) = 0.25724 0.42582
# Poissons Ratio (y) = 0.34327 0.36807
# Poissons Ratio (z) = 0.49441 0.32025
#
# Static dielectric constant tensor:
#      x y z
#    x 3.466150 0.000010 0.014960 
#    y 0.000010 3.412190 0.000000 
#    z 0.014960 0.000000 3.358160 
# 
# 
# High freq. dielectric constant tensor:
#      x y z
#    x 1.722030 0.000000 0.004470 
#    y 0.000000 1.723550 0.000000 
#    z 0.004470 0.000000 1.702000 
# 
# From -- ./inp_files/244741.got.cif
#   From: 2010.06.25/outbox.cif.g09.slc.cpg/sg12_123_cif.got.tgz:244741.got - 2010.06.28 00:19:55.
