data_PCOD8099979
_publ_section_title
;
Structure prediction by ZEFSAII (Michael W. Deem and Ramdas Pophale) SiO2 
 PCOD8099979
Probable space group: C 2/M
;
_chemical_formula_sum "Si O2"
_cell_formula_units_Z 64
_cell_length_a 15.222154
_cell_length_b 9.296780
_cell_length_c 23.929173
_cell_angle_alpha 90.000000
_cell_angle_beta 90.798751
_cell_angle_gamma 90.000000
_cell_volume 3386.056118
_symmetry_space_group_name_H-M "C 2/M"
_symmetry_group_IT_number 12
_symmetry_cell_setting 'monoclinic'
loop_
_space_group_symop_operation_xyz
x,y,z
-x,y,-z
-x,-y,-z
x,-y,z
1/2+x,1/2+y,z
1/2-x,1/2+y,-z
1/2-x,1/2-y,-z
1/2+x,1/2-y,z
loop_
_atom_site_type_symbol
_atom_site_label
_atom_site_fract_x
_atom_site_fract_y
_atom_site_fract_z
Si Si1 0.474705 0.662663 0.058584
Si Si2 0.109817 0.668863 0.760682
Si Si3 0.223720 0.832455 0.444554
Si Si4 0.229105 0.834760 0.161623
Si Si5 0.965411 0.833944 0.823770
Si Si6 0.229961 0.836208 0.944371
Si Si7 0.023886 0.831764 0.437812
Si Si8 0.881205 0.332001 0.367054
O O1 0.510416 0.500000 0.053971
O O2 0.520693 0.732072 0.113475
O O3 0.372357 0.670183 0.069088
O O4 0.500000 0.742003 0.000000
O O5 0.094816 0.500000 0.767016
O O6 0.193324 0.720549 0.797606
O O7 0.021650 0.747145 0.779490
O O8 0.128784 0.712734 0.697318
O O9 0.250000 0.750000 0.500000
O O10 0.124903 0.792250 0.425279
O O11 0.290084 0.787615 0.395893
O O12 0.229802 0.000000 0.458849
O O13 0.221090 0.738469 0.106493
O O14 0.136870 0.819613 0.193699
O O15 0.244927 0.000000 0.143708
O O16 0.996490 0.000000 0.823064
O O17 0.263078 0.000000 0.950957
O O18 0.250000 0.750000 0.000000
O O19 0.000000 0.780235 0.500000
O O20 0.963799 0.749793 0.393379
O O21 0.005168 0.000000 0.430852
O O22 0.899775 0.500000 0.374356
#
# Coordination Sequence:
#
# PCOD8099979 Si02
#       8
#     8   8   8   8   8   8   8   8
#     4   9  17  31  52  79 110 141 180 229 276 332
#     4  10  22  40  58  82 118 152 190 240 285 331
#     4  10  20  35  57  84 117 152 189 233 285 340
#     4  10  21  38  61  84 112 150 191 236 288 344
#     4  10  20  37  61  85 109 150 196 231 284 348
#     4  11  21  34  55  83 117 151 188 235 288 346
#     4  10  20  35  57  87 118 148 189 240 286 329
#     4  10  22  38  57  83 116 157 194 229 283 345
#
# _framework density 18.901046000000001
#
# number of rings (size 3 to 8) (size 9 to 14) (size 15 to 20)
#    0.000    2.000    2.500    1.125    0.000    4.750 
#    0.000    2.500    0.000    1.875    0.000    0.000 
#    0.000    0.000    0.000    0.000    0.000    0.000 
#
# Total GULP energy -396832.760275 kJ/mol
# GULP energy per Si atom -12401.023759 kJ/mol
# Density = 1.885803 g / cm^3
# Si number density = 18.901046 Si / 1000 Ang^3
#
#
#
# Elastic Constant Matrix: (Units=GPa)
#
#
# Indices 1 2 3 4 5 6 
#
# 1 124.5032 43.5373 60.5578 0.0000 -7.6062 0.0000
# 2 43.5373 58.6320 53.4252 0.0000 0.0005 0.0000
# 3 60.5578 53.4252 139.0393 0.0000 -9.5064 0.0000
# 4 0.0000 0.0000 0.0000 29.6607 0.0000 -0.1167
# 5 -7.6062 0.0005 -9.5064 0.0000 32.8005 0.0000
# 6 0.0000 0.0000 0.0000 -0.1167 0.0000 29.3075
#
#
#
# Elastic Compliance Matrix: (Units=1/GPa)
#
#
# Indices 1 2 3 4 5 6 
#
# 1 0.011571 -0.006343 -0.002468 0.000000 0.001968 0.000000
# 2 -0.006343 0.030011 -0.009049 0.000000 -0.004094 0.000000
# 3 -0.002468 -0.009049 0.011941 0.000000 0.002889 0.000000
# 4 0.000000 0.000000 0.000000 0.033715 0.000000 0.000134
# 5 0.001968 -0.004094 0.002889 0.000000 0.031781 0.000000
# 6 0.000000 0.000000 0.000000 0.000134 0.000000 0.034121
#
#
# Mechanical properties :
#
#
# Convention : Reuss Voigt Hill
#
# Bulk Modulus (GPa) = 56.16795 70.80169 63.48482
# Shear Modulus (GPa) = 25.66813 29.33070 27.49942
#
# Velocity S-wave (km/s) = 3.68914 3.94357 3.81847
# Velocity P-wave (km/s) = 6.92298 7.63388 7.28710
#
# Compressibility (1/GPa) = 0.01780375
#
# Stress axis : x y z
#
# Youngs Moduli (GPa) = 86.42637 33.32122 83.74264
#
# Poissons Ratio (x) = 0.21137 0.20664
# Poissons Ratio (y) = 0.54823 0.75776
# Poissons Ratio (z) = 0.21326 0.30151
#
# Static dielectric constant tensor:
#      x y z
#    x 3.702980 0.000000 -0.082300 
#    y 0.000000 3.206580 0.000000 
#    z -0.082300 0.000000 3.517260 
# 
# 
# High freq. dielectric constant tensor:
#      x y z
#    x 1.746380 0.000000 -0.001650 
#    y 0.000000 1.714480 0.000000 
#    z -0.001650 0.000000 1.733270 
# 
# From -- ./inp_files/338742.got.cif
#   From: 2010.06.25/outbox.cif.g09.slc.cpg/sg12_170_cif.got.tgz:338742.got - 2010.06.28 00:19:55.
