data_PCOD8099183
_publ_section_title
;
Structure prediction by ZEFSAII (Michael W. Deem and Ramdas Pophale) SiO2 
 PCOD8099183
Probable space group: C 2/M
;
_chemical_formula_sum "Si O2"
_cell_formula_units_Z 64
_cell_length_a 16.014114
_cell_length_b 18.229625
_cell_length_c 13.306840
_cell_angle_alpha 90.000000
_cell_angle_beta 116.223959
_cell_angle_gamma 90.000000
_cell_volume 3484.846840
_symmetry_space_group_name_H-M "C 2/M"
_symmetry_group_IT_number 12
_symmetry_cell_setting 'monoclinic'
loop_
_space_group_symop_operation_xyz
x,y,z
-x,y,-z
-x,-y,-z
x,-y,z
1/2+x,1/2+y,z
1/2-x,1/2+y,-z
1/2-x,1/2-y,-z
1/2+x,1/2-y,z
loop_
_atom_site_type_symbol
_atom_site_label
_atom_site_fract_x
_atom_site_fract_y
_atom_site_fract_z
Si Si1 0.086680 0.330545 0.330936
Si Si2 0.580290 0.082870 0.706005
Si Si3 0.359129 0.287123 0.910755
Si Si4 0.019257 0.209010 0.840498
Si Si5 0.253863 0.679673 0.272301
Si Si6 0.146153 0.915801 0.822056
Si Si7 0.894155 0.707893 0.441464
Si Si8 0.750331 0.418858 0.074256
O O1 0.166306 0.346297 0.291993
O O2 0.137064 0.310695 0.461864
O O3 0.025807 0.403391 0.316195
O O4 0.010166 0.268422 0.258704
O O5 0.612767 0.136682 0.633708
O O6 0.642224 0.094496 0.839352
O O7 0.588284 0.000000 0.669028
O O8 0.428470 0.306632 0.857542
O O9 0.284526 0.225344 0.842871
O O10 0.311794 0.364995 0.894873
O O11 0.404446 0.259905 0.039823
O O12 0.058793 0.135665 0.807674
O O13 0.310759 0.609941 0.261219
O O14 0.324830 0.728819 0.371948
O O15 0.111031 0.000000 0.793976
O O16 0.231593 0.908693 0.945956
O O17 0.000000 0.737486 0.500000
O O18 0.719027 0.500000 0.090913
#
# Coordination Sequence:
#
# PCOD8099183 Si02
#       8
#     8   8   8   8   8   8   8   8
#     4  10  22  35  55  80 108 141 177 217 264 309
#     4  10  20  35  55  80 109 138 175 219 264 313
#     4   9  18  32  55  81 107 134 177 221 270 309
#     4   9  19  34  53  81 106 138 176 224 263 310
#     4  11  21  36  55  79 108 141 177 221 256 316
#     4  10  21  34  52  77 108 147 178 210 261 319
#     4  10  20  36  58  81 103 136 179 222 269 309
#     4   9  18  32  52  80 111 140 172 215 267 317
#
# _framework density 18.365226
#
# number of rings (size 3 to 8) (size 9 to 14) (size 15 to 20)
#    0.000    2.250    1.250    1.875    1.750    4.250 
#    0.000    2.500    0.000    5.625    0.000    0.000 
#    0.000    0.000    0.000    0.000    0.000    0.000 
#
# Total GULP energy -396620.035208 kJ/mol
# GULP energy per Si atom -12394.376100 kJ/mol
# Density = 1.832343 g / cm^3
# Si number density = 18.365226 Si / 1000 Ang^3
#
#
#
# Elastic Constant Matrix: (Units=GPa)
#
#
# Indices 1 2 3 4 5 6 
#
# 1 47.4624 23.1214 24.2527 0.0000 -2.9858 0.0000
# 2 23.1214 68.5921 39.3325 0.0000 -3.5621 0.0000
# 3 24.2527 39.3325 72.7123 0.0000 1.1143 0.0000
# 4 0.0000 0.0000 0.0000 23.2978 0.0000 3.9794
# 5 -2.9858 -3.5621 1.1143 0.0000 28.0390 0.0000
# 6 0.0000 0.0000 0.0000 3.9794 0.0000 21.1807
#
#
#
# Elastic Compliance Matrix: (Units=1/GPa)
#
#
# Indices 1 2 3 4 5 6 
#
# 1 0.027000 -0.005495 -0.006070 0.000000 0.002418 0.000000
# 2 -0.005495 0.022533 -0.010397 0.000000 0.002691 0.000000
# 3 -0.006070 -0.010397 0.021445 0.000000 -0.002820 0.000000
# 4 0.000000 0.000000 0.000000 0.044346 0.000000 -0.008332
# 5 0.002418 0.002691 -0.002820 0.000000 0.036376 0.000000
# 6 0.000000 0.000000 0.000000 -0.008332 0.000000 0.048778
#
#
# Mechanical properties :
#
#
# Convention : Reuss Voigt Hill
#
# Bulk Modulus (GPa) = 36.96443 40.24222 38.60333
# Shear Modulus (GPa) = 19.73004 21.30752 20.51878
#
# Velocity S-wave (km/s) = 3.28123 3.40988 3.34617
# Velocity P-wave (km/s) = 5.87592 6.12069 5.99955
#
# Compressibility (1/GPa) = 0.02705303
#
# Stress axis : x y z
#
# Youngs Moduli (GPa) = 37.03679 44.37943 46.63087
#
# Poissons Ratio (x) = 0.24386 0.28307
# Poissons Ratio (y) = 0.20351 0.48483
# Poissons Ratio (z) = 0.22483 0.46143
#
# Static dielectric constant tensor:
#      x y z
#    x 3.282610 0.000000 0.090060 
#    y 0.000000 3.292180 0.000000 
#    z 0.090060 0.000000 3.611960 
# 
# 
# High freq. dielectric constant tensor:
#      x y z
#    x 1.705390 0.000000 0.002950 
#    y 0.000000 1.699090 0.000000 
#    z 0.002950 0.000000 1.719910 
# 
# From -- ./inp_files/225320.got.cif
#   From: 2010.06.25/outbox.cif.g09.slc.cpg/sg12_113_cif.got.tgz:225320.got - 2010.06.28 00:19:55.
