data_PCOD8099650
_publ_section_title
;
Structure prediction by ZEFSAII (Michael W. Deem and Ramdas Pophale) SiO2 
 PCOD8099650
Probable space group: C 2/M
;
_chemical_formula_sum "Si O2"
_cell_formula_units_Z 56
_cell_length_a 18.874707
_cell_length_b 9.304795
_cell_length_c 18.985000
_cell_angle_alpha 90.000000
_cell_angle_beta 121.055714
_cell_angle_gamma 90.000000
_cell_volume 2856.335376
_symmetry_space_group_name_H-M "C 2/M"
_symmetry_group_IT_number 12
_symmetry_cell_setting 'monoclinic'
loop_
_space_group_symop_operation_xyz
x,y,z
-x,y,-z
-x,-y,-z
x,-y,z
1/2+x,1/2+y,z
1/2-x,1/2+y,-z
1/2-x,1/2-y,-z
1/2+x,1/2-y,z
loop_
_atom_site_type_symbol
_atom_site_label
_atom_site_fract_x
_atom_site_fract_y
_atom_site_fract_z
Si Si1 0.197343 0.336225 0.189062
Si Si2 0.233498 0.836642 0.920996
Si Si3 0.452083 0.335907 0.177664
Si Si4 0.595403 0.329993 0.350762
Si Si5 0.491382 0.837245 0.918009
Si Si6 0.257913 0.828686 0.350538
Si Si7 0.586734 0.668937 0.506804
O O1 0.230671 0.500000 0.215514
O O2 0.208702 0.285467 0.113870
O O3 0.101300 0.328427 0.158377
O O4 0.244524 0.228407 0.264803
O O5 0.140912 0.820567 0.841960
O O6 0.252801 0.000000 0.951160
O O7 0.250000 0.750000 0.000000
O O8 0.476802 0.500000 0.175340
O O9 0.517566 0.267887 0.266445
O O10 0.451226 0.253468 0.103533
O O11 0.591655 0.500000 0.347275
O O12 0.682398 0.277117 0.362272
O O13 0.584561 0.276424 0.425044
O O14 0.525008 0.000000 0.936232
O O15 0.500000 0.770326 0.000000
O O16 0.342469 0.760110 0.420001
O O17 0.265478 0.000000 0.353031
O O18 0.500000 0.703185 0.500000
O O19 0.607808 0.500000 0.522762
#
# Coordination Sequence:
#
# PCOD8099650 Si02
#       7
#     8   8   8   8   8   8   8
#     4  10  21  37  58  84 114 152 197 236 279 341
#     4  10  22  38  59  83 114 154 194 242 289 339
#     4  10  20  36  58  83 113 149 190 234 281 337
#     4   9  19  37  59  86 116 147 188 233 281 336
#     4  10  20  35  56  83 115 148 187 238 284 329
#     4  11  22  38  60  85 119 153 185 236 287 335
#     4  10  22  39  64  90 114 150 189 230 280 343
#
# _framework density 19.605542
#
# number of rings (size 3 to 8) (size 9 to 14) (size 15 to 20)
#    0.000    2.000    1.429    1.714    2.000    2.857 
#    0.000    1.429    0.000    0.000    0.000    0.000 
#    0.000    0.000    0.000    0.000    0.000    0.000 
#
# Total GULP energy -347210.341339 kJ/mol
# GULP energy per Si atom -12400.369334 kJ/mol
# Density = 1.956092 g / cm^3
# Si number density = 19.605542 Si / 1000 Ang^3
#
#
#
# Elastic Constant Matrix: (Units=GPa)
#
#
# Indices 1 2 3 4 5 6 
#
# 1 89.8876 30.9985 32.7644 0.0000 -6.6099 0.0000
# 2 30.9985 57.9518 40.6966 0.0000 -3.6841 0.0000
# 3 32.7644 40.6966 114.2800 0.0000 -6.5153 0.0000
# 4 0.0000 0.0000 0.0000 31.7277 0.0000 0.4511
# 5 -6.6099 -3.6841 -6.5153 0.0000 38.1197 0.0000
# 6 0.0000 0.0000 0.0000 0.4511 0.0000 23.9816
#
#
#
# Elastic Compliance Matrix: (Units=1/GPa)
#
#
# Indices 1 2 3 4 5 6 
#
# 1 0.013997 -0.006178 -0.001726 0.000000 0.001535 0.000000
# 2 -0.006178 0.025763 -0.007394 0.000000 0.000155 0.000000
# 3 -0.001726 -0.007394 0.011937 0.000000 0.001026 0.000000
# 4 0.000000 0.000000 0.000000 0.031527 0.000000 -0.000593
# 5 0.001535 0.000155 0.001026 0.000000 0.026690 0.000000
# 6 0.000000 0.000000 0.000000 -0.000593 0.000000 0.041710
#
#
# Mechanical properties :
#
#
# Convention : Reuss Voigt Hill
#
# Bulk Modulus (GPa) = 47.39013 52.33758 49.86386
# Shear Modulus (GPa) = 26.41968 29.27645 27.84807
#
# Velocity S-wave (km/s) = 3.67490 3.86848 3.77293
# Velocity P-wave (km/s) = 6.49852 6.83424 6.66849
#
# Compressibility (1/GPa) = 0.02110144
#
# Stress axis : x y z
#
# Youngs Moduli (GPa) = 71.44213 38.81558 83.77360
#
# Poissons Ratio (x) = 0.23980 0.14456
# Poissons Ratio (y) = 0.44136 0.61946
# Poissons Ratio (z) = 0.12328 0.28702
#
# Static dielectric constant tensor:
#      x y z
#    x 3.684020 0.000000 -0.017140 
#    y 0.000000 3.355940 0.000000 
#    z -0.017140 0.000000 3.713960 
# 
# 
# High freq. dielectric constant tensor:
#      x y z
#    x 1.773810 0.000000 0.002420 
#    y 0.000000 1.738090 0.000000 
#    z 0.002420 0.000000 1.772900 
# 
# From -- ./inp_files/275652.got.cif
#   From: 2010.06.25/outbox.cif.g09.slc.cpg/sg12_138_cif.got.tgz:275652.got - 2010.06.28 00:19:55.
