data_PCOD8099648
_publ_section_title
;
Structure prediction by ZEFSAII (Michael W. Deem and Ramdas Pophale) SiO2 
 PCOD8099648
Probable space group: C 2/M
;
_chemical_formula_sum "Si O2"
_cell_formula_units_Z 56
_cell_length_a 18.109408
_cell_length_b 8.651462
_cell_length_c 28.864190
_cell_angle_alpha 90.000000
_cell_angle_beta 141.229507
_cell_angle_gamma 90.000000
_cell_volume 2831.834328
_symmetry_space_group_name_H-M "C 2/M"
_symmetry_group_IT_number 12
_symmetry_cell_setting 'monoclinic'
loop_
_space_group_symop_operation_xyz
x,y,z
-x,y,-z
-x,-y,-z
x,-y,z
1/2+x,1/2+y,z
1/2-x,1/2+y,-z
1/2-x,1/2-y,-z
1/2+x,1/2-y,z
loop_
_atom_site_type_symbol
_atom_site_label
_atom_site_fract_x
_atom_site_fract_y
_atom_site_fract_z
Si Si1 0.313722 0.181347 0.713106
Si Si2 0.582139 0.173151 0.995657
Si Si3 0.978191 0.818830 0.717349
Si Si4 0.953963 0.816514 0.428655
Si Si5 0.890378 0.180175 0.845267
Si Si6 0.378192 0.682953 0.570082
Si Si7 0.231146 0.319665 0.853828
O O1 0.382130 0.280547 0.708787
O O2 0.178956 0.238371 0.645202
O O3 0.364702 0.215687 0.788428
O O4 0.325901 0.000000 0.708028
O O5 0.522409 0.280041 0.927234
O O6 0.596893 0.000000 0.983384
O O7 0.500000 0.176327 0.000000
O O8 0.709666 0.237729 0.072752
O O9 0.929031 0.761702 0.644043
O O10 0.095934 0.726386 0.786047
O O11 0.006508 0.000000 0.730908
O O12 0.000000 0.748973 0.500000
O O13 0.036046 0.750630 0.427839
O O14 0.960792 0.000000 0.432320
O O15 0.794831 0.228946 0.837240
O O16 0.882936 0.000000 0.829010
O O17 0.370086 0.500000 0.563726
O O18 0.250000 0.750000 0.500000
O O19 0.245025 0.500000 0.868773
#
# Coordination Sequence:
#
# PCOD8099648 Si02
#       7
#     8   8   8   8   8   8   8
#     4  11  22  37  58  81 109 148 192 234 281 337
#     4   9  17  31  54  83 113 146 186 230 277 331
#     4  11  23  38  55  79 114 151 189 235 283 331
#     4   9  18  34  57  83 110 142 182 227 274 328
#     4  10  20  35  56  83 115 147 184 232 282 334
#     4  10  21  37  58  84 113 146 184 228 279 333
#     4  10  20  35  57  84 113 148 189 231 279 335
#
# _framework density 19.775169000000002
#
# number of rings (size 3 to 8) (size 9 to 14) (size 15 to 20)
#    0.000    2.000    0.000    3.857    0.000    6.857 
#    0.000    2.143    0.000    3.857    0.000    0.000 
#    0.000    0.000    0.000    0.000    0.000    0.000 
#
# Total GULP energy -347299.046162 kJ/mol
# GULP energy per Si atom -12403.537363 kJ/mol
# Density = 1.973016 g / cm^3
# Si number density = 19.775169 Si / 1000 Ang^3
#
#
#
# Elastic Constant Matrix: (Units=GPa)
#
#
# Indices 1 2 3 4 5 6 
#
# 1 110.6965 11.3591 59.6747 0.0000 3.9323 0.0000
# 2 11.3591 36.6889 14.0566 0.0001 -1.8956 -0.0002
# 3 59.6747 14.0566 152.6656 0.0000 5.8701 0.0000
# 4 0.0000 0.0001 0.0000 30.9899 0.0000 4.4630
# 5 3.9323 -1.8956 5.8701 0.0000 29.8923 0.0000
# 6 0.0000 -0.0002 0.0000 4.4630 0.0000 22.1926
#
#
#
# Elastic Compliance Matrix: (Units=1/GPa)
#
#
# Indices 1 2 3 4 5 6 
#
# 1 0.011593 -0.001976 -0.004319 0.000000 -0.000802 0.000000
# 2 -0.001976 0.028750 -0.001970 0.000000 0.002470 0.000000
# 3 -0.004319 -0.001970 0.008467 0.000000 -0.001219 0.000000
# 4 0.000000 0.000000 0.000000 0.033231 0.000000 -0.006683
# 5 -0.000802 0.002470 -0.001219 0.000000 0.033955 0.000000
# 6 0.000000 0.000000 0.000000 -0.006683 0.000000 0.046404
#
#
# Mechanical properties :
#
#
# Convention : Reuss Voigt Hill
#
# Bulk Modulus (GPa) = 30.97808 52.24798 41.61303
# Shear Modulus (GPa) = 26.35886 30.94569 28.65228
#
# Velocity S-wave (km/s) = 3.65489 3.96014 3.81057
# Velocity P-wave (km/s) = 5.78879 6.88394 6.35998
#
# Compressibility (1/GPa) = 0.03228089
#
# Stress axis : x y z
#
# Youngs Moduli (GPa) = 86.25764 34.78231 118.11026
#
# Poissons Ratio (x) = 0.06873 0.51009
# Poissons Ratio (y) = 0.17045 0.23264
# Poissons Ratio (z) = 0.37253 0.06851
#
# Static dielectric constant tensor:
#      x y z
#    x 3.554830 0.000000 -0.028280 
#    y 0.000000 3.450970 0.000000 
#    z -0.028280 0.000000 3.803020 
# 
# 
# High freq. dielectric constant tensor:
#      x y z
#    x 1.759030 0.000000 0.001390 
#    y 0.000000 1.762180 0.000000 
#    z 0.001390 0.000000 1.789410 
# 
# From -- ./inp_files/363146.got.cif
#   From: 2010.06.25/outbox.cif.g09.slc.cpg/sg12_182_cif.got.tgz:363146.got - 2010.06.28 00:19:55.
