data_PCOD8099864
_publ_section_title
;
Structure prediction by ZEFSAII (Michael W. Deem and Ramdas Pophale) SiO2 
 PCOD8099864
Probable space group: C 2/M
;
_chemical_formula_sum "Si O2"
_cell_formula_units_Z 64
_cell_length_a 24.479843
_cell_length_b 9.299154
_cell_length_c 14.712515
_cell_angle_alpha 90.000000
_cell_angle_beta 91.285945
_cell_angle_gamma 90.000000
_cell_volume 3348.340328
_symmetry_space_group_name_H-M "C 2/M"
_symmetry_group_IT_number 12
_symmetry_cell_setting 'monoclinic'
loop_
_space_group_symop_operation_xyz
x,y,z
-x,y,-z
-x,-y,-z
x,-y,z
1/2+x,1/2+y,z
1/2-x,1/2+y,-z
1/2-x,1/2-y,-z
1/2+x,1/2-y,z
loop_
_atom_site_type_symbol
_atom_site_label
_atom_site_fract_x
_atom_site_fract_y
_atom_site_fract_z
Si Si1 0.023294 0.168791 0.097309
Si Si2 0.434056 0.666473 0.239505
Si Si3 0.239469 0.666413 0.160798
Si Si4 0.164398 0.331496 0.521254
Si Si5 0.653678 0.833643 0.866446
Si Si6 0.055817 0.167099 0.550403
Si Si7 0.250828 0.835631 0.629982
Si Si8 0.372845 0.165019 0.931013
O O1 0.080897 0.244094 0.117712
O O2 0.983304 0.216368 0.176678
O O3 0.033374 0.000000 0.097161
O O4 0.000000 0.222194 0.000000
O O5 0.419665 0.500000 0.222465
O O6 0.380162 0.756975 0.214514
O O7 0.451208 0.697526 0.343047
O O8 0.252640 0.500000 0.140466
O O9 0.287208 0.763473 0.122619
O O10 0.231131 0.693771 0.267058
O O11 0.185255 0.718583 0.107836
O O12 0.157167 0.500000 0.539020
O O13 0.105211 0.259205 0.510928
O O14 0.198786 0.263627 0.605488
O O15 0.196821 0.298202 0.429635
O O16 0.660244 0.000000 0.841743
O O17 0.623021 0.811599 0.960778
O O18 0.000000 0.216380 0.500000
O O19 0.068012 0.000000 0.531632
O O20 0.232206 0.000000 0.613751
O O21 0.381777 0.000000 0.904617
#
# Coordination Sequence:
#
# PCOD8099864 Si02
#       8
#     8   8   8   8   8   8   8   8
#     4  10  20  36  58  81 105 139 184 226 265 317
#     4  10  21  38  59  81 107 144 184 222 269 323
#     4  10  21  37  55  77 109 147 183 217 267 328
#     4  10  20  35  57  83 110 139 178 226 273 319
#     4  11  22  35  54  82 112 141 180 226 271 318
#     4  10  22  39  57  79 110 146 182 221 269 325
#     4   9  19  36  57  80 107 143 181 220 268 325
#     4  10  22  37  54  79 111 145 178 222 275 322
#
# _framework density 19.113948000000001
#
# number of rings (size 3 to 8) (size 9 to 14) (size 15 to 20)
#    0.000    2.000    1.250    1.875    0.000    7.500 
#    0.000    0.000    0.000    0.000    0.000    0.000 
#    0.000    0.000    0.000    0.000    0.000    0.000 
#
# Total GULP energy -396975.319835 kJ/mol
# GULP energy per Si atom -12405.478745 kJ/mol
# Density = 1.907044 g / cm^3
# Si number density = 19.113948 Si / 1000 Ang^3
#
#
#
# Elastic Constant Matrix: (Units=GPa)
#
#
# Indices 1 2 3 4 5 6 
#
# 1 146.6406 66.5655 36.5648 0.0000 7.7698 0.0000
# 2 66.5655 76.2193 28.8400 0.0000 3.2914 0.0000
# 3 36.5648 28.8400 60.7753 0.0000 10.0518 0.0000
# 4 0.0000 0.0000 0.0000 20.0096 0.0000 -1.9166
# 5 7.7698 3.2914 10.0518 0.0000 31.6452 0.0000
# 6 0.0000 0.0000 0.0000 -1.9166 0.0000 42.5645
#
#
#
# Elastic Compliance Matrix: (Units=1/GPa)
#
#
# Indices 1 2 3 4 5 6 
#
# 1 0.011678 -0.009217 -0.002466 0.000000 -0.001125 0.000000
# 2 -0.009217 0.023285 -0.005782 0.000000 0.001678 0.000000
# 3 -0.002466 -0.005782 0.021617 0.000000 -0.005660 0.000000
# 4 0.000000 0.000000 0.000000 0.050192 0.000000 0.002260
# 5 -0.001125 0.001678 -0.005660 0.000000 0.033500 0.000000
# 6 0.000000 0.000000 0.000000 0.002260 0.000000 0.023596
#
#
# Mechanical properties :
#
#
# Convention : Reuss Voigt Hill
#
# Bulk Modulus (GPa) = 46.18760 60.84174 53.51467
# Shear Modulus (GPa) = 24.27015 28.95485 26.61250
#
# Velocity S-wave (km/s) = 3.56724 3.89634 3.73541
# Velocity P-wave (km/s) = 6.41745 7.22095 6.83102
#
# Compressibility (1/GPa) = 0.02165083
#
# Stress axis : x y z
#
# Youngs Moduli (GPa) = 85.63189 42.94614 46.25930
#
# Poissons Ratio (x) = 0.39584 0.11407
# Poissons Ratio (y) = 0.78928 0.26745
# Poissons Ratio (z) = 0.21116 0.24830
#
# Static dielectric constant tensor:
#      x y z
#    x 3.482640 0.000000 -0.034330 
#    y 0.000000 3.440230 0.000000 
#    z -0.034330 0.000000 3.502750 
# 
# 
# High freq. dielectric constant tensor:
#      x y z
#    x 1.747370 0.000000 -0.004150 
#    y 0.000000 1.739420 0.000000 
#    z -0.004150 0.000000 1.744860 
# 
# From -- ./inp_files/238697.got.cif
#   From: 2010.06.25/outbox.cif.g09.slc.cpg/sg12_120_cif.got.tgz:238697.got - 2010.06.28 00:19:55.
