data_PCOD8099198
_publ_section_title
;
Structure prediction by ZEFSAII (Michael W. Deem and Ramdas Pophale) SiO2 
 PCOD8099198
Probable space group: C 2/M
;
_chemical_formula_sum "Si O2"
_cell_formula_units_Z 40
_cell_length_a 27.378158
_cell_length_b 8.673401
_cell_length_c 25.617995
_cell_angle_alpha 90.000000
_cell_angle_beta 20.597340
_cell_angle_gamma 90.000000
_cell_volume 2140.091733
_symmetry_space_group_name_H-M "C 2/M"
_symmetry_group_IT_number 12
_symmetry_cell_setting 'monoclinic'
loop_
_space_group_symop_operation_xyz
x,y,z
-x,y,-z
-x,-y,-z
x,-y,z
1/2+x,1/2+y,z
1/2-x,1/2+y,-z
1/2-x,1/2-y,-z
1/2+x,1/2-y,z
loop_
_atom_site_type_symbol
_atom_site_label
_atom_site_fract_x
_atom_site_fract_y
_atom_site_fract_z
Si Si1 0.844959 0.818025 0.449494
Si Si2 0.843723 0.816326 0.155529
Si Si3 0.840786 0.316797 0.563184
Si Si4 0.855018 0.319061 0.853915
Si Si5 0.847894 0.320014 0.743685
O O1 0.750000 0.750000 0.500000
O O2 0.789762 0.757353 0.560300
O O3 0.000000 0.764031 0.282901
O O4 0.837281 0.000000 0.456102
O O5 0.764234 0.761942 0.286988
O O6 0.761370 0.746453 0.187866
O O7 0.848738 0.000000 0.147643
O O8 0.000000 0.748963 0.000000
O O9 0.841981 0.500000 0.554885
O O10 0.996033 0.255818 0.421501
O O11 0.875121 0.500000 0.842955
O O12 0.797979 0.285440 0.852594
O O13 0.750000 0.250000 0.000000
O O14 0.853007 0.500000 0.727113
#
# Coordination Sequence:
#
# PCOD8099198 Si02
#       5
#     8   8   8   8   8
#     4  11  22  37  56  78 106 139 179 224 272 325
#     4   9  16  26  45  75 104 130 168 216 260 305
#     4   9  17  31  51  73 100 134 172 213 260 314
#     4  10  20  35  55  80 110 144 183 223 267 316
#     4   8  15  28  46  69  99 137 176 212 252 305
#
# _framework density 18.690788000000001
#
# number of rings (size 3 to 8) (size 9 to 14) (size 15 to 20)
#    0.000    2.600    0.000    4.200    0.000    4.000 
#    0.000    4.000    0.000   11.400    0.000    0.000 
#    0.000    0.000    0.000    0.000    0.000    0.000 
#
# Total GULP energy -247955.170464 kJ/mol
# GULP energy per Si atom -12397.758523 kJ/mol
# Density = 1.864825 g / cm^3
# Si number density = 18.690788 Si / 1000 Ang^3
#
#
#
# Elastic Constant Matrix: (Units=GPa)
#
#
# Indices 1 2 3 4 5 6 
#
# 1 184.4061 45.2608 98.3412 0.0011 -7.2429 -0.0007
# 2 45.2608 62.3499 28.4914 0.0172 2.4655 -0.0044
# 3 98.3412 28.4914 128.0843 0.0046 12.2216 -0.0002
# 4 0.0011 0.0172 0.0046 22.6762 -0.0001 3.6698
# 5 -7.2429 2.4655 12.2216 -0.0001 36.6357 0.0003
# 6 -0.0007 -0.0044 -0.0002 3.6698 0.0003 24.0056
#
#
#
# Elastic Compliance Matrix: (Units=1/GPa)
#
#
# Indices 1 2 3 4 5 6 
#
# 1 0.010936 -0.004543 -0.007872 0.000005 0.005094 -0.000001
# 2 -0.004543 0.019741 -0.000714 -0.000016 -0.001989 0.000006
# 3 -0.007872 -0.000714 0.014619 -0.000002 -0.006385 0.000000
# 4 0.000005 -0.000016 -0.000002 0.045218 0.000003 -0.006913
# 5 0.005094 -0.001989 -0.006385 0.000003 0.030567 -0.000001
# 6 -0.000001 0.000006 0.000000 -0.006913 -0.000001 0.042714
#
#
# Mechanical properties :
#
#
# Convention : Reuss Voigt Hill
#
# Bulk Modulus (GPa) = 52.52247 79.89191 66.20719
# Shear Modulus (GPa) = 25.45858 30.17996 27.81927
#
# Velocity S-wave (km/s) = 3.69466 4.02269 3.86216
# Velocity P-wave (km/s) = 6.80899 8.02576 7.44229
#
# Compressibility (1/GPa) = 0.01903947
#
# Stress axis : x y z
#
# Youngs Moduli (GPa) = 91.44233 50.65623 68.40273
#
# Poissons Ratio (x) = 0.23012 0.53846
# Poissons Ratio (y) = 0.41540 0.04881
# Poissons Ratio (z) = 0.71983 0.03615
#
# Static dielectric constant tensor:
#      x y z
#    x 3.707420 0.000000 -0.097600 
#    y 0.000000 3.084230 0.000010 
#    z -0.097600 0.000010 3.656600 
# 
# 
# High freq. dielectric constant tensor:
#      x y z
#    x 1.740560 0.000000 0.002300 
#    y 0.000000 1.687490 0.000000 
#    z 0.002300 0.000000 1.725840 
# 
# From -- ./inp_files/101190.got.cif
#   From: 2010.06.25/outbox.cif.g09.slc.cpg/sg12_51_cif.got.tgz:101190.got - 2010.06.28 00:19:55.
