data_PCOD8099639
_publ_section_title
;
Structure prediction by ZEFSAII (Michael W. Deem and Ramdas Pophale) SiO2 
 PCOD8099639
Probable space group: C 2/M
;
_chemical_formula_sum "Si O2"
_cell_formula_units_Z 56
_cell_length_a 18.191505
_cell_length_b 8.612330
_cell_length_c 25.535220
_cell_angle_alpha 90.000000
_cell_angle_beta 44.526225
_cell_angle_gamma 90.000000
_cell_volume 2805.387685
_symmetry_space_group_name_H-M "C 2/M"
_symmetry_group_IT_number 12
_symmetry_cell_setting 'monoclinic'
loop_
_space_group_symop_operation_xyz
x,y,z
-x,y,-z
-x,-y,-z
x,-y,z
1/2+x,1/2+y,z
1/2-x,1/2+y,-z
1/2-x,1/2-y,-z
1/2+x,1/2-y,z
loop_
_atom_site_type_symbol
_atom_site_label
_atom_site_fract_x
_atom_site_fract_y
_atom_site_fract_z
Si Si1 0.059867 0.684123 0.857764
Si Si2 0.830409 0.683720 0.000516
Si Si3 0.494634 0.681422 0.580874
Si Si4 0.044802 0.679707 0.290385
Si Si5 0.157280 0.318423 0.422471
Si Si6 0.265737 0.816263 0.149108
Si Si7 0.123674 0.318656 0.711116
O O1 0.053313 0.500000 0.860438
O O2 0.142047 0.740378 0.859430
O O3 0.095636 0.745392 0.782889
O O4 0.945676 0.752315 0.929888
O O5 0.831288 0.500000 0.995626
O O6 0.796599 0.736764 0.075362
O O7 0.750000 0.750000 0.000000
O O8 0.476004 0.500000 0.582893
O O9 0.501778 0.722335 0.638094
O O10 0.602604 0.729864 0.498347
O O11 0.395840 0.769240 0.605278
O O12 0.040637 0.500000 0.307843
O O13 0.162405 0.727612 0.218513
O O14 0.975679 0.715854 0.274693
O O15 0.142127 0.500000 0.438946
O O16 0.278843 0.276230 0.360801
O O17 0.247042 0.000000 0.162757
O O18 0.152842 0.500000 0.697642
#
# Coordination Sequence:
#
# PCOD8099639 Si02
#       7
#     8   8   8   8   8   8   8
#     4   9  18  35  58  81 108 147 192 234 278 336
#     4  10  20  35  56  83 114 148 187 233 286 342
#     4  11  22  39  62  85 114 152 193 233 281 342
#     4  11  23  38  57  84 118 152 190 237 287 339
#     4  11  22  38  61  88 117 147 187 238 288 338
#     4  10  20  35  58  84 110 146 194 240 285 343
#     4  10  21  37  57  81 113 154 194 233 286 346
#
# _framework density 19.961589
#
# number of rings (size 3 to 8) (size 9 to 14) (size 15 to 20)
#    0.000    1.714    0.000    6.000    0.000    6.286 
#    0.000    1.429    0.000    1.714    0.000    0.000 
#    0.000    0.000    0.000    0.000    0.000    0.000 
#
# Total GULP energy -347345.348693 kJ/mol
# GULP energy per Si atom -12405.191025 kJ/mol
# Density = 1.991616 g / cm^3
# Si number density = 19.961589 Si / 1000 Ang^3
#
#
#
# Elastic Constant Matrix: (Units=GPa)
#
#
# Indices 1 2 3 4 5 6 
#
# 1 147.9851 25.5536 76.6041 0.0000 3.5578 -0.0005
# 2 25.5536 49.2103 23.9406 0.0003 1.5565 -0.0016
# 3 76.6041 23.9406 135.3102 0.0000 4.8423 0.0000
# 4 0.0000 0.0003 0.0000 14.2738 0.0000 1.7181
# 5 3.5578 1.5565 4.8423 0.0000 33.6743 0.0001
# 6 -0.0005 -0.0016 0.0000 1.7181 0.0001 29.2901
#
#
#
# Elastic Compliance Matrix: (Units=1/GPa)
#
#
# Indices 1 2 3 4 5 6 
#
# 1 0.009862 -0.002628 -0.005111 0.000000 -0.000185 0.000000
# 2 -0.002628 0.022943 -0.002556 -0.000001 -0.000415 0.000001
# 3 -0.005111 -0.002556 0.010768 0.000000 -0.000890 0.000000
# 4 0.000000 -0.000001 0.000000 0.070557 0.000000 -0.004139
# 5 -0.000185 -0.000415 -0.000890 0.000000 0.029863 0.000000
# 6 0.000000 0.000001 0.000000 -0.004139 0.000000 0.034384
#
#
# Mechanical properties :
#
#
# Convention : Reuss Voigt Hill
#
# Bulk Modulus (GPa) = 43.51550 64.96691 54.24121
# Shear Modulus (GPa) = 24.19800 29.20813 26.70307
#
# Velocity S-wave (km/s) = 3.48548 3.82935 3.66146
# Velocity P-wave (km/s) = 6.16807 7.22278 6.71616
#
# Compressibility (1/GPa) = 0.02298032
#
# Stress axis : x y z
#
# Youngs Moduli (GPa) = 101.40311 43.58708 92.86497
#
# Poissons Ratio (x) = 0.11456 0.47467
# Poissons Ratio (y) = 0.26652 0.23740
# Poissons Ratio (z) = 0.51831 0.11143
#
# Static dielectric constant tensor:
#      x y z
#    x 3.680170 0.000000 0.057320 
#    y 0.000000 3.478700 0.000000 
#    z 0.057320 0.000000 3.787490 
# 
# 
# High freq. dielectric constant tensor:
#      x y z
#    x 1.787210 0.000000 0.001520 
#    y 0.000000 1.762530 0.000000 
#    z 0.001520 0.000000 1.794890 
# 
# From -- ./inp_files/362897.got.cif
#   From: 2010.06.25/outbox.cif.g09.slc.cpg/sg12_182_cif.got.tgz:362897.got - 2010.06.28 00:19:55.
