data_PCOD8099075
_publ_section_title
;
Structure prediction by ZEFSAII (Michael W. Deem and Ramdas Pophale) SiO2 
 PCOD8099075
Probable space group: C 2/M
;
_chemical_formula_sum "Si O2"
_cell_formula_units_Z 64
_cell_length_a 19.877729
_cell_length_b 8.894204
_cell_length_c 19.922198
_cell_angle_alpha 90.000000
_cell_angle_beta 89.931538
_cell_angle_gamma 90.000000
_cell_volume 3522.173894
_symmetry_space_group_name_H-M "C 2/M"
_symmetry_group_IT_number 12
_symmetry_cell_setting 'monoclinic'
loop_
_space_group_symop_operation_xyz
x,y,z
-x,y,-z
-x,-y,-z
x,-y,z
1/2+x,1/2+y,z
1/2-x,1/2+y,-z
1/2-x,1/2-y,-z
1/2+x,1/2-y,z
loop_
_atom_site_type_symbol
_atom_site_label
_atom_site_fract_x
_atom_site_fract_y
_atom_site_fract_z
Si Si1 0.569023 0.823513 0.322688
Si Si2 0.672309 0.824747 0.931311
Si Si3 0.326302 0.677434 0.431756
Si Si4 0.171136 0.825134 0.070628
Si Si5 0.071212 0.822450 0.830804
Si Si6 0.431499 0.177603 0.830555
Si Si7 0.068027 0.823916 0.676827
Si Si8 0.173952 0.677574 0.431245
O O1 0.584042 0.776466 0.246144
O O2 0.500083 0.751939 0.348864
O O3 0.629455 0.763575 0.369162
O O4 0.561155 0.000000 0.329247
O O5 0.750441 0.796980 0.915414
O O6 0.630879 0.757224 0.870177
O O7 0.656261 0.000000 0.940615
O O8 0.650201 0.738648 0.998408
O O9 0.330564 0.500000 0.440023
O O10 0.371109 0.734358 0.369535
O O11 0.250199 0.730800 0.417364
O O12 0.353737 0.750665 0.500110
O O13 0.131119 0.735023 0.126892
O O14 0.152234 0.000000 0.073433
O O15 0.083681 0.779233 0.753351
O O16 0.999574 0.758214 0.855467
O O17 0.072952 0.000000 0.843457
O O18 0.440220 0.000000 0.839464
O O19 0.057925 0.000000 0.669781
O O20 0.169369 0.500000 0.438563
#
# Coordination Sequence:
#
# PCOD8099075 Si02
#       8
#     8   8   8   8   8   8   8   8
#     4   9  19  34  52  74 101 133 167 207 252 300
#     4  10  21  37  56  79 107 137 171 212 256 304
#     4   9  18  33  51  72  99 131 168 208 250 297
#     4  10  21  37  56  79 107 137 171 212 256 304
#     4  10  20  35  55  78 105 137 173 213 258 307
#     4  10  20  35  55  78 105 137 173 213 258 307
#     4   9  19  34  52  74 101 133 167 207 252 300
#     4   9  18  33  51  72  99 131 168 208 250 297
#
# _framework density 18.170596
#
# number of rings (size 3 to 8) (size 9 to 14) (size 15 to 20)
#    0.000    2.500    0.000    1.500    0.000    5.500 
#    0.000    7.500    0.000    3.000    0.000    0.000 
#    0.000    0.000    0.000    0.000    0.000    0.000 
#
# Total GULP energy -396888.752507 kJ/mol
# GULP energy per Si atom -12402.773516 kJ/mol
# Density = 1.812924 g / cm^3
# Si number density = 18.170596 Si / 1000 Ang^3
#
#
#
# Elastic Constant Matrix: (Units=GPa)
#
#
# Indices 1 2 3 4 5 6 
#
# 1 100.2051 29.1198 70.9933 0.0000 3.0033 0.0000
# 2 29.1198 27.6627 21.8399 0.0000 5.0975 0.0000
# 3 70.9933 21.8399 99.9515 0.0000 2.5169 0.0000
# 4 0.0000 0.0000 0.0000 31.5328 0.0000 -0.1033
# 5 3.0033 5.0975 2.5169 0.0000 34.1558 0.0000
# 6 0.0000 0.0000 0.0000 -0.1033 0.0000 32.4741
#
#
#
# Elastic Compliance Matrix: (Units=1/GPa)
#
#
# Indices 1 2 3 4 5 6 
#
# 1 0.024024 -0.014495 -0.013924 0.000000 0.001077 0.000000
# 2 -0.014495 0.053621 -0.001254 0.000000 -0.006636 0.000000
# 3 -0.013924 -0.001254 0.020170 0.000000 -0.000075 0.000000
# 4 0.000000 0.000000 0.000000 0.031713 0.000000 0.000101
# 5 0.001077 -0.006636 -0.000075 0.000000 0.030179 0.000000
# 6 0.000000 0.000000 0.000000 0.000101 0.000000 0.030794
#
#
# Mechanical properties :
#
#
# Convention : Reuss Voigt Hill
#
# Bulk Modulus (GPa) = 25.99401 52.41390 39.20395
# Shear Modulus (GPa) = 19.03520 26.69029 22.86275
#
# Velocity S-wave (km/s) = 3.24015 3.83675 3.55100
# Velocity P-wave (km/s) = 5.32303 6.96675 6.19961
#
# Compressibility (1/GPa) = 0.03847040
#
# Stress axis : x y z
#
# Youngs Moduli (GPa) = 41.62442 18.64935 49.57751
#
# Poissons Ratio (x) = 0.27033 0.69031
# Poissons Ratio (y) = 0.60336 0.06215
# Poissons Ratio (z) = 0.57957 0.02338
#
# Static dielectric constant tensor:
#      x y z
#    x 3.466630 0.000000 0.012260 
#    y 0.000000 3.352010 0.000000 
#    z 0.012260 0.000000 3.475130 
# 
# 
# High freq. dielectric constant tensor:
#      x y z
#    x 1.705490 0.000000 0.000460 
#    y 0.000000 1.707470 0.000000 
#    z 0.000460 0.000000 1.706060 
# 
# From -- ./inp_files/281280.got.cif
#   From: 2010.06.25/outbox.cif.g09.slc.cpg/sg12_141_cif.got.tgz:281280.got - 2010.06.28 00:19:55.
