data_PCOD8099483
_publ_section_title
;
Structure prediction by ZEFSAII (Michael W. Deem and Ramdas Pophale) SiO2 
 PCOD8099483
Probable space group: C 2/M
;
_chemical_formula_sum "Si O2"
_cell_formula_units_Z 48
_cell_length_a 17.323132
_cell_length_b 13.400915
_cell_length_c 10.940010
_cell_angle_alpha 90.000000
_cell_angle_beta 72.755400
_cell_angle_gamma 90.000000
_cell_volume 2425.513717
_symmetry_space_group_name_H-M "C 2/M"
_symmetry_group_IT_number 12
_symmetry_cell_setting 'monoclinic'
loop_
_space_group_symop_operation_xyz
x,y,z
-x,y,-z
-x,-y,-z
x,-y,z
1/2+x,1/2+y,z
1/2-x,1/2+y,-z
1/2-x,1/2-y,-z
1/2+x,1/2-y,z
loop_
_atom_site_type_symbol
_atom_site_label
_atom_site_fract_x
_atom_site_fract_y
_atom_site_fract_z
Si Si1 0.282078 0.114346 0.967994
Si Si2 0.735990 0.384538 0.251295
Si Si3 0.303630 0.613311 0.241043
Si Si4 0.645043 0.210136 0.404394
Si Si5 0.942899 0.381121 0.767534
Si Si6 0.112162 0.295002 0.701973
O O1 0.216422 0.127106 0.892320
O O2 0.369469 0.157286 0.887747
O O3 0.296276 0.000000 0.994601
O O4 0.248745 0.163490 0.108742
O O5 0.709763 0.500000 0.262258
O O6 0.664748 0.321952 0.348058
O O7 0.819451 0.371766 0.285510
O O8 0.328689 0.500000 0.259082
O O9 0.225335 0.641991 0.358168
O O10 0.377118 0.686105 0.241668
O O11 0.572821 0.161416 0.360720
O O12 0.615482 0.216057 0.555653
O O13 0.946747 0.500000 0.757805
O O14 0.025759 0.338077 0.783115
#
# Coordination Sequence:
#
# PCOD8099483 Si02
#       6
#     8   8   8   8   8   8
#     4   8  17  35  57  79 101 136 179 210 260 320
#     4  10  20  35  56  81 109 135 170 225 265 300
#     4   9  18  34  54  74 101 136 176 221 257 302
#     4  10  21  34  52  79 104 140 185 209 252 322
#     4  10  21  37  55  76 108 142 172 216 263 310
#     4  11  22  32  50  82 109 137 179 213 258 320
#
# _framework density 19.789622000000001
#
# number of rings (size 3 to 8) (size 9 to 14) (size 15 to 20)
#    0.000    2.333    0.000    4.500    0.000   12.000 
#    0.000    3.333    0.000    2.000    0.000   14.000 
#    0.000    0.000    0.000    0.000    0.000    0.000 
#
# Total GULP energy -297577.290112 kJ/mol
# GULP energy per Si atom -12399.053755 kJ/mol
# Density = 1.974458 g / cm^3
# Si number density = 19.789622 Si / 1000 Ang^3
#
#
#
# Elastic Constant Matrix: (Units=GPa)
#
#
# Indices 1 2 3 4 5 6 
#
# 1 78.6378 34.1259 3.8069 0.0000 0.3812 0.0000
# 2 34.1259 120.1763 16.1698 0.0000 -0.4194 0.0000
# 3 3.8069 16.1698 84.7310 0.0000 4.1199 0.0000
# 4 0.0000 0.0000 0.0000 18.8149 0.0000 14.0608
# 5 0.3812 -0.4194 4.1199 0.0000 11.9853 0.0000
# 6 0.0000 0.0000 0.0000 14.0608 0.0000 17.4623
#
#
#
# Elastic Compliance Matrix: (Units=1/GPa)
#
#
# Indices 1 2 3 4 5 6 
#
# 1 0.014511 -0.004146 0.000172 0.000000 -0.000666 0.000000
# 2 -0.004146 0.009734 -0.001723 0.000000 0.001065 0.000000
# 3 0.000172 -0.001723 0.012332 0.000000 -0.004305 0.000000
# 4 0.000000 0.000000 0.000000 0.133457 0.000000 -0.107461
# 5 -0.000666 0.001065 -0.004305 0.000000 0.084974 0.000000
# 6 0.000000 0.000000 0.000000 -0.107461 0.000000 0.143794
#
#
# Mechanical properties :
#
#
# Convention : Reuss Voigt Hill
#
# Bulk Modulus (GPa) = 39.71051 43.52781 41.61916
# Shear Modulus (GPa) = 11.94483 24.94867 18.44675
#
# Velocity S-wave (km/s) = 2.45947 3.55448 3.05641
# Velocity P-wave (km/s) = 5.30804 6.23609 5.79068
#
# Compressibility (1/GPa) = 0.02518225
#
# Stress axis : x y z
#
# Youngs Moduli (GPa) = 68.91498 102.73305 81.08662
#
# Poissons Ratio (x) = 0.42592 -0.01391
# Poissons Ratio (y) = 0.28572 0.13972
# Poissons Ratio (z) = -0.01183 0.17702
#
# Static dielectric constant tensor:
#      x y z
#    x 3.441260 0.000000 0.166870 
#    y 0.000000 3.656720 0.000000 
#    z 0.166870 0.000000 3.663590 
# 
# 
# High freq. dielectric constant tensor:
#      x y z
#    x 1.747990 0.000000 0.016150 
#    y 0.000000 1.777790 0.000000 
#    z 0.016150 0.000000 1.771700 
# 
# From -- ./inp_files/155237.got.cif
#   From: 2010.06.25/outbox.cif.g09.slc.cpg/sg12_78_cif.got.tgz:155237.got - 2010.06.28 00:19:55.
