data_PCOD8099367
_publ_section_title
;
Structure prediction by ZEFSAII (Michael W. Deem and Ramdas Pophale) SiO2 
 PCOD8099367
Probable space group: C 2/M
;
_chemical_formula_sum "Si O2"
_cell_formula_units_Z 56
_cell_length_a 16.100807
_cell_length_b 12.729765
_cell_length_c 28.721897
_cell_angle_alpha 90.000000
_cell_angle_beta 150.317748
_cell_angle_gamma 90.000000
_cell_volume 2915.094549
_symmetry_space_group_name_H-M "C 2/M"
_symmetry_group_IT_number 12
_symmetry_cell_setting 'monoclinic'
loop_
_space_group_symop_operation_xyz
x,y,z
-x,y,-z
-x,-y,-z
x,-y,z
1/2+x,1/2+y,z
1/2-x,1/2+y,-z
1/2-x,1/2-y,-z
1/2+x,1/2-y,z
loop_
_atom_site_type_symbol
_atom_site_label
_atom_site_fract_x
_atom_site_fract_y
_atom_site_fract_z
Si Si1 0.191126 0.618474 0.374644
Si Si2 0.107063 0.312469 0.508394
Si Si3 0.969513 0.250153 0.202932
Si Si4 0.134549 0.120652 0.027419
Si Si5 0.425787 0.380483 0.834329
Si Si6 0.979288 0.881867 0.685177
Si Si7 0.558875 0.813812 0.670167
O O1 0.250703 0.500000 0.394468
O O2 0.351906 0.688146 0.467253
O O3 0.109000 0.666364 0.287894
O O4 0.056151 0.620912 0.350428
O O5 0.277806 0.378525 0.589486
O O6 0.000000 0.352400 0.500000
O O7 0.998432 0.335194 0.410067
O O8 0.795509 0.306976 0.109602
O O9 0.035803 0.199034 0.188231
O O10 0.942813 0.160401 0.228719
O O11 0.185805 0.000000 0.061862
O O12 0.000000 0.158086 0.000000
O O13 0.062292 0.135287 0.940784
O O14 0.428675 0.500000 0.817163
O O15 0.245862 0.354609 0.768663
O O16 0.045550 0.810376 0.674990
O O17 0.040972 0.000000 0.706471
#
# Coordination Sequence:
#
# PCOD8099367 Si02
#       7
#     8   8   8   8   8   8   8
#     4  10  20  35  56  79 107 145 184 224 269 318
#     4  10  21  35  52  78 109 142 183 227 270 319
#     4  10  20  36  56  81 114 140 174 225 269 316
#     4  10  20  36  60  85 108 141 181 219 265 319
#     4  11  22  36  58  84 109 141 178 219 271 323
#     4  10  21  36  55  78 107 145 182 220 270 324
#     4  10  20  36  56  80 110 142 183 227 266 318
#
# _framework density 19.210355
#
# number of rings (size 3 to 8) (size 9 to 14) (size 15 to 20)
#    0.000    2.143    0.000    6.857    0.000    4.571 
#    0.000    2.857    0.000    9.429    0.000    0.000 
#    0.000    0.000    0.000    0.000    0.000    0.000 
#
# Total GULP energy -347254.316149 kJ/mol
# GULP energy per Si atom -12401.939862 kJ/mol
# Density = 1.916663 g / cm^3
# Si number density = 19.210355 Si / 1000 Ang^3
#
#
#
# Elastic Constant Matrix: (Units=GPa)
#
#
# Indices 1 2 3 4 5 6 
#
# 1 76.3737 4.1515 6.3899 0.0000 -15.2650 0.0000
# 2 4.1515 91.1601 20.5347 0.0000 -9.2380 0.0000
# 3 6.3899 20.5347 72.5514 0.0000 -3.6309 -0.0001
# 4 0.0000 0.0000 0.0000 9.5197 -0.0002 -1.0474
# 5 -15.2650 -9.2380 -3.6309 -0.0002 27.8854 0.0000
# 6 0.0000 0.0000 -0.0001 -1.0474 0.0000 8.1762
#
#
#
# Elastic Compliance Matrix: (Units=1/GPa)
#
#
# Indices 1 2 3 4 5 6 
#
# 1 0.014772 0.000372 -0.001002 0.000000 0.008079 0.000000
# 2 0.000372 0.012070 -0.003260 0.000000 0.003778 0.000000
# 3 -0.001002 -0.003260 0.014809 0.000000 0.000300 0.000000
# 4 0.000000 0.000000 0.000000 0.106547 0.000001 0.013650
# 5 0.008079 0.003778 0.000300 0.000001 0.041574 0.000000
# 6 0.000000 0.000000 0.000000 0.013650 0.000000 0.124054
#
#
# Mechanical properties :
#
#
# Convention : Reuss Voigt Hill
#
# Bulk Modulus (GPa) = 29.52390 33.58192 31.55291
# Shear Modulus (GPa) = 15.01963 23.05021 19.03492
#
# Velocity S-wave (km/s) = 2.79919 3.46769 3.15122
# Velocity P-wave (km/s) = 5.08423 5.79243 5.44985
#
# Compressibility (1/GPa) = 0.03387086
#
# Stress axis : x y z
#
# Youngs Moduli (GPa) = 67.69601 82.85055 67.52534
#
# Poissons Ratio (x) = -0.03079 0.06765
# Poissons Ratio (y) = -0.02516 0.22013
# Poissons Ratio (z) = 0.06782 0.27009
#
# Static dielectric constant tensor:
#      x y z
#    x 3.430840 0.000000 -0.099940 
#    y 0.000000 3.466870 0.000000 
#    z -0.099940 0.000000 3.503790 
# 
# 
# High freq. dielectric constant tensor:
#      x y z
#    x 1.744260 0.000000 -0.011610 
#    y 0.000000 1.743550 0.000000 
#    z -0.011610 0.000000 1.750780 
# 
# From -- ./inp_files/361456.got.cif
#   From: 2010.06.25/outbox.cif.g09.slc.cpg/sg12_181_cif.got.tgz:361456.got - 2010.06.28 00:19:55.
