data_PCOD8099000
_publ_section_title
;
Structure prediction by ZEFSAII (Michael W. Deem and Ramdas Pophale) SiO2 
 PCOD8099000
Probable space group: C 2/M
;
_chemical_formula_sum "Si O2"
_cell_formula_units_Z 48
_cell_length_a 26.627498
_cell_length_b 9.437105
_cell_length_c 10.706386
_cell_angle_alpha 90.000000
_cell_angle_beta 67.058846
_cell_angle_gamma 90.000000
_cell_volume 2477.577180
_symmetry_space_group_name_H-M "C 2/M"
_symmetry_group_IT_number 12
_symmetry_cell_setting 'monoclinic'
loop_
_space_group_symop_operation_xyz
x,y,z
-x,y,-z
-x,-y,-z
x,-y,z
1/2+x,1/2+y,z
1/2-x,1/2+y,-z
1/2-x,1/2-y,-z
1/2+x,1/2-y,z
loop_
_atom_site_type_symbol
_atom_site_label
_atom_site_fract_x
_atom_site_fract_y
_atom_site_fract_z
Si Si1 0.808081 0.330450 0.443301
Si Si2 0.349421 0.334355 0.623578
Si Si3 0.248700 0.152543 0.116364
Si Si4 0.042606 0.832128 0.065982
Si Si5 0.637890 0.154964 0.865107
Si Si6 0.539120 0.334015 0.353309
O O1 0.798331 0.500000 0.465764
O O2 0.750000 0.250000 0.500000
O O3 0.850169 0.268812 0.504415
O O4 0.842131 0.290881 0.287802
O O5 0.351103 0.500000 0.581578
O O6 0.292397 0.288893 0.740477
O O7 0.398892 0.297967 0.668970
O O8 0.309013 0.137884 0.104894
O O9 0.225648 0.000000 0.096445
O O10 0.250000 0.250000 0.000000
O O11 0.027262 0.777487 0.222419
O O12 0.049355 0.000000 0.062053
O O13 0.099766 0.767446 0.969578
O O14 0.000000 0.784397 0.000000
O O15 0.609053 0.000000 0.883223
O O16 0.500000 0.267064 0.500000
O O17 0.528091 0.500000 0.361288
#
# Coordination Sequence:
#
# PCOD8099000 Si02
#       6
#     8   8   8   8   8   8
#     4  11  22  38  59  87 120 154 196 239 291 354
#     4  10  20  36  58  82 117 156 191 238 296 349
#     4  10  20  35  54  81 113 150 192 235 291 355
#     4  10  22  39  62  92 116 147 203 250 285 347
#     4  10  22  39  57  81 119 156 188 235 298 357
#     4   9  19  36  59  87 120 154 190 242 301 346
#
# _framework density 19.373767000000001
#
# number of rings (size 3 to 8) (size 9 to 14) (size 15 to 20)
#    0.000    2.000    1.667    1.500    2.333    4.333 
#    0.000    0.833    0.000    1.000    0.000    0.000 
#    0.000    0.000    0.000    0.000    0.000    0.000 
#
# Total GULP energy -297393.994557 kJ/mol
# GULP energy per Si atom -12391.416440 kJ/mol
# Density = 1.932967 g / cm^3
# Si number density = 19.373767 Si / 1000 Ang^3
#
#
#
# Elastic Constant Matrix: (Units=GPa)
#
#
# Indices 1 2 3 4 5 6 
#
# 1 94.3334 27.3741 56.0967 0.0000 10.1937 0.0000
# 2 27.3741 49.1092 49.5768 0.0000 8.5990 0.0000
# 3 56.0967 49.5768 153.5528 0.0000 15.1974 0.0000
# 4 0.0000 0.0000 0.0000 23.4358 0.0000 -5.2235
# 5 10.1937 8.5990 15.1974 0.0000 40.9823 0.0000
# 6 0.0000 0.0000 0.0000 -5.2235 0.0000 21.4541
#
#
#
# Elastic Compliance Matrix: (Units=1/GPa)
#
#
# Indices 1 2 3 4 5 6 
#
# 1 0.014101 -0.003800 -0.003796 0.000000 -0.001303 0.000000
# 2 -0.003800 0.031552 -0.008551 0.000000 -0.002504 0.000000
# 3 -0.003796 -0.008551 0.010785 0.000000 -0.001261 0.000000
# 4 0.000000 0.000000 0.000000 0.045118 0.000000 0.010985
# 5 -0.001303 -0.002504 -0.001261 0.000000 0.025718 0.000000
# 6 0.000000 0.000000 0.000000 0.010985 0.000000 0.049286
#
#
# Mechanical properties :
#
#
# Convention : Reuss Voigt Hill
#
# Bulk Modulus (GPa) = 41.41787 62.56563 51.99175
# Shear Modulus (GPa) = 23.05196 28.10430 25.57813
#
# Velocity S-wave (km/s) = 3.45317 3.81285 3.63746
# Velocity P-wave (km/s) = 6.10933 7.19360 6.67352
#
# Compressibility (1/GPa) = 0.02414417
#
# Stress axis : x y z
#
# Youngs Moduli (GPa) = 70.91482 31.69386 92.72473
#
# Poissons Ratio (x) = 0.12045 0.35195
# Poissons Ratio (y) = 0.26951 0.79287
# Poissons Ratio (z) = 0.26917 0.27101
#
# Static dielectric constant tensor:
#      x y z
#    x 3.449520 0.000000 0.104660 
#    y 0.000000 3.377350 0.000000 
#    z 0.104660 0.000000 3.785290 
# 
# 
# High freq. dielectric constant tensor:
#      x y z
#    x 1.756250 0.000000 0.007070 
#    y 0.000000 1.731220 0.000000 
#    z 0.007070 0.000000 1.766880 
# 
# From -- ./inp_files/102811.got.cif
#   From: 2010.06.25/outbox.cif.g09.slc.cpg/sg12_52_cif.got.tgz:102811.got - 2010.06.28 00:19:55.
