data_PCOD8099951
_publ_section_title
;
Structure prediction by ZEFSAII (Michael W. Deem and Ramdas Pophale) SiO2 
 PCOD8099951
Probable space group: C 2/M
;
_chemical_formula_sum "Si O2"
_cell_formula_units_Z 64
_cell_length_a 15.425164
_cell_length_b 9.046829
_cell_length_c 32.982485
_cell_angle_alpha 90.000000
_cell_angle_beta 46.071133
_cell_angle_gamma 90.000000
_cell_volume 3314.848374
_symmetry_space_group_name_H-M "C 2/M"
_symmetry_group_IT_number 12
_symmetry_cell_setting 'monoclinic'
loop_
_space_group_symop_operation_xyz
x,y,z
-x,y,-z
-x,-y,-z
x,-y,z
1/2+x,1/2+y,z
1/2-x,1/2+y,-z
1/2-x,1/2-y,-z
1/2+x,1/2-y,z
loop_
_atom_site_type_symbol
_atom_site_label
_atom_site_fract_x
_atom_site_fract_y
_atom_site_fract_z
Si Si1 0.965772 0.173331 0.688719
Si Si2 0.764319 0.170531 0.379562
Si Si3 0.598516 0.675637 0.998941
Si Si4 0.486999 0.674797 0.118304
Si Si5 0.841895 0.675087 0.879784
Si Si6 0.784959 0.325381 0.807822
Si Si7 0.154242 0.671905 0.502572
Si Si8 0.575271 0.325687 0.390825
O O1 0.098995 0.223821 0.658462
O O2 0.869967 0.255983 0.746930
O O3 0.943054 0.219144 0.649786
O O4 0.948906 0.000000 0.700069
O O5 0.691327 0.195116 0.444358
O O6 0.705953 0.270095 0.363182
O O7 0.759965 0.000000 0.367517
O O8 0.593439 0.500000 0.998187
O O9 0.566995 0.730105 0.054303
O O10 0.500000 0.741641 0.000000
O O11 0.729594 0.732804 0.943112
O O12 0.494016 0.500000 0.121077
O O13 0.537173 0.750957 0.142495
O O14 0.350754 0.728103 0.156118
O O15 0.854030 0.500000 0.878248
O O16 0.824773 0.728714 0.839325
O O17 0.793774 0.500000 0.801824
O O18 0.149544 0.500000 0.515686
O O19 0.250000 0.750000 0.500000
O O20 0.024096 0.743806 0.550001
O O21 0.562844 0.500000 0.401247
#
# Coordination Sequence:
#
# PCOD8099951 Si02
#       8
#     8   8   8   8   8   8   8   8
#     4  10  23  43  61  80 115 154 191 240 291 334
#     4  10  22  41  61  86 119 154 189 232 287 343
#     4   9  15  30  57  82 109 148 184 222 277 339
#     4  10  20  35  57  84 113 146 186 230 280 341
#     4  10  20  35  57  84 113 145 185 232 281 336
#     4  10  22  39  58  81 109 147 196 236 275 338
#     4  11  21  37  62  90 123 157 190 233 288 345
#     4  11  23  40  61  90 120 151 193 238 286 344
#
# _framework density 19.307068000000001
#
# number of rings (size 3 to 8) (size 9 to 14) (size 15 to 20)
#    0.000    1.875    2.500    1.500    0.000    6.000 
#    0.000    5.000    0.000    0.750    0.000    0.000 
#    0.000    0.000    0.000    0.000    0.000    0.000 
#
# Total GULP energy -396903.884050 kJ/mol
# GULP energy per Si atom -12403.246377 kJ/mol
# Density = 1.926312 g / cm^3
# Si number density = 19.307068 Si / 1000 Ang^3
#
#
#
# Elastic Constant Matrix: (Units=GPa)
#
#
# Indices 1 2 3 4 5 6 
#
# 1 139.8421 39.7874 28.3880 0.0020 0.7995 0.0026
# 2 39.7874 46.4322 30.7522 0.0017 -1.5429 0.0015
# 3 28.3880 30.7522 93.2298 0.0015 -9.0744 0.0015
# 4 0.0020 0.0017 0.0015 30.2561 -0.0008 -0.4553
# 5 0.7995 -1.5429 -9.0744 -0.0008 13.0349 -0.0008
# 6 0.0026 0.0015 0.0015 -0.4553 -0.0008 36.0537
#
#
#
# Elastic Compliance Matrix: (Units=1/GPa)
#
#
# Indices 1 2 3 4 5 6 
#
# 1 0.009502 -0.007893 -0.000469 0.000000 -0.001844 0.000000
# 2 -0.007893 0.034245 -0.009065 -0.000001 -0.001773 -0.000001
# 3 -0.000469 -0.009065 0.014758 0.000000 0.009229 0.000000
# 4 0.000000 -0.000001 0.000000 0.033058 0.000002 0.000417
# 5 -0.001844 -0.001773 0.009229 0.000002 0.083046 0.000002
# 6 0.000000 -0.000001 0.000000 0.000417 0.000002 0.027742
#
#
# Mechanical properties :
#
#
# Convention : Reuss Voigt Hill
#
# Bulk Modulus (GPa) = 42.28286 53.03994 47.66140
# Shear Modulus (GPa) = 20.40082 27.90736 24.15409
#
# Velocity S-wave (km/s) = 3.25414 3.80603 3.54085
# Velocity P-wave (km/s) = 6.00558 6.84441 6.43867
#
# Compressibility (1/GPa) = 0.02365025
#
# Stress axis : x y z
#
# Youngs Moduli (GPa) = 105.23632 29.20128 67.76163
#
# Poissons Ratio (x) = 0.23048 0.03181
# Poissons Ratio (y) = 0.83062 0.61427
# Poissons Ratio (z) = 0.04940 0.26471
#
# Static dielectric constant tensor:
#      x y z
#    x 3.802110 0.000000 -0.019950 
#    y 0.000000 3.279810 0.000000 
#    z -0.019950 0.000000 3.578410 
# 
# 
# High freq. dielectric constant tensor:
#      x y z
#    x 1.769320 0.000000 -0.000810 
#    y 0.000000 1.731500 0.000000 
#    z -0.000810 0.000000 1.750650 
# 
# From -- ./inp_files/375389.got.cif
#   From: 2010.06.25/outbox.cif.g09.slc.cpg/sg12_188_cif.got.tgz:375389.got - 2010.06.28 00:19:55.
