data_PCOD8099845
_publ_section_title
;
Structure prediction by ZEFSAII (Michael W. Deem and Ramdas Pophale) SiO2 
 PCOD8099845
Probable space group: C 2/M
;
_chemical_formula_sum "Si O2"
_cell_formula_units_Z 56
_cell_length_a 14.948974
_cell_length_b 9.027846
_cell_length_c 24.432367
_cell_angle_alpha 90.000000
_cell_angle_beta 62.620192
_cell_angle_gamma 90.000000
_cell_volume 2927.945843
_symmetry_space_group_name_H-M "C 2/M"
_symmetry_group_IT_number 12
_symmetry_cell_setting 'monoclinic'
loop_
_space_group_symop_operation_xyz
x,y,z
-x,y,-z
-x,-y,-z
x,-y,z
1/2+x,1/2+y,z
1/2-x,1/2+y,-z
1/2-x,1/2-y,-z
1/2+x,1/2-y,z
loop_
_atom_site_type_symbol
_atom_site_label
_atom_site_fract_x
_atom_site_fract_y
_atom_site_fract_z
Si Si1 0.798431 0.827175 0.616076
Si Si2 0.576291 0.825611 0.934101
Si Si3 0.426323 0.172519 0.291607
Si Si4 0.101654 0.333517 0.505695
Si Si5 0.993948 0.825547 0.628126
Si Si6 0.480440 0.174143 0.850189
Si Si7 0.276294 0.324831 0.935419
O O1 0.690741 0.782375 0.670932
O O2 0.811516 0.743271 0.554647
O O3 0.884219 0.780179 0.635620
O O4 0.807041 0.000000 0.600850
O O5 0.549305 0.769061 0.881068
O O6 0.689873 0.781027 0.916452
O O7 0.562438 0.000000 0.939903
O O8 0.500000 0.753680 0.000000
O O9 0.496283 0.263685 0.313454
O O10 0.460370 0.214783 0.221301
O O11 0.441689 0.000000 0.299913
O O12 0.135227 0.500000 0.510855
O O13 0.000000 0.331053 0.500000
O O14 0.083766 0.245002 0.566815
O O15 0.008634 0.000000 0.624126
O O16 0.377051 0.263106 0.880473
O O17 0.456779 0.000000 0.861023
O O18 0.283633 0.500000 0.942513
O O19 0.250000 0.250000 0.000000
#
# Coordination Sequence:
#
# PCOD8099845 Si02
#       7
#     8   8   8   8   8   8   8
#     4   9  19  36  56  79 108 145 189 231 275 327
#     4   9  17  33  58  83 108 143 180 215 265 328
#     4  10  22  38  56  78 108 148 187 227 274 330
#     4   9  17  31  54  83 111 142 182 230 283 332
#     4  10  20  35  57  82 111 144 184 234 278 325
#     4  10  21  39  58  79 111 147 186 226 271 328
#     4  11  21  35  59  87 113 142 178 222 271 323
#
# _framework density 19.126037
#
# number of rings (size 3 to 8) (size 9 to 14) (size 15 to 20)
#    0.000    2.286    1.429    1.286    0.000    5.143 
#    0.000    5.000    0.000    0.000    0.000    0.000 
#    0.000    0.000    0.000    0.000    0.000    0.000 
#
# Total GULP energy -347243.794363 kJ/mol
# GULP energy per Si atom -12401.564084 kJ/mol
# Density = 1.908251 g / cm^3
# Si number density = 19.126037 Si / 1000 Ang^3
#
#
#
# Elastic Constant Matrix: (Units=GPa)
#
#
# Indices 1 2 3 4 5 6 
#
# 1 113.4313 38.2397 62.2079 0.0000 0.9520 0.0000
# 2 38.2397 64.2973 43.1992 0.0000 -1.6681 0.0000
# 3 62.2079 43.1992 135.5307 0.0000 0.2127 0.0000
# 4 0.0000 0.0000 0.0000 30.1940 0.0000 -0.4477
# 5 0.9520 -1.6681 0.2127 0.0000 36.6323 0.0000
# 6 0.0000 0.0000 0.0000 -0.4477 0.0000 27.7822
#
#
#
# Elastic Compliance Matrix: (Units=1/GPa)
#
#
# Indices 1 2 3 4 5 6 
#
# 1 0.012803 -0.004683 -0.004383 0.000000 -0.000521 0.000000
# 2 -0.004683 0.021536 -0.004717 0.000000 0.001130 0.000000
# 3 -0.004383 -0.004717 0.010894 0.000000 -0.000164 0.000000
# 4 0.000000 0.000000 0.000000 0.033127 0.000000 0.000534
# 5 -0.000521 0.001130 -0.000164 0.000000 0.027364 0.000000
# 6 0.000000 0.000000 0.000000 0.000534 0.000000 0.036003
#
#
# Mechanical properties :
#
#
# Convention : Reuss Voigt Hill
#
# Bulk Modulus (GPa) = 56.60133 66.72811 61.66472
# Shear Modulus (GPa) = 28.54185 30.22920 29.38552
#
# Velocity S-wave (km/s) = 3.86723 3.97990 3.92396
# Velocity P-wave (km/s) = 7.04263 7.48891 7.26920
#
# Compressibility (1/GPa) = 0.01766743
#
# Stress axis : x y z
#
# Youngs Moduli (GPa) = 78.10893 46.43333 91.79513
#
# Poissons Ratio (x) = 0.21744 0.40233
# Poissons Ratio (y) = 0.36578 0.43298
# Poissons Ratio (z) = 0.34234 0.21902
#
# Static dielectric constant tensor:
#      x y z
#    x 3.709010 0.000000 0.009550 
#    y 0.000000 3.398800 0.000000 
#    z 0.009550 0.000000 3.593200 
# 
# 
# High freq. dielectric constant tensor:
#      x y z
#    x 1.749080 0.000000 0.002560 
#    y 0.000000 1.729850 0.000000 
#    z 0.002560 0.000000 1.742990 
# 
# From -- ./inp_files/338529.got.cif
#   From: 2010.06.25/outbox.cif.g09.slc.cpg/sg12_170_cif.got.tgz:338529.got - 2010.06.28 00:19:55.
