data_PCOD8099106
_publ_section_title
;
Structure prediction by ZEFSAII (Michael W. Deem and Ramdas Pophale) SiO2 
 PCOD8099106
Probable space group: C 2/M
;
_chemical_formula_sum "Si O2"
_cell_formula_units_Z 56
_cell_length_a 17.965669
_cell_length_b 8.850066
_cell_length_c 25.410316
_cell_angle_alpha 90.000000
_cell_angle_beta 135.591061
_cell_angle_gamma 90.000000
_cell_volume 2827.211303
_symmetry_space_group_name_H-M "C 2/M"
_symmetry_group_IT_number 12
_symmetry_cell_setting 'monoclinic'
loop_
_space_group_symop_operation_xyz
x,y,z
-x,y,-z
-x,-y,-z
x,-y,z
1/2+x,1/2+y,z
1/2-x,1/2+y,-z
1/2-x,1/2-y,-z
1/2+x,1/2-y,z
loop_
_atom_site_type_symbol
_atom_site_label
_atom_site_fract_x
_atom_site_fract_y
_atom_site_fract_z
Si Si1 0.399260 0.821327 0.737448
Si Si2 0.818041 0.321369 0.987844
Si Si3 0.032575 0.674340 0.704350
Si Si4 0.459861 0.322222 0.877272
Si Si5 0.480591 0.678540 0.572865
Si Si6 0.765337 0.175833 0.854086
Si Si7 0.334156 0.679294 0.407667
O O1 0.482218 0.776930 0.734228
O O2 0.435940 0.732749 0.806974
O O3 0.283979 0.758835 0.661673
O O4 0.398405 0.000000 0.748701
O O5 0.818081 0.500000 0.994945
O O6 0.765279 0.276928 0.906064
O O7 0.750000 0.250000 0.000000
O O8 0.937685 0.260813 0.048269
O O9 0.011285 0.500000 0.683244
O O10 0.157527 0.712851 0.768065
O O11 0.972356 0.760178 0.627445
O O12 0.481332 0.500000 0.887842
O O13 0.362243 0.278596 0.865548
O O14 0.482428 0.500000 0.576223
O O15 0.379342 0.734428 0.487153
O O16 0.588521 0.738767 0.599584
O O17 0.769836 0.000000 0.872791
O O18 0.333131 0.500000 0.406643
#
# Coordination Sequence:
#
# PCOD8099106 Si02
#       7
#     8   8   8   8   8   8   8
#     4  10  20  35  55  78 109 148 189 232 280 338
#     4  12  25  41  63  89 117 148 185 228 276 332
#     4  10  21  35  52  78 111 144 178 224 283 336
#     4  11  23  39  60  85 114 148 188 233 280 332
#     4   9  17  32  54  76 103 141 185 232 279 331
#     4  10  22  40  59  82 116 152 186 231 284 333
#     4   8  16  32  53  77 104 140 186 232 278 328
#
# _framework density 19.807504999999999
#
# number of rings (size 3 to 8) (size 9 to 14) (size 15 to 20)
#    0.000    2.000    0.000    4.714    0.000    5.714 
#    0.000    2.143    0.000    0.000    0.000    0.000 
#    0.000    0.000    0.000    0.000    0.000    0.000 
#
# Total GULP energy -347259.852838 kJ/mol
# GULP energy per Si atom -12402.137601 kJ/mol
# Density = 1.976242 g / cm^3
# Si number density = 19.807505 Si / 1000 Ang^3
#
#
#
# Elastic Constant Matrix: (Units=GPa)
#
#
# Indices 1 2 3 4 5 6 
#
# 1 64.7135 15.9011 5.9647 0.0000 -12.3816 0.0000
# 2 15.9011 53.3415 16.0176 0.0000 -13.8930 0.0000
# 3 5.9647 16.0176 78.0986 0.0000 -18.1519 0.0000
# 4 0.0000 0.0000 0.0000 21.8619 0.0000 3.6086
# 5 -12.3816 -13.8930 -18.1519 0.0000 38.1864 0.0000
# 6 0.0000 0.0000 0.0000 3.6086 0.0000 18.9739
#
#
#
# Elastic Compliance Matrix: (Units=1/GPa)
#
#
# Indices 1 2 3 4 5 6 
#
# 1 0.017259 -0.004180 0.000547 0.000000 0.004335 0.000000
# 2 -0.004180 0.022284 -0.003015 0.000000 0.005319 0.000000
# 3 0.000547 -0.003015 0.014803 0.000000 0.006117 0.000000
# 4 0.000000 0.000000 0.000000 0.047224 0.000000 -0.008982
# 5 0.004335 0.005319 0.006117 0.000000 0.032436 0.000000
# 6 0.000000 0.000000 0.000000 -0.008982 0.000000 0.054412
#
#
# Mechanical properties :
#
#
# Convention : Reuss Voigt Hill
#
# Bulk Modulus (GPa) = 24.36100 30.21339 27.28720
# Shear Modulus (GPa) = 23.21303 26.35580 24.78441
#
# Velocity S-wave (km/s) = 3.42706 3.65169 3.54116
# Velocity P-wave (km/s) = 5.29011 5.75034 5.52502
#
# Compressibility (1/GPa) = 0.04104922
#
# Stress axis : x y z
#
# Youngs Moduli (GPa) = 57.94134 44.87566 67.55575
#
# Poissons Ratio (x) = 0.18758 -0.03694
# Poissons Ratio (y) = 0.24219 0.20367
# Poissons Ratio (z) = -0.03168 0.13529
#
# Static dielectric constant tensor:
#      x y z
#    x 3.851450 0.000000 0.132560 
#    y 0.000000 3.386390 0.000000 
#    z 0.132560 0.000000 3.844930 
# 
# 
# High freq. dielectric constant tensor:
#      x y z
#    x 1.780240 0.000000 0.001700 
#    y 0.000000 1.750560 0.000000 
#    z 0.001700 0.000000 1.788390 
# 
# From -- ./inp_files/342561.got.cif
#   From: 2010.06.25/outbox.cif.g09.slc.cpg/sg12_172_cif.got.tgz:342561.got - 2010.06.28 00:19:55.
