data_PCOD8099294
_publ_section_title
;
Structure prediction by ZEFSAII (Michael W. Deem and Ramdas Pophale) SiO2 
 PCOD8099294
Probable space group: C 2/M
;
_chemical_formula_sum "Si O2"
_cell_formula_units_Z 56
_cell_length_a 26.138690
_cell_length_b 8.903964
_cell_length_c 13.177084
_cell_angle_alpha 90.000000
_cell_angle_beta 66.316096
_cell_angle_gamma 90.000000
_cell_volume 2808.507170
_symmetry_space_group_name_H-M "C 2/M"
_symmetry_group_IT_number 12
_symmetry_cell_setting 'monoclinic'
loop_
_space_group_symop_operation_xyz
x,y,z
-x,y,-z
-x,-y,-z
x,-y,z
1/2+x,1/2+y,z
1/2-x,1/2+y,-z
1/2-x,1/2-y,-z
1/2+x,1/2-y,z
loop_
_atom_site_type_symbol
_atom_site_label
_atom_site_fract_x
_atom_site_fract_y
_atom_site_fract_z
Si Si1 0.970817 0.675108 0.262998
Si Si2 0.401688 0.824382 0.126960
Si Si3 0.879041 0.822969 0.456936
Si Si4 0.193531 0.674423 0.327370
Si Si5 0.092770 0.675017 0.105978
Si Si6 0.688548 0.327862 0.683668
Si Si7 0.798435 0.821957 0.894393
O O1 0.957657 0.500000 0.289428
O O2 0.947582 0.730824 0.172102
O O3 0.940954 0.768247 0.376394
O O4 0.036847 0.706480 0.215133
O O5 0.341051 0.757162 0.200031
O O6 0.395271 0.000000 0.138749
O O7 0.419886 0.776839 0.999776
O O8 0.861291 0.741899 0.575214
O O9 0.835111 0.770774 0.405253
O O10 0.879063 0.000000 0.475095
O O11 0.183418 0.500000 0.309900
O O12 0.245338 0.698581 0.362810
O O13 0.207212 0.763057 0.214795
O O14 0.110044 0.500000 0.099129
O O15 0.141291 0.777605 0.111030
O O16 0.672428 0.500000 0.710243
O O17 0.791628 0.000000 0.901772
O O18 0.750000 0.750000 0.000000
#
# Coordination Sequence:
#
# PCOD8099294 Si02
#       7
#     8   8   8   8   8   8   8
#     4   9  18  34  56  83 115 149 185 226 274 329
#     4   9  17  30  53  84 115 147 183 224 272 328
#     4  10  20  35  55  83 117 148 182 226 277 330
#     4  11  22  38  59  82 110 147 190 231 276 328
#     4  10  20  36  58  83 112 148 189 231 276 326
#     4   9  19  33  52  81 115 148 182 224 274 330
#     4  12  26  43  61  83 112 145 184 229 276 326
#
# _framework density 19.939418
#
# number of rings (size 3 to 8) (size 9 to 14) (size 15 to 20)
#    0.000    2.000    0.000    3.857    0.000    6.857 
#    0.000    0.714    0.000    8.571    0.000    0.000 
#    0.000    0.000    0.000    0.000    0.000    0.000 
#
# Total GULP energy -347247.157549 kJ/mol
# GULP energy per Si atom -12401.684198 kJ/mol
# Density = 1.989403 g / cm^3
# Si number density = 19.939418 Si / 1000 Ang^3
#
#
#
# Elastic Constant Matrix: (Units=GPa)
#
#
# Indices 1 2 3 4 5 6 
#
# 1 81.8071 37.8878 37.6682 0.0000 -14.9460 0.0000
# 2 37.8878 71.3938 47.6511 0.0000 -0.5265 0.0000
# 3 37.6682 47.6511 126.7485 0.0000 -16.4586 0.0000
# 4 0.0000 0.0000 0.0000 33.9616 0.0000 -3.2480
# 5 -14.9460 -0.5265 -16.4586 0.0000 21.8855 0.0000
# 6 0.0000 0.0000 0.0000 -3.2480 0.0000 30.9627
#
#
#
# Elastic Compliance Matrix: (Units=1/GPa)
#
#
# Indices 1 2 3 4 5 6 
#
# 1 0.019290 -0.009898 -0.000368 0.000000 0.012659 0.000000
# 2 -0.009898 0.024363 -0.007779 0.000000 -0.012024 0.000000
# 3 -0.000368 -0.007779 0.012043 0.000000 0.008618 0.000000
# 4 0.000000 0.000000 0.000000 0.029743 0.000000 0.003120
# 5 0.012659 -0.012024 0.008618 0.000000 0.060529 0.000000
# 6 0.000000 0.000000 0.000000 0.003120 0.000000 0.032624
#
#
# Mechanical properties :
#
#
# Convention : Reuss Voigt Hill
#
# Bulk Modulus (GPa) = 51.00530 58.48484 54.74507
# Shear Modulus (GPa) = 22.60216 27.81143 25.20679
#
# Velocity S-wave (km/s) = 3.37046 3.73875 3.55937
# Velocity P-wave (km/s) = 6.38611 6.93056 6.66389
#
# Compressibility (1/GPa) = 0.01960581
#
# Stress axis : x y z
#
# Youngs Moduli (GPa) = 51.83973 41.04583 83.03909
#
# Poissons Ratio (x) = 0.40628 0.03054
# Poissons Ratio (y) = 0.51312 0.64596
# Poissons Ratio (z) = 0.01907 0.31929
#
# Static dielectric constant tensor:
#      x y z
#    x 3.701170 0.000000 -0.047890 
#    y 0.000000 3.551710 0.000000 
#    z -0.047890 0.000000 3.676050 
# 
# 
# High freq. dielectric constant tensor:
#      x y z
#    x 1.766730 0.000000 -0.012510 
#    y 0.000000 1.773440 0.000000 
#    z -0.012510 0.000000 1.780600 
# 
# From -- ./inp_files/180775.got.cif
#   From: 2010.06.25/outbox.cif.g09.slc.cpg/sg12_91_cif.got.tgz:180775.got - 2010.06.28 00:19:55.
