data_PCOD8099078
_publ_section_title
;
Structure prediction by ZEFSAII (Michael W. Deem and Ramdas Pophale) SiO2 
 PCOD8099078
Probable space group: C 2/M
;
_chemical_formula_sum "Si O2"
_cell_formula_units_Z 56
_cell_length_a 10.014331
_cell_length_b 10.090655
_cell_length_c 30.016301
_cell_angle_alpha 90.000000
_cell_angle_beta 68.358096
_cell_angle_gamma 90.000000
_cell_volume 2819.363925
_symmetry_space_group_name_H-M "C 2/M"
_symmetry_group_IT_number 12
_symmetry_cell_setting 'monoclinic'
loop_
_space_group_symop_operation_xyz
x,y,z
-x,y,-z
-x,-y,-z
x,-y,z
1/2+x,1/2+y,z
1/2-x,1/2+y,-z
1/2-x,1/2-y,-z
1/2+x,1/2-y,z
loop_
_atom_site_type_symbol
_atom_site_label
_atom_site_fract_x
_atom_site_fract_y
_atom_site_fract_z
Si Si1 0.315012 0.651460 0.866511
Si Si2 0.577535 0.846807 0.823865
Si Si3 0.302088 0.858365 0.537850
Si Si4 0.166297 0.651388 0.978388
Si Si5 0.831225 0.346784 0.287684
Si Si6 0.427307 0.147267 0.671917
Si Si7 0.539347 0.783575 0.566003
O O1 0.371896 0.500000 0.855598
O O2 0.447601 0.751491 0.853306
O O3 0.215864 0.687842 0.836621
O O4 0.219195 0.670163 0.921814
O O5 0.619466 0.817654 0.768235
O O6 0.530650 0.000000 0.836805
O O7 0.394065 0.752967 0.555977
O O8 0.344208 0.857706 0.480332
O O9 0.130563 0.847844 0.566874
O O10 0.349332 0.000000 0.551910
O O11 0.189569 0.500000 0.991892
O O12 0.250000 0.750000 0.000000
O O13 0.000000 0.690285 0.000000
O O14 0.785621 0.500000 0.299810
O O15 0.697899 0.254373 0.316169
O O16 0.962209 0.307707 0.303596
O O17 0.508215 0.137456 0.614810
O O18 0.366841 0.000000 0.690487
#
# Coordination Sequence:
#
# PCOD8099078 Si02
#       7
#     8   8   8   8   8   8   8
#     4  10  21  36  58  85 111 146 190 230 271 323
#     4  10  21  39  59  81 111 145 184 231 279 325
#     4  10  20  36  54  75 105 139 176 220 265 313
#     4  10  21  37  56  82 117 152 187 228 273 322
#     4  10  23  39  57  83 112 142 181 228 276 330
#     4  11  22  37  57  82 111 144 180 222 277 332
#     4  10  20  35  55  78 105 139 178 218 265 323
#
# _framework density 19.862635999999998
#
# number of rings (size 3 to 8) (size 9 to 14) (size 15 to 20)
#    0.000    1.857    0.000    4.286    0.000    4.286 
#    0.000    7.143    0.000    0.000    0.000    0.000 
#    0.000    0.000    0.000    0.000    0.000    0.000 
#
# Total GULP energy -347055.996896 kJ/mol
# GULP energy per Si atom -12394.857032 kJ/mol
# Density = 1.981743 g / cm^3
# Si number density = 19.862636 Si / 1000 Ang^3
#
#
#
# Elastic Constant Matrix: (Units=GPa)
#
#
# Indices 1 2 3 4 5 6 
#
# 1 96.6686 53.2422 24.2879 0.0000 -2.7565 0.0000
# 2 53.2422 87.0718 23.9242 0.0000 -12.7504 0.0000
# 3 24.2879 23.9242 74.8482 0.0000 7.9667 0.0000
# 4 0.0000 0.0000 0.0000 15.3039 0.0000 3.7141
# 5 -2.7565 -12.7504 7.9667 0.0000 35.5586 0.0000
# 6 0.0000 0.0000 0.0000 3.7141 0.0000 31.6065
#
#
#
# Elastic Compliance Matrix: (Units=1/GPa)
#
#
# Indices 1 2 3 4 5 6 
#
# 1 0.016031 -0.009512 -0.001978 0.000000 -0.001725 0.000000
# 2 -0.009512 0.019402 -0.003869 0.000000 0.007087 0.000000
# 3 -0.001978 -0.003869 0.015779 0.000000 -0.005076 0.000000
# 4 0.000000 0.000000 0.000000 0.067261 0.000000 -0.007904
# 5 -0.001725 0.007087 -0.005076 0.000000 0.031667 0.000000
# 6 0.000000 0.000000 0.000000 -0.007904 0.000000 0.032568
#
#
# Mechanical properties :
#
#
# Convention : Reuss Voigt Hill
#
# Bulk Modulus (GPa) = 48.79483 51.27746 50.03614
# Shear Modulus (GPa) = 22.70063 26.96941 24.83502
#
# Velocity S-wave (km/s) = 3.38432 3.68883 3.53985
# Velocity P-wave (km/s) = 6.31593 6.63441 6.47713
#
# Compressibility (1/GPa) = 0.02049398
#
# Stress axis : x y z
#
# Youngs Moduli (GPa) = 62.37824 51.54160 63.37395
#
# Poissons Ratio (x) = 0.49025 0.12537
# Poissons Ratio (y) = 0.59332 0.24521
# Poissons Ratio (z) = 0.12340 0.19943
#
# Static dielectric constant tensor:
#      x y z
#    x 3.628550 0.000000 0.108160 
#    y 0.000000 3.738680 0.000000 
#    z 0.108160 0.000000 3.654500 
# 
# 
# High freq. dielectric constant tensor:
#      x y z
#    x 1.781730 0.000000 0.010470 
#    y 0.000000 1.766610 0.000000 
#    z 0.010470 0.000000 1.781960 
# 
# From -- ./inp_files/355769.got.cif
#   From: 2010.06.25/outbox.cif.g09.slc.cpg/sg12_178_cif.got.tgz:355769.got - 2010.06.28 00:19:55.
