data_PCOD8099962
_publ_section_title
;
Structure prediction by ZEFSAII (Michael W. Deem and Ramdas Pophale) SiO2 
 PCOD8099962
Probable space group: C 2/M
;
_chemical_formula_sum "Si O2"
_cell_formula_units_Z 56
_cell_length_a 19.389778
_cell_length_b 9.143271
_cell_length_c 18.550082
_cell_angle_alpha 90.000000
_cell_angle_beta 64.729804
_cell_angle_gamma 90.000000
_cell_volume 2973.959602
_symmetry_space_group_name_H-M "C 2/M"
_symmetry_group_IT_number 12
_symmetry_cell_setting 'monoclinic'
loop_
_space_group_symop_operation_xyz
x,y,z
-x,y,-z
-x,-y,-z
x,-y,z
1/2+x,1/2+y,z
1/2-x,1/2+y,-z
1/2-x,1/2-y,-z
1/2+x,1/2-y,z
loop_
_atom_site_type_symbol
_atom_site_label
_atom_site_fract_x
_atom_site_fract_y
_atom_site_fract_z
Si Si1 0.131818 0.828262 0.186739
Si Si2 0.709805 0.328347 0.847693
Si Si3 0.825062 0.166599 0.983567
Si Si4 0.344935 0.830687 0.265560
Si Si5 0.572368 0.168975 0.515636
Si Si6 0.777068 0.828062 0.559697
Si Si7 0.485379 0.168825 0.301427
O O1 0.209030 0.751639 0.179702
O O2 0.115700 0.796658 0.107750
O O3 0.060448 0.766391 0.261951
O O4 0.139251 0.000000 0.199732
O O5 0.725525 0.500000 0.830030
O O6 0.663148 0.267352 0.801371
O O7 0.653665 0.299078 0.942484
O O8 0.801586 0.000000 0.987380
O O9 0.750000 0.250000 0.000000
O O10 0.279330 0.786707 0.350704
O O11 0.427239 0.796227 0.262880
O O12 0.338009 0.000000 0.247168
O O13 0.500000 0.207222 0.500000
O O14 0.639839 0.270027 0.455600
O O15 0.556369 0.207998 0.605618
O O16 0.596338 0.000000 0.496857
O O17 0.750000 0.750000 0.500000
O O18 0.778344 0.000000 0.544896
O O19 0.510508 0.000000 0.289750
#
# Coordination Sequence:
#
# PCOD8099962 Si02
#       7
#     8   8   8   8   8   8   8
#     4  10  20  35  57  84 114 145 181 226 279 326
#     4  10  20  35  58  85 110 143 188 227 270 327
#     4   8  16  32  53  79 110 142 178 225 271 321
#     4  10  22  39  56  79 114 148 181 228 277 323
#     4  10  22  40  60  83 112 146 184 229 278 324
#     4  11  22  39  61  83 110 146 188 228 274 327
#     4  10  21  39  56  78 114 149 183 225 276 329
#
# _framework density 18.830116
#
# number of rings (size 3 to 8) (size 9 to 14) (size 15 to 20)
#    0.000    2.143    1.429    1.286    2.000    3.714 
#    0.000    0.714    0.000    4.286    0.000    0.000 
#    0.000    0.000    0.000    0.000    0.000    0.000 
#
# Total GULP energy -347060.356068 kJ/mol
# GULP energy per Si atom -12395.012717 kJ/mol
# Density = 1.878726 g / cm^3
# Si number density = 18.830116 Si / 1000 Ang^3
#
#
#
# Elastic Constant Matrix: (Units=GPa)
#
#
# Indices 1 2 3 4 5 6 
#
# 1 59.6124 19.4464 14.1101 0.0000 10.6163 0.0001
# 2 19.4464 57.8763 21.2193 0.0000 9.0223 0.0003
# 3 14.1101 21.2193 40.4518 0.0000 20.2403 -0.0001
# 4 0.0000 0.0000 0.0000 29.1020 0.0000 1.7132
# 5 10.6163 9.0223 20.2403 0.0000 30.2670 0.0001
# 6 0.0001 0.0003 -0.0001 1.7132 0.0001 33.6726
#
#
#
# Elastic Compliance Matrix: (Units=1/GPa)
#
#
# Indices 1 2 3 4 5 6 
#
# 1 0.019684 -0.005205 -0.002190 0.000000 -0.003888 0.000000
# 2 -0.005205 0.022826 -0.011523 0.000000 0.002727 0.000000
# 3 -0.002190 -0.011523 0.044223 0.000000 -0.025370 0.000000
# 4 0.000000 0.000000 0.000000 0.034465 0.000000 -0.001753
# 5 -0.003888 0.002727 -0.025370 0.000000 0.050556 0.000000
# 6 0.000000 0.000000 0.000000 -0.001753 0.000000 0.029787
#
#
# Mechanical properties :
#
#
# Convention : Reuss Voigt Hill
#
# Bulk Modulus (GPa) = 20.45079 29.72134 25.08607
# Shear Modulus (GPa) = 19.55601 25.48596 22.52098
#
# Velocity S-wave (km/s) = 3.22615 3.68294 3.46209
# Velocity P-wave (km/s) = 4.97611 5.82268 5.41596
#
# Compressibility (1/GPa) = 0.04889786
#
# Stress axis : x y z
#
# Youngs Moduli (GPa) = 50.80342 43.80877 22.61260
#
# Poissons Ratio (x) = 0.22800 0.04953
# Poissons Ratio (y) = 0.26441 0.26056
# Poissons Ratio (z) = 0.11128 0.50480
#
# Static dielectric constant tensor:
#      x y z
#    x 3.278050 0.000000 0.116780 
#    y 0.000000 3.472900 0.000000 
#    z 0.116780 0.000000 4.159830 
# 
# 
# High freq. dielectric constant tensor:
#      x y z
#    x 1.714050 0.000000 0.008640 
#    y 0.000000 1.735980 0.000000 
#    z 0.008640 0.000000 1.744040 
# 
# From -- ./inp_files/275294.got.cif
#   From: 2010.06.25/outbox.cif.g09.slc.cpg/sg12_138_cif.got.tgz:275294.got - 2010.06.28 00:19:55.
