data_PCOD8099579
_publ_section_title
;
Structure prediction by ZEFSAII (Michael W. Deem and Ramdas Pophale) SiO2 
 PCOD8099579
Probable space group: C 2/M
;
_chemical_formula_sum "Si O2"
_cell_formula_units_Z 48
_cell_length_a 16.097103
_cell_length_b 13.103457
_cell_length_c 12.829631
_cell_angle_alpha 90.000000
_cell_angle_beta 68.829084
_cell_angle_gamma 90.000000
_cell_volume 2523.480723
_symmetry_space_group_name_H-M "C 2/M"
_symmetry_group_IT_number 12
_symmetry_cell_setting 'monoclinic'
loop_
_space_group_symop_operation_xyz
x,y,z
-x,y,-z
-x,-y,-z
x,-y,z
1/2+x,1/2+y,z
1/2-x,1/2+y,-z
1/2-x,1/2-y,-z
1/2+x,1/2-y,z
loop_
_atom_site_type_symbol
_atom_site_label
_atom_site_fract_x
_atom_site_fract_y
_atom_site_fract_z
Si Si1 0.468071 0.202153 0.897031
Si Si2 0.619007 0.616412 0.156641
Si Si3 0.869735 0.616303 0.296429
Si Si4 0.219900 0.384393 0.074947
Si Si5 0.101035 0.617537 0.475089
Si Si6 0.787153 0.755026 0.728881
O O1 0.461565 0.317966 0.856123
O O2 0.534177 0.137123 0.796157
O O3 0.372750 0.148193 0.934550
O O4 0.500000 0.204735 0.000000
O O5 0.586833 0.500000 0.180516
O O6 0.643877 0.659813 0.259527
O O7 0.705810 0.629613 0.046050
O O8 0.842156 0.500000 0.284168
O O9 0.874917 0.635576 0.416388
O O10 0.798618 0.692191 0.280213
O O11 0.213716 0.500000 0.116485
O O12 0.245654 0.316677 0.162379
O O13 0.115088 0.500000 0.435558
O O14 0.165524 0.688030 0.379506
O O15 0.000000 0.651086 0.500000
#
# Coordination Sequence:
#
# PCOD8099579 Si02
#       6
#     8   8   8   8   8   8
#     4  11  21  35  56  83 112 145 184 225 271 323
#     4  10  21  36  54  78 111 148 183 224 274 324
#     4  11  23  37  56  83 112 142 180 227 275 322
#     4  10  20  35  56  82 112 146 184 226 271 321
#     4  10  21  38  60  84 109 141 181 225 272 320
#     4  11  20  36  58  80 110 145 182 223 269 324
#
# _framework density 19.021346000000001
#
# number of rings (size 3 to 8) (size 9 to 14) (size 15 to 20)
#    0.000    1.500    0.000    8.000    0.000    4.333 
#    0.000    1.667    0.000   11.000    0.000    0.000 
#    0.000    0.000    0.000    0.000    0.000    0.000 
#
# Total GULP energy -297686.848015 kJ/mol
# GULP energy per Si atom -12403.618667 kJ/mol
# Density = 1.897805 g / cm^3
# Si number density = 19.021346 Si / 1000 Ang^3
#
#
#
# Elastic Constant Matrix: (Units=GPa)
#
#
# Indices 1 2 3 4 5 6 
#
# 1 102.8469 58.6785 32.0009 0.0000 15.1092 0.0000
# 2 58.6785 118.3792 44.6656 0.0000 14.8060 0.0000
# 3 32.0009 44.6656 61.6826 0.0000 17.5344 0.0000
# 4 0.0000 0.0000 0.0000 31.4977 0.0000 -2.0722
# 5 15.1092 14.8060 17.5344 0.0000 19.9866 0.0000
# 6 0.0000 0.0000 0.0000 -2.0722 0.0000 25.1708
#
#
#
# Elastic Compliance Matrix: (Units=1/GPa)
#
#
# Indices 1 2 3 4 5 6 
#
# 1 0.014322 -0.005790 -0.001837 0.000000 -0.004926 0.000000
# 2 -0.005790 0.014004 -0.007237 0.000000 0.000352 0.000000
# 3 -0.001837 -0.007237 0.027293 0.000000 -0.017195 0.000000
# 4 0.000000 0.000000 0.000000 0.031921 0.000000 0.002628
# 5 -0.004926 0.000352 -0.017195 0.000000 0.068582 0.000000
# 6 0.000000 0.000000 0.000000 0.002628 0.000000 0.039945
#
#
# Mechanical properties :
#
#
# Convention : Reuss Voigt Hill
#
# Bulk Modulus (GPa) = 38.62290 61.51097 50.06693
# Shear Modulus (GPa) = 21.32874 25.16860 23.24867
#
# Velocity S-wave (km/s) = 3.35222 3.64150 3.49985
# Velocity P-wave (km/s) = 5.94410 7.07734 6.53533
#
# Compressibility (1/GPa) = 0.02589137
#
# Stress axis : x y z
#
# Youngs Moduli (GPa) = 69.82340 71.40941 36.63880
#
# Poissons Ratio (x) = 0.41344 0.06732
# Poissons Ratio (y) = 0.40426 0.26514
# Poissons Ratio (z) = 0.12830 0.51677
#
# Static dielectric constant tensor:
#      x y z
#    x 3.435000 0.000000 0.108850 
#    y 0.000000 3.838400 0.000000 
#    z 0.108850 0.000000 3.475180 
# 
# 
# High freq. dielectric constant tensor:
#      x y z
#    x 1.739360 0.000000 0.012190 
#    y 0.000000 1.754200 0.000000 
#    z 0.012190 0.000000 1.739550 
# 
# From -- ./inp_files/143572.got.cif
#   From: 2010.06.25/outbox.cif.g09.slc.cpg/sg12_72_cif.got.tgz:143572.got - 2010.06.28 00:19:55.
