data_PCOD8099738
_publ_section_title
;
Structure prediction by ZEFSAII (Michael W. Deem and Ramdas Pophale) SiO2 
 PCOD8099738
Probable space group: C 2/M
;
_chemical_formula_sum "Si O2"
_cell_formula_units_Z 36
_cell_length_a 9.121501
_cell_length_b 20.248260
_cell_length_c 9.358253
_cell_angle_alpha 90.000000
_cell_angle_beta 99.789211
_cell_angle_gamma 90.000000
_cell_volume 1703.252197
_symmetry_space_group_name_H-M "C 2/M"
_symmetry_group_IT_number 12
_symmetry_cell_setting 'monoclinic'
loop_
_space_group_symop_operation_xyz
x,y,z
-x,y,-z
-x,-y,-z
x,-y,z
1/2+x,1/2+y,z
1/2-x,1/2+y,-z
1/2-x,1/2-y,-z
1/2+x,1/2-y,z
loop_
_atom_site_type_symbol
_atom_site_label
_atom_site_fract_x
_atom_site_fract_y
_atom_site_fract_z
Si Si1 0.313596 0.123947 0.120462
Si Si2 0.327335 0.000000 0.626352
Si Si3 0.284591 0.726433 0.693769
Si Si4 0.500000 0.748253 0.500000
Si Si5 0.680545 0.000000 0.696929
Si Si6 0.334651 0.872032 0.799117
O O1 0.216833 0.186367 0.159080
O O2 0.488223 0.135210 0.170555
O O3 0.259173 0.062421 0.205445
O O4 0.274292 0.114735 0.948486
O O5 0.504046 0.000000 0.659841
O O6 0.258832 0.000000 0.455371
O O7 0.273711 0.933446 0.696649
O O8 0.428814 0.706948 0.621151
O O9 0.135076 0.706126 0.580665
O O10 0.272312 0.804408 0.723401
#
# Coordination Sequence:
#
# PCOD8099738 Si02
#       6
#     8   4   8   4   4   8
#     4  10  20  35  56  85 118 152 189 235 286 338
#     4   9  19  31  53  83 116 149 192 238 282 327
#     4  11  21  38  58  86 118 150 190 238 280 346
#     4  10  24  34  58  84 122 148 190 236 292 320
#     4   9  19  31  53  83 116 149 192 238 282 327
#     4  10  20  35  56  85 118 152 189 235 286 338
#
# _framework density 21.136036000000001
#
# number of rings (size 3 to 8) (size 9 to 14) (size 15 to 20)
#    0.000    2.000    2.222    1.333    6.222    2.667 
#    0.000    0.000    0.000    2.667    0.000    3.111 
#    0.000    0.000    0.000    0.000    0.000    0.000 
#
# Total GULP energy -223106.793685 kJ/mol
# GULP energy per Si atom -12394.821871 kJ/mol
# Density = 2.108793 g / cm^3
# Si number density = 21.136036 Si / 1000 Ang^3
#
#
#
# Elastic Constant Matrix: (Units=GPa)
#
#
# Indices 1 2 3 4 5 6 
#
# 1 62.7305 16.8687 35.6667 0.0000 -20.2500 0.0000
# 2 16.8687 160.3794 83.6582 0.0000 -24.0904 0.0000
# 3 35.6667 83.6582 186.3282 0.0000 -42.9149 0.0000
# 4 0.0000 0.0000 0.0000 33.7000 0.0000 -13.1246
# 5 -20.2500 -24.0904 -42.9149 0.0000 34.8785 0.0000
# 6 0.0000 0.0000 0.0000 -13.1246 0.0000 20.5056
#
#
#
# Elastic Compliance Matrix: (Units=1/GPa)
#
#
# Indices 1 2 3 4 5 6 
#
# 1 0.019964 0.000240 -0.001705 0.000000 0.009659 0.000000
# 2 0.000240 0.008207 -0.003340 0.000000 0.001699 0.000000
# 3 -0.001705 -0.003340 0.008977 0.000000 0.007750 0.000000
# 4 0.000000 0.000000 0.000000 0.039526 0.000000 0.025299
# 5 0.009659 0.001699 0.007750 0.000000 0.044988 0.000000
# 6 0.000000 0.000000 0.000000 0.025299 0.000000 0.064960
#
#
# Mechanical properties :
#
#
# Convention : Reuss Voigt Hill
#
# Bulk Modulus (GPa) = 36.30967 75.75834 56.03401
# Shear Modulus (GPa) = 24.34152 36.03312 30.18732
#
# Velocity S-wave (km/s) = 3.39729 4.13342 3.78331
# Velocity P-wave (km/s) = 5.71009 7.66168 6.75672
#
# Compressibility (1/GPa) = 0.02754087
#
# Stress axis : x y z
#
# Youngs Moduli (GPa) = 50.09032 121.84491 111.39013
#
# Poissons Ratio (x) = -0.02928 0.18988
# Poissons Ratio (y) = -0.01204 0.37199
# Poissons Ratio (z) = 0.08538 0.40690
#
# Static dielectric constant tensor:
#      x y z
#    x 3.444240 0.000000 -0.304950 
#    y 0.000000 3.661680 0.000000 
#    z -0.304950 0.000000 4.141480 
# 
# 
# High freq. dielectric constant tensor:
#      x y z
#    x 1.782670 0.000000 -0.020760 
#    y 0.000000 1.813580 0.000000 
#    z -0.020760 0.000000 1.851480 
# 
# From -- ./inp_files/38045.got.cif
#   From: 2010.06.25/outbox.cif.g09.slc.cpg/sg12_20_cif.got.tgz:38045.got - 2010.06.28 00:19:55.
