data_PCOD8099810
_publ_section_title
;
Structure prediction by ZEFSAII (Michael W. Deem and Ramdas Pophale) SiO2 
 PCOD8099810
Probable space group: C 2/M
;
_chemical_formula_sum "Si O2"
_cell_formula_units_Z 56
_cell_length_a 20.207691
_cell_length_b 9.178564
_cell_length_c 28.372358
_cell_angle_alpha 90.000000
_cell_angle_beta 147.400755
_cell_angle_gamma 90.000000
_cell_volume 2835.188596
_symmetry_space_group_name_H-M "C 2/M"
_symmetry_group_IT_number 12
_symmetry_cell_setting 'monoclinic'
loop_
_space_group_symop_operation_xyz
x,y,z
-x,y,-z
-x,-y,-z
x,-y,z
1/2+x,1/2+y,z
1/2-x,1/2+y,-z
1/2-x,1/2-y,-z
1/2+x,1/2-y,z
loop_
_atom_site_type_symbol
_atom_site_label
_atom_site_fract_x
_atom_site_fract_y
_atom_site_fract_z
Si Si1 0.638969 0.327679 0.593384
Si Si2 0.257022 0.831609 0.430505
Si Si3 0.924451 0.335150 0.617170
Si Si4 0.933093 0.169565 0.099922
Si Si5 0.293092 0.668811 0.758422
Si Si6 0.203202 0.335142 0.804010
Si Si7 0.744291 0.329587 0.923815
O O1 0.500000 0.277431 0.500000
O O2 0.651316 0.500000 0.600878
O O3 0.726758 0.260992 0.606577
O O4 0.685533 0.265466 0.671077
O O5 0.132130 0.778162 0.379940
O O6 0.372551 0.803273 0.533975
O O7 0.241564 0.000000 0.407571
O O8 0.889209 0.500000 0.611124
O O9 0.068724 0.310740 0.701864
O O10 0.875890 0.208357 0.116764
O O11 0.075735 0.214282 0.184862
O O12 0.916491 0.000000 0.078268
O O13 0.864446 0.257469 0.018051
O O14 0.263255 0.500000 0.730334
O O15 0.296029 0.697277 0.816551
O O16 0.219447 0.500000 0.832470
O O17 0.226688 0.226284 0.860567
O O18 0.767821 0.500000 0.935880
#
# Coordination Sequence:
#
# PCOD8099810 Si02
#       7
#     8   8   8   8   8   8   8
#     4  11  24  39  56  82 118 156 195 240 293 345
#     4  10  20  35  57  81 109 150 197 244 289 341
#     4   9  19  35  54  81 114 148 191 239 292 346
#     4   9  20  40  62  86 115 149 193 240 289 349
#     4  10  22  40  62  87 116 153 201 245 287 346
#     4  10  21  37  58  84 116 154 191 238 293 347
#     4  10  21  37  60  88 118 151 191 239 292 351
#
# _framework density 19.751771000000002
#
# number of rings (size 3 to 8) (size 9 to 14) (size 15 to 20)
#    0.000    2.143    0.000    2.143    2.000    5.714 
#    0.000    2.857    0.000    0.000    0.000    0.000 
#    0.000    0.000    0.000    0.000    0.000    0.000 
#
# Total GULP energy -347302.049726 kJ/mol
# GULP energy per Si atom -12403.644633 kJ/mol
# Density = 1.970682 g / cm^3
# Si number density = 19.751771 Si / 1000 Ang^3
#
#
#
# Elastic Constant Matrix: (Units=GPa)
#
#
# Indices 1 2 3 4 5 6 
#
# 1 92.5314 40.0012 41.7802 0.0000 -4.6241 0.0001
# 2 40.0012 72.8934 44.6025 -0.0001 -0.0606 0.0004
# 3 41.7802 44.6025 82.0553 -0.0001 1.0389 0.0000
# 4 0.0000 -0.0001 -0.0001 34.5080 0.0000 -5.4679
# 5 -4.6241 -0.0606 1.0389 0.0000 27.8501 0.0000
# 6 0.0001 0.0004 0.0000 -5.4679 0.0000 31.6128
#
#
#
# Elastic Compliance Matrix: (Units=1/GPa)
#
#
# Indices 1 2 3 4 5 6 
#
# 1 0.015567 -0.005497 -0.004973 0.000000 0.002758 0.000000
# 2 -0.005497 0.022503 -0.009426 0.000000 -0.000512 0.000000
# 3 -0.004973 -0.009426 0.019863 0.000000 -0.001587 0.000000
# 4 0.000000 0.000000 0.000000 0.029795 0.000000 0.005154
# 5 0.002758 -0.000512 -0.001587 0.000000 0.036423 0.000000
# 6 0.000000 0.000000 0.000000 0.005154 0.000000 0.032524
#
#
# Mechanical properties :
#
#
# Convention : Reuss Voigt Hill
#
# Bulk Modulus (GPa) = 55.12827 55.58312 55.35569
# Shear Modulus (GPa) = 24.68967 26.86727 25.77847
#
# Velocity S-wave (km/s) = 3.53937 3.69215 3.61657
# Velocity P-wave (km/s) = 6.68386 6.81013 6.74729
#
# Compressibility (1/GPa) = 0.01813951
#
# Stress axis : x y z
#
# Youngs Moduli (GPa) = 64.23891 44.43909 50.34536
#
# Poissons Ratio (x) = 0.24430 0.25036
# Poissons Ratio (y) = 0.35314 0.47456
# Poissons Ratio (z) = 0.31946 0.41889
#
# Static dielectric constant tensor:
#      x y z
#    x 3.620710 0.000000 0.043800 
#    y 0.000000 3.580090 0.000000 
#    z 0.043800 0.000000 3.523220 
# 
# 
# High freq. dielectric constant tensor:
#      x y z
#    x 1.774710 0.000000 -0.000220 
#    y 0.000000 1.768910 0.000000 
#    z -0.000220 0.000000 1.764330 
# 
# From -- ./inp_files/380728.got.cif
#   From: 2010.06.25/outbox.cif.g09.slc.cpg/sg12_191_cif.got.tgz:380728.got - 2010.06.28 00:19:55.
