data_PCOD8099520
_publ_section_title
;
Structure prediction by ZEFSAII (Michael W. Deem and Ramdas Pophale) SiO2 
 PCOD8099520
Probable space group: C 2/M
;
_chemical_formula_sum "Si O2"
_cell_formula_units_Z 56
_cell_length_a 17.159793
_cell_length_b 24.195822
_cell_length_c 9.468003
_cell_angle_alpha 90.000000
_cell_angle_beta 46.341613
_cell_angle_gamma 90.000000
_cell_volume 2844.006458
_symmetry_space_group_name_H-M "C 2/M"
_symmetry_group_IT_number 12
_symmetry_cell_setting 'monoclinic'
loop_
_space_group_symop_operation_xyz
x,y,z
-x,y,-z
-x,-y,-z
x,-y,z
1/2+x,1/2+y,z
1/2-x,1/2+y,-z
1/2-x,1/2-y,-z
1/2+x,1/2-y,z
loop_
_atom_site_type_symbol
_atom_site_label
_atom_site_fract_x
_atom_site_fract_y
_atom_site_fract_z
Si Si1 0.282411 0.938329 0.774921
Si Si2 0.535612 0.692122 0.615387
Si Si3 0.373493 0.064049 0.957807
Si Si4 0.594757 0.648288 0.977396
Si Si5 0.271292 0.140045 0.306977
Si Si6 0.140764 0.748834 0.720664
Si Si7 0.883044 0.561652 0.362251
O O1 0.348593 0.921782 0.828770
O O2 0.373795 0.936725 0.541569
O O3 0.231535 0.000000 0.850284
O O4 0.189867 0.894902 0.859781
O O5 0.500000 0.709797 0.500000
O O6 0.443718 0.656401 0.810678
O O7 0.647151 0.658566 0.463475
O O8 0.551600 0.743402 0.706722
O O9 0.497329 0.079371 0.835247
O O10 0.351130 0.000000 0.021375
O O11 0.293192 0.102724 0.144391
O O12 0.500000 0.622494 0.000000
O O13 0.631388 0.705014 0.854012
O O14 0.358966 0.190118 0.199837
O O15 0.292410 0.102653 0.417245
O O16 0.250000 0.750000 0.500000
O O17 0.859906 0.500000 0.333228
#
# Coordination Sequence:
#
# PCOD8099520 Si02
#       7
#     8   8   8   8   8   8   8
#     4  10  20  36  56  80 112 147 186 231 278 331
#     4  10  21  38  58  81 114 149 181 225 279 326
#     4  10  21  36  56  83 113 144 182 234 288 328
#     4  10  20  37  58  81 114 152 186 226 277 327
#     4  11  21  38  59  82 110 145 189 225 267 335
#     4   9  20  38  57  78 108 143 183 226 269 324
#     4  10  20  35  56  81 111 146 184 230 283 333
#
# _framework density 19.690531
#
# number of rings (size 3 to 8) (size 9 to 14) (size 15 to 20)
#    0.000    2.000    0.000    4.714    0.000    6.571 
#    0.000   13.571    0.000    3.857    0.000    0.000 
#    0.000    0.000    0.000    0.000    0.000    0.000 
#
# Total GULP energy -346900.013699 kJ/mol
# GULP energy per Si atom -12389.286204 kJ/mol
# Density = 1.964571 g / cm^3
# Si number density = 19.690531 Si / 1000 Ang^3
#
#
#
# Elastic Constant Matrix: (Units=GPa)
#
#
# Indices 1 2 3 4 5 6 
#
# 1 89.3519 49.1661 37.6724 0.0000 10.9795 0.0000
# 2 49.1661 97.4807 35.0750 0.0000 1.3212 0.0000
# 3 37.6724 35.0750 105.5418 0.0000 9.6007 0.0000
# 4 0.0000 0.0000 0.0000 39.8082 0.0000 7.2334
# 5 10.9795 1.3212 9.6007 0.0000 38.6087 0.0000
# 6 0.0000 0.0000 0.0000 7.2334 0.0000 34.7319
#
#
#
# Elastic Compliance Matrix: (Units=1/GPa)
#
#
# Indices 1 2 3 4 5 6 
#
# 1 0.017121 -0.007393 -0.003309 0.000000 -0.003793 0.000000
# 2 -0.007393 0.014857 -0.002500 0.000000 0.002216 0.000000
# 3 -0.003309 -0.002500 0.011657 0.000000 -0.001872 0.000000
# 4 0.000000 0.000000 0.000000 0.026108 0.000000 -0.005437
# 5 -0.003793 0.002216 -0.001872 0.000000 0.027369 0.000000
# 6 0.000000 0.000000 0.000000 -0.005437 0.000000 0.029924
#
#
# Mechanical properties :
#
#
# Convention : Reuss Voigt Hill
#
# Bulk Modulus (GPa) = 58.03724 59.57794 58.80759
# Shear Modulus (GPa) = 31.40983 33.99382 32.70183
#
# Velocity S-wave (km/s) = 3.99830 4.15951 4.07970
# Velocity P-wave (km/s) = 7.13119 7.30695 7.21960
#
# Compressibility (1/GPa) = 0.01723032
#
# Stress axis : x y z
#
# Youngs Moduli (GPa) = 58.40722 67.30898 85.78339
#
# Poissons Ratio (x) = 0.49763 0.28388
# Poissons Ratio (y) = 0.43182 0.21446
# Poissons Ratio (z) = 0.19328 0.16827
#
# Static dielectric constant tensor:
#      x y z
#    x 3.841960 0.000000 0.022710 
#    y 0.000000 4.580640 0.000000 
#    z 0.022710 0.000000 3.801340 
# 
# 
# High freq. dielectric constant tensor:
#      x y z
#    x 1.760270 0.000000 0.009620 
#    y 0.000000 1.758890 0.000000 
#    z 0.009620 0.000000 1.786100 
# 
# From -- ./inp_files/79048.got.cif
#   From: 2010.06.25/outbox.cif.g09.slc.cpg/sg12_40_cif.got.tgz:79048.got - 2010.06.28 00:19:55.
