data_PCOD8099601
_publ_section_title
;
Structure prediction by ZEFSAII (Michael W. Deem and Ramdas Pophale) SiO2 
 PCOD8099601
Probable space group: C 2/M
;
_chemical_formula_sum "Si O2"
_cell_formula_units_Z 60
_cell_length_a 10.533154
_cell_length_b 27.844242
_cell_length_c 19.633965
_cell_angle_alpha 90.000000
_cell_angle_beta 149.287006
_cell_angle_gamma 90.000000
_cell_volume 2941.033288
_symmetry_space_group_name_H-M "C 2/M"
_symmetry_group_IT_number 12
_symmetry_cell_setting 'monoclinic'
loop_
_space_group_symop_operation_xyz
x,y,z
-x,y,-z
-x,-y,-z
x,-y,z
1/2+x,1/2+y,z
1/2-x,1/2+y,-z
1/2-x,1/2-y,-z
1/2+x,1/2-y,z
loop_
_atom_site_type_symbol
_atom_site_label
_atom_site_fract_x
_atom_site_fract_y
_atom_site_fract_z
Si Si1 0.766953 0.053861 0.603340
Si Si2 0.647374 0.888046 0.910249
Si Si3 0.576484 0.777872 0.869573
Si Si4 0.608326 0.374195 0.695944
Si Si5 0.000000 0.113318 0.500000
Si Si6 0.995858 0.444798 0.715708
Si Si7 0.944502 0.053070 0.830911
Si Si8 0.750913 0.710779 0.839807
O O1 0.500000 0.075962 0.500000
O O2 0.948669 0.053703 0.751677
O O3 0.899890 0.085295 0.607318
O O4 0.730474 0.000000 0.556736
O O5 0.676142 0.831741 0.904803
O O6 0.385738 0.896471 0.828185
O O7 0.664397 0.919649 0.850698
O O8 0.873441 0.904555 0.061847
O O9 0.579642 0.750854 0.797613
O O10 0.315824 0.775879 0.790480
O O11 0.750000 0.750000 0.000000
O O12 0.570003 0.354700 0.599519
O O13 0.583716 0.336402 0.747514
O O14 0.231669 0.080251 0.586669
O O15 0.952829 0.500000 0.715376
O O16 0.158371 0.438543 0.722172
O O17 0.032771 0.000000 0.897587
O O18 0.000000 0.700195 0.000000
#
# Coordination Sequence:
#
# PCOD8099601 Si02
#       8
#     8   8   8   8   4   8   8   8
#     4  10  22  38  55  81 115 157 204 243 285 344
#     4  10  21  35  55  88 119 150 189 244 303 359
#     4   9  19  34  55  86 122 155 191 241 298 360
#     4  10  22  37  61  83 116 154 193 247 291 351
#     4  10  21  38  58  84 110 154 208 240 285 340
#     4  10  20  35  56  82 114 154 198 245 290 348
#     4  10  21  34  52  81 122 155 187 241 298 355
#     4   9  19  36  60  90 121 149 193 247 303 359
#
# _framework density 20.400995000000002
#
# number of rings (size 3 to 8) (size 9 to 14) (size 15 to 20)
#    0.000    2.267    0.000    1.800    5.600    8.533 
#    0.000    1.333    0.000    7.200    6.933    0.000 
#    0.000    0.000    0.000    0.000    0.000    0.000 
#
# Total GULP energy -371686.882510 kJ/mol
# GULP energy per Si atom -12389.562750 kJ/mol
# Density = 2.035456 g / cm^3
# Si number density = 20.400995 Si / 1000 Ang^3
#
#
#
# Elastic Constant Matrix: (Units=GPa)
#
#
# Indices 1 2 3 4 5 6 
#
# 1 88.4707 46.5902 29.0081 0.0085 -6.2208 0.0017
# 2 46.5902 95.6855 30.1783 -0.0168 -6.1238 -0.0011
# 3 29.0081 30.1783 77.6446 0.0525 1.2034 0.0493
# 4 0.0085 -0.0168 0.0525 16.3733 0.0059 -4.5833
# 5 -6.2208 -6.1238 1.2034 0.0059 32.1896 -0.0065
# 6 0.0017 -0.0011 0.0493 -4.5833 -0.0065 32.0290
#
#
#
# Elastic Compliance Matrix: (Units=1/GPa)
#
#
# Indices 1 2 3 4 5 6 
#
# 1 0.016052 -0.006597 -0.003464 -0.000004 0.001977 0.000004
# 2 -0.006597 0.014817 -0.003320 0.000032 0.001668 0.000011
# 3 -0.003464 -0.003320 0.015493 -0.000060 -0.001880 -0.000033
# 4 -0.000004 0.000032 -0.000060 0.063624 -0.000002 0.009105
# 5 0.001977 0.001668 -0.001880 -0.000002 0.031836 0.000009
# 6 0.000004 0.000011 -0.000033 0.009105 0.000009 0.032525
#
#
# Mechanical properties :
#
#
# Convention : Reuss Voigt Hill
#
# Bulk Modulus (GPa) = 51.01977 52.59490 51.80733
# Shear Modulus (GPa) = 24.08008 26.51999 25.30004
#
# Velocity S-wave (km/s) = 3.43933 3.60937 3.52538
# Velocity P-wave (km/s) = 6.39021 6.57318 6.48234
#
# Compressibility (1/GPa) = 0.01960025
#
# Stress axis : x y z
#
# Youngs Moduli (GPa) = 62.29810 67.49039 64.54588
#
# Poissons Ratio (x) = 0.44523 0.22356
# Poissons Ratio (y) = 0.41098 0.21431
# Poissons Ratio (z) = 0.21577 0.22408
#
# Static dielectric constant tensor:
#      x y z
#    x 4.218630 -0.001010 -0.046250 
#    y -0.001010 3.652690 -0.000840 
#    z -0.046250 -0.000840 3.530720 
# 
# 
# High freq. dielectric constant tensor:
#      x y z
#    x 1.806970 0.000000 -0.007770 
#    y 0.000000 1.778860 -0.000010 
#    z -0.007770 -0.000010 1.784170 
# 
# From -- ./inp_files/307312.got.cif
#   From: 2010.06.25/outbox.cif.g09.slc.cpg/sg12_154_cif.got.tgz:307312.got - 2010.06.28 00:19:55.
