data_PCOD8099412
_publ_section_title
;
Structure prediction by ZEFSAII (Michael W. Deem and Ramdas Pophale) SiO2 
 PCOD8099412
Probable space group: C 2/M
;
_chemical_formula_sum "Si O2"
_cell_formula_units_Z 56
_cell_length_a 19.167171
_cell_length_b 8.505197
_cell_length_c 26.562709
_cell_angle_alpha 90.000000
_cell_angle_beta 39.562175
_cell_angle_gamma 90.000000
_cell_volume 2758.013321
_symmetry_space_group_name_H-M "C 2/M"
_symmetry_group_IT_number 12
_symmetry_cell_setting 'monoclinic'
loop_
_space_group_symop_operation_xyz
x,y,z
-x,y,-z
-x,-y,-z
x,-y,z
1/2+x,1/2+y,z
1/2-x,1/2+y,-z
1/2-x,1/2-y,-z
1/2+x,1/2-y,z
loop_
_atom_site_type_symbol
_atom_site_label
_atom_site_fract_x
_atom_site_fract_y
_atom_site_fract_z
Si Si1 0.842061 0.682064 0.303328
Si Si2 0.071487 0.317156 0.007156
Si Si3 0.106922 0.181809 0.830004
Si Si4 0.717199 0.816480 0.072438
Si Si5 0.960703 0.185217 0.757476
Si Si6 0.830995 0.813066 0.731587
Si Si7 0.896629 0.183072 0.585832
O O1 0.859850 0.500000 0.279328
O O2 0.874382 0.791631 0.239007
O O3 0.713231 0.712565 0.386271
O O4 0.919158 0.733416 0.306876
O O5 0.102077 0.500000 0.987112
O O6 0.001108 0.280754 0.095971
O O7 0.183641 0.219301 0.944517
O O8 0.000000 0.259478 0.000000
O O9 0.210228 0.241014 0.805291
O O10 0.085325 0.000000 0.853145
O O11 0.608947 0.734100 0.154709
O O12 0.693914 0.000000 0.080957
O O13 0.750000 0.750000 0.000000
O O14 0.904811 0.245110 0.737038
O O15 0.975828 0.000000 0.748158
O O16 0.883060 0.749693 0.650153
O O17 0.817868 0.000000 0.738354
O O18 0.000000 0.264199 0.500000
O O19 0.921116 0.000000 0.578014
#
# Coordination Sequence:
#
# PCOD8099412 Si02
#       7
#     8   8   8   8   8   8   8
#     4  10  20  35  56  80 107 141 180 219 264 319
#     4  11  23  38  55  76 105 140 179 225 276 325
#     4  11  21  34  54  78 105 138 180 227 271 320
#     4  12  25  40  57  78 107 143 186 232 279 326
#     4  11  22  37  55  78 111 146 183 225 272 324
#     4   9  19  35  56  81 110 146 182 221 271 323
#     4   8  15  32  59  86 109 139 181 221 260 316
#
# _framework density 20.304469000000001
#
# number of rings (size 3 to 8) (size 9 to 14) (size 15 to 20)
#    0.000    1.714    0.000    6.429    0.000    5.714 
#    0.000    0.714    0.000   10.714    0.000    0.000 
#    0.000    0.000    0.000    0.000    0.000    0.000 
#
# Total GULP energy -347229.350756 kJ/mol
# GULP energy per Si atom -12401.048241 kJ/mol
# Density = 2.025825 g / cm^3
# Si number density = 20.304469 Si / 1000 Ang^3
#
#
#
# Elastic Constant Matrix: (Units=GPa)
#
#
# Indices 1 2 3 4 5 6 
#
# 1 112.0684 20.5113 22.9103 0.0005 -18.9374 -0.0015
# 2 20.5113 53.4746 12.1633 0.0006 -4.8068 -0.0021
# 3 22.9103 12.1633 89.7579 0.0001 -17.4654 -0.0006
# 4 0.0005 0.0006 0.0001 16.2887 0.0001 -5.3380
# 5 -18.9374 -4.8068 -17.4654 0.0001 28.6321 0.0006
# 6 -0.0015 -0.0021 -0.0006 -5.3380 0.0006 33.7758
#
#
#
# Elastic Compliance Matrix: (Units=1/GPa)
#
#
# Indices 1 2 3 4 5 6 
#
# 1 0.010759 -0.003338 -0.001155 0.000000 0.005851 0.000000
# 2 -0.003338 0.020419 -0.001904 0.000000 0.000059 0.000001
# 3 -0.001155 -0.001904 0.013030 0.000000 0.006864 0.000000
# 4 0.000000 0.000000 0.000000 0.064746 -0.000001 0.010233
# 5 0.005851 0.000059 0.006864 -0.000001 0.042993 0.000000
# 6 0.000000 0.000001 0.000000 0.010233 0.000000 0.031224
#
#
# Mechanical properties :
#
#
# Convention : Reuss Voigt Hill
#
# Bulk Modulus (GPa) = 31.83320 40.71897 36.27609
# Shear Modulus (GPa) = 24.22067 29.05373 26.63720
#
# Velocity S-wave (km/s) = 3.45755 3.78683 3.62593
# Velocity P-wave (km/s) = 5.62596 6.26242 5.95270
#
# Compressibility (1/GPa) = 0.03141374
#
# Stress axis : x y z
#
# Youngs Moduli (GPa) = 92.94587 48.97364 76.74838
#
# Poissons Ratio (x) = 0.16348 0.08867
# Poissons Ratio (y) = 0.31026 0.14609
# Poissons Ratio (z) = 0.10738 0.09322
#
# Static dielectric constant tensor:
#      x y z
#    x 3.971770 0.000000 -0.163580 
#    y 0.000000 3.464590 0.000000 
#    z -0.163580 0.000000 3.852040 
# 
# 
# High freq. dielectric constant tensor:
#      x y z
#    x 1.802790 0.000000 -0.015340 
#    y 0.000000 1.779670 0.000000 
#    z -0.015340 0.000000 1.776240 
# 
# From -- ./inp_files/362970.got.cif
#   From: 2010.06.25/outbox.cif.g09.slc.cpg/sg12_182_cif.got.tgz:362970.got - 2010.06.28 00:19:55.
