data_PCOD8099808
_publ_section_title
;
Structure prediction by ZEFSAII (Michael W. Deem and Ramdas Pophale) SiO2 
 PCOD8099808
Probable space group: C 2/M
;
_chemical_formula_sum "Si O2"
_cell_formula_units_Z 48
_cell_length_a 14.425023
_cell_length_b 7.792296
_cell_length_c 21.054916
_cell_angle_alpha 90.000000
_cell_angle_beta 90.695865
_cell_angle_gamma 90.000000
_cell_volume 2366.483266
_symmetry_space_group_name_H-M "C 2/M"
_symmetry_group_IT_number 12
_symmetry_cell_setting 'monoclinic'
loop_
_space_group_symop_operation_xyz
x,y,z
-x,y,-z
-x,-y,-z
x,-y,z
1/2+x,1/2+y,z
1/2-x,1/2+y,-z
1/2-x,1/2-y,-z
1/2+x,1/2-y,z
loop_
_atom_site_type_symbol
_atom_site_label
_atom_site_fract_x
_atom_site_fract_y
_atom_site_fract_z
Si Si1 0.103095 0.701355 0.498279
Si Si2 0.757221 0.801342 0.739802
Si Si3 0.248056 0.797260 0.402137
Si Si4 0.889163 0.000000 0.069768
Si Si5 0.609716 0.500000 0.072052
Si Si6 0.608828 0.805694 0.841882
Si Si7 0.394913 0.190804 0.841413
O O1 0.095202 0.500000 0.508265
O O2 0.149394 0.742900 0.430861
O O3 0.167810 0.780808 0.554794
O O4 0.000000 0.783693 0.500000
O O5 0.745253 0.723670 0.669210
O O6 0.661288 0.773507 0.776360
O O7 0.839714 0.700885 0.775199
O O8 0.785388 0.000000 0.737123
O O9 0.256678 0.000000 0.401088
O O10 0.853818 0.171326 0.105331
O O11 0.999538 0.000000 0.067262
O O12 0.847545 0.000000 0.998312
O O13 0.645255 0.330198 0.109194
O O14 0.501553 0.770836 0.826437
O O15 0.625816 0.000000 0.867330
O O16 0.383513 0.000000 0.870831
#
# Coordination Sequence:
#
# PCOD8099808 Si02
#       7
#     8   8   8   4   4   8   8
#     4   9  18  34  55  78 110 144 181 224 265 318
#     4  10  20  36  55  75 113 148 181 232 280 326
#     4   9  19  34  53  78 107 146 179 219 275 317
#     4   9  18  34  60  80 107 146 185 226 283 336
#     4   9  18  36  56  82 111 142 181 236 281 328
#     4   9  20  36  55  80 110 144 184 231 279 331
#     4  10  20  35  57  81 108 146 187 229 280 333
#
# _framework density 20.283262000000001
#
# number of rings (size 3 to 8) (size 9 to 14) (size 15 to 20)
#    0.000    2.667    0.833    0.000    1.167    3.000 
#    0.000    7.500    0.000    0.000    0.000    0.000 
#    0.000    0.000    0.000    0.000    0.000    0.000 
#
# Total GULP energy -297570.714158 kJ/mol
# GULP energy per Si atom -12398.779757 kJ/mol
# Density = 2.023710 g / cm^3
# Si number density = 20.283262 Si / 1000 Ang^3
#
#
#
# Elastic Constant Matrix: (Units=GPa)
#
#
# Indices 1 2 3 4 5 6 
#
# 1 93.0320 36.1098 65.7254 0.0000 -4.2642 0.0000
# 2 36.1098 88.5569 56.8801 0.0000 -3.3415 0.0000
# 3 65.7254 56.8801 170.9971 0.0000 -6.3307 0.0000
# 4 0.0000 0.0000 0.0000 20.1630 0.0000 -5.8122
# 5 -4.2642 -3.3415 -6.3307 0.0000 24.1139 0.0000
# 6 0.0000 0.0000 0.0000 -5.8122 0.0000 19.6553
#
#
#
# Elastic Compliance Matrix: (Units=1/GPa)
#
#
# Indices 1 2 3 4 5 6 
#
# 1 0.015444 -0.003142 -0.004853 0.000000 0.001022 0.000000
# 2 -0.003142 0.015013 -0.003766 0.000000 0.000536 0.000000
# 3 -0.004853 -0.003766 0.009003 0.000000 0.000983 0.000000
# 4 0.000000 0.000000 0.000000 0.054217 0.000000 0.016033
# 5 0.001022 0.000536 0.000983 0.000000 0.041983 0.000000
# 6 0.000000 0.000000 0.000000 0.016033 0.000000 0.055618
#
#
# Mechanical properties :
#
#
# Convention : Reuss Voigt Hill
#
# Bulk Modulus (GPa) = 62.74814 74.44628 68.59721
# Shear Modulus (GPa) = 22.71568 25.71116 24.21342
#
# Velocity S-wave (km/s) = 3.35016 3.56421 3.45884
# Velocity P-wave (km/s) = 6.77996 7.32947 7.06006
#
# Compressibility (1/GPa) = 0.01593673
#
# Stress axis : x y z
#
# Youngs Moduli (GPa) = 64.75025 66.61100 111.07724
#
# Poissons Ratio (x) = 0.20926 0.53909
# Poissons Ratio (y) = 0.20342 0.41836
# Poissons Ratio (z) = 0.31425 0.25088
#
# Static dielectric constant tensor:
#      x y z
#    x 3.679680 0.000000 0.069880 
#    y 0.000000 3.682110 0.000000 
#    z 0.069880 0.000000 3.835100 
# 
# 
# High freq. dielectric constant tensor:
#      x y z
#    x 1.786830 0.000000 -0.000440 
#    y 0.000000 1.790730 0.000000 
#    z -0.000440 0.000000 1.780710 
# 
# From -- ./inp_files/267752.got.cif
#   From: 2010.06.25/outbox.cif.g09.slc.cpg/sg12_134_cif.got.tgz:267752.got - 2010.06.28 00:19:55.
