data_PCOD8099697
_publ_section_title
;
Structure prediction by ZEFSAII (Michael W. Deem and Ramdas Pophale) SiO2 
 PCOD8099697
Probable space group: C 2/M
;
_chemical_formula_sum "Si O2"
_cell_formula_units_Z 64
_cell_length_a 29.762299
_cell_length_b 9.101378
_cell_length_c 15.907170
_cell_angle_alpha 90.000000
_cell_angle_beta 132.874875
_cell_angle_gamma 90.000000
_cell_volume 3157.741002
_symmetry_space_group_name_H-M "C 2/M"
_symmetry_group_IT_number 12
_symmetry_cell_setting 'monoclinic'
loop_
_space_group_symop_operation_xyz
x,y,z
-x,y,-z
-x,-y,-z
x,-y,z
1/2+x,1/2+y,z
1/2-x,1/2+y,-z
1/2-x,1/2-y,-z
1/2+x,1/2-y,z
loop_
_atom_site_type_symbol
_atom_site_label
_atom_site_fract_x
_atom_site_fract_y
_atom_site_fract_z
Si Si1 0.404435 0.826692 0.228356
Si Si2 0.702960 0.673128 0.378976
Si Si3 0.745976 0.673179 0.248401
Si Si4 0.521155 0.830290 0.938288
Si Si5 0.969660 0.165766 0.593320
Si Si6 0.637252 0.327847 0.665038
Si Si7 0.147097 0.330761 0.018980
Si Si8 0.075002 0.833583 0.285140
O O1 0.474869 0.778227 0.326308
O O2 0.362185 0.744178 0.242229
O O3 0.401372 0.000000 0.239636
O O4 0.377146 0.783025 0.103223
O O5 0.707938 0.500000 0.400253
O O6 0.750000 0.750000 0.500000
O O7 0.715748 0.716075 0.298932
O O8 0.635868 0.732761 0.319777
O O9 0.754608 0.500000 0.249977
O O10 0.811670 0.750828 0.327266
O O11 0.703748 0.730173 0.118337
O O12 0.485184 0.753271 0.817953
O O13 0.503563 0.000000 0.911086
O O14 0.500000 0.761683 0.000000
O O15 0.593221 0.804867 0.017962
O O16 0.929964 0.201137 0.460034
O O17 0.922034 0.178663 0.610259
O O18 0.996748 0.000000 0.622760
O O19 0.651953 0.500000 0.689753
O O20 0.168318 0.500000 0.045554
O O21 0.067026 0.000000 0.244615
#
# Coordination Sequence:
#
# PCOD8099697 Si02
#       8
#     8   8   8   8   8   8   8   8
#     4  11  23  40  63  91 123 157 199 252 306 361
#     4  10  22  39  59  88 123 161 205 250 297 355
#     4  11  24  41  62  90 122 159 208 257 302 356
#     4  10  20  35  56  84 116 152 196 240 289 351
#     4  10  21  38  61  90 122 158 199 245 301 367
#     4  11  24  42  64  88 119 160 204 251 308 369
#     4  10  22  40  60  86 122 161 199 246 305 365
#     4  10  20  35  57  85 118 153 193 239 292 351
#
# _framework density 20.267652999999999
#
# number of rings (size 3 to 8) (size 9 to 14) (size 15 to 20)
#    0.000    1.625    1.250    3.000    0.000    7.250 
#    0.000    0.000    0.000    0.000    0.000    0.000 
#    0.000    0.000    0.000    0.000    0.000    0.000 
#
# Total GULP energy -396936.516717 kJ/mol
# GULP energy per Si atom -12404.266147 kJ/mol
# Density = 2.022152 g / cm^3
# Si number density = 20.267653 Si / 1000 Ang^3
#
#
#
# Elastic Constant Matrix: (Units=GPa)
#
#
# Indices 1 2 3 4 5 6 
#
# 1 78.7555 31.5051 13.7383 0.0000 -5.4621 0.0000
# 2 31.5051 78.5912 43.8218 0.0000 1.4082 0.0000
# 3 13.7383 43.8218 95.8322 0.0000 -2.5542 0.0000
# 4 0.0000 0.0000 0.0000 34.9733 0.0000 3.2282
# 5 -5.4621 1.4082 -2.5542 0.0000 34.3609 0.0000
# 6 0.0000 0.0000 0.0000 3.2282 0.0000 34.2459
#
#
#
# Elastic Compliance Matrix: (Units=1/GPa)
#
#
# Indices 1 2 3 4 5 6 
#
# 1 0.015434 -0.006772 0.000959 0.000000 0.002802 0.000000
# 2 -0.006772 0.020106 -0.008291 0.000000 -0.002517 0.000000
# 3 0.000959 -0.008291 0.014130 0.000000 0.001542 0.000000
# 4 0.000000 0.000000 0.000000 0.028844 0.000000 -0.002719
# 5 0.002802 -0.002517 0.001542 0.000000 0.029766 0.000000
# 6 0.000000 0.000000 0.000000 -0.002719 0.000000 0.029457
#
#
# Mechanical properties :
#
#
# Convention : Reuss Voigt Hill
#
# Bulk Modulus (GPa) = 46.59254 47.92326 47.25790
# Shear Modulus (GPa) = 28.88537 31.65694 30.27116
#
# Velocity S-wave (km/s) = 3.77927 3.95643 3.86887
# Velocity P-wave (km/s) = 6.48709 6.67590 6.58217
#
# Compressibility (1/GPa) = 0.02146266
#
# Stress axis : x y z
#
# Youngs Moduli (GPa) = 64.79392 49.73524 70.77328
#
# Poissons Ratio (x) = 0.33679 -0.06785
# Poissons Ratio (y) = 0.43876 0.58675
# Poissons Ratio (z) = -0.06212 0.41233
#
# Static dielectric constant tensor:
#      x y z
#    x 3.859090 0.000000 -0.161890 
#    y 0.000000 3.592610 0.000000 
#    z -0.161890 0.000000 3.620660 
# 
# 
# High freq. dielectric constant tensor:
#      x y z
#    x 1.804690 0.000000 -0.007800 
#    y 0.000000 1.787060 0.000000 
#    z -0.007800 0.000000 1.791930 
# 
# From -- ./inp_files/250092.got.cif
#   From: 2010.06.25/outbox.cif.g09.slc.cpg/sg12_126_cif.got.tgz:250092.got - 2010.06.28 00:19:55.
