data_PCOD8099634
_publ_section_title
;
Structure prediction by ZEFSAII (Michael W. Deem and Ramdas Pophale) SiO2 
 PCOD8099634
Probable space group: C 2/M
;
_chemical_formula_sum "Si O2"
_cell_formula_units_Z 40
_cell_length_a 24.090572
_cell_length_b 12.396452
_cell_length_c 5.518306
_cell_angle_alpha 90.000000
_cell_angle_beta 86.581929
_cell_angle_gamma 90.000000
_cell_volume 1645.042142
_symmetry_space_group_name_H-M "C 2/M"
_symmetry_group_IT_number 12
_symmetry_cell_setting 'monoclinic'
loop_
_space_group_symop_operation_xyz
x,y,z
-x,y,-z
-x,-y,-z
x,-y,z
1/2+x,1/2+y,z
1/2-x,1/2+y,-z
1/2-x,1/2-y,-z
1/2+x,1/2-y,z
loop_
_atom_site_type_symbol
_atom_site_label
_atom_site_fract_x
_atom_site_fract_y
_atom_site_fract_z
Si Si1 0.156800 0.120614 0.067082
Si Si2 0.710690 0.223100 0.730846
Si Si3 0.123102 0.500000 0.330341
Si Si4 0.809582 0.500000 0.184902
Si Si5 0.895969 0.272683 0.527407
Si Si6 0.045429 0.880305 0.797648
O O1 0.210168 0.181362 0.930659
O O2 0.105937 0.110594 0.896333
O O3 0.174058 0.000000 0.146202
O O4 0.139422 0.193753 0.294662
O O5 0.750000 0.250000 0.500000
O O6 0.645777 0.202891 0.682368
O O7 0.729416 0.106235 0.830090
O O8 0.165659 0.500000 0.544896
O O9 0.086837 0.388127 0.357474
O O10 0.148545 0.500000 0.054603
O O11 0.950629 0.206443 0.423137
O O12 0.027555 0.000000 0.708058
O O13 0.000000 0.836591 0.000000
#
# Coordination Sequence:
#
# PCOD8099634 Si02
#       6
#     8   8   4   4   8   8
#     4  10  20  35  56  83 114 146 191 240 295 348
#     4  10  22  37  54  80 116 152 197 243 294 348
#     4  10  20  38  63  81 115 158 202 238 291 352
#     4  10  20  40  58  84 112 161 201 240 292 356
#     4  10  20  37  56  82 111 153 192 247 290 353
#     4   9  19  36  59  85 115 149 188 238 301 364
#
# _framework density 24.315487000000001
#
# number of rings (size 3 to 8) (size 9 to 14) (size 15 to 20)
#    0.000    2.200    2.000    0.600    1.400    2.400 
#    0.000    3.500    0.000    1.200    0.000    0.000 
#    0.000    0.000    0.000    0.000    0.000    0.000 
#
# Total GULP energy -247771.872665 kJ/mol
# GULP energy per Si atom -12388.593633 kJ/mol
# Density = 2.426014 g / cm^3
# Si number density = 24.315487 Si / 1000 Ang^3
#
#
#
# Elastic Constant Matrix: (Units=GPa)
#
#
# Indices 1 2 3 4 5 6 
#
# 1 33.9567 32.4940 17.7362 0.0000 -21.7708 0.0000
# 2 32.4940 272.0265 94.6583 0.0000 -52.2196 0.0000
# 3 17.7362 94.6583 150.0175 0.0000 -46.2905 0.0000
# 4 0.0000 0.0000 0.0000 39.6110 0.0000 -9.5159
# 5 -21.7708 -52.2196 -46.2905 0.0000 50.6076 0.0000
# 6 0.0000 0.0000 0.0000 -9.5159 0.0000 19.7085
#
#
#
# Elastic Compliance Matrix: (Units=1/GPa)
#
#
# Indices 1 2 3 4 5 6 
#
# 1 0.041775 -0.002319 0.001855 0.000000 0.017275 0.000000
# 2 -0.002319 0.005186 -0.002306 0.000000 0.002245 0.000000
# 3 0.001855 -0.002306 0.010329 0.000000 0.007867 0.000000
# 4 0.000000 0.000000 0.000000 0.028558 0.000000 0.013789
# 5 0.017275 0.002245 0.007867 0.000000 0.036703 0.000000
# 6 0.000000 0.000000 0.000000 0.013789 0.000000 0.057397
#
#
# Mechanical properties :
#
#
# Convention : Reuss Voigt Hill
#
# Bulk Modulus (GPa) = 19.32361 82.86421 51.09391
# Shear Modulus (GPa) = 24.66220 42.72621 33.69420
#
# Velocity S-wave (km/s) = 3.18820 4.19640 3.72655
# Velocity P-wave (km/s) = 4.63865 7.59160 6.29085
#
# Compressibility (1/GPa) = 0.05175015
#
# Stress axis : x y z
#
# Youngs Moduli (GPa) = 23.93756 192.81160 96.81710
#
# Poissons Ratio (x) = 0.44722 -0.17959
# Poissons Ratio (y) = 0.05552 0.22322
# Poissons Ratio (z) = -0.04440 0.44455
#
# Static dielectric constant tensor:
#      x y z
#    x 4.080030 0.000000 0.041500 
#    y 0.000000 5.713540 0.000000 
#    z 0.041500 0.000000 4.279210 
# 
# 
# High freq. dielectric constant tensor:
#      x y z
#    x 1.936480 0.000000 0.002200 
#    y 0.000000 1.998260 0.000000 
#    z 0.002200 0.000000 1.965620 
# 
# From -- ./inp_files/27423.got.cif
#   From: 2010.06.25/outbox.cif.g09.slc.cpg/sg12_14_cif.got.tgz:27423.got - 2010.06.28 00:19:55.
