data_PCOD8099353
_publ_section_title
;
Structure prediction by ZEFSAII (Michael W. Deem and Ramdas Pophale) SiO2 
 PCOD8099353
Probable space group: C 2/M
;
_chemical_formula_sum "Si O2"
_cell_formula_units_Z 64
_cell_length_a 14.558117
_cell_length_b 9.383921
_cell_length_c 26.712639
_cell_angle_alpha 90.000000
_cell_angle_beta 105.973769
_cell_angle_gamma 90.000000
_cell_volume 3508.366408
_symmetry_space_group_name_H-M "C 2/M"
_symmetry_group_IT_number 12
_symmetry_cell_setting 'monoclinic'
loop_
_space_group_symop_operation_xyz
x,y,z
-x,y,-z
-x,-y,-z
x,-y,z
1/2+x,1/2+y,z
1/2-x,1/2+y,-z
1/2-x,1/2-y,-z
1/2+x,1/2-y,z
loop_
_atom_site_type_symbol
_atom_site_label
_atom_site_fract_x
_atom_site_fract_y
_atom_site_fract_z
Si Si1 0.471266 0.664494 0.941216
Si Si2 0.541311 0.334003 0.582242
Si Si3 0.288588 0.837605 0.749545
Si Si4 0.345171 0.334903 0.499511
Si Si5 0.496724 0.161492 0.232587
Si Si6 0.383647 0.830547 0.312910
Si Si7 0.594279 0.337329 0.866636
Si Si8 0.801436 0.333204 0.866113
O O1 0.440308 0.500000 0.939550
O O2 0.562237 0.686397 0.918862
O O3 0.382998 0.751587 0.907328
O O4 0.500000 0.723080 0.000000
O O5 0.550514 0.500000 0.598244
O O6 0.432986 0.299194 0.549584
O O7 0.618491 0.296912 0.550777
O O8 0.562084 0.232913 0.631727
O O9 0.391334 0.826818 0.738950
O O10 0.221735 0.735082 0.707010
O O11 0.294478 0.783210 0.807582
O O12 0.249780 0.000000 0.742142
O O13 0.318315 0.500000 0.499019
O O14 0.250000 0.250000 0.500000
O O15 0.440679 0.219384 0.272211
O O16 0.473558 0.249226 0.179796
O O17 0.466680 0.000000 0.216654
O O18 0.377846 0.000000 0.317483
O O19 0.583086 0.500000 0.847897
O O20 0.703716 0.289799 0.878907
O O21 0.824479 0.500000 0.872356
#
# Coordination Sequence:
#
# PCOD8099353 Si02
#       8
#     8   8   8   8   8   8   8   8
#     4  10  22  38  55  79 111 142 175 225 282 328
#     4   9  20  39  58  80 116 156 187 223 277 335
#     4  10  20  36  56  78 108 146 182 221 275 333
#     4   9  19  37  62  87 112 149 193 232 277 328
#     4  10  21  36  54  78 108 142 181 223 271 325
#     4  11  23  36  54  84 116 144 184 233 275 320
#     4  10  20  35  56  79 105 138 179 221 267 328
#     4  10  20  35  57  81 104 138 182 222 267 329
#
# _framework density 18.242108999999999
#
# number of rings (size 3 to 8) (size 9 to 14) (size 15 to 20)
#    0.000    2.125    2.500    1.125    0.000    4.750 
#    0.000    5.000    0.000    0.000    0.000    0.000 
#    0.000    0.000    0.000    0.000    0.000    0.000 
#
# Total GULP energy -396862.008056 kJ/mol
# GULP energy per Si atom -12401.937752 kJ/mol
# Density = 1.820059 g / cm^3
# Si number density = 18.242109 Si / 1000 Ang^3
#
#
#
# Elastic Constant Matrix: (Units=GPa)
#
#
# Indices 1 2 3 4 5 6 
#
# 1 98.7520 33.3157 19.1328 0.0000 5.1434 0.0000
# 2 33.3157 61.1468 38.5510 0.0000 7.2311 0.0000
# 3 19.1328 38.5510 85.4497 0.0000 7.8694 0.0000
# 4 0.0000 0.0000 0.0000 33.3824 0.0000 6.0643
# 5 5.1434 7.2311 7.8694 0.0000 24.0749 0.0000
# 6 0.0000 0.0000 0.0000 6.0643 0.0000 32.2190
#
#
#
# Elastic Compliance Matrix: (Units=1/GPa)
#
#
# Indices 1 2 3 4 5 6 
#
# 1 0.012427 -0.006952 0.000419 0.000000 -0.000704 0.000000
# 2 -0.006952 0.027051 -0.010348 0.000000 -0.003257 0.000000
# 3 0.000419 -0.010348 0.016496 0.000000 -0.002374 0.000000
# 4 0.000000 0.000000 0.000000 0.031016 0.000000 -0.005838
# 5 -0.000704 -0.003257 -0.002374 0.000000 0.043442 0.000000
# 6 0.000000 0.000000 0.000000 -0.005838 0.000000 0.032136
#
#
# Mechanical properties :
#
#
# Convention : Reuss Voigt Hill
#
# Bulk Modulus (GPa) = 45.01935 47.48307 46.25121
# Shear Modulus (GPa) = 24.54185 28.22519 26.38352
#
# Velocity S-wave (km/s) = 3.67187 3.93778 3.80715
# Velocity P-wave (km/s) = 6.53523 6.83818 6.68842
#
# Compressibility (1/GPa) = 0.02221267
#
# Stress axis : x y z
#
# Youngs Moduli (GPa) = 80.46877 36.96775 60.62078
#
# Poissons Ratio (x) = 0.25698 -0.02537
# Poissons Ratio (y) = 0.55938 0.62727
# Poissons Ratio (z) = -0.03368 0.38252
#
# Static dielectric constant tensor:
#      x y z
#    x 3.488000 0.000000 -0.112030 
#    y 0.000000 3.301270 0.000000 
#    z -0.112030 0.000000 3.297230 
# 
# 
# High freq. dielectric constant tensor:
#      x y z
#    x 1.718110 0.000000 -0.003410 
#    y 0.000000 1.703320 0.000000 
#    z -0.003410 0.000000 1.702050 
# 
# From -- ./inp_files/359959.got.cif
#   From: 2010.06.25/outbox.cif.g09.slc.cpg/sg12_180_cif.got.tgz:359959.got - 2010.06.28 00:19:55.
