data_PCOD8099265
_publ_section_title
;
Structure prediction by ZEFSAII (Michael W. Deem and Ramdas Pophale) SiO2 
 PCOD8099265
Probable space group: C 2/M
;
_chemical_formula_sum "Si O2"
_cell_formula_units_Z 56
_cell_length_a 30.659048
_cell_length_b 8.613436
_cell_length_c 19.256975
_cell_angle_alpha 90.000000
_cell_angle_beta 37.274070
_cell_angle_gamma 90.000000
_cell_volume 3079.848470
_symmetry_space_group_name_H-M "C 2/M"
_symmetry_group_IT_number 12
_symmetry_cell_setting 'monoclinic'
loop_
_space_group_symop_operation_xyz
x,y,z
-x,y,-z
-x,-y,-z
x,-y,z
1/2+x,1/2+y,z
1/2-x,1/2+y,-z
1/2-x,1/2-y,-z
1/2+x,1/2-y,z
loop_
_atom_site_type_symbol
_atom_site_label
_atom_site_fract_x
_atom_site_fract_y
_atom_site_fract_z
Si Si1 0.070248 0.169863 0.365039
Si Si2 0.533244 0.817317 0.773988
Si Si3 0.811361 0.682838 0.374952
Si Si4 0.649938 0.820118 0.380827
Si Si5 0.797381 0.317139 0.235955
Si Si6 0.053669 0.817877 0.993374
Si Si7 0.971406 0.183179 0.370060
O O1 0.125010 0.287681 0.332919
O O2 0.000000 0.150986 0.500000
O O3 0.042190 0.229294 0.325668
O O4 0.107379 0.000000 0.311143
O O5 0.612506 0.757314 0.693331
O O6 0.519232 0.778796 0.711886
O O7 0.523987 0.000000 0.799134
O O8 0.478214 0.722990 0.891342
O O9 0.807713 0.500000 0.382794
O O10 0.750000 0.750000 0.500000
O O11 0.800128 0.743287 0.311394
O O12 0.732601 0.770233 0.280093
O O13 0.602491 0.726978 0.496980
O O14 0.641068 0.000000 0.408764
O O15 0.784517 0.500000 0.247480
O O16 0.871925 0.274321 0.105180
O O17 0.068672 0.000000 0.968394
O O18 0.000000 0.761725 0.000000
O O19 0.968822 0.000000 0.358449
#
# Coordination Sequence:
#
# PCOD8099265 Si02
#       7
#     8   8   8   8   8   8   8
#     4   8  16  32  53  77 109 147 183 220 268 328
#     4  11  22  37  56  80 109 144 185 228 273 324
#     4  10  22  35  51  76 107 142 177 217 266 321
#     4  11  21  33  53  84 116 145 183 227 275 330
#     4  11  22  38  57  77 107 147 186 227 273 323
#     4  11  23  39  59  81 105 141 187 233 275 321
#     4  10  20  35  55  82 114 148 185 224 273 330
#
# _framework density 18.182711999999999
#
# number of rings (size 3 to 8) (size 9 to 14) (size 15 to 20)
#    0.000    1.714    1.429    4.714    0.000    8.286 
#    0.000    0.000    0.000    0.857    0.000    0.000 
#    0.000    0.000    0.000    0.000    0.000    0.000 
#
# Total GULP energy -347248.569129 kJ/mol
# GULP energy per Si atom -12401.734612 kJ/mol
# Density = 1.814133 g / cm^3
# Si number density = 18.182712 Si / 1000 Ang^3
#
#
#
# Elastic Constant Matrix: (Units=GPa)
#
#
# Indices 1 2 3 4 5 6 
#
# 1 125.1912 27.6089 42.6816 0.0177 -6.5137 -0.0072
# 2 27.6089 54.6779 11.1285 0.0522 -2.3644 -0.0173
# 3 42.6816 11.1285 91.6695 0.0527 -4.8539 -0.0161
# 4 0.0177 0.0522 0.0527 30.6443 -0.0358 -0.1824
# 5 -6.5137 -2.3644 -4.8539 -0.0358 10.7478 0.0084
# 6 -0.0072 -0.0173 -0.0161 -0.1824 0.0084 28.2454
#
#
#
# Elastic Compliance Matrix: (Units=1/GPa)
#
#
# Indices 1 2 3 4 5 6 
#
# 1 0.010559 -0.004323 -0.004204 0.000013 0.003550 -0.000003
# 2 -0.004323 0.020628 -0.000400 -0.000030 0.001738 0.000011
# 3 -0.004204 -0.000400 0.013088 -0.000016 0.003275 0.000005
# 4 0.000013 -0.000030 -0.000016 0.032634 0.000103 0.000211
# 5 0.003550 0.001738 0.003275 0.000103 0.097055 -0.000024
# 6 -0.000003 0.000011 0.000005 0.000211 -0.000024 0.035405
#
#
# Mechanical properties :
#
#
# Convention : Reuss Voigt Hill
#
# Bulk Modulus (GPa) = 37.84517 48.26408 43.05462
# Shear Modulus (GPa) = 21.18391 26.60215 23.89303
#
# Velocity S-wave (km/s) = 3.41700 3.82913 3.62892
# Velocity P-wave (km/s) = 6.03546 6.79347 6.42565
#
# Compressibility (1/GPa) = 0.02642345
#
# Stress axis : x y z
#
# Youngs Moduli (GPa) = 94.70714 48.47775 76.40661
#
# Poissons Ratio (x) = 0.20955 0.32118
# Poissons Ratio (y) = 0.40938 0.03053
# Poissons Ratio (z) = 0.39811 0.01937
#
# Static dielectric constant tensor:
#      x y z
#    x 3.723350 0.000000 0.025390 
#    y 0.000000 3.466660 0.000030 
#    z 0.025390 0.000030 3.092410 
# 
# 
# High freq. dielectric constant tensor:
#      x y z
#    x 1.713210 0.000000 -0.000450 
#    y 0.000000 1.710730 0.000000 
#    z -0.000450 0.000000 1.680630 
# 
# From -- ./inp_files/280878.got.cif
#   From: 2010.06.25/outbox.cif.g09.slc.cpg/sg12_141_cif.got.tgz:280878.got - 2010.06.28 00:19:55.
