data_PCOD8099004
_publ_section_title
;
Structure prediction by ZEFSAII (Michael W. Deem and Ramdas Pophale) SiO2 
 PCOD8099004
Probable space group: C 2/M
;
_chemical_formula_sum "Si O2"
_cell_formula_units_Z 56
_cell_length_a 19.690761
_cell_length_b 8.540128
_cell_length_c 28.101615
_cell_angle_alpha 90.000000
_cell_angle_beta 37.784031
_cell_angle_gamma 90.000000
_cell_volume 2895.320780
_symmetry_space_group_name_H-M "C 2/M"
_symmetry_group_IT_number 12
_symmetry_cell_setting 'monoclinic'
loop_
_space_group_symop_operation_xyz
x,y,z
-x,y,-z
-x,-y,-z
x,-y,z
1/2+x,1/2+y,z
1/2-x,1/2+y,-z
1/2-x,1/2-y,-z
1/2+x,1/2-y,z
loop_
_atom_site_type_symbol
_atom_site_label
_atom_site_fract_x
_atom_site_fract_y
_atom_site_fract_z
Si Si1 0.316121 0.316863 0.870034
Si Si2 0.346861 0.319296 0.302437
Si Si3 0.867758 0.180565 0.447520
Si Si4 0.001719 0.318663 0.705635
Si Si5 0.576107 0.315141 0.000643
Si Si6 0.388785 0.178763 0.534669
Si Si7 0.471188 0.684361 0.869041
O O1 0.290514 0.500000 0.886958
O O2 0.397528 0.282297 0.781039
O O3 0.374168 0.255470 0.886914
O O4 0.203788 0.225011 0.921720
O O5 0.377039 0.500000 0.296928
O O6 0.391071 0.214561 0.321191
O O7 0.214908 0.293428 0.372012
O O8 0.408268 0.269437 0.219373
O O9 0.750000 0.250000 0.500000
O O10 0.885782 0.201017 0.493282
O O11 0.966658 0.269411 0.365293
O O12 0.870282 0.000000 0.431664
O O13 0.969610 0.500000 0.725106
O O14 0.560589 0.500000 0.010083
O O15 0.539601 0.241765 0.072168
O O16 0.500000 0.244889 0.000000
O O17 0.500000 0.218453 0.500000
O O18 0.386712 0.000000 0.516911
O O19 0.458609 0.500000 0.880285
#
# Coordination Sequence:
#
# PCOD8099004 Si02
#       7
#     8   8   8   8   8   8   8
#     4  10  20  36  58  81 109 144 186 232 280 336
#     4   9  17  33  56  79 111 149 189 235 282 335
#     4  12  23  37  59  85 116 152 192 238 286 339
#     4  11  21  35  58  87 113 142 186 239 289 338
#     4  10  20  35  54  81 116 148 184 227 276 335
#     4  10  21  37  56  83 117 156 197 237 285 340
#     4   8  16  32  55  80 105 143 186 228 277 325
#
# _framework density 19.341553000000001
#
# number of rings (size 3 to 8) (size 9 to 14) (size 15 to 20)
#    0.000    2.000    1.429    4.286    0.000    0.571 
#    2.571    2.857    0.000    0.000    0.000    0.000 
#    0.000    0.000    0.000    0.000    0.000    0.000 
#
# Total GULP energy -347169.190591 kJ/mol
# GULP energy per Si atom -12398.899664 kJ/mol
# Density = 1.929753 g / cm^3
# Si number density = 19.341553 Si / 1000 Ang^3
#
#
#
# Elastic Constant Matrix: (Units=GPa)
#
#
# Indices 1 2 3 4 5 6 
#
# 1 110.3902 14.3871 73.3369 0.0048 -5.3072 -0.0072
# 2 14.3871 42.1887 5.2548 0.0082 3.0691 0.0107
# 3 73.3369 5.2548 137.8020 -0.0009 -1.8634 -0.0026
# 4 0.0048 0.0082 -0.0009 27.0647 0.0002 -0.7148
# 5 -5.3072 3.0691 -1.8634 0.0002 29.7366 0.0020
# 6 -0.0072 0.0107 -0.0026 -0.7148 0.0020 19.1590
#
#
#
# Elastic Compliance Matrix: (Units=1/GPa)
#
#
# Indices 1 2 3 4 5 6 
#
# 1 0.014870 -0.004300 -0.007714 -0.000001 0.002614 0.000007
# 2 -0.004300 0.025249 0.001281 -0.000007 -0.003293 -0.000016
# 3 -0.007714 0.001281 0.011303 0.000001 -0.000801 -0.000002
# 4 -0.000001 -0.000007 0.000001 0.036985 0.000000 0.001380
# 5 0.002614 -0.003293 -0.000801 0.000000 0.034385 -0.000001
# 6 0.000007 -0.000016 -0.000002 0.001380 -0.000001 0.052246
#
#
# Mechanical properties :
#
#
# Convention : Reuss Voigt Hill
#
# Bulk Modulus (GPa) = 33.38311 52.92651 43.15481
# Shear Modulus (GPa) = 24.21429 28.35219 26.28324
#
# Velocity S-wave (km/s) = 3.54210 3.83282 3.69033
# Velocity P-wave (km/s) = 5.83317 6.85645 6.36541
#
# Compressibility (1/GPa) = 0.02995527
#
# Stress axis : x y z
#
# Youngs Moduli (GPa) = 67.25045 39.60475 88.47567
#
# Poissons Ratio (x) = 0.17031 0.68252
# Poissons Ratio (y) = 0.28919 -0.11335
# Poissons Ratio (z) = 0.51879 -0.05074
#
# Static dielectric constant tensor:
#      x y z
#    x 3.180240 0.000040 0.175380 
#    y 0.000040 3.352260 -0.000010 
#    z 0.175380 -0.000010 3.770670 
# 
# 
# High freq. dielectric constant tensor:
#      x y z
#    x 1.728110 0.000000 0.004830 
#    y 0.000000 1.734530 0.000000 
#    z 0.004830 0.000000 1.769920 
# 
# From -- ./inp_files/380643.got.cif
#   From: 2010.06.25/outbox.cif.g09.slc.cpg/sg12_191_cif.got.tgz:380643.got - 2010.06.28 00:19:55.
