data_PCOD8099893
_publ_section_title
;
Structure prediction by ZEFSAII (Michael W. Deem and Ramdas Pophale) SiO2 
 PCOD8099893
Probable space group: C 2/M
;
_chemical_formula_sum "Si O2"
_cell_formula_units_Z 48
_cell_length_a 13.283050
_cell_length_b 14.035755
_cell_length_c 12.859361
_cell_angle_alpha 90.000000
_cell_angle_beta 108.406020
_cell_angle_gamma 90.000000
_cell_volume 2274.821164
_symmetry_space_group_name_H-M "C 2/M"
_symmetry_group_IT_number 12
_symmetry_cell_setting 'monoclinic'
loop_
_space_group_symop_operation_xyz
x,y,z
-x,y,-z
-x,-y,-z
x,-y,z
1/2+x,1/2+y,z
1/2-x,1/2+y,-z
1/2-x,1/2-y,-z
1/2+x,1/2-y,z
loop_
_atom_site_type_symbol
_atom_site_label
_atom_site_fract_x
_atom_site_fract_y
_atom_site_fract_z
Si Si1 0.881233 0.709148 0.936175
Si Si2 0.523885 0.787089 0.385904
Si Si3 0.929113 0.103377 0.374481
Si Si4 0.218812 0.286432 0.318753
Si Si5 0.723435 0.392588 0.030208
Si Si6 0.169084 0.395199 0.716437
O O1 0.858719 0.705716 0.805892
O O2 0.869910 0.815346 0.982659
O O3 0.795502 0.636727 0.956245
O O4 0.000000 0.673879 0.000000
O O5 0.500000 0.778680 0.500000
O O6 0.480358 0.687255 0.320153
O O7 0.647143 0.798173 0.398758
O O8 0.457296 0.876196 0.321432
O O9 0.806717 0.131335 0.356526
O O10 0.000000 0.093637 0.500000
O O11 0.929375 0.000000 0.317442
O O12 0.273495 0.182469 0.337266
O O13 0.677749 0.500000 0.998064
O O14 0.796906 0.388352 0.154358
O O15 0.191591 0.500000 0.676858
#
# Coordination Sequence:
#
# PCOD8099893 Si02
#       6
#     8   8   8   8   8   8
#     4  10  20  35  57  83 112 146 181 222 273 327
#     4  10  21  36  55  80 110 144 184 230 275 321
#     4   9  20  38  58  80 107 141 182 228 275 322
#     4  10  21  37  56  81 112 145 184 227 272 324
#     4   9  19  36  56  80 111 144 181 225 271 323
#     4   9  19  36  56  79 109 145 183 224 272 326
#
# _framework density 21.100559000000001
#
# number of rings (size 3 to 8) (size 9 to 14) (size 15 to 20)
#    0.000    2.500    0.000    1.000    0.000   10.333 
#    0.000    3.333    0.000    0.000    0.000    0.000 
#    0.000    0.000    0.000    0.000    0.000    0.000 
#
# Total GULP energy -297410.305584 kJ/mol
# GULP energy per Si atom -12392.096066 kJ/mol
# Density = 2.105253 g / cm^3
# Si number density = 21.100559 Si / 1000 Ang^3
#
#
#
# Elastic Constant Matrix: (Units=GPa)
#
#
# Indices 1 2 3 4 5 6 
#
# 1 99.8614 0.4244 32.2373 0.0000 7.8774 0.0000
# 2 0.4244 79.5506 30.6863 0.0000 6.1024 0.0000
# 3 32.2373 30.6863 44.0792 0.0000 3.0909 0.0000
# 4 0.0000 0.0000 0.0000 6.7129 0.0000 1.7114
# 5 7.8774 6.1024 3.0909 0.0000 31.7856 0.0000
# 6 0.0000 0.0000 0.0000 1.7114 0.0000 15.3503
#
#
#
# Elastic Compliance Matrix: (Units=1/GPa)
#
#
# Indices 1 2 3 4 5 6 
#
# 1 0.015074 0.005937 -0.014917 0.000000 -0.003425 0.000000
# 2 0.005937 0.019671 -0.017789 0.000000 -0.003518 0.000000
# 3 -0.014917 -0.017789 0.045794 0.000000 0.002659 0.000000
# 4 0.000000 0.000000 0.000000 0.153324 0.000000 -0.017094
# 5 -0.003425 -0.003518 0.002659 0.000000 0.032726 0.000000
# 6 0.000000 0.000000 0.000000 -0.017094 0.000000 0.067051
#
#
# Mechanical properties :
#
#
# Convention : Reuss Voigt Hill
#
# Bulk Modulus (GPa) = 37.03786 38.90969 37.97377
# Shear Modulus (GPa) = 12.62049 21.44596 17.03323
#
# Velocity S-wave (km/s) = 2.44829 3.19151 2.84428
# Velocity P-wave (km/s) = 5.05799 5.66226 5.36863
#
# Compressibility (1/GPa) = 0.02699940
#
# Stress axis : x y z
#
# Youngs Moduli (GPa) = 66.33735 50.83640 21.83692
#
# Poissons Ratio (x) = -0.30180 0.32575
# Poissons Ratio (y) = -0.39382 0.38846
# Poissons Ratio (z) = 0.98958 0.90434
#
# Static dielectric constant tensor:
#      x y z
#    x 3.657120 0.000000 0.196600 
#    y 0.000000 4.424560 0.000000 
#    z 0.196600 0.000000 3.656960 
# 
# 
# High freq. dielectric constant tensor:
#      x y z
#    x 1.812840 0.000000 0.015400 
#    y 0.000000 1.831790 0.000000 
#    z 0.015400 0.000000 1.815250 
# 
# From -- ./inp_files/204569.got.cif
#   From: 2010.06.25/outbox.cif.g09.slc.cpg/sg12_103_cif.got.tgz:204569.got - 2010.06.28 00:19:55.
