data_PCOD8099485
_publ_section_title
;
Structure prediction by ZEFSAII (Michael W. Deem and Ramdas Pophale) SiO2 
 PCOD8099485
Probable space group: C 2/M
;
_chemical_formula_sum "Si O2"
_cell_formula_units_Z 56
_cell_length_a 17.919193
_cell_length_b 9.055880
_cell_length_c 25.024502
_cell_angle_alpha 90.000000
_cell_angle_beta 134.894352
_cell_angle_gamma 90.000000
_cell_volume 2876.728494
_symmetry_space_group_name_H-M "C 2/M"
_symmetry_group_IT_number 12
_symmetry_cell_setting 'monoclinic'
loop_
_space_group_symop_operation_xyz
x,y,z
-x,y,-z
-x,-y,-z
x,-y,z
1/2+x,1/2+y,z
1/2-x,1/2+y,-z
1/2-x,1/2-y,-z
1/2+x,1/2-y,z
loop_
_atom_site_type_symbol
_atom_site_label
_atom_site_fract_x
_atom_site_fract_y
_atom_site_fract_z
Si Si1 0.674273 0.328970 0.338723
Si Si2 0.912999 0.171628 0.068626
Si Si3 0.878911 0.674953 0.795061
Si Si4 0.593179 0.828242 0.509309
Si Si5 0.456116 0.325875 0.623639
Si Si6 0.314546 0.325069 0.230864
Si Si7 0.756083 0.828078 0.084150
O O1 0.651324 0.500000 0.314263
O O2 0.624600 0.231759 0.267029
O O3 0.798043 0.296394 0.405428
O O4 0.618199 0.280776 0.364915
O O5 0.854885 0.199475 0.095406
O O6 0.022979 0.256430 0.124240
O O7 0.933398 0.000000 0.068589
O O8 0.844359 0.235428 0.985504
O O9 0.890191 0.500000 0.801052
O O10 0.773907 0.728461 0.772460
O O11 0.500000 0.768200 0.500000
O O12 0.593624 0.743976 0.453933
O O13 0.578391 0.000000 0.489283
O O14 0.458817 0.500000 0.616760
O O15 0.573160 0.261485 0.693133
O O16 0.321437 0.500000 0.231790
O O17 0.288237 0.266436 0.158373
O O18 0.724397 0.000000 0.069224
#
# Coordination Sequence:
#
# PCOD8099485 Si02
#       7
#     8   8   8   8   8   8   8
#     4  10  21  37  56  78 107 142 178 220 269 315
#     4  10  20  35  56  81 109 139 174 219 268 315
#     4  11  22  35  54  79 106 138 178 220 264 318
#     4  10  21  36  54  80 114 145 173 214 271 324
#     4  10  20  36  58  80 104 139 183 223 260 310
#     4   9  19  35  54  77 104 137 178 222 265 309
#     4   9  18  36  59  78 103 141 181 218 258 311
#
# _framework density 19.466556000000001
#
# number of rings (size 3 to 8) (size 9 to 14) (size 15 to 20)
#    0.000    2.143    0.000    3.000    0.000    4.857 
#    0.000    5.714    0.000    0.000    0.000    0.000 
#    0.000    0.000    0.000    0.000    0.000    0.000 
#
# Total GULP energy -347335.153385 kJ/mol
# GULP energy per Si atom -12404.826907 kJ/mol
# Density = 1.942225 g / cm^3
# Si number density = 19.466556 Si / 1000 Ang^3
#
#
#
# Elastic Constant Matrix: (Units=GPa)
#
#
# Indices 1 2 3 4 5 6 
#
# 1 78.4649 21.1662 12.2434 0.0000 15.2867 0.0000
# 2 21.1662 47.0208 21.5296 0.0000 5.0346 0.0000
# 3 12.2434 21.5296 66.9387 0.0000 3.7937 0.0000
# 4 0.0000 0.0000 0.0000 35.1647 0.0000 -0.4494
# 5 15.2867 5.0346 3.7937 0.0000 38.3518 0.0000
# 6 0.0000 0.0000 0.0000 -0.4494 0.0000 22.6911
#
#
#
# Elastic Compliance Matrix: (Units=1/GPa)
#
#
# Indices 1 2 3 4 5 6 
#
# 1 0.015533 -0.006167 -0.000556 0.000000 -0.005327 0.000000
# 2 -0.006167 0.027628 -0.007735 0.000000 -0.000404 0.000000
# 3 -0.000556 -0.007735 0.017557 0.000000 -0.000500 0.000000
# 4 0.000000 0.000000 0.000000 0.028445 0.000000 0.000563
# 5 -0.005327 -0.000404 -0.000500 0.000000 0.028300 0.000000
# 6 0.000000 0.000000 0.000000 0.000563 0.000000 0.044081
#
#
# Mechanical properties :
#
#
# Convention : Reuss Voigt Hill
#
# Bulk Modulus (GPa) = 31.44477 33.58919 32.51698
# Shear Modulus (GPa) = 24.86813 28.40719 26.63766
#
# Velocity S-wave (km/s) = 3.57806 3.82420 3.70318
# Velocity P-wave (km/s) = 5.76700 6.06561 5.91819
#
# Compressibility (1/GPa) = 0.03180179
#
# Stress axis : x y z
#
# Youngs Moduli (GPa) = 64.38074 36.19476 56.95773
#
# Poissons Ratio (x) = 0.22322 0.03164
# Poissons Ratio (y) = 0.39705 0.44058
# Poissons Ratio (z) = 0.03577 0.27998
#
# Static dielectric constant tensor:
#      x y z
#    x 3.704520 0.000000 0.109840 
#    y 0.000000 3.334160 0.000000 
#    z 0.109840 0.000000 3.587530 
# 
# 
# High freq. dielectric constant tensor:
#      x y z
#    x 1.766170 0.000000 0.004890 
#    y 0.000000 1.738780 0.000000 
#    z 0.004890 0.000000 1.770500 
# 
# From -- ./inp_files/342585.got.cif
#   From: 2010.06.25/outbox.cif.g09.slc.cpg/sg12_172_cif.got.tgz:342585.got - 2010.06.28 00:19:55.
