data_PCOD8099669
_publ_section_title
;
Structure prediction by ZEFSAII (Michael W. Deem and Ramdas Pophale) SiO2 
 PCOD8099669
Probable space group: C 2/M
;
_chemical_formula_sum "Si O2"
_cell_formula_units_Z 56
_cell_length_a 15.612208
_cell_length_b 17.215852
_cell_length_c 22.258084
_cell_angle_alpha 90.000000
_cell_angle_beta 152.139118
_cell_angle_gamma 90.000000
_cell_volume 2795.766343
_symmetry_space_group_name_H-M "C 2/M"
_symmetry_group_IT_number 12
_symmetry_cell_setting 'monoclinic'
loop_
_space_group_symop_operation_xyz
x,y,z
-x,y,-z
-x,-y,-z
x,-y,z
1/2+x,1/2+y,z
1/2-x,1/2+y,-z
1/2-x,1/2-y,-z
1/2+x,1/2-y,z
loop_
_atom_site_type_symbol
_atom_site_label
_atom_site_fract_x
_atom_site_fract_y
_atom_site_fract_z
Si Si1 0.308377 0.278961 0.258243
Si Si2 0.088897 0.413552 0.340356
Si Si3 0.508990 0.587146 0.572062
Si Si4 0.219106 0.410320 0.627679
Si Si5 0.510488 0.693655 0.140977
Si Si6 0.656637 0.214820 0.855081
Si Si7 0.857893 0.311081 0.524591
O O1 0.353349 0.369669 0.296588
O O2 0.117366 0.261961 0.172339
O O3 0.313386 0.255042 0.191262
O O4 0.469835 0.235228 0.395846
O O5 0.010233 0.500000 0.282034
O O6 0.306015 0.410867 0.471484
O O7 0.048321 0.383042 0.381998
O O8 0.992115 0.354278 0.235058
O O9 0.500000 0.624710 0.500000
O O10 0.587284 0.500000 0.616047
O O11 0.271841 0.500000 0.647018
O O12 0.349730 0.379373 0.762805
O O13 0.270243 0.350231 0.605380
O O14 0.000000 0.403631 0.500000
O O15 0.418725 0.720467 0.146316
O O16 0.344188 0.673439 0.992917
O O17 0.750000 0.250000 0.500000
#
# Coordination Sequence:
#
# PCOD8099669 Si02
#       7
#     8   8   8   8   8   8   8
#     4  11  21  37  65  84 121 158 198 249 309 353
#     4  10  20  35  56  83 118 150 185 241 300 352
#     4  10  21  34  55  93 125 151 192 246 309 369
#     4  11  23  38  59  90 124 155 196 254 318 374
#     4  11  23  41  61  84 119 159 210 254 300 355
#     4  10  24  40  59  88 114 160 216 250 287 368
#     4  11  20  35  56  90 116 152 194 243 298 369
#
# _framework density 20.030286
#
# number of rings (size 3 to 8) (size 9 to 14) (size 15 to 20)
#    0.000    1.429    2.857    3.429    2.000    0.571 
#    0.000    0.000    0.000    6.000    0.000    0.000 
#    0.000    0.000    0.000    0.000    0.000    0.000 
#
# Total GULP energy -346916.856366 kJ/mol
# GULP energy per Si atom -12389.887727 kJ/mol
# Density = 1.998470 g / cm^3
# Si number density = 20.030286 Si / 1000 Ang^3
#
#
#
# Elastic Constant Matrix: (Units=GPa)
#
#
# Indices 1 2 3 4 5 6 
#
# 1 78.8060 26.7861 18.8022 0.0015 -6.7902 0.0005
# 2 26.7861 102.0276 39.8815 -0.0198 -14.2648 -0.0002
# 3 18.8022 39.8815 99.0856 0.0122 -6.6382 0.0009
# 4 0.0015 -0.0198 0.0122 16.5551 0.0045 -0.2204
# 5 -6.7902 -14.2648 -6.6382 0.0045 30.8041 0.0013
# 6 0.0005 -0.0002 0.0009 -0.2204 0.0013 23.7882
#
#
#
# Elastic Compliance Matrix: (Units=1/GPa)
#
#
# Indices 1 2 3 4 5 6 
#
# 1 0.014156 -0.002969 -0.001394 -0.000004 0.001445 0.000000
# 2 -0.002969 0.012886 -0.004329 0.000018 0.004379 0.000000
# 3 -0.001394 -0.004329 0.012120 -0.000014 0.000299 -0.000001
# 4 -0.000004 0.000018 -0.000014 0.060412 -0.000005 0.000560
# 5 0.001445 0.004379 0.000299 -0.000005 0.034874 -0.000002
# 6 0.000000 0.000000 -0.000001 0.000560 -0.000002 0.042043
#
#
# Mechanical properties :
#
#
# Convention : Reuss Voigt Hill
#
# Bulk Modulus (GPa) = 45.92505 50.09543 48.01024
# Shear Modulus (GPa) = 24.85903 27.19279 26.02591
#
# Velocity S-wave (km/s) = 3.52671 3.68854 3.60853
# Velocity P-wave (km/s) = 6.28976 6.57302 6.43295
#
# Compressibility (1/GPa) = 0.02177461
#
# Stress axis : x y z
#
# Youngs Moduli (GPa) = 70.64219 77.60647 82.51164
#
# Poissons Ratio (x) = 0.23045 0.11504
# Poissons Ratio (y) = 0.20977 0.35723
# Poissons Ratio (z) = 0.09849 0.33600
#
# Static dielectric constant tensor:
#      x y z
#    x 3.584590 0.000000 -0.033020 
#    y 0.000000 3.883060 -0.000030 
#    z -0.033020 -0.000030 3.800360 
# 
# 
# High freq. dielectric constant tensor:
#      x y z
#    x 1.781880 0.000000 0.000130 
#    y 0.000000 1.776020 0.000000 
#    z 0.000130 0.000000 1.772720 
# 
# From -- ./inp_files/311754.got.cif
#   From: 2010.06.25/outbox.cif.g09.slc.cpg/sg12_156_cif.got.tgz:311754.got - 2010.06.28 00:19:55.
