data_PCOD8099270
_publ_section_title
;
Structure prediction by ZEFSAII (Michael W. Deem and Ramdas Pophale) SiO2 
 PCOD8099270
Probable space group: C 2/M
;
_chemical_formula_sum "Si O2"
_cell_formula_units_Z 56
_cell_length_a 14.953955
_cell_length_b 8.639140
_cell_length_c 24.363580
_cell_angle_alpha 90.000000
_cell_angle_beta 61.491257
_cell_angle_gamma 90.000000
_cell_volume 2765.860053
_symmetry_space_group_name_H-M "C 2/M"
_symmetry_group_IT_number 12
_symmetry_cell_setting 'monoclinic'
loop_
_space_group_symop_operation_xyz
x,y,z
-x,y,-z
-x,-y,-z
x,-y,z
1/2+x,1/2+y,z
1/2-x,1/2+y,-z
1/2-x,1/2-y,-z
1/2+x,1/2-y,z
loop_
_atom_site_type_symbol
_atom_site_label
_atom_site_fract_x
_atom_site_fract_y
_atom_site_fract_z
Si Si1 0.901031 0.679729 0.493180
Si Si2 0.682746 0.682723 0.800660
Si Si3 0.326578 0.321406 0.404681
Si Si4 0.029211 0.826235 0.933970
Si Si5 0.578291 0.820302 0.728176
Si Si6 0.638802 0.682877 0.195636
Si Si7 0.820710 0.828128 0.935311
O O1 0.914748 0.500000 0.473736
O O2 0.794997 0.706577 0.556248
O O3 0.890583 0.777209 0.440333
O O4 0.000000 0.734922 0.500000
O O5 0.664470 0.500000 0.797598
O O6 0.621304 0.748485 0.872220
O O7 0.651960 0.774967 0.755959
O O8 0.800497 0.723229 0.775698
O O9 0.349442 0.500000 0.384766
O O10 0.364486 0.212698 0.345065
O O11 0.935951 0.824868 0.920416
O O12 0.062925 0.000000 0.940300
O O13 0.000000 0.738677 0.000000
O O14 0.478837 0.715858 0.761428
O O15 0.549317 0.000000 0.740205
O O16 0.656751 0.500000 0.195253
O O17 0.678906 0.748422 0.125016
O O18 0.778430 0.000000 0.942434
O O19 0.750000 0.750000 0.000000
#
# Coordination Sequence:
#
# PCOD8099270 Si02
#       7
#     8   8   8   8   8   8   8
#     4   9  19  38  64  94 129 166 207 251 298 361
#     4  11  22  40  63  87 119 158 202 255 315 378
#     4  10  21  38  62  92 127 166 207 257 309 358
#     4   9  17  32  55  81 112 149 191 242 306 372
#     4  12  25  42  63  88 124 168 214 261 312 372
#     4  11  23  41  61  86 120 157 203 257 313 375
#     4  10  20  35  55  82 115 151 192 249 310 374
#
# _framework density 20.246866000000001
#
# number of rings (size 3 to 8) (size 9 to 14) (size 15 to 20)
#    0.000    1.714    1.429    3.429    0.000    4.286 
#    0.000    4.286    0.000    3.000    0.000    0.000 
#    0.000    0.000    0.000    0.000    0.000    0.000 
#
# Total GULP energy -347121.197933 kJ/mol
# GULP energy per Si atom -12397.185640 kJ/mol
# Density = 2.020078 g / cm^3
# Si number density = 20.246866 Si / 1000 Ang^3
#
#
#
# Elastic Constant Matrix: (Units=GPa)
#
#
# Indices 1 2 3 4 5 6 
#
# 1 124.3046 20.1389 39.9897 0.0000 7.8281 0.0000
# 2 20.1389 60.2347 26.1086 0.0000 2.2039 0.0000
# 3 39.9897 26.1086 105.0807 0.0000 9.0988 0.0000
# 4 0.0000 0.0000 0.0000 29.5536 0.0000 1.8213
# 5 7.8281 2.2039 9.0988 0.0000 24.8095 0.0000
# 6 0.0000 0.0000 0.0000 1.8213 0.0000 27.4760
#
#
#
# Elastic Compliance Matrix: (Units=1/GPa)
#
#
# Indices 1 2 3 4 5 6 
#
# 1 0.009403 -0.001787 -0.002986 0.000000 -0.001713 0.000000
# 2 -0.001787 0.018945 -0.004059 0.000000 0.000370 0.000000
# 3 -0.002986 -0.004059 0.011927 0.000000 -0.003072 0.000000
# 4 0.000000 0.000000 0.000000 0.033976 0.000000 -0.002252
# 5 -0.001713 0.000370 -0.003072 0.000000 0.041941 0.000000
# 6 0.000000 0.000000 0.000000 -0.002252 0.000000 0.036545
#
#
# Mechanical properties :
#
#
# Convention : Reuss Voigt Hill
#
# Bulk Modulus (GPa) = 44.22581 51.34384 47.78482
# Shear Modulus (GPa) = 28.09971 29.92667 29.01319
#
# Velocity S-wave (km/s) = 3.72943 3.84876 3.78957
# Velocity P-wave (km/s) = 6.35890 6.72046 6.54218
#
# Compressibility (1/GPa) = 0.02261123
#
# Stress axis : x y z
#
# Youngs Moduli (GPa) = 106.35195 52.78429 83.84068
#
# Poissons Ratio (x) = 0.09431 0.25035
# Poissons Ratio (y) = 0.19002 0.34032
# Poissons Ratio (z) = 0.31757 0.21426
#
# Static dielectric constant tensor:
#      x y z
#    x 3.813180 0.000000 0.035280 
#    y 0.000000 3.521260 0.000000 
#    z 0.035280 0.000000 3.730120 
# 
# 
# High freq. dielectric constant tensor:
#      x y z
#    x 1.800270 0.000000 0.002930 
#    y 0.000000 1.774540 0.000000 
#    z 0.002930 0.000000 1.793310 
# 
# From -- ./inp_files/338563.got.cif
#   From: 2010.06.25/outbox.cif.g09.slc.cpg/sg12_170_cif.got.tgz:338563.got - 2010.06.28 00:19:55.
