data_PCOD8099770
_publ_section_title
;
Structure prediction by ZEFSAII (Michael W. Deem and Ramdas Pophale) SiO2 
 PCOD8099770
Probable space group: C 2/M
;
_chemical_formula_sum "Si O2"
_cell_formula_units_Z 40
_cell_length_a 8.013868
_cell_length_b 23.606180
_cell_length_c 9.937788
_cell_angle_alpha 90.000000
_cell_angle_beta 101.934241
_cell_angle_gamma 90.000000
_cell_volume 1839.363947
_symmetry_space_group_name_H-M "C 2/M"
_symmetry_group_IT_number 12
_symmetry_cell_setting 'monoclinic'
loop_
_space_group_symop_operation_xyz
x,y,z
-x,y,-z
-x,-y,-z
x,-y,z
1/2+x,1/2+y,z
1/2-x,1/2+y,-z
1/2-x,1/2-y,-z
1/2+x,1/2-y,z
loop_
_atom_site_type_symbol
_atom_site_label
_atom_site_fract_x
_atom_site_fract_y
_atom_site_fract_z
Si Si1 0.783321 0.934833 0.601598
Si Si2 0.272064 0.837853 0.219888
Si Si3 0.320625 0.435989 0.303837
Si Si4 0.695905 0.854170 0.062860
Si Si5 0.462071 0.264610 0.150715
O O1 0.676344 0.888785 0.670069
O O2 0.763811 0.916766 0.443221
O O3 0.977884 0.929014 0.681247
O O4 0.720212 0.000000 0.614165
O O5 0.434236 0.795583 0.223337
O O6 0.109124 0.801952 0.247059
O O7 0.216794 0.866609 0.067918
O O8 0.265178 0.500000 0.275192
O O9 0.218925 0.403922 0.172004
O O10 0.779797 0.796729 0.136468
O O11 0.500000 0.844431 0.000000
O O12 0.500000 0.254438 0.000000
#
# Coordination Sequence:
#
# PCOD8099770 Si02
#       5
#     8   8   8   8   8
#     4   9  19  38  64  87 113 153 199 244 291 346
#     4  11  20  36  62  89 118 154 199 240 285 350
#     4   9  19  38  61  85 117 155 194 243 299 343
#     4  11  21  35  57  88 122 155 192 237 292 349
#     4  10  20  35  56  87 122 157 191 237 294 347
#
# _framework density 21.746649000000001
#
# number of rings (size 3 to 8) (size 9 to 14) (size 15 to 20)
#    0.000    2.000    2.000    5.400    0.000    1.200 
#    0.000    4.000    0.000    4.200    0.000    1.400 
#    0.000    0.000    0.000    0.000    0.000    0.000 
#
# Total GULP energy -247849.541948 kJ/mol
# GULP energy per Si atom -12392.477097 kJ/mol
# Density = 2.169715 g / cm^3
# Si number density = 21.746649 Si / 1000 Ang^3
#
#
#
# Elastic Constant Matrix: (Units=GPa)
#
#
# Indices 1 2 3 4 5 6 
#
# 1 70.9131 38.4783 22.1259 0.0000 -1.8463 0.0000
# 2 38.4783 120.9393 68.5756 0.0000 -22.8851 0.0000
# 3 22.1259 68.5756 88.0619 0.0000 -16.7363 0.0000
# 4 0.0000 0.0000 0.0000 34.8361 0.0000 -25.1569
# 5 -1.8463 -22.8851 -16.7363 0.0000 23.5371 0.0000
# 6 0.0000 0.0000 0.0000 -25.1569 0.0000 16.7915
#
#
#
# Elastic Compliance Matrix: (Units=1/GPa)
#
#
# Indices 1 2 3 4 5 6 
#
# 1 0.017515 -0.006248 -0.000496 0.000000 -0.005053 0.000000
# 2 -0.006248 0.018160 -0.010764 0.000000 0.009513 0.000000
# 3 -0.000496 -0.010764 0.020657 0.000000 0.004184 0.000000
# 4 0.000000 0.000000 0.000000 -0.350405 0.000000 -0.524974
# 5 -0.005053 0.009513 0.004184 0.000000 0.054314 0.000000
# 6 0.000000 0.000000 0.000000 -0.524974 0.000000 -0.726957
#
#
# Mechanical properties :
#
#
# Convention : Reuss Voigt Hill
#
# Bulk Modulus (GPa) = 46.90953 59.80822 53.35888
# Shear Modulus (GPa) = -5.40777 25.08191 9.83707
#
# Velocity S-wave (km/s) = -1.57864 3.39981 2.12916
# Velocity P-wave (km/s) = 4.27726 6.55543 5.53482
#
# Compressibility (1/GPa) = 0.02131763
#
# Stress axis : x y z
#
# Youngs Moduli (GPa) = 57.09399 55.06681 48.40887
#
# Poissons Ratio (x) = 0.34404 0.02401
# Poissons Ratio (y) = 0.35670 0.52106
# Poissons Ratio (z) = 0.02832 0.59272
#
# Static dielectric constant tensor:
#      x y z
#    x 3.979730 0.000000 -0.216240 
#    y 0.000000 4.105710 0.000000 
#    z -0.216240 0.000000 3.810320 
# 
# 
# High freq. dielectric constant tensor:
#      x y z
#    x 1.852940 0.000000 -0.010400 
#    y 0.000000 1.859830 0.000000 
#    z -0.010400 0.000000 1.822050 
# 
# From -- ./inp_files/39419.got.cif
#   From: 2010.06.25/outbox.cif.g09.slc.cpg/sg12_20_cif.got.tgz:39419.got - 2010.06.28 00:19:55.
