data_PCOD8099726
_publ_section_title
;
Structure prediction by ZEFSAII (Michael W. Deem and Ramdas Pophale) SiO2 
 PCOD8099726
Probable space group: C 2/M
;
_chemical_formula_sum "Si O2"
_cell_formula_units_Z 48
_cell_length_a 29.757798
_cell_length_b 9.235892
_cell_length_c 14.633782
_cell_angle_alpha 90.000000
_cell_angle_beta 139.756366
_cell_angle_gamma 90.000000
_cell_volume 2598.334573
_symmetry_space_group_name_H-M "C 2/M"
_symmetry_group_IT_number 12
_symmetry_cell_setting 'monoclinic'
loop_
_space_group_symop_operation_xyz
x,y,z
-x,y,-z
-x,-y,-z
x,-y,z
1/2+x,1/2+y,z
1/2-x,1/2+y,-z
1/2-x,1/2-y,-z
1/2+x,1/2-y,z
loop_
_atom_site_type_symbol
_atom_site_label
_atom_site_fract_x
_atom_site_fract_y
_atom_site_fract_z
Si Si1 0.925997 0.170156 0.844662
Si Si2 0.934842 0.167970 0.651100
Si Si3 0.312386 0.668065 0.323435
Si Si4 0.657745 0.829948 0.139197
Si Si5 0.184501 0.669806 0.855662
Si Si6 0.928898 0.332012 0.169985
O O1 0.921991 0.222924 0.734025
O O2 0.864870 0.249606 0.804043
O O3 0.913904 0.000000 0.835592
O O4 0.000000 0.218082 0.000000
O O5 0.865844 0.201007 0.487215
O O6 0.999146 0.249136 0.704702
O O7 0.954128 0.000000 0.681609
O O8 0.313477 0.500000 0.295144
O O9 0.236761 0.713441 0.241409
O O10 0.333530 0.766550 0.271003
O O11 0.650038 0.000000 0.142685
O O12 0.610774 0.775655 0.981859
O O13 0.201491 0.500000 0.875727
O O14 0.117820 0.699580 0.814563
O O15 0.250000 0.750000 0.000000
O O16 0.945799 0.500000 0.186279
#
# Coordination Sequence:
#
# PCOD8099726 Si02
#       6
#     8   8   8   8   8   8
#     4  10  20  35  56  85 115 146 191 239 282 336
#     4  10  22  39  59  83 117 155 188 236 291 338
#     4  10  22  41  59  83 119 153 190 235 288 343
#     4  10  20  36  58  83 112 150 189 233 286 340
#     4  11  22  38  61  88 116 151 192 237 285 337
#     4  10  21  37  58  84 114 147 189 236 285 341
#
# _framework density 18.473372000000001
#
# number of rings (size 3 to 8) (size 9 to 14) (size 15 to 20)
#    0.000    1.833    3.333    0.500    0.000    5.000 
#    0.000    3.333    0.000    0.000    0.000    0.000 
#    0.000    0.000    0.000    0.000    0.000    0.000 
#
# Total GULP energy -297726.975833 kJ/mol
# GULP energy per Si atom -12405.290660 kJ/mol
# Density = 1.843133 g / cm^3
# Si number density = 18.473372 Si / 1000 Ang^3
#
#
#
# Elastic Constant Matrix: (Units=GPa)
#
#
# Indices 1 2 3 4 5 6 
#
# 1 138.9538 58.1527 52.0888 0.0000 -4.5521 0.0000
# 2 58.1527 54.5797 31.9000 0.0000 -0.3451 0.0000
# 3 52.0888 31.9000 94.4657 0.0000 -1.5265 0.0000
# 4 0.0000 0.0000 0.0000 27.2788 0.0000 0.4712
# 5 -4.5521 -0.3451 -1.5265 0.0000 34.0427 0.0000
# 6 0.0000 0.0000 0.0000 0.4712 0.0000 39.7849
#
#
#
# Elastic Compliance Matrix: (Units=1/GPa)
#
#
# Indices 1 2 3 4 5 6 
#
# 1 0.013844 -0.012825 -0.003277 0.000000 0.001574 0.000000
# 2 -0.012825 0.034708 -0.004674 0.000000 -0.001573 0.000000
# 3 -0.003277 -0.004674 0.013974 0.000000 0.000141 0.000000
# 4 0.000000 0.000000 0.000000 0.036666 0.000000 -0.000434
# 5 0.001574 -0.001573 0.000141 0.000000 0.029576 0.000000
# 6 0.000000 0.000000 0.000000 -0.000434 0.000000 0.025140
#
#
# Mechanical properties :
#
#
# Convention : Reuss Voigt Hill
#
# Bulk Modulus (GPa) = 47.68055 63.58692 55.63373
# Shear Modulus (GPa) = 24.69716 29.94512 27.32114
#
# Velocity S-wave (km/s) = 3.66034 4.03052 3.84988
# Velocity P-wave (km/s) = 6.61291 7.49371 7.06704
#
# Compressibility (1/GPa) = 0.02097291
#
# Stress axis : x y z
#
# Youngs Moduli (GPa) = 72.23329 28.81156 71.56252
#
# Poissons Ratio (x) = 0.36950 0.23454
# Poissons Ratio (y) = 0.92638 0.33451
# Poissons Ratio (z) = 0.23674 0.13468
#
# Static dielectric constant tensor:
#      x y z
#    x 3.511520 0.000000 -0.076320 
#    y 0.000000 3.354570 0.000000 
#    z -0.076320 0.000000 3.387480 
# 
# 
# High freq. dielectric constant tensor:
#      x y z
#    x 1.727990 0.000000 -0.000720 
#    y 0.000000 1.711560 0.000000 
#    z -0.000720 0.000000 1.717030 
# 
# From -- ./inp_files/229948.got.cif
#   From: 2010.06.25/outbox.cif.g09.slc.cpg/sg12_115_cif.got.tgz:229948.got - 2010.06.28 00:19:55.
