data_PCOD8099591
_publ_section_title
;
Structure prediction by ZEFSAII (Michael W. Deem and Ramdas Pophale) SiO2 
 PCOD8099591
Probable space group: C 2/M
;
_chemical_formula_sum "Si O2"
_cell_formula_units_Z 56
_cell_length_a 19.534037
_cell_length_b 8.847994
_cell_length_c 27.790144
_cell_angle_alpha 90.000000
_cell_angle_beta 37.678706
_cell_angle_gamma 90.000000
_cell_volume 2935.853450
_symmetry_space_group_name_H-M "C 2/M"
_symmetry_group_IT_number 12
_symmetry_cell_setting 'monoclinic'
loop_
_space_group_symop_operation_xyz
x,y,z
-x,y,-z
-x,-y,-z
x,-y,z
1/2+x,1/2+y,z
1/2-x,1/2+y,-z
1/2-x,1/2-y,-z
1/2+x,1/2-y,z
loop_
_atom_site_type_symbol
_atom_site_label
_atom_site_fract_x
_atom_site_fract_y
_atom_site_fract_z
Si Si1 0.245769 0.670757 0.798660
Si Si2 0.087798 0.673623 0.799542
Si Si3 0.427952 0.321750 0.624083
Si Si4 0.775308 0.679356 0.632543
Si Si5 0.863716 0.827196 0.950227
Si Si6 0.813461 0.178945 0.510001
Si Si7 0.118114 0.171235 0.947245
O O1 0.272230 0.500000 0.797826
O O2 0.136278 0.686501 0.826288
O O3 0.353253 0.737638 0.710501
O O4 0.223080 0.754894 0.861281
O O5 0.087387 0.500000 0.782239
O O6 0.162556 0.772618 0.722270
O O7 0.963222 0.738499 0.868680
O O8 0.408681 0.500000 0.626768
O O9 0.385735 0.241357 0.598679
O O10 0.555009 0.280588 0.565591
O O11 0.783252 0.500000 0.624771
O O12 0.765291 0.748896 0.585154
O O13 0.867848 0.000000 0.930560
O O14 0.750000 0.750000 0.000000
O O15 0.866911 0.813968 0.005139
O O16 0.750000 0.250000 0.500000
O O17 0.794096 0.000000 0.521109
O O18 0.114581 0.000000 0.930852
O O19 0.000000 0.251278 0.000000
#
# Coordination Sequence:
#
# PCOD8099591 Si02
#       7
#     8   8   8   8   8   8   8
#     4   9  18  33  57  87 113 143 188 238 288 339
#     4  10  20  37  60  86 116 150 193 241 292 345
#     4   9  20  39  61  87 118 153 193 241 291 344
#     4  11  22  37  62  92 118 150 195 241 290 350
#     4  11  23  39  57  81 116 156 196 241 291 348
#     4  11  23  41  62  85 121 159 194 239 294 351
#     4  10  20  35  56  82 114 148 188 236 286 335
#
# _framework density 19.074522000000002
#
# number of rings (size 3 to 8) (size 9 to 14) (size 15 to 20)
#    0.000    1.857    1.429    3.857    0.000    6.571 
#    2.571    0.000    0.000    0.000    0.000    0.000 
#    0.000    0.000    0.000    0.000    0.000    0.000 
#
# Total GULP energy -347218.000631 kJ/mol
# GULP energy per Si atom -12400.642880 kJ/mol
# Density = 1.903111 g / cm^3
# Si number density = 19.074522 Si / 1000 Ang^3
#
#
#
# Elastic Constant Matrix: (Units=GPa)
#
#
# Indices 1 2 3 4 5 6 
#
# 1 91.4289 51.0024 48.5223 0.0046 -10.6473 -0.0086
# 2 51.0024 100.1890 46.3232 0.0061 -0.3209 -0.0129
# 3 48.5223 46.3232 105.3528 0.0007 -5.0077 -0.0062
# 4 0.0046 0.0061 0.0007 33.0267 0.0000 3.4855
# 5 -10.6473 -0.3209 -5.0077 0.0000 31.6844 0.0034
# 6 -0.0086 -0.0129 -0.0062 3.4855 0.0034 31.7007
#
#
#
# Elastic Compliance Matrix: (Units=1/GPa)
#
#
# Indices 1 2 3 4 5 6 
#
# 1 0.018034 -0.006825 -0.005058 -0.000001 0.005192 0.000001
# 2 -0.006825 0.015129 -0.003638 -0.000002 -0.002715 0.000004
# 3 -0.005058 -0.003638 0.013439 0.000001 0.000388 0.000000
# 4 -0.000001 -0.000002 0.000001 0.030634 0.000000 -0.003368
# 5 0.005192 -0.002715 0.000388 0.000000 0.033340 -0.000003
# 6 0.000001 0.000004 0.000000 -0.003368 -0.000003 0.031915
#
#
# Mechanical properties :
#
#
# Convention : Reuss Voigt Hill
#
# Bulk Modulus (GPa) = 64.26632 65.40739 64.83685
# Shear Modulus (GPa) = 27.97689 29.35721 28.66705
#
# Velocity S-wave (km/s) = 3.83393 3.92737 3.88093
# Velocity P-wave (km/s) = 7.30507 7.41151 7.35848
#
# Compressibility (1/GPa) = 0.01556025
#
# Stress axis : x y z
#
# Youngs Moduli (GPa) = 55.45201 66.09948 74.40804
#
# Poissons Ratio (x) = 0.45113 0.37636
# Poissons Ratio (y) = 0.37846 0.27068
# Poissons Ratio (z) = 0.28048 0.24045
#
# Static dielectric constant tensor:
#      x y z
#    x 3.284370 -0.000010 -0.011070 
#    y -0.000010 3.567110 0.000000 
#    z -0.011070 0.000000 3.619250 
# 
# 
# High freq. dielectric constant tensor:
#      x y z
#    x 1.724480 0.000000 0.001320 
#    y 0.000000 1.744720 0.000000 
#    z 0.001320 0.000000 1.756030 
# 
# From -- ./inp_files/362903.got.cif
#   From: 2010.06.25/outbox.cif.g09.slc.cpg/sg12_182_cif.got.tgz:362903.got - 2010.06.28 00:19:55.
