data_PCOD8099820
_publ_section_title
;
Structure prediction by ZEFSAII (Michael W. Deem and Ramdas Pophale) SiO2 
 PCOD8099820
Probable space group: C 2/M
;
_chemical_formula_sum "Si O2"
_cell_formula_units_Z 52
_cell_length_a 8.506717
_cell_length_b 25.838466
_cell_length_c 25.869709
_cell_angle_alpha 90.000000
_cell_angle_beta 31.087880
_cell_angle_gamma 90.000000
_cell_volume 2936.069128
_symmetry_space_group_name_H-M "C 2/M"
_symmetry_group_IT_number 12
_symmetry_cell_setting 'monoclinic'
loop_
_space_group_symop_operation_xyz
x,y,z
-x,y,-z
-x,-y,-z
x,-y,z
1/2+x,1/2+y,z
1/2-x,1/2+y,-z
1/2-x,1/2-y,-z
1/2+x,1/2-y,z
loop_
_atom_site_type_symbol
_atom_site_label
_atom_site_fract_x
_atom_site_fract_y
_atom_site_fract_z
Si Si1 0.543849 0.199588 0.620607
Si Si2 0.740916 0.500000 0.311349
Si Si3 0.864113 0.904164 0.393272
Si Si4 0.912939 0.803651 0.612443
Si Si5 0.361923 0.000000 0.905031
Si Si6 0.638553 0.000000 0.610169
Si Si7 0.270287 0.406115 0.306718
Si Si8 0.829083 0.442778 0.096615
O O1 0.610200 0.190029 0.662775
O O2 0.368508 0.253907 0.662066
O O3 0.350476 0.151626 0.655717
O O4 0.832327 0.203815 0.502430
O O5 0.515412 0.451268 0.380992
O O6 0.945751 0.500000 0.305265
O O7 0.963656 0.500000 0.199132
O O8 0.500000 0.901303 0.500000
O O9 0.944420 0.915715 0.311352
O O10 0.020581 0.852120 0.369792
O O11 0.459640 0.949104 0.911268
O O12 0.000000 0.000000 0.000000
O O13 0.497348 0.948234 0.624606
O O14 0.000000 0.000000 0.500000
O O15 0.527309 0.409369 0.190653
O O16 0.716434 0.500000 0.110905
O O17 0.000000 0.416161 0.000000
#
# Coordination Sequence:
#
# PCOD8099820 Si02
#       8
#     8   4   8   8   4   4   8   8
#     4  10  21  35  55  77 110 144 192 229 267 329
#     4  12  24  36  52  82 118 145 190 230 276 343
#     4  12  21  36  54  78 112 156 183 225 271 332
#     4  10  21  36  52  80 108 149 188 230 270 311
#     4  10  20  35  57  82 104 142 185 239 283 327
#     4  12  26  35  47  79 120 160 185 220 268 345
#     4  12  21  37  56  79 110 153 191 224 283 333
#     4   9  19  38  56  78 107 145 187 236 283 341
#
# _framework density 17.710754999999999
#
# number of rings (size 3 to 8) (size 9 to 14) (size 15 to 20)
#    0.462    0.769    3.846    3.462    6.462    0.000 
#    0.000    0.000    0.000    0.000    0.000    5.385 
#    0.000    0.000    0.000    0.000    0.000    0.000 
#
# Total GULP energy -322215.120447 kJ/mol
# GULP energy per Si atom -12392.889248 kJ/mol
# Density = 1.767044 g / cm^3
# Si number density = 17.710755 Si / 1000 Ang^3
#
#
#
# Elastic Constant Matrix: (Units=GPa)
#
#
# Indices 1 2 3 4 5 6 
#
# 1 105.0031 36.3358 20.6262 0.0041 8.5579 0.0029
# 2 36.3358 121.6551 16.0041 -0.0015 -4.9984 0.0021
# 3 20.6262 16.0041 70.8483 0.0015 6.1073 0.0053
# 4 0.0041 -0.0015 0.0015 1.3750 -0.0003 22.7811
# 5 8.5579 -4.9984 6.1073 -0.0003 27.5408 -0.0024
# 6 0.0029 0.0021 0.0053 22.7811 -0.0024 2.2278
#
#
#
# Elastic Compliance Matrix: (Units=1/GPa)
#
#
# Indices 1 2 3 4 5 6 
#
# 1 0.011390 -0.003253 -0.002269 -0.000001 -0.003627 -0.000002
# 2 -0.003253 0.009510 -0.001465 0.000000 0.003062 0.000001
# 3 -0.002269 -0.001465 0.015362 -0.000003 -0.002968 -0.000001
# 4 -0.000001 0.000000 -0.000003 -0.004318 0.000005 0.044157
# 5 -0.003627 0.003062 -0.002968 0.000005 0.038650 0.000001
# 6 -0.000002 0.000001 -0.000001 0.044157 0.000001 -0.002665
#
#
# Mechanical properties :
#
#
# Convention : Reuss Voigt Hill
#
# Bulk Modulus (GPa) = 44.86481 49.27096 47.06788
# Shear Modulus (GPa) = 55.97088 21.19807 38.58448
#
# Velocity S-wave (km/s) = 5.62773 3.46338 4.67260
# Velocity P-wave (km/s) = 8.22286 6.62371 7.46622
#
# Compressibility (1/GPa) = 0.02228918
#
# Stress axis : x y z
#
# Youngs Moduli (GPa) = 87.79398 105.15266 65.09589
#
# Poissons Ratio (x) = 0.34202 0.14768
# Poissons Ratio (y) = 0.28556 0.09538
# Poissons Ratio (z) = 0.19918 0.15407
#
# Static dielectric constant tensor:
#      x y z
#    x 3.635570 0.000000 0.176080 
#    y 0.000000 3.157660 0.000010 
#    z 0.176080 0.000010 3.056600 
# 
# 
# High freq. dielectric constant tensor:
#      x y z
#    x 1.705160 0.000000 0.008770 
#    y 0.000000 1.671910 0.000000 
#    z 0.008770 0.000000 1.648070 
# 
# From -- ./inp_files/357052.got.cif
#   From: 2010.06.25/outbox.cif.g09.slc.cpg/sg12_179_cif.got.tgz:357052.got - 2010.06.28 00:19:55.
