data_PCOD8099915
_publ_section_title
;
Structure prediction by ZEFSAII (Michael W. Deem and Ramdas Pophale) SiO2 
 PCOD8099915
Probable space group: C 2/M
;
_chemical_formula_sum "Si O2"
_cell_formula_units_Z 48
_cell_length_a 19.851272
_cell_length_b 8.819559
_cell_length_c 14.892296
_cell_angle_alpha 90.000000
_cell_angle_beta 109.229381
_cell_angle_gamma 90.000000
_cell_volume 2461.865734
_symmetry_space_group_name_H-M "C 2/M"
_symmetry_group_IT_number 12
_symmetry_cell_setting 'monoclinic'
loop_
_space_group_symop_operation_xyz
x,y,z
-x,y,-z
-x,-y,-z
x,-y,z
1/2+x,1/2+y,z
1/2-x,1/2+y,-z
1/2-x,1/2-y,-z
1/2+x,1/2-y,z
loop_
_atom_site_type_symbol
_atom_site_label
_atom_site_fract_x
_atom_site_fract_y
_atom_site_fract_z
Si Si1 0.683632 0.820809 0.919331
Si Si2 0.181835 0.171616 0.728032
Si Si3 0.971251 0.680839 0.082581
Si Si4 0.980345 0.830081 0.392236
Si Si5 0.777331 0.319584 0.604696
Si Si6 0.933309 0.676676 0.716070
O O1 0.689524 0.777161 0.817815
O O2 0.608791 0.760131 0.929274
O O3 0.687851 0.000000 0.930295
O O4 0.750000 0.750000 0.000000
O O5 0.103339 0.177279 0.655075
O O6 0.230274 0.233893 0.668393
O O7 0.203928 0.000000 0.764486
O O8 0.970140 0.500000 0.084247
O O9 0.027931 0.747107 0.179415
O O10 0.000000 0.742070 0.000000
O O11 0.000000 0.779795 0.500000
O O12 0.016037 0.706626 0.345182
O O13 0.008910 0.000000 0.383698
O O14 0.776115 0.500000 0.593192
O O15 0.750000 0.250000 0.500000
O O16 0.855743 0.253691 0.662071
O O17 0.924263 0.500000 0.727820
#
# Coordination Sequence:
#
# PCOD8099915 Si02
#       6
#     8   8   8   8   8   8
#     4  11  23  39  62  88 116 150 190 239 292 347
#     4  10  21  38  59  84 117 154 193 235 286 346
#     4   9  19  36  60  86 111 144 187 233 283 339
#     4  10  20  35  57  83 114 151 186 229 287 344
#     4  10  22  38  59  85 117 156 197 240 284 337
#     4  10  20  36  58  85 112 144 191 238 280 333
#
# _framework density 19.497408
#
# number of rings (size 3 to 8) (size 9 to 14) (size 15 to 20)
#    0.000    2.000    1.667    1.500    2.333    3.000 
#    0.000    0.000    0.000    2.500    0.000    0.000 
#    0.000    0.000    0.000    0.000    0.000    0.000 
#
# Total GULP energy -297572.288295 kJ/mol
# GULP energy per Si atom -12398.845346 kJ/mol
# Density = 1.945303 g / cm^3
# Si number density = 19.497408 Si / 1000 Ang^3
#
#
#
# Elastic Constant Matrix: (Units=GPa)
#
#
# Indices 1 2 3 4 5 6 
#
# 1 165.4305 28.5730 93.1369 0.0000 -7.9680 0.0000
# 2 28.5730 31.0152 32.8624 0.0000 0.6073 0.0000
# 3 93.1369 32.8624 186.6071 0.0000 1.2160 0.0000
# 4 0.0000 0.0000 0.0000 33.4373 0.0000 -1.1054
# 5 -7.9680 0.6073 1.2160 0.0000 40.9143 0.0000
# 6 0.0000 0.0000 0.0000 -1.1054 0.0000 24.7768
#
#
#
# Elastic Compliance Matrix: (Units=1/GPa)
#
#
# Indices 1 2 3 4 5 6 
#
# 1 0.008993 -0.004369 -0.003732 0.000000 0.001927 0.000000
# 2 -0.004369 0.041767 -0.005166 0.000000 -0.001317 0.000000
# 3 -0.003732 -0.005166 0.008137 0.000000 -0.000892 0.000000
# 4 0.000000 0.000000 0.000000 0.029951 0.000000 0.001336
# 5 0.001927 -0.001317 -0.000892 0.000000 0.024863 0.000000
# 6 0.000000 0.000000 0.000000 0.001336 0.000000 0.040420
#
#
# Mechanical properties :
#
#
# Convention : Reuss Voigt Hill
#
# Bulk Modulus (GPa) = 30.89909 76.91084 53.90496
# Shear Modulus (GPa) = 26.11622 35.05773 30.58698
#
# Velocity S-wave (km/s) = 3.66385 4.24497 3.96507
# Velocity P-wave (km/s) = 5.81211 7.97237 6.97636
#
# Compressibility (1/GPa) = 0.03236341
#
# Stress axis : x y z
#
# Youngs Moduli (GPa) = 111.19518 23.94247 122.89512
#
# Poissons Ratio (x) = 0.10460 0.45862
# Poissons Ratio (y) = 0.48578 0.63491
# Poissons Ratio (z) = 0.41495 0.12369
#
# Static dielectric constant tensor:
#      x y z
#    x 3.814770 0.000000 0.122870 
#    y 0.000000 3.346740 0.000000 
#    z 0.122870 0.000000 3.808780 
# 
# 
# High freq. dielectric constant tensor:
#      x y z
#    x 1.773490 0.000000 0.005670 
#    y 0.000000 1.727720 0.000000 
#    z 0.005670 0.000000 1.776380 
# 
# From -- ./inp_files/230448.got.cif
#   From: 2010.06.25/outbox.cif.g09.slc.cpg/sg12_116_cif.got.tgz:230448.got - 2010.06.28 00:19:55.
