data_PCOD8099177
_publ_section_title
;
Structure prediction by ZEFSAII (Michael W. Deem and Ramdas Pophale) SiO2 
 PCOD8099177
Probable space group: C 2/M
;
_chemical_formula_sum "Si O2"
_cell_formula_units_Z 64
_cell_length_a 12.332840
_cell_length_b 16.833301
_cell_length_c 14.389052
_cell_angle_alpha 90.000000
_cell_angle_beta 90.033063
_cell_angle_gamma 90.000000
_cell_volume 2987.201345
_symmetry_space_group_name_H-M "C 2/M"
_symmetry_group_IT_number 12
_symmetry_cell_setting 'monoclinic'
loop_
_space_group_symop_operation_xyz
x,y,z
-x,y,-z
-x,-y,-z
x,-y,z
1/2+x,1/2+y,z
1/2-x,1/2+y,-z
1/2-x,1/2-y,-z
1/2+x,1/2-y,z
loop_
_atom_site_type_symbol
_atom_site_label
_atom_site_fract_x
_atom_site_fract_y
_atom_site_fract_z
Si Si1 0.736797 0.206920 0.098776
Si Si2 0.390866 0.911884 0.294609
Si Si3 0.799990 0.905991 0.350322
Si Si4 0.383038 0.410333 0.028046
Si Si5 0.961407 0.093399 0.684854
Si Si6 0.269134 0.595126 0.556463
Si Si7 0.296299 0.371323 0.834489
Si Si8 0.610709 0.905236 0.208342
O O1 0.733029 0.277621 0.173196
O O2 0.632291 0.147963 0.115080
O O3 0.750000 0.250000 0.000000
O O4 0.839768 0.147350 0.109510
O O5 0.335354 0.870883 0.385376
O O6 0.299986 0.918572 0.214664
O O7 0.500452 0.871524 0.255640
O O8 0.428035 0.000000 0.322688
O O9 0.763809 0.872949 0.451483
O O10 0.710041 0.881342 0.275712
O O11 0.918063 0.869306 0.324958
O O12 0.807472 0.000000 0.356930
O O13 0.386686 0.500000 0.067204
O O14 0.303769 0.404313 0.939152
O O15 0.500000 0.378688 0.000000
O O16 0.880577 0.125713 0.604446
O O17 0.912163 0.114213 0.785590
O O18 0.972737 0.000000 0.674630
O O19 0.265515 0.500000 0.562794
O O20 0.606187 0.000000 0.185104
#
# Coordination Sequence:
#
# PCOD8099177 Si02
#       8
#     8   8   8   8   8   8   8   8
#     4  10  23  40  56  79 109 144 183 229 279 336
#     4   9  18  34  57  80 110 148 187 227 263 322
#     4   9  17  28  50  84 117 145 179 228 281 326
#     4  10  21  36  58  84 110 137 172 230 290 340
#     4   9  16  28  51  82 114 147 184 226 271 324
#     4   8  14  27  49  83 117 144 181 226 272 320
#     4  10  20  35  55  80 106 144 187 222 273 329
#     4  10  21  37  56  82 112 147 187 228 277 328
#
# _framework density 21.424737
#
# number of rings (size 3 to 8) (size 9 to 14) (size 15 to 20)
#    0.000    2.625    0.000    2.625    1.750    4.000 
#    0.000    4.375    0.000    9.750    6.500    0.000 
#    0.000    0.000    0.000    0.000    0.000    0.000 
#
# Total GULP energy -396450.868573 kJ/mol
# GULP energy per Si atom -12389.089643 kJ/mol
# Density = 2.137597 g / cm^3
# Si number density = 21.424737 Si / 1000 Ang^3
#
#
#
# Elastic Constant Matrix: (Units=GPa)
#
#
# Indices 1 2 3 4 5 6 
#
# 1 159.7089 24.7343 44.8937 0.0000 -38.4568 0.0000
# 2 24.7343 47.4784 4.6798 0.0000 -12.7931 0.0000
# 3 44.8937 4.6798 73.7599 0.0000 -15.6639 0.0000
# 4 0.0000 0.0000 0.0000 17.5843 0.0000 -6.6765
# 5 -38.4568 -12.7931 -15.6639 0.0000 32.0997 0.0000
# 6 0.0000 0.0000 0.0000 -6.6765 0.0000 8.7438
#
#
#
# Elastic Compliance Matrix: (Units=1/GPa)
#
#
# Indices 1 2 3 4 5 6 
#
# 1 0.009907 -0.002346 -0.003971 0.000000 0.008997 0.000000
# 2 -0.002346 0.024172 0.001498 0.000000 0.007555 0.000000
# 3 -0.003971 0.001498 0.016729 0.000000 0.004004 0.000000
# 4 0.000000 0.000000 0.000000 0.080088 0.000000 0.061153
# 5 0.008997 0.007555 0.004004 0.000000 0.046896 0.000000
# 6 0.000000 0.000000 0.000000 0.061153 0.000000 0.161061
#
#
# Mechanical properties :
#
#
# Convention : Reuss Voigt Hill
#
# Bulk Modulus (GPa) = 24.28779 47.72919 36.00849
# Shear Modulus (GPa) = 13.80398 25.46152 19.63275
#
# Velocity S-wave (km/s) = 2.54106 3.45108 3.03043
# Velocity P-wave (km/s) = 4.46881 6.18109 5.39334
#
# Compressibility (1/GPa) = 0.04117294
#
# Stress axis : x y z
#
# Youngs Moduli (GPa) = 100.93736 41.36999 59.77515
#
# Poissons Ratio (x) = 0.09704 0.23734
# Poissons Ratio (y) = 0.23676 -0.08956
# Poissons Ratio (z) = 0.40078 -0.06199
#
# Static dielectric constant tensor:
#      x y z
#    x 4.052910 0.000000 -0.352050 
#    y 0.000000 3.771430 0.000000 
#    z -0.352050 0.000000 3.923330 
# 
# 
# High freq. dielectric constant tensor:
#      x y z
#    x 1.841280 0.000000 -0.024960 
#    y 0.000000 1.803230 0.000000 
#    z -0.024960 0.000000 1.833980 
# 
# From -- ./inp_files/206673.got.cif
#   From: 2010.06.25/outbox.cif.g09.slc.cpg/sg12_104_cif.got.tgz:206673.got - 2010.06.28 00:19:55.
