data_PCOD8099264
_publ_section_title
;
Structure prediction by ZEFSAII (Michael W. Deem and Ramdas Pophale) SiO2 
 PCOD8099264
Probable space group: C 2/M
;
_chemical_formula_sum "Si O2"
_cell_formula_units_Z 56
_cell_length_a 30.285397
_cell_length_b 8.806065
_cell_length_c 18.566271
_cell_angle_alpha 90.000000
_cell_angle_beta 37.825822
_cell_angle_gamma 90.000000
_cell_volume 3036.593621
_symmetry_space_group_name_H-M "C 2/M"
_symmetry_group_IT_number 12
_symmetry_cell_setting 'monoclinic'
loop_
_space_group_symop_operation_xyz
x,y,z
-x,y,-z
-x,-y,-z
x,-y,z
1/2+x,1/2+y,z
1/2-x,1/2+y,-z
1/2-x,1/2-y,-z
1/2+x,1/2-y,z
loop_
_atom_site_type_symbol
_atom_site_label
_atom_site_fract_x
_atom_site_fract_y
_atom_site_fract_z
Si Si1 0.915442 0.826238 0.337536
Si Si2 0.044634 0.675823 0.237083
Si Si3 0.293321 0.822169 0.009798
Si Si4 0.801077 0.678964 0.754680
Si Si5 0.059684 0.176510 0.364466
Si Si6 0.707720 0.322755 0.387909
Si Si7 0.199523 0.823543 0.623710
O O1 0.856640 0.785214 0.474228
O O2 0.882069 0.800643 0.300303
O O3 0.984579 0.718153 0.255260
O O4 0.939778 0.000000 0.315539
O O5 0.038534 0.500000 0.265911
O O6 0.027756 0.778463 0.328398
O O7 0.122547 0.714931 0.104981
O O8 0.268581 0.750853 0.117355
O O9 0.277466 0.000000 0.030133
O O10 0.250000 0.750000 0.000000
O O11 0.792146 0.500000 0.764066
O O12 0.870386 0.721874 0.712514
O O13 0.810695 0.741972 0.662583
O O14 0.000000 0.215491 0.500000
O O15 0.081170 0.000000 0.338876
O O16 0.716590 0.500000 0.362444
O O17 0.783561 0.258322 0.322010
O O18 0.250000 0.750000 0.500000
O O19 0.218269 0.000000 0.606923
#
# Coordination Sequence:
#
# PCOD8099264 Si02
#       7
#     8   8   8   8   8   8   8
#     4   9  19  34  54  81 114 148 180 216 271 330
#     4  11  23  36  55  81 107 139 183 228 271 321
#     4  11  23  40  59  79 104 141 187 233 276 323
#     4  12  24  37  56  81 108 143 184 228 274 325
#     4  11  23  37  54  77 109 146 178 217 273 328
#     4  10  20  35  55  82 114 148 183 223 273 329
#     4   9  17  31  52  80 112 147 184 222 267 326
#
# _framework density 18.441717000000001
#
# number of rings (size 3 to 8) (size 9 to 14) (size 15 to 20)
#    0.000    1.571    1.429    5.143    0.000    9.714 
#    0.000    0.000    0.000    0.857    0.000    6.000 
#    0.000    0.000    0.000    0.000    0.000    0.000 
#
# Total GULP energy -347251.799737 kJ/mol
# GULP energy per Si atom -12401.849991 kJ/mol
# Density = 1.839974 g / cm^3
# Si number density = 18.441717 Si / 1000 Ang^3
#
#
#
# Elastic Constant Matrix: (Units=GPa)
#
#
# Indices 1 2 3 4 5 6 
#
# 1 93.4587 33.6835 18.7946 0.0058 -19.7341 -0.0011
# 2 33.6835 106.2612 40.4536 0.0082 -15.0093 -0.0002
# 3 18.7946 40.4536 63.7331 -0.0034 -17.6288 -0.0026
# 4 0.0058 0.0082 -0.0034 25.9013 0.0047 1.1503
# 5 -19.7341 -15.0093 -17.6288 0.0047 19.3455 -0.0024
# 6 -0.0011 -0.0002 -0.0026 1.1503 -0.0024 38.2387
#
#
#
# Elastic Compliance Matrix: (Units=1/GPa)
#
#
# Indices 1 2 3 4 5 6 
#
# 1 0.014434 -0.003250 0.001580 -0.000005 0.013642 0.000002
# 2 -0.003250 0.013298 -0.007415 -0.000004 0.000246 0.000000
# 3 0.001580 -0.007415 0.025116 0.000002 0.018746 0.000003
# 4 -0.000005 -0.000004 0.000002 0.038660 -0.000016 -0.001163
# 5 0.013642 0.000246 0.018746 -0.000016 0.082881 0.000007
# 6 0.000002 0.000000 0.000003 -0.001163 0.000007 0.026187
#
#
# Mechanical properties :
#
#
# Convention : Reuss Voigt Hill
#
# Bulk Modulus (GPa) = 28.83570 49.92404 39.37987
# Shear Modulus (GPa) = 21.71028 28.06517 24.88773
#
# Velocity S-wave (km/s) = 3.43481 3.90530 3.67759
# Velocity P-wave (km/s) = 5.60363 6.88950 6.27956
#
# Compressibility (1/GPa) = 0.03467923
#
# Stress axis : x y z
#
# Youngs Moduli (GPa) = 69.28026 75.19693 39.81498
#
# Poissons Ratio (x) = 0.24438 -0.06290
# Poissons Ratio (y) = 0.22515 0.29521
# Poissons Ratio (z) = -0.10945 0.55756
#
# Static dielectric constant tensor:
#      x y z
#    x 3.742320 -0.000030 -0.044500 
#    y -0.000030 3.595740 0.000020 
#    z -0.044500 0.000020 3.274850 
# 
# 
# High freq. dielectric constant tensor:
#      x y z
#    x 1.723470 0.000000 -0.004230 
#    y 0.000000 1.730960 0.000000 
#    z -0.004230 0.000000 1.685340 
# 
# From -- ./inp_files/280959.got.cif
#   From: 2010.06.25/outbox.cif.g09.slc.cpg/sg12_141_cif.got.tgz:280959.got - 2010.06.28 00:19:55.
