data_PCOD8099480
_publ_section_title
;
Structure prediction by ZEFSAII (Michael W. Deem and Ramdas Pophale) SiO2 
 PCOD8099480
Probable space group: C 2/M
;
_chemical_formula_sum "Si O2"
_cell_formula_units_Z 40
_cell_length_a 26.572872
_cell_length_b 9.596159
_cell_length_c 17.756943
_cell_angle_alpha 90.000000
_cell_angle_beta 153.185092
_cell_angle_gamma 90.000000
_cell_volume 2042.614286
_symmetry_space_group_name_H-M "C 2/M"
_symmetry_group_IT_number 12
_symmetry_cell_setting 'monoclinic'
loop_
_space_group_symop_operation_xyz
x,y,z
-x,y,-z
-x,-y,-z
x,-y,z
1/2+x,1/2+y,z
1/2-x,1/2+y,-z
1/2-x,1/2-y,-z
1/2+x,1/2-y,z
loop_
_atom_site_type_symbol
_atom_site_label
_atom_site_fract_x
_atom_site_fract_y
_atom_site_fract_z
Si Si1 0.441210 0.159178 0.998239
Si Si2 0.486186 0.155105 0.625205
Si Si3 0.549366 0.653757 0.850202
Si Si4 0.286500 0.788116 0.131543
Si Si5 0.811806 0.153014 0.313861
O O1 0.486152 0.262476 0.122733
O O2 0.472493 0.000000 0.061869
O O3 0.500000 0.205499 0.000000
O O4 0.308841 0.172893 0.809717
O O5 0.508693 0.255161 0.725601
O O6 0.595731 0.133547 0.719184
O O7 0.389744 0.223624 0.446739
O O8 0.449009 0.000000 0.601780
O O9 0.492511 0.500000 0.773549
O O10 0.683090 0.625202 0.027598
O O11 0.303069 0.658393 0.210853
O O12 0.250000 0.750000 0.000000
O O13 0.860146 0.000000 0.398971
#
# Coordination Sequence:
#
# PCOD8099480 Si02
#       5
#     8   8   8   8   8
#     4   9  19  38  61  81 104 136 174 219 271 322
#     4  11  22  35  52  77 112 148 179 214 260 313
#     4  10  20  35  56  81 108 139 180 223 261 309
#     4   9  20  34  53  78 108 144 180 215 257 310
#     4  10  21  36  55  80 108 139 177 220 266 315
#
# _framework density 19.582747000000001
#
# number of rings (size 3 to 8) (size 9 to 14) (size 15 to 20)
#    0.000    2.200    0.000    2.400    0.000   14.800 
#    0.000    1.000    0.000    0.000    0.000    0.000 
#    0.000    0.000    0.000    0.000    0.000    0.000 
#
# Total GULP energy -247790.616589 kJ/mol
# GULP energy per Si atom -12389.530829 kJ/mol
# Density = 1.953818 g / cm^3
# Si number density = 19.582747 Si / 1000 Ang^3
#
#
#
# Elastic Constant Matrix: (Units=GPa)
#
#
# Indices 1 2 3 4 5 6 
#
# 1 133.7714 55.8848 43.6524 0.0000 -12.6838 0.0000
# 2 55.8848 160.2022 50.0799 0.0000 -15.2503 0.0000
# 3 43.6524 50.0799 81.8593 0.0000 -9.2272 0.0000
# 4 0.0000 0.0000 0.0000 17.0111 0.0000 -11.6233
# 5 -12.6838 -15.2503 -9.2272 0.0000 18.4038 0.0000
# 6 0.0000 0.0000 0.0000 -11.6233 0.0000 18.2614
#
#
#
# Elastic Compliance Matrix: (Units=1/GPa)
#
#
# Indices 1 2 3 4 5 6 
#
# 1 0.009800 -0.001963 -0.003654 0.000000 0.003296 0.000000
# 2 -0.001963 0.008441 -0.003690 0.000000 0.003792 0.000000
# 3 -0.003654 -0.003690 0.016740 0.000000 0.002817 0.000000
# 4 0.000000 0.000000 0.000000 0.104027 0.000000 0.066213
# 5 0.003296 0.003792 0.002817 0.000000 0.061162 0.000000
# 6 0.000000 0.000000 0.000000 0.066213 0.000000 0.096905
#
#
# Mechanical properties :
#
#
# Convention : Reuss Voigt Hill
#
# Bulk Modulus (GPa) = 61.09579 75.00746 68.05163
# Shear Modulus (GPa) = 15.56932 25.81631 20.69282
#
# Velocity S-wave (km/s) = 2.82273 3.63481 3.25420
# Velocity P-wave (km/s) = 6.47227 7.48343 6.99614
#
# Compressibility (1/GPa) = 0.01636774
#
# Stress axis : x y z
#
# Youngs Moduli (GPa) = 102.03845 118.46470 59.73867
#
# Poissons Ratio (x) = 0.23252 0.21827
# Poissons Ratio (y) = 0.20028 0.22044
# Poissons Ratio (z) = 0.37283 0.43715
#
# Static dielectric constant tensor:
#      x y z
#    x 3.606880 0.000000 0.064580 
#    y 0.000000 3.513560 0.000000 
#    z 0.064580 0.000000 3.579950 
# 
# 
# High freq. dielectric constant tensor:
#      x y z
#    x 1.751550 0.000000 -0.008860 
#    y 0.000000 1.764550 0.000000 
#    z -0.008860 0.000000 1.750710 
# 
# From -- ./inp_files/151960.got.cif
#   From: 2010.06.25/outbox.cif.g09.slc.cpg/sg12_76_cif.got.tgz:151960.got - 2010.06.28 00:19:55.
