data_PCOD8099266
_publ_section_title
;
Structure prediction by ZEFSAII (Michael W. Deem and Ramdas Pophale) SiO2 
 PCOD8099266
Probable space group: C 2/M
;
_chemical_formula_sum "Si O2"
_cell_formula_units_Z 64
_cell_length_a 29.378160
_cell_length_b 9.000187
_cell_length_c 25.263433
_cell_angle_alpha 90.000000
_cell_angle_beta 149.529633
_cell_angle_gamma 90.000000
_cell_volume 3387.316831
_symmetry_space_group_name_H-M "C 2/M"
_symmetry_group_IT_number 12
_symmetry_cell_setting 'monoclinic'
loop_
_space_group_symop_operation_xyz
x,y,z
-x,y,-z
-x,-y,-z
x,-y,z
1/2+x,1/2+y,z
1/2-x,1/2+y,-z
1/2-x,1/2-y,-z
1/2+x,1/2-y,z
loop_
_atom_site_type_symbol
_atom_site_label
_atom_site_fract_x
_atom_site_fract_y
_atom_site_fract_z
Si Si1 0.340729 0.826783 0.574305
Si Si2 0.518476 0.676088 0.780547
Si Si3 0.740889 0.674281 0.822150
Si Si4 0.447593 0.325840 0.894105
Si Si5 0.568851 0.673508 0.714114
Si Si6 0.073457 0.324139 0.939039
Si Si7 0.104673 0.328510 0.489885
Si Si8 0.753306 0.675880 0.282406
O O1 0.250000 0.750000 0.500000
O O2 0.419755 0.746409 0.685552
O O3 0.351380 0.800427 0.522804
O O4 0.339977 0.000000 0.588468
O O5 0.511806 0.500000 0.780893
O O6 0.564210 0.722426 0.770835
O O7 0.578166 0.746617 0.886630
O O8 0.738709 0.500000 0.809143
O O9 0.665074 0.722614 0.788177
O O10 0.720911 0.756340 0.747770
O O11 0.836573 0.724840 0.940579
O O12 0.455428 0.500000 0.888930
O O13 0.488241 0.234147 0.886269
O O14 0.345208 0.272761 0.797686
O O15 0.500000 0.284796 0.000000
O O16 0.553200 0.500000 0.693264
O O17 0.490736 0.747836 0.601021
O O18 0.067051 0.500000 0.925255
O O19 0.085944 0.500000 0.481610
O O20 0.173835 0.264972 0.602539
O O21 0.755092 0.500000 0.279004
#
# Coordination Sequence:
#
# PCOD8099266 Si02
#       8
#     8   8   8   8   8   8   8   8
#     4  10  20  35  55  82 114 149 189 232 282 337
#     4  10  21  38  59  81 110 148 191 236 282 336
#     4  10  22  39  58  82 114 148 186 235 286 335
#     4  10  20  36  58  81 112 152 190 230 276 334
#     4   9  20  40  61  81 109 148 190 233 282 336
#     4  11  23  37  56  85 117 148 186 234 287 343
#     4   9  20  37  56  81 114 147 183 232 282 328
#     4  10  21  37  57  84 114 148 189 229 276 335
#
# _framework density 18.894010000000002
#
# number of rings (size 3 to 8) (size 9 to 14) (size 15 to 20)
#    0.000    2.125    1.250    1.125    1.750    4.250 
#    0.000    2.500    0.000    0.000    0.000    0.000 
#    0.000    0.000    0.000    0.000    0.000    0.000 
#
# Total GULP energy -396931.583947 kJ/mol
# GULP energy per Si atom -12404.111998 kJ/mol
# Density = 1.885101 g / cm^3
# Si number density = 18.894010 Si / 1000 Ang^3
#
#
#
# Elastic Constant Matrix: (Units=GPa)
#
#
# Indices 1 2 3 4 5 6 
#
# 1 99.9978 36.4478 45.4262 0.0000 5.5050 0.0000
# 2 36.4478 55.9268 32.6524 0.0000 -3.5156 0.0000
# 3 45.4262 32.6524 94.5355 0.0000 -16.7353 0.0000
# 4 0.0000 0.0000 0.0000 31.1323 0.0000 -1.7291
# 5 5.5050 -3.5156 -16.7353 0.0000 31.7120 0.0000
# 6 0.0000 0.0000 0.0000 -1.7291 0.0000 31.7999
#
#
#
# Elastic Compliance Matrix: (Units=1/GPa)
#
#
# Indices 1 2 3 4 5 6 
#
# 1 0.015856 -0.007021 -0.006419 0.000000 -0.006918 0.000000
# 2 -0.007021 0.025596 -0.005238 0.000000 0.001292 0.000000
# 3 -0.006419 -0.005238 0.017170 0.000000 0.009595 0.000000
# 4 0.000000 0.000000 0.000000 0.032218 0.000000 0.001752
# 5 -0.006918 0.001292 0.009595 0.000000 0.037941 0.000000
# 6 0.000000 0.000000 0.000000 0.001752 0.000000 0.031542
#
#
# Mechanical properties :
#
#
# Convention : Reuss Voigt Hill
#
# Bulk Modulus (GPa) = 47.02368 53.27921 50.15144
# Shear Modulus (GPa) = 24.41791 27.99110 26.20451
#
# Velocity S-wave (km/s) = 3.59884 3.85318 3.72818
# Velocity P-wave (km/s) = 6.49701 6.93226 6.71816
#
# Compressibility (1/GPa) = 0.02126588
#
# Stress axis : x y z
#
# Youngs Moduli (GPa) = 63.06789 39.06936 58.24014
#
# Poissons Ratio (x) = 0.27429 0.37384
# Poissons Ratio (y) = 0.44278 0.30508
# Poissons Ratio (z) = 0.40483 0.20466
#
# Static dielectric constant tensor:
#      x y z
#    x 3.457480 0.000000 0.005090 
#    y 0.000000 3.407910 0.000000 
#    z 0.005090 0.000000 3.687070 
# 
# 
# High freq. dielectric constant tensor:
#      x y z
#    x 1.736510 0.000000 -0.000700 
#    y 0.000000 1.731820 0.000000 
#    z -0.000700 0.000000 1.741700 
# 
# From -- ./inp_files/249745.got.cif
#   From: 2010.06.25/outbox.cif.g09.slc.cpg/sg12_125_cif.got.tgz:249745.got - 2010.06.28 00:19:55.
