data_PCOD8099016
_publ_section_title
;
Structure prediction by ZEFSAII (Michael W. Deem and Ramdas Pophale) SiO2 
 PCOD8099016
Probable space group: C 2/M
;
_chemical_formula_sum "Si O2"
_cell_formula_units_Z 64
_cell_length_a 18.480985
_cell_length_b 13.787440
_cell_length_c 12.188522
_cell_angle_alpha 90.000000
_cell_angle_beta 74.640465
_cell_angle_gamma 90.000000
_cell_volume 2994.774843
_symmetry_space_group_name_H-M "C 2/M"
_symmetry_group_IT_number 12
_symmetry_cell_setting 'monoclinic'
loop_
_space_group_symop_operation_xyz
x,y,z
-x,y,-z
-x,-y,-z
x,-y,z
1/2+x,1/2+y,z
1/2-x,1/2+y,-z
1/2-x,1/2-y,-z
1/2+x,1/2-y,z
loop_
_atom_site_type_symbol
_atom_site_label
_atom_site_fract_x
_atom_site_fract_y
_atom_site_fract_z
Si Si1 0.108424 0.114782 0.675495
Si Si2 0.410828 0.748171 0.884932
Si Si3 0.941435 0.888470 0.691363
Si Si4 0.678388 0.386714 0.434391
Si Si5 0.795991 0.386669 0.217199
Si Si6 0.777754 0.609420 0.982446
Si Si7 0.032943 0.390534 0.864600
Si Si8 0.624010 0.387902 0.918074
O O1 0.169919 0.155688 0.562152
O O2 0.123918 0.151354 0.792846
O O3 0.027251 0.146679 0.662851
O O4 0.114436 0.000000 0.673363
O O5 0.393292 0.670806 0.798469
O O6 0.340083 0.817361 0.918207
O O7 0.482177 0.813529 0.820064
O O8 0.427166 0.685755 0.990087
O O9 0.903224 0.870184 0.589158
O O10 0.934381 0.000000 0.729272
O O11 0.695319 0.500000 0.434318
O O12 0.746551 0.338368 0.335958
O O13 0.797589 0.500000 0.237847
O O14 0.882023 0.349899 0.176902
O O15 0.756141 0.364549 0.116651
O O16 0.810462 0.500000 0.963920
O O17 0.707509 0.621440 0.931428
O O18 0.027593 0.500000 0.818048
O O19 0.000000 0.391125 0.000000
O O20 0.595275 0.500000 0.937566
#
# Coordination Sequence:
#
# PCOD8099016 Si02
#       8
#     8   8   8   8   8   8   8   8
#     4   9  19  35  55  79 109 148 189 223 268 328
#     4  12  22  33  56  82 113 150 184 219 279 338
#     4  10  21  35  55  84 115 145 182 227 272 327
#     4   9  17  34  59  81 104 143 189 232 272 316
#     4   9  17  31  55  83 107 133 179 234 279 319
#     4  10  20  36  56  81 113 145 181 230 277 327
#     4  10  20  35  54  83 114 142 182 231 278 325
#     4  10  22  36  52  82 120 150 180 220 272 336
#
# _framework density 21.370556000000001
#
# number of rings (size 3 to 8) (size 9 to 14) (size 15 to 20)
#    0.000    2.125    1.250    2.250    1.750    3.500 
#    0.000    1.875    0.000    8.250    0.000    0.000 
#    0.000   12.000    0.000    0.000    0.000    0.000 
#
# Total GULP energy -396497.993105 kJ/mol
# GULP energy per Si atom -12390.562285 kJ/mol
# Density = 2.132192 g / cm^3
# Si number density = 21.370556 Si / 1000 Ang^3
#
#
#
# Elastic Constant Matrix: (Units=GPa)
#
#
# Indices 1 2 3 4 5 6 
#
# 1 78.1852 30.2693 29.4371 0.0000 -8.6616 0.0000
# 2 30.2693 65.5973 40.2235 0.0000 -2.4440 0.0000
# 3 29.4371 40.2235 115.9882 0.0000 -5.8031 0.0000
# 4 0.0000 0.0000 0.0000 8.9004 0.0000 -2.2437
# 5 -8.6616 -2.4440 -5.8031 0.0000 26.5061 0.0000
# 6 0.0000 0.0000 0.0000 -2.2437 0.0000 8.2106
#
#
#
# Elastic Compliance Matrix: (Units=1/GPa)
#
#
# Indices 1 2 3 4 5 6 
#
# 1 0.016382 -0.006326 -0.001744 0.000000 0.004388 0.000000
# 2 -0.006326 0.021808 -0.006026 0.000000 -0.001376 0.000000
# 3 -0.001744 -0.006026 0.011221 0.000000 0.001331 0.000000
# 4 0.000000 0.000000 0.000000 0.120667 0.000000 0.032974
# 5 0.004388 -0.001376 0.001331 0.000000 0.039326 0.000000
# 6 0.000000 0.000000 0.000000 0.032974 0.000000 0.130804
#
#
# Mechanical properties :
#
#
# Convention : Reuss Voigt Hill
#
# Bulk Modulus (GPa) = 47.13134 51.07007 49.10070
# Shear Modulus (GPa) = 13.31656 19.37947 16.34801
#
# Velocity S-wave (km/s) = 2.49896 3.01463 2.76882
# Velocity P-wave (km/s) = 5.51621 6.00555 5.76607
#
# Compressibility (1/GPa) = 0.02121731
#
# Stress axis : x y z
#
# Youngs Moduli (GPa) = 61.04166 45.85573 89.12228
#
# Poissons Ratio (x) = 0.29010 0.15545
# Poissons Ratio (y) = 0.38617 0.53704
# Poissons Ratio (z) = 0.10647 0.27632
#
# Static dielectric constant tensor:
#      x y z
#    x 3.962790 0.000000 -0.205690 
#    y 0.000000 3.981120 0.000000 
#    z -0.205690 0.000000 4.136520 
# 
# 
# High freq. dielectric constant tensor:
#      x y z
#    x 1.836210 0.000000 -0.010770 
#    y 0.000000 1.826670 0.000000 
#    z -0.010770 0.000000 1.820870 
# 
# From -- ./inp_files/167254.got.cif
#   From: 2010.06.25/outbox.cif.g09.slc.cpg/sg12_84_cif.got.tgz:167254.got - 2010.06.28 00:19:55.
