data_PCOD8099190
_publ_section_title
;
Structure prediction by ZEFSAII (Michael W. Deem and Ramdas Pophale) SiO2 
 PCOD8099190
Probable space group: C 2/M
;
_chemical_formula_sum "Si O2"
_cell_formula_units_Z 40
_cell_length_a 14.376038
_cell_length_b 8.523516
_cell_length_c 21.987083
_cell_angle_alpha 90.000000
_cell_angle_beta 131.365566
_cell_angle_gamma 90.000000
_cell_volume 2021.999998
_symmetry_space_group_name_H-M "C 2/M"
_symmetry_group_IT_number 12
_symmetry_cell_setting 'monoclinic'
loop_
_space_group_symop_operation_xyz
x,y,z
-x,y,-z
-x,-y,-z
x,-y,z
1/2+x,1/2+y,z
1/2-x,1/2+y,-z
1/2-x,1/2-y,-z
1/2+x,1/2-y,z
loop_
_atom_site_type_symbol
_atom_site_label
_atom_site_fract_x
_atom_site_fract_y
_atom_site_fract_z
Si Si1 0.876697 0.816881 0.881770
Si Si2 0.782325 0.817735 0.292250
Si Si3 0.857150 0.314885 0.003441
Si Si4 0.751803 0.818220 0.597557
Si Si5 0.064096 0.816824 0.429444
O O1 0.780806 0.784859 0.786825
O O2 0.012043 0.758441 0.919598
O O3 0.882744 0.000000 0.899045
O O4 0.829434 0.728042 0.921542
O O5 0.719821 0.781789 0.329998
O O6 0.924487 0.763114 0.357545
O O7 0.768375 0.000000 0.269943
O O8 0.864860 0.500000 0.014090
O O9 0.750000 0.250000 0.000000
O O10 0.859776 0.771858 0.597673
O O11 0.618833 0.774447 0.511135
O O12 0.753654 0.000000 0.615542
O O13 0.073443 0.000000 0.448607
#
# Coordination Sequence:
#
# PCOD8099190 Si02
#       5
#     8   8   8   8   8
#     4  11  23  40  60  88 120 150 191 239 285 340
#     4  11  22  37  56  80 113 151 188 231 286 342
#     4  11  22  41  66  90 117 152 189 229 283 343
#     4  10  20  35  55  80 109 144 190 239 284 335
#     4   9  20  37  55  76 108 149 189 230 282 341
#
# _framework density 19.782395000000001
#
# number of rings (size 3 to 8) (size 9 to 14) (size 15 to 20)
#    0.000    1.600    0.000    6.600    0.000    6.400 
#    0.000    6.000    0.000    0.000    0.000    0.000 
#    0.000    0.000    0.000    0.000    0.000    0.000 
#
# Total GULP energy -248112.074706 kJ/mol
# GULP energy per Si atom -12405.603735 kJ/mol
# Density = 1.973737 g / cm^3
# Si number density = 19.782395 Si / 1000 Ang^3
#
#
#
# Elastic Constant Matrix: (Units=GPa)
#
#
# Indices 1 2 3 4 5 6 
#
# 1 90.2418 10.6326 31.1351 0.0000 -4.6019 0.0000
# 2 10.6326 63.9270 13.0846 0.0000 4.5556 0.0000
# 3 31.1351 13.0846 105.3481 0.0000 -5.9291 0.0000
# 4 0.0000 0.0000 0.0000 36.5151 0.0000 -2.6323
# 5 -4.6019 4.5556 -5.9291 0.0000 17.0918 0.0000
# 6 0.0000 0.0000 0.0000 -2.6323 0.0000 33.8323
#
#
#
# Elastic Compliance Matrix: (Units=1/GPa)
#
#
# Indices 1 2 3 4 5 6 
#
# 1 0.012565 -0.001589 -0.003368 0.000000 0.002638 0.000000
# 2 -0.001589 0.016694 -0.001916 0.000000 -0.005542 0.000000
# 3 -0.003368 -0.001916 0.010916 0.000000 0.003391 0.000000
# 4 0.000000 0.000000 0.000000 0.027540 0.000000 0.002143
# 5 0.002638 -0.005542 0.003391 0.000000 0.061871 0.000000
# 6 0.000000 0.000000 0.000000 0.002143 0.000000 0.029724
#
#
# Mechanical properties :
#
#
# Convention : Reuss Voigt Hill
#
# Bulk Modulus (GPa) = 37.83403 41.02460 39.42932
# Shear Modulus (GPa) = 27.49270 31.13214 29.31242
#
# Velocity S-wave (km/s) = 3.73199 3.97133 3.85352
# Velocity P-wave (km/s) = 6.14304 6.46619 6.30668
#
# Compressibility (1/GPa) = 0.02643123
#
# Stress axis : x y z
#
# Youngs Moduli (GPa) = 79.58636 59.90125 91.60481
#
# Poissons Ratio (x) = 0.09516 0.30850
# Poissons Ratio (y) = 0.12643 0.17550
# Poissons Ratio (z) = 0.26802 0.11476
#
# Static dielectric constant tensor:
#      x y z
#    x 3.673210 0.000000 0.004990 
#    y 0.000000 3.633310 0.000000 
#    z 0.004990 0.000000 3.546060 
# 
# 
# High freq. dielectric constant tensor:
#      x y z
#    x 1.777540 0.000000 -0.004040 
#    y 0.000000 1.781560 0.000000 
#    z -0.004040 0.000000 1.770240 
# 
# From -- ./inp_files/308683.got.cif
#   From: 2010.06.25/outbox.cif.g09.slc.cpg/sg12_155_cif.got.tgz:308683.got - 2010.06.28 00:19:55.
