data_PCOD8099251
_publ_section_title
;
Structure prediction by ZEFSAII (Michael W. Deem and Ramdas Pophale) SiO2 
 PCOD8099251
Probable space group: C 2/M
;
_chemical_formula_sum "Si O2"
_cell_formula_units_Z 56
_cell_length_a 27.309864
_cell_length_b 14.523157
_cell_length_c 9.205625
_cell_angle_alpha 90.000000
_cell_angle_beta 129.288711
_cell_angle_gamma 90.000000
_cell_volume 2825.889431
_symmetry_space_group_name_H-M "C 2/M"
_symmetry_group_IT_number 12
_symmetry_cell_setting 'monoclinic'
loop_
_space_group_symop_operation_xyz
x,y,z
-x,y,-z
-x,-y,-z
x,-y,z
1/2+x,1/2+y,z
1/2-x,1/2+y,-z
1/2-x,1/2-y,-z
1/2+x,1/2-y,z
loop_
_atom_site_type_symbol
_atom_site_label
_atom_site_fract_x
_atom_site_fract_y
_atom_site_fract_z
Si Si1 0.377953 0.896868 0.144775
Si Si2 0.237493 0.102507 0.813462
Si Si3 0.996459 0.707400 0.318845
Si Si4 0.032777 0.099154 0.716166
Si Si5 0.767270 0.276561 0.370994
Si Si6 0.819846 0.104123 0.983925
Si Si7 0.120465 0.391487 0.520599
O O1 0.428841 0.836753 0.151970
O O2 0.365623 0.863829 0.286736
O O3 0.405309 0.000000 0.203036
O O4 0.312927 0.891741 0.935109
O O5 0.208287 0.182825 0.660510
O O6 0.213441 0.000000 0.720818
O O7 0.220507 0.120637 0.947788
O O8 0.998599 0.813034 0.262436
O O9 0.000000 0.704680 0.500000
O O10 0.052540 0.650893 0.348336
O O11 0.000000 0.089859 0.500000
O O12 0.023086 0.000000 0.779762
O O13 0.107133 0.121180 0.839458
O O14 0.750000 0.250000 0.500000
O O15 0.705432 0.322598 0.180678
O O16 0.825096 0.348348 0.477527
O O17 0.809026 0.000000 0.905526
O O18 0.119657 0.500000 0.491871
#
# Coordination Sequence:
#
# PCOD8099251 Si02
#       7
#     8   8   8   8   8   8   8
#     4   9  16  30  53  84 112 139 183 245 303 349
#     4  10  21  35  57  85 111 147 197 256 306 352
#     4   9  17  27  49  82 115 149 180 234 296 347
#     4   9  18  30  51  87 120 146 185 245 313 363
#     4  12  25  37  56  84 120 166 202 239 295 365
#     4  10  20  37  62  87 116 155 200 254 311 359
#     4  10  20  35  55  81 115 153 194 239 297 360
#
# _framework density 19.816768
#
# number of rings (size 3 to 8) (size 9 to 14) (size 15 to 20)
#    0.000    2.143    1.429    2.143    6.000    2.857 
#    0.000    0.000    0.000    3.429    0.000    8.000 
#    0.000    0.000    0.000    0.000    0.000    0.000 
#
# Total GULP energy -347046.714209 kJ/mol
# GULP energy per Si atom -12394.525507 kJ/mol
# Density = 1.977166 g / cm^3
# Si number density = 19.816768 Si / 1000 Ang^3
#
#
#
# Elastic Constant Matrix: (Units=GPa)
#
#
# Indices 1 2 3 4 5 6 
#
# 1 84.3290 58.7604 38.0667 0.0000 18.6807 0.0000
# 2 58.7604 159.8927 40.8043 0.0000 4.0288 0.0000
# 3 38.0667 40.8043 52.2093 0.0000 9.2319 0.0000
# 4 0.0000 0.0000 0.0000 19.2304 0.0000 11.0668
# 5 18.6807 4.0288 9.2319 0.0000 26.6534 0.0000
# 6 0.0000 0.0000 0.0000 11.0668 0.0000 29.8976
#
#
#
# Elastic Compliance Matrix: (Units=1/GPa)
#
#
# Indices 1 2 3 4 5 6 
#
# 1 0.022956 -0.005493 -0.010382 0.000000 -0.011663 0.000000
# 2 -0.005493 0.009152 -0.003817 0.000000 0.003789 0.000000
# 3 -0.010382 -0.003817 0.030166 0.000000 -0.002595 0.000000
# 4 0.000000 0.000000 0.000000 0.066077 0.000000 -0.024459
# 5 -0.011663 0.003789 -0.002595 0.000000 0.046019 0.000000
# 6 0.000000 0.000000 0.000000 -0.024459 0.000000 0.042501
#
#
# Mechanical properties :
#
#
# Convention : Reuss Voigt Hill
#
# Bulk Modulus (GPa) = 43.69062 63.52153 53.60608
# Shear Modulus (GPa) = 18.94767 25.74293 22.34530
#
# Velocity S-wave (km/s) = 3.09551 3.60814 3.36161
# Velocity P-wave (km/s) = 5.90520 7.03436 6.49437
#
# Compressibility (1/GPa) = 0.02288821
#
# Stress axis : x y z
#
# Youngs Moduli (GPa) = 43.56167 109.27119 33.14998
#
# Poissons Ratio (x) = 0.60021 0.34417
# Poissons Ratio (y) = 0.23928 0.12655
# Poissons Ratio (z) = 0.45227 0.41713
#
# Static dielectric constant tensor:
#      x y z
#    x 3.453710 0.000000 0.528890 
#    y 0.000000 4.236390 0.000000 
#    z 0.528890 0.000000 3.353440 
# 
# 
# High freq. dielectric constant tensor:
#      x y z
#    x 1.742760 0.000000 0.045330 
#    y 0.000000 1.804280 0.000000 
#    z 0.045330 0.000000 1.725490 
# 
# From -- ./inp_files/96943.got.cif
#   From: 2010.06.25/outbox.cif.g09.slc.cpg/sg12_49_cif.got.tgz:96943.got - 2010.06.28 00:19:55.
