data_PCOD8099578
_publ_section_title
;
Structure prediction by ZEFSAII (Michael W. Deem and Ramdas Pophale) SiO2 
 PCOD8099578
Probable space group: C 2/M
;
_chemical_formula_sum "Si O2"
_cell_formula_units_Z 48
_cell_length_a 30.019301
_cell_length_b 8.751736
_cell_length_c 23.511028
_cell_angle_alpha 90.000000
_cell_angle_beta 154.693441
_cell_angle_gamma 90.000000
_cell_volume 2640.360714
_symmetry_space_group_name_H-M "C 2/M"
_symmetry_group_IT_number 12
_symmetry_cell_setting 'monoclinic'
loop_
_space_group_symop_operation_xyz
x,y,z
-x,y,-z
-x,-y,-z
x,-y,z
1/2+x,1/2+y,z
1/2-x,1/2+y,-z
1/2-x,1/2-y,-z
1/2+x,1/2-y,z
loop_
_atom_site_type_symbol
_atom_site_label
_atom_site_fract_x
_atom_site_fract_y
_atom_site_fract_z
Si Si1 0.811883 0.677293 0.861812
Si Si2 0.135386 0.825951 0.503185
Si Si3 0.397599 0.176727 0.418338
Si Si4 0.639651 0.180061 0.390266
Si Si5 0.125627 0.329726 0.191848
Si Si6 0.005789 0.177355 0.870096
O O1 0.799948 0.500000 0.862929
O O2 0.697242 0.746962 0.724997
O O3 0.875522 0.701306 0.876661
O O4 0.875978 0.762400 0.985516
O O5 0.082417 0.752119 0.497301
O O6 0.102068 0.734066 0.408819
O O7 0.258912 0.817195 0.650802
O O8 0.096819 0.000000 0.453528
O O9 0.500000 0.203378 0.500000
O O10 0.371180 0.000000 0.396919
O O11 0.750000 0.250000 0.500000
O O12 0.549067 0.228435 0.242876
O O13 0.653137 0.000000 0.404840
O O14 0.081219 0.500000 0.153414
O O15 0.056268 0.203583 0.142792
O O16 0.006646 0.000000 0.855321
#
# Coordination Sequence:
#
# PCOD8099578 Si02
#       6
#     8   8   8   8   8   8
#     4  10  21  36  54  77 108 143 184 230 276 329
#     4  10  20  35  56  82 112 145 186 231 274 324
#     4  10  21  38  61  87 113 141 179 230 282 331
#     4  12  23  36  54  77 111 152 193 229 267 321
#     4   9  18  32  50  73 107 145 182 224 270 320
#     4  12  23  33  50  76 110 150 187 224 271 327
#
# _framework density 18.179334999999998
#
# number of rings (size 3 to 8) (size 9 to 14) (size 15 to 20)
#    0.000    1.500    1.667    6.000    0.000    6.667 
#    0.000    0.000    0.000    1.000    0.000    0.000 
#    0.000    0.000    0.000    0.000    0.000    0.000 
#
# Total GULP energy -297675.269308 kJ/mol
# GULP energy per Si atom -12403.136221 kJ/mol
# Density = 1.813796 g / cm^3
# Si number density = 18.179335 Si / 1000 Ang^3
#
#
#
# Elastic Constant Matrix: (Units=GPa)
#
#
# Indices 1 2 3 4 5 6 
#
# 1 67.7586 47.7530 46.6180 0.0000 -1.4182 0.0000
# 2 47.7530 150.4934 49.0815 0.0000 -1.5338 0.0000
# 3 46.6180 49.0815 92.2579 0.0000 -21.2464 0.0000
# 4 0.0000 0.0000 0.0000 31.6289 0.0000 -3.8178
# 5 -1.4182 -1.5338 -21.2464 0.0000 18.8649 0.0000
# 6 0.0000 0.0000 0.0000 -3.8178 0.0000 28.2303
#
#
#
# Elastic Compliance Matrix: (Units=1/GPa)
#
#
# Indices 1 2 3 4 5 6 
#
# 1 0.028019 -0.003918 -0.015746 0.000000 -0.015946 0.000000
# 2 -0.003918 0.009055 -0.003694 0.000000 -0.003718 0.000000
# 3 -0.015746 -0.003694 0.027570 0.000000 0.029566 0.000000
# 4 0.000000 0.000000 0.000000 0.032141 0.000000 0.004347
# 5 -0.015946 -0.003718 0.029566 0.000000 0.084806 0.000000
# 6 0.000000 0.000000 0.000000 0.004347 0.000000 0.036011
#
#
# Mechanical properties :
#
#
# Convention : Reuss Voigt Hill
#
# Bulk Modulus (GPa) = 55.77836 66.37945 61.07890
# Shear Modulus (GPa) = 18.49850 26.88198 22.69024
#
# Velocity S-wave (km/s) = 3.19338 3.84957 3.53673
# Velocity P-wave (km/s) = 6.65926 7.50679 7.09569
#
# Compressibility (1/GPa) = 0.01792810
#
# Stress axis : x y z
#
# Youngs Moduli (GPa) = 35.69025 110.43904 36.27184
#
# Poissons Ratio (x) = 0.43268 0.57113
# Poissons Ratio (y) = 0.13983 0.13398
# Poissons Ratio (z) = 0.56198 0.40794
#
# Static dielectric constant tensor:
#      x y z
#    x 3.200540 0.000000 -0.247550 
#    y 0.000000 3.507770 0.000000 
#    z -0.247550 0.000000 3.440260 
# 
# 
# High freq. dielectric constant tensor:
#      x y z
#    x 1.673360 0.000000 -0.017740 
#    y 0.000000 1.720110 0.000000 
#    z -0.017740 0.000000 1.706270 
# 
# From -- ./inp_files/249375.got.cif
#   From: 2010.06.25/outbox.cif.g09.slc.cpg/sg12_125_cif.got.tgz:249375.got - 2010.06.28 00:19:55.
