data_PCOD8099628
_publ_section_title
;
Structure prediction by ZEFSAII (Michael W. Deem and Ramdas Pophale) SiO2 
 PCOD8099628
Probable space group: C 2/M
;
_chemical_formula_sum "Si O2"
_cell_formula_units_Z 48
_cell_length_a 24.632633
_cell_length_b 8.912832
_cell_length_c 11.452340
_cell_angle_alpha 90.000000
_cell_angle_beta 74.277946
_cell_angle_gamma 90.000000
_cell_volume 2420.254383
_symmetry_space_group_name_H-M "C 2/M"
_symmetry_group_IT_number 12
_symmetry_cell_setting 'monoclinic'
loop_
_space_group_symop_operation_xyz
x,y,z
-x,y,-z
-x,-y,-z
x,-y,z
1/2+x,1/2+y,z
1/2-x,1/2+y,-z
1/2-x,1/2-y,-z
1/2+x,1/2-y,z
loop_
_atom_site_type_symbol
_atom_site_label
_atom_site_fract_x
_atom_site_fract_y
_atom_site_fract_z
Si Si1 0.908443 0.171898 0.749523
Si Si2 0.691672 0.671179 0.550875
Si Si3 0.970170 0.826609 0.265843
Si Si4 0.370008 0.330212 0.175181
Si Si5 0.688924 0.322169 0.018840
Si Si6 0.589258 0.823171 0.493544
O O1 0.920229 0.279302 0.634554
O O2 0.963430 0.188816 0.802883
O O3 0.903893 0.000000 0.709380
O O4 0.851639 0.219819 0.849408
O O5 0.694410 0.500000 0.506356
O O6 0.750000 0.750000 0.500000
O O7 0.675228 0.681692 0.695532
O O8 0.649601 0.761209 0.493949
O O9 0.929948 0.759399 0.185605
O O10 0.958930 0.745047 0.395423
O O11 0.951799 0.000000 0.294025
O O12 0.382408 0.500000 0.130074
O O13 0.341995 0.252145 0.078122
O O14 0.697316 0.500000 0.002247
O O15 0.750000 0.250000 0.000000
O O16 0.587175 0.000000 0.507457
#
# Coordination Sequence:
#
# PCOD8099628 Si02
#       6
#     8   8   8   8   8   8
#     4  10  21  36  57  84 113 149 190 232 284 342
#     4  10  20  35  56  83 113 148 189 233 284 336
#     4   9  18  36  60  84 112 145 183 236 293 340
#     4   8  17  35  57  80 109 142 181 230 278 332
#     4  10  22  39  57  81 112 148 189 231 279 338
#     4  11  22  35  54  83 117 151 187 231 283 338
#
# _framework density 19.832626000000001
#
# number of rings (size 3 to 8) (size 9 to 14) (size 15 to 20)
#    0.000    2.333    0.000    3.500    2.333    4.000 
#    0.000    6.667    0.000    0.000    0.000    7.000 
#    0.000    0.000    0.000    0.000    0.000    0.000 
#
# Total GULP energy -297485.984906 kJ/mol
# GULP energy per Si atom -12395.249371 kJ/mol
# Density = 1.978749 g / cm^3
# Si number density = 19.832626 Si / 1000 Ang^3
#
#
#
# Elastic Constant Matrix: (Units=GPa)
#
#
# Indices 1 2 3 4 5 6 
#
# 1 147.6020 37.6410 65.3831 0.0000 -9.9492 0.0000
# 2 37.6410 78.9036 28.3856 0.0000 -1.4051 0.0000
# 3 65.3831 28.3856 69.7467 0.0000 12.1274 0.0000
# 4 0.0000 0.0000 0.0000 19.0370 0.0000 -2.9635
# 5 -9.9492 -1.4051 12.1274 0.0000 36.9522 0.0000
# 6 0.0000 0.0000 0.0000 -2.9635 0.0000 29.8029
#
#
#
# Elastic Compliance Matrix: (Units=1/GPa)
#
#
# Indices 1 2 3 4 5 6 
#
# 1 0.013794 -0.001490 -0.013745 0.000000 0.008168 0.000000
# 2 -0.001490 0.015267 -0.005141 0.000000 0.001866 0.000000
# 3 -0.013745 -0.005141 0.031807 0.000000 -0.014335 0.000000
# 4 0.000000 0.000000 0.000000 0.053355 0.000000 0.005306
# 5 0.008168 0.001866 -0.014335 0.000000 0.034037 0.000000
# 6 0.000000 0.000000 0.000000 0.005306 0.000000 0.034081
#
#
# Mechanical properties :
#
#
# Convention : Reuss Voigt Hill
#
# Bulk Modulus (GPa) = 49.71040 62.11908 55.91474
# Shear Modulus (GPa) = 21.75801 28.14795 24.95298
#
# Velocity S-wave (km/s) = 3.31582 3.77141 3.55093
# Velocity P-wave (km/s) = 6.30705 7.09608 6.71317
#
# Compressibility (1/GPa) = 0.02011652
#
# Stress axis : x y z
#
# Youngs Moduli (GPa) = 72.49419 65.49919 31.43915
#
# Poissons Ratio (x) = 0.09762 0.43213
# Poissons Ratio (y) = 0.10804 0.16163
# Poissons Ratio (z) = 0.99643 0.33673
#
# Static dielectric constant tensor:
#      x y z
#    x 3.933880 0.000000 0.146920 
#    y 0.000000 3.375990 0.000000 
#    z 0.146920 0.000000 3.537940 
# 
# 
# High freq. dielectric constant tensor:
#      x y z
#    x 1.795640 0.000000 0.001770 
#    y 0.000000 1.744000 0.000000 
#    z 0.001770 0.000000 1.761300 
# 
# From -- ./inp_files/172947.got.cif
#   From: 2010.06.25/outbox.cif.g09.slc.cpg/sg12_87_cif.got.tgz:172947.got - 2010.06.28 00:19:55.
