data_PCOD8099875
_publ_section_title
;
Structure prediction by ZEFSAII (Michael W. Deem and Ramdas Pophale) SiO2 
 PCOD8099875
Probable space group: C 2/M
;
_chemical_formula_sum "Si O2"
_cell_formula_units_Z 56
_cell_length_a 25.416842
_cell_length_b 16.951281
_cell_length_c 9.140082
_cell_angle_alpha 90.000000
_cell_angle_beta 44.010369
_cell_angle_gamma 90.000000
_cell_volume 2736.067775
_symmetry_space_group_name_H-M "C 2/M"
_symmetry_group_IT_number 12
_symmetry_cell_setting 'monoclinic'
loop_
_space_group_symop_operation_xyz
x,y,z
-x,y,-z
-x,-y,-z
x,-y,z
1/2+x,1/2+y,z
1/2-x,1/2+y,-z
1/2-x,1/2-y,-z
1/2+x,1/2-y,z
loop_
_atom_site_type_symbol
_atom_site_label
_atom_site_fract_x
_atom_site_fract_y
_atom_site_fract_z
Si Si1 0.777558 0.837919 0.115435
Si Si2 0.413026 0.590933 0.343585
Si Si3 1.000000 0.405623 0.664602
Si Si4 0.356584 0.091813 0.448892
Si Si5 0.143417 0.408187 0.875226
Si Si6 0.722441 0.662080 0.225669
Si Si7 0.913025 0.909067 0.004314
O O1 0.721494 0.896834 0.310085
O O2 0.750000 0.750000 0.203381
O O3 0.776557 0.857876 0.946885
O O4 0.861649 0.851462 0.009368
O O5 0.397242 0.500000 0.417006
O O6 0.361650 0.648538 0.544036
O O7 0.500000 0.612508 0.202389
O O8 0.393797 0.604782 0.212406
O O9 1.000000 0.500000 0.661727
O O10 0.073815 0.371168 0.599024
O O11 0.000000 0.372035 0.500000
O O12 0.926184 0.371168 0.894284
O O13 0.353321 0.130644 0.293357
O O14 0.371584 0.000000 0.401626
O O15 0.128416 0.500000 0.887962
O O16 0.221495 0.396834 0.803935
O O17 0.897241 0.000000 0.994029
#
# Coordination Sequence:
#
# PCOD8099875 Si02
#       7
#     8   8   8   8   8   8   8
#     4  11  24  39  54  80 117 155 192 233 286 344
#     4   9  19  38  64  91 116 145 188 243 297 349
#     4   9  17  31  53  81 111 141 176 221 272 325
#     4  10  20  35  57  83 110 144 189 236 279 331
#     4  10  20  35  57  83 110 144 189 236 279 331
#     4  11  24  39  54  80 117 155 192 233 286 344
#     4   9  19  38  64  91 116 145 188 243 297 349
#
# _framework density 20.467328999999999
#
# number of rings (size 3 to 8) (size 9 to 14) (size 15 to 20)
#    0.000    2.143    0.000    3.857    0.000   10.286 
#    2.571    1.429    0.000    0.000    0.000    0.000 
#    0.000    0.000    0.000    0.000    0.000    0.000 
#
# Total GULP energy -347263.218511 kJ/mol
# GULP energy per Si atom -12402.257804 kJ/mol
# Density = 2.042074 g / cm^3
# Si number density = 20.467329 Si / 1000 Ang^3
#
#
#
# Elastic Constant Matrix: (Units=GPa)
#
#
# Indices 1 2 3 4 5 6 
#
# 1 161.0809 39.7532 83.4131 0.0000 4.6496 0.0000
# 2 39.7532 41.0757 39.5730 0.0000 4.4274 0.0000
# 3 83.4131 39.5730 160.6990 0.0000 4.7965 0.0000
# 4 0.0000 0.0000 0.0000 22.9563 0.0000 -0.9058
# 5 4.6496 4.4274 4.7965 0.0000 35.1471 0.0000
# 6 0.0000 0.0000 0.0000 -0.9058 0.0000 22.9193
#
#
#
# Elastic Compliance Matrix: (Units=1/GPa)
#
#
# Indices 1 2 3 4 5 6 
#
# 1 0.009434 -0.005780 -0.003472 0.000000 -0.000046 0.000000
# 2 -0.005780 0.035769 -0.005720 0.000000 -0.002960 0.000000
# 3 -0.003472 -0.005720 0.009437 0.000000 -0.000108 0.000000
# 4 0.000000 0.000000 0.000000 0.043629 0.000000 0.001724
# 5 -0.000046 -0.002960 -0.000108 0.000000 0.028846 0.000000
# 6 0.000000 0.000000 0.000000 0.001724 0.000000 0.043700
#
#
# Mechanical properties :
#
#
# Convention : Reuss Voigt Hill
#
# Bulk Modulus (GPa) = 40.49273 76.48158 58.48716
# Shear Modulus (GPa) = 23.92473 29.54562 26.73517
#
# Velocity S-wave (km/s) = 3.42266 3.80353 3.61811
# Velocity P-wave (km/s) = 5.95370 7.53246 6.78912
#
# Compressibility (1/GPa) = 0.02469579
#
# Stress axis : x y z
#
# Youngs Moduli (GPa) = 106.00218 27.95738 105.96918
#
# Poissons Ratio (x) = 0.16160 0.36792
# Poissons Ratio (y) = 0.61270 0.60610
# Poissons Ratio (z) = 0.36804 0.15991
#
# Static dielectric constant tensor:
#      x y z
#    x 3.843360 0.000000 0.054080 
#    y 0.000000 3.275160 0.000000 
#    z 0.054080 0.000000 3.841160 
# 
# 
# High freq. dielectric constant tensor:
#      x y z
#    x 1.812090 0.000000 -0.001390 
#    y 0.000000 1.762910 0.000000 
#    z -0.001390 0.000000 1.812150 
# 
# From -- ./inp_files/105971.got.cif
#   From: 2010.06.25/outbox.cif.g09.slc.cpg/sg12_53_cif.got.tgz:105971.got - 2010.06.28 00:19:55.
