data_PCOD8099943
_publ_section_title
;
Structure prediction by ZEFSAII (Michael W. Deem and Ramdas Pophale) SiO2 
 PCOD8099943
Probable space group: C 2/M
;
_chemical_formula_sum "Si O2"
_cell_formula_units_Z 64
_cell_length_a 18.664584
_cell_length_b 8.752661
_cell_length_c 21.117231
_cell_angle_alpha 90.000000
_cell_angle_beta 107.075461
_cell_angle_gamma 90.000000
_cell_volume 3297.740090
_symmetry_space_group_name_H-M "C 2/M"
_symmetry_group_IT_number 12
_symmetry_cell_setting 'monoclinic'
loop_
_space_group_symop_operation_xyz
x,y,z
-x,y,-z
-x,-y,-z
x,-y,z
1/2+x,1/2+y,z
1/2-x,1/2+y,-z
1/2-x,1/2-y,-z
1/2+x,1/2-y,z
loop_
_atom_site_type_symbol
_atom_site_label
_atom_site_fract_x
_atom_site_fract_y
_atom_site_fract_z
Si Si1 0.551944 0.819978 0.214306
Si Si2 0.171114 0.175600 0.159896
Si Si3 0.253083 0.321494 0.069442
Si Si4 0.125526 0.680192 0.362592
Si Si5 0.398031 0.676998 0.187497
Si Si6 0.074732 0.319894 0.485084
Si Si7 0.819919 0.674139 0.278546
Si Si8 0.294305 0.320477 0.402262
O O1 0.605785 0.780627 0.170246
O O2 0.585780 0.755013 0.289246
O O3 0.475662 0.732780 0.178537
O O4 0.538002 0.000000 0.213837
O O5 0.190743 0.237839 0.095655
O O6 0.240600 0.194842 0.224684
O O7 0.145495 0.000000 0.148189
O O8 0.234469 0.500000 0.061974
O O9 0.334947 0.289321 0.119037
O O10 0.250000 0.250000 0.000000
O O11 0.132821 0.500000 0.357398
O O12 0.075343 0.724726 0.410738
O O13 0.210192 0.746434 0.390364
O O14 0.400134 0.500000 0.206157
O O15 0.384740 0.773026 0.247861
O O16 0.076744 0.500000 0.495119
O O17 0.150857 0.254159 0.532967
O O18 0.000000 0.252692 0.500000
O O19 0.835409 0.500000 0.302840
O O20 0.823636 0.780989 0.340293
O O21 0.296271 0.500000 0.412923
#
# Coordination Sequence:
#
# PCOD8099943 Si02
#       8
#     8   8   8   8   8   8   8   8
#     4  11  21  36  59  86 121 158 195 239 293 350
#     4  10  20  36  59  88 120 152 195 241 285 341
#     4  10  21  39  64  90 122 159 197 237 284 341
#     4   9  20  37  56  80 111 151 191 235 293 348
#     4  10  22  38  57  87 123 155 189 237 291 337
#     4  10  22  39  57  78 109 148 194 245 296 357
#     4  10  20  35  57  84 111 148 194 237 287 349
#     4  11  21  36  57  80 111 146 190 243 294 351
#
# _framework density 19.407229999999998
#
# number of rings (size 3 to 8) (size 9 to 14) (size 15 to 20)
#    0.000    1.875    1.250    2.625    1.750    2.750 
#    0.000    2.500    0.000    3.750    0.000    0.000 
#    0.000    0.000    0.000    0.000    0.000    0.000 
#
# Total GULP energy -396901.714199 kJ/mol
# GULP energy per Si atom -12403.178569 kJ/mol
# Density = 1.936306 g / cm^3
# Si number density = 19.407230 Si / 1000 Ang^3
#
#
#
# Elastic Constant Matrix: (Units=GPa)
#
#
# Indices 1 2 3 4 5 6 
#
# 1 111.9764 27.0930 41.0151 0.0000 -11.5137 0.0000
# 2 27.0930 43.2268 29.2468 0.0000 -0.2426 0.0000
# 3 41.0151 29.2468 109.3944 0.0000 -17.1109 0.0000
# 4 0.0000 0.0000 0.0000 30.4486 0.0000 -0.2598
# 5 -11.5137 -0.2426 -17.1109 0.0000 22.6613 0.0000
# 6 0.0000 0.0000 0.0000 -0.2598 0.0000 31.3078
#
#
#
# Elastic Compliance Matrix: (Units=1/GPa)
#
#
# Indices 1 2 3 4 5 6 
#
# 1 0.011536 -0.005768 -0.002127 0.000000 0.004193 0.000000
# 2 -0.005768 0.031895 -0.007676 0.000000 -0.008385 0.000000
# 3 -0.002127 -0.007676 0.013391 0.000000 0.008948 0.000000
# 4 0.000000 0.000000 0.000000 0.032845 0.000000 0.000273
# 5 0.004193 -0.008385 0.008948 0.000000 0.052925 0.000000
# 6 0.000000 0.000000 0.000000 0.000273 0.000000 0.031943
#
#
# Mechanical properties :
#
#
# Convention : Reuss Voigt Hill
#
# Bulk Modulus (GPa) = 38.94144 51.03415 44.98779
# Shear Modulus (GPa) = 23.33848 28.03305 25.68576
#
# Velocity S-wave (km/s) = 3.47157 3.80473 3.64196
# Velocity P-wave (km/s) = 6.01482 6.75684 6.39660
#
# Compressibility (1/GPa) = 0.02567959
#
# Stress axis : x y z
#
# Youngs Moduli (GPa) = 86.68246 31.35242 74.67836
#
# Poissons Ratio (x) = 0.18083 0.15887
# Poissons Ratio (y) = 0.49995 0.57326
# Poissons Ratio (z) = 0.18441 0.24067
#
# Static dielectric constant tensor:
#      x y z
#    x 3.667990 0.000000 0.003710 
#    y 0.000000 3.470210 0.000000 
#    z 0.003710 0.000000 3.910300 
# 
# 
# High freq. dielectric constant tensor:
#      x y z
#    x 1.758400 0.000000 -0.011280 
#    y 0.000000 1.751190 0.000000 
#    z -0.011280 0.000000 1.751200 
# 
# From -- ./inp_files/314155.got.cif
#   From: 2010.06.25/outbox.cif.g09.slc.cpg/sg12_158_cif.got.tgz:314155.got - 2010.06.28 00:19:55.
