data_PCOD8099950
_publ_section_title
;
Structure prediction by ZEFSAII (Michael W. Deem and Ramdas Pophale) SiO2 
 PCOD8099950
Probable space group: C 2/M
;
_chemical_formula_sum "Si O2"
_cell_formula_units_Z 48
_cell_length_a 27.821315
_cell_length_b 8.962271
_cell_length_c 10.184896
_cell_angle_alpha 90.000000
_cell_angle_beta 90.224364
_cell_angle_gamma 90.000000
_cell_volume 2539.504544
_symmetry_space_group_name_H-M "C 2/M"
_symmetry_group_IT_number 12
_symmetry_cell_setting 'monoclinic'
loop_
_space_group_symop_operation_xyz
x,y,z
-x,y,-z
-x,-y,-z
x,-y,z
1/2+x,1/2+y,z
1/2-x,1/2+y,-z
1/2-x,1/2-y,-z
1/2+x,1/2-y,z
loop_
_atom_site_type_symbol
_atom_site_label
_atom_site_fract_x
_atom_site_fract_y
_atom_site_fract_z
Si Si1 0.225050 0.830858 0.116795
Si Si2 0.031304 0.675762 0.119404
Si Si3 0.471517 0.175506 0.368181
Si Si4 0.373849 0.678053 0.285841
Si Si5 0.276408 0.178301 0.377549
Si Si6 0.620933 0.670187 0.016221
O O1 0.243490 0.768909 0.255420
O O2 0.168529 0.809936 0.101938
O O3 0.241193 0.000000 0.104421
O O4 0.250000 0.750000 0.000000
O O5 0.035311 0.500000 0.113753
O O6 0.084148 0.739553 0.104749
O O7 0.006774 0.728935 0.252992
O O8 0.000000 0.740021 0.000000
O O9 0.500000 0.215917 0.500000
O O10 0.422185 0.267437 0.358476
O O11 0.459401 0.000000 0.358756
O O12 0.368965 0.500000 0.297109
O O13 0.329625 0.754949 0.360391
O O14 0.373913 0.731295 0.133077
O O15 0.250000 0.250000 0.500000
O O16 0.279521 0.000000 0.393141
O O17 0.604179 0.500000 0.007130
#
# Coordination Sequence:
#
# PCOD8099950 Si02
#       6
#     8   8   8   8   8   8
#     4  10  21  38  60  88 118 153 197 247 296 350
#     4  10  20  35  57  84 112 147 194 240 284 343
#     4  10  22  40  60  85 120 156 196 245 298 356
#     4  11  22  38  62  88 118 156 198 245 302 362
#     4  11  24  41  63  89 123 162 201 248 302 360
#     4  10  21  36  58  88 119 150 193 245 296 348
#
# _framework density 18.901325
#
# number of rings (size 3 to 8) (size 9 to 14) (size 15 to 20)
#    0.000    1.667    3.333    1.000    0.000    4.667 
#    0.000    3.333    0.000    0.000    0.000    0.000 
#    0.000    0.000    0.000    0.000    0.000    0.000 
#
# Total GULP energy -297625.064178 kJ/mol
# GULP energy per Si atom -12401.044341 kJ/mol
# Density = 1.885830 g / cm^3
# Si number density = 18.901325 Si / 1000 Ang^3
#
#
#
# Elastic Constant Matrix: (Units=GPa)
#
#
# Indices 1 2 3 4 5 6 
#
# 1 124.3522 57.0644 84.0110 0.0000 -13.2731 0.0000
# 2 57.0644 58.7913 50.7917 0.0000 -4.3449 0.0000
# 3 84.0110 50.7917 162.0613 0.0000 -5.8248 0.0000
# 4 0.0000 0.0000 0.0000 19.7261 0.0000 -6.7131
# 5 -13.2731 -4.3449 -5.8248 0.0000 37.5938 0.0000
# 6 0.0000 0.0000 0.0000 -6.7131 0.0000 38.3373
#
#
#
# Elastic Compliance Matrix: (Units=1/GPa)
#
#
# Indices 1 2 3 4 5 6 
#
# 1 0.017589 -0.012375 -0.005096 0.000000 0.003990 0.000000
# 2 -0.012375 0.032124 -0.003697 0.000000 -0.001229 0.000000
# 3 -0.005096 -0.003697 0.009946 0.000000 -0.000686 0.000000
# 4 0.000000 0.000000 0.000000 0.053907 0.000000 0.009439
# 5 0.003990 -0.001229 -0.000686 0.000000 0.027761 0.000000
# 6 0.000000 0.000000 0.000000 0.009439 0.000000 0.027737
#
#
# Mechanical properties :
#
#
# Convention : Reuss Voigt Hill
#
# Bulk Modulus (GPa) = 57.72648 80.99321 69.35985
# Shear Modulus (GPa) = 23.02287 29.35396 26.18841
#
# Velocity S-wave (km/s) = 3.49385 3.94510 3.72631
# Velocity P-wave (km/s) = 6.84714 7.98094 7.43568
#
# Compressibility (1/GPa) = 0.01732307
#
# Stress axis : x y z
#
# Youngs Moduli (GPa) = 56.85246 31.12939 100.53828
#
# Poissons Ratio (x) = 0.38522 0.51237
# Poissons Ratio (y) = 0.70355 0.37170
# Poissons Ratio (z) = 0.28974 0.11509
#
# Static dielectric constant tensor:
#      x y z
#    x 3.469460 0.000000 0.088140 
#    y 0.000000 3.447610 0.000000 
#    z 0.088140 0.000000 3.616740 
# 
# 
# High freq. dielectric constant tensor:
#      x y z
#    x 1.746800 0.000000 0.000910 
#    y 0.000000 1.731390 0.000000 
#    z 0.000910 0.000000 1.738100 
# 
# From -- ./inp_files/108663.got.cif
#   From: 2010.06.25/outbox.cif.g09.slc.cpg/sg12_55_cif.got.tgz:108663.got - 2010.06.28 00:19:55.
