data_PCOD8099694
_publ_section_title
;
Structure prediction by ZEFSAII (Michael W. Deem and Ramdas Pophale) SiO2 
 PCOD8099694
Probable space group: C 2/M
;
_chemical_formula_sum "Si O2"
_cell_formula_units_Z 56
_cell_length_a 13.606468
_cell_length_b 10.405043
_cell_length_c 24.226986
_cell_angle_alpha 90.000000
_cell_angle_beta 54.258660
_cell_angle_gamma 90.000000
_cell_volume 2783.966696
_symmetry_space_group_name_H-M "C 2/M"
_symmetry_group_IT_number 12
_symmetry_cell_setting 'monoclinic'
loop_
_space_group_symop_operation_xyz
x,y,z
-x,y,-z
-x,-y,-z
x,-y,z
1/2+x,1/2+y,z
1/2-x,1/2+y,-z
1/2-x,1/2-y,-z
1/2+x,1/2-y,z
loop_
_atom_site_type_symbol
_atom_site_label
_atom_site_fract_x
_atom_site_fract_y
_atom_site_fract_z
Si Si1 0.616804 0.854122 0.788262
Si Si2 0.126706 0.241246 0.110299
Si Si3 0.290102 0.356544 0.323573
Si Si4 0.612359 0.354796 0.996872
Si Si5 0.452213 0.352910 0.369350
Si Si6 0.654303 0.646520 0.221957
Si Si7 0.487715 0.853593 0.568350
O O1 0.477813 0.849945 0.854774
O O2 0.636595 0.752276 0.733219
O O3 0.707598 0.814213 0.808492
O O4 0.642796 0.000000 0.759411
O O5 0.261428 0.292957 0.061082
O O6 0.121804 0.167261 0.169230
O O7 0.094619 0.151485 0.068691
O O8 0.320828 0.500000 0.289854
O O9 0.328828 0.351427 0.374803
O O10 0.148753 0.330153 0.367035
O O11 0.619910 0.500000 0.974596
O O12 0.500000 0.289266 0.000000
O O13 0.478213 0.500000 0.381606
O O14 0.558581 0.290591 0.295705
O O15 0.433122 0.254281 0.426294
O O16 0.632819 0.500000 0.241213
O O17 0.500000 0.827161 0.500000
O O18 0.529460 0.000000 0.568710
#
# Coordination Sequence:
#
# PCOD8099694 Si02
#       7
#     8   8   8   8   8   8   8
#     4  11  22  36  57  87 119 146 189 245 290 341
#     4  11  21  37  59  83 113 152 191 238 294 346
#     4  10  21  38  59  84 117 156 194 234 291 354
#     4  10  22  39  57  81 114 150 194 239 284 345
#     4  10  20  37  59  85 117 153 198 239 283 352
#     4  10  20  35  56  84 116 152 190 235 293 351
#     4  10  22  40  60  86 121 158 198 243 291 343
#
# _framework density 20.115182999999998
#
# number of rings (size 3 to 8) (size 9 to 14) (size 15 to 20)
#    0.000    1.714    2.857    1.714    0.000    2.000 
#    0.000    1.429    0.000    6.857    0.000    0.000 
#    0.000    0.000    0.000    0.000    0.000    0.000 
#
# Total GULP energy -346981.218196 kJ/mol
# GULP energy per Si atom -12392.186364 kJ/mol
# Density = 2.006940 g / cm^3
# Si number density = 20.115183 Si / 1000 Ang^3
#
#
#
# Elastic Constant Matrix: (Units=GPa)
#
#
# Indices 1 2 3 4 5 6 
#
# 1 87.0740 20.5758 3.3875 0.0000 19.0346 0.0000
# 2 20.5758 76.2442 20.2061 0.0000 14.8026 0.0000
# 3 3.3875 20.2061 56.7178 0.0000 21.8043 0.0000
# 4 0.0000 0.0000 0.0000 25.5094 0.0000 6.0123
# 5 19.0346 14.8026 21.8043 0.0000 27.4887 0.0000
# 6 0.0000 0.0000 0.0000 6.0123 0.0000 25.1230
#
#
#
# Elastic Compliance Matrix: (Units=1/GPa)
#
#
# Indices 1 2 3 4 5 6 
#
# 1 0.014720 -0.002844 0.004983 0.000000 -0.012614 0.000000
# 2 -0.002844 0.015597 -0.004194 0.000000 -0.003103 0.000000
# 3 0.004983 -0.004194 0.027747 0.000000 -0.023202 0.000000
# 4 0.000000 0.000000 0.000000 0.041545 0.000000 -0.009942
# 5 -0.012614 -0.003103 -0.023202 0.000000 0.065188 0.000000
# 6 0.000000 0.000000 0.000000 -0.009942 0.000000 0.042183
#
#
# Mechanical properties :
#
#
# Convention : Reuss Voigt Hill
#
# Bulk Modulus (GPa) = 18.53378 34.26387 26.39883
# Shear Modulus (GPa) = 21.82693 27.34867 24.58780
#
# Velocity S-wave (km/s) = 3.29765 3.69128 3.50001
# Velocity P-wave (km/s) = 4.87167 5.93618 5.43007
#
# Compressibility (1/GPa) = 0.05395553
#
# Stress axis : x y z
#
# Youngs Moduli (GPa) = 67.93374 64.11412 36.03980
#
# Poissons Ratio (x) = 0.18235 -0.17960
# Poissons Ratio (y) = 0.19321 0.15114
# Poissons Ratio (z) = -0.33855 0.26888
#
# Static dielectric constant tensor:
#      x y z
#    x 4.045730 0.000000 -0.053740 
#    y 0.000000 3.504170 0.000000 
#    z -0.053740 0.000000 3.490260 
# 
# 
# High freq. dielectric constant tensor:
#      x y z
#    x 1.803040 0.000000 -0.002030 
#    y 0.000000 1.771460 0.000000 
#    z -0.002030 0.000000 1.772200 
# 
# From -- ./inp_files/304686.got.cif
#   From: 2010.06.25/outbox.cif.g09.slc.cpg/sg12_153_cif.got.tgz:304686.got - 2010.06.28 00:19:55.
