data_PCOD8099924
_publ_section_title
;
Structure prediction by ZEFSAII (Michael W. Deem and Ramdas Pophale) SiO2 
 PCOD8099924
Probable space group: C 2/M
;
_chemical_formula_sum "Si O2"
_cell_formula_units_Z 64
_cell_length_a 24.703480
_cell_length_b 8.891666
_cell_length_c 14.411571
_cell_angle_alpha 90.000000
_cell_angle_beta 90.379734
_cell_angle_gamma 90.000000
_cell_volume 3165.505447
_symmetry_space_group_name_H-M "C 2/M"
_symmetry_group_IT_number 12
_symmetry_cell_setting 'monoclinic'
loop_
_space_group_symop_operation_xyz
x,y,z
-x,y,-z
-x,-y,-z
x,-y,z
1/2+x,1/2+y,z
1/2-x,1/2+y,-z
1/2-x,1/2-y,-z
1/2+x,1/2-y,z
loop_
_atom_site_type_symbol
_atom_site_label
_atom_site_fract_x
_atom_site_fract_y
_atom_site_fract_z
Si Si1 0.412266 0.677150 0.490409
Si Si2 0.695851 0.828609 0.528631
Si Si3 0.058071 0.671868 0.329623
Si Si4 0.438660 0.827418 0.297082
Si Si5 0.856429 0.673503 0.141576
Si Si6 0.737396 0.167222 0.723293
Si Si7 0.662448 0.176172 0.216858
Si Si8 0.307412 0.677840 0.975200
O O1 0.414236 0.500000 0.486679
O O2 0.352767 0.735847 0.516422
O O3 0.449688 0.733814 0.575365
O O4 0.429348 0.738619 0.391392
O O5 0.750000 0.750000 0.500000
O O6 0.693772 0.817622 0.640197
O O7 0.693275 0.000000 0.493006
O O8 0.069092 0.500000 0.358910
O O9 0.107058 0.729988 0.265495
O O10 0.002124 0.686910 0.271486
O O11 0.403170 0.763394 0.211010
O O12 0.421628 0.000000 0.315380
O O13 0.868486 0.500000 0.117176
O O14 0.796744 0.693002 0.184302
O O15 0.854230 0.771250 0.048049
O O16 0.786393 0.286726 0.715546
O O17 0.763091 0.000000 0.722393
O O18 0.671276 0.271347 0.124410
O O19 0.661012 0.000000 0.193825
O O20 0.300542 0.500000 0.977001
O O21 0.250000 0.750000 0.000000
#
# Coordination Sequence:
#
# PCOD8099924 Si02
#       8
#     8   8   8   8   8   8   8   8
#     4  12  24  37  58  89 124 162 205 251 300 357
#     4  11  22  37  55  82 120 161 202 246 300 360
#     4  10  23  42  64  88 117 159 209 253 300 355
#     4  10  21  42  67  88 117 160 206 255 302 350
#     4  10  20  38  63  90 117 149 194 245 295 351
#     4  10  20  35  57  83 116 155 192 237 296 354
#     4  11  23  39  61  90 121 155 197 246 297 358
#     4  12  24  39  62  91 122 157 194 239 296 359
#
# _framework density 20.217939999999999
#
# number of rings (size 3 to 8) (size 9 to 14) (size 15 to 20)
#    0.000    1.250    2.500    4.125    0.000    6.500 
#    0.000    0.625    0.000    3.750    0.000    0.000 
#    0.000    0.000    0.000    0.000    0.000    0.000 
#
# Total GULP energy -396852.748142 kJ/mol
# GULP energy per Si atom -12401.648379 kJ/mol
# Density = 2.017192 g / cm^3
# Si number density = 20.217940 Si / 1000 Ang^3
#
#
#
# Elastic Constant Matrix: (Units=GPa)
#
#
# Indices 1 2 3 4 5 6 
#
# 1 100.1661 36.9028 33.7110 0.0000 14.6010 0.0000
# 2 36.9028 108.5816 46.0959 0.0000 6.7148 0.0000
# 3 33.7110 46.0959 86.5060 0.0000 14.0412 0.0000
# 4 0.0000 0.0000 0.0000 32.6292 0.0000 1.1804
# 5 14.6010 6.7148 14.0412 0.0000 27.0187 0.0000
# 6 0.0000 0.0000 0.0000 1.1804 0.0000 26.2534
#
#
#
# Elastic Compliance Matrix: (Units=1/GPa)
#
#
# Indices 1 2 3 4 5 6 
#
# 1 0.012617 -0.002887 -0.002608 0.000000 -0.004745 0.000000
# 2 -0.002887 0.012566 -0.005807 0.000000 0.001455 0.000000
# 3 -0.002608 -0.005807 0.016609 0.000000 -0.005779 0.000000
# 4 0.000000 0.000000 0.000000 0.030697 0.000000 -0.001380
# 5 -0.004745 0.001455 -0.005779 0.000000 0.042217 0.000000
# 6 0.000000 0.000000 0.000000 -0.001380 0.000000 0.038152
#
#
# Mechanical properties :
#
#
# Convention : Reuss Voigt Hill
#
# Bulk Modulus (GPa) = 52.11934 58.74144 55.43039
# Shear Modulus (GPa) = 27.49394 29.08320 28.28857
#
# Velocity S-wave (km/s) = 3.69165 3.79685 3.74462
# Velocity P-wave (km/s) = 6.63369 6.95260 6.79501
#
# Compressibility (1/GPa) = 0.01918674
#
# Stress axis : x y z
#
# Youngs Moduli (GPa) = 79.26124 79.57831 60.21002
#
# Poissons Ratio (x) = 0.22977 0.15702
# Poissons Ratio (y) = 0.22885 0.34965
# Poissons Ratio (z) = 0.20670 0.46212
#
# Static dielectric constant tensor:
#      x y z
#    x 3.781800 0.000000 0.226090 
#    y 0.000000 3.624900 0.000000 
#    z 0.226090 0.000000 3.922770 
# 
# 
# High freq. dielectric constant tensor:
#      x y z
#    x 1.789770 0.000000 0.011440 
#    y 0.000000 1.782230 0.000000 
#    z 0.011440 0.000000 1.788980 
# 
# From -- ./inp_files/238764.got.cif
#   From: 2010.06.25/outbox.cif.g09.slc.cpg/sg12_120_cif.got.tgz:238764.got - 2010.06.28 00:19:55.
