data_PCOD8099141
_publ_section_title
;
Structure prediction by ZEFSAII (Michael W. Deem and Ramdas Pophale) SiO2 
 PCOD8099141
Probable space group: C 2/M
;
_chemical_formula_sum "Si O2"
_cell_formula_units_Z 56
_cell_length_a 26.510397
_cell_length_b 8.985828
_cell_length_c 14.413061
_cell_angle_alpha 90.000000
_cell_angle_beta 56.700358
_cell_angle_gamma 90.000000
_cell_volume 2869.713441
_symmetry_space_group_name_H-M "C 2/M"
_symmetry_group_IT_number 12
_symmetry_cell_setting 'monoclinic'
loop_
_space_group_symop_operation_xyz
x,y,z
-x,y,-z
-x,-y,-z
x,-y,z
1/2+x,1/2+y,z
1/2-x,1/2+y,-z
1/2-x,1/2-y,-z
1/2+x,1/2-y,z
loop_
_atom_site_type_symbol
_atom_site_label
_atom_site_fract_x
_atom_site_fract_y
_atom_site_fract_z
Si Si1 0.463998 0.672092 0.186832
Si Si2 0.033840 0.324247 0.625564
Si Si3 0.894405 0.830435 0.960167
Si Si4 0.633507 0.671218 0.411316
Si Si5 0.252684 0.175245 0.397641
Si Si6 0.367999 0.824704 0.164258
Si Si7 0.590651 0.670665 0.258235
O O1 0.446347 0.500000 0.211621
O O2 0.443366 0.752093 0.301879
O O3 0.534420 0.695320 0.098314
O O4 0.428519 0.745130 0.137771
O O5 0.034951 0.500000 0.635111
O O6 0.079363 0.274502 0.499710
O O7 0.967195 0.272688 0.664778
O O8 0.877045 0.785966 0.871650
O O9 0.876582 0.000000 0.999723
O O10 0.857845 0.725309 0.067796
O O11 0.619838 0.500000 0.451354
O O12 0.695811 0.725746 0.393321
O O13 0.637646 0.689512 0.295255
O O14 0.250000 0.250000 0.500000
O O15 0.312002 0.228766 0.283255
O O16 0.253329 0.000000 0.411867
O O17 0.376276 0.000000 0.160031
O O18 0.567353 0.500000 0.272955
#
# Coordination Sequence:
#
# PCOD8099141 Si02
#       7
#     8   8   8   8   8   8   8
#     4  10  20  35  55  79 108 144 184 219 257 316
#     4  11  21  32  51  83 117 141 169 218 276 324
#     4   9  19  35  54  78 106 138 178 220 261 315
#     4  10  20  37  58  76 102 145 188 221 259 312
#     4  10  23  40  57  79 106 138 177 220 264 313
#     4  11  22  35  53  80 111 140 174 221 275 319
#     4   9  19  36  57  79 105 141 184 221 256 312
#
# _framework density 19.514143000000001
#
# number of rings (size 3 to 8) (size 9 to 14) (size 15 to 20)
#    0.000    2.000    0.000    4.714    0.000   10.857 
#    0.000    0.714    0.000    0.000    0.000    0.000 
#    0.000    0.000    0.000    0.000    0.000    0.000 
#
# Total GULP energy -347264.532767 kJ/mol
# GULP energy per Si atom -12402.304742 kJ/mol
# Density = 1.946973 g / cm^3
# Si number density = 19.514143 Si / 1000 Ang^3
#
#
#
# Elastic Constant Matrix: (Units=GPa)
#
#
# Indices 1 2 3 4 5 6 
#
# 1 98.1684 34.7484 53.1298 0.0000 26.6601 0.0000
# 2 34.7484 90.4192 52.9498 0.0000 8.0824 0.0000
# 3 53.1298 52.9498 135.2296 0.0000 23.5503 0.0000
# 4 0.0000 0.0000 0.0000 31.7504 0.0000 4.3588
# 5 26.6601 8.0824 23.5503 0.0000 26.8407 0.0000
# 6 0.0000 0.0000 0.0000 4.3588 0.0000 18.4352
#
#
#
# Elastic Compliance Matrix: (Units=1/GPa)
#
#
# Indices 1 2 3 4 5 6 
#
# 1 0.016443 -0.003499 -0.002868 0.000000 -0.012763 0.000000
# 2 -0.003499 0.015106 -0.005138 0.000000 0.003435 0.000000
# 3 -0.002868 -0.005138 0.011530 0.000000 -0.005721 0.000000
# 4 0.000000 0.000000 0.000000 0.032552 0.000000 -0.007697
# 5 -0.012763 0.003435 -0.005721 0.000000 0.053919 0.000000
# 6 0.000000 0.000000 0.000000 -0.007697 0.000000 0.056064
#
#
# Mechanical properties :
#
#
# Convention : Reuss Voigt Hill
#
# Bulk Modulus (GPa) = 49.82805 67.27479 58.55142
# Shear Modulus (GPa) = 23.22191 27.60453 25.41322
#
# Velocity S-wave (km/s) = 3.45339 3.76519 3.61265
# Velocity P-wave (km/s) = 6.44134 7.31108 6.88995
#
# Compressibility (1/GPa) = 0.02006902
#
# Stress axis : x y z
#
# Youngs Moduli (GPa) = 60.81557 66.19739 86.73250
#
# Poissons Ratio (x) = 0.23163 0.24871
# Poissons Ratio (y) = 0.21280 0.44567
# Poissons Ratio (z) = 0.17439 0.34015
#
# Static dielectric constant tensor:
#      x y z
#    x 3.521840 0.000000 0.238690 
#    y 0.000000 3.465390 0.000000 
#    z 0.238690 0.000000 3.635500 
# 
# 
# High freq. dielectric constant tensor:
#      x y z
#    x 1.747520 0.000000 0.023650 
#    y 0.000000 1.755460 0.000000 
#    z 0.023650 0.000000 1.762600 
# 
# From -- ./inp_files/238274.got.cif
#   From: 2010.06.25/outbox.cif.g09.slc.cpg/sg12_120_cif.got.tgz:238274.got - 2010.06.28 00:19:55.
