data_PCOD8099065
_publ_section_title
;
Structure prediction by ZEFSAII (Michael W. Deem and Ramdas Pophale) SiO2 
 PCOD8099065
Probable space group: C 2/M
;
_chemical_formula_sum "Si O2"
_cell_formula_units_Z 64
_cell_length_a 18.791731
_cell_length_b 8.818668
_cell_length_c 27.889247
_cell_angle_alpha 90.000000
_cell_angle_beta 47.883178
_cell_angle_gamma 90.000000
_cell_volume 3428.317901
_symmetry_space_group_name_H-M "C 2/M"
_symmetry_group_IT_number 12
_symmetry_cell_setting 'monoclinic'
loop_
_space_group_symop_operation_xyz
x,y,z
-x,y,-z
-x,-y,-z
x,-y,z
1/2+x,1/2+y,z
1/2-x,1/2+y,-z
1/2-x,1/2-y,-z
1/2+x,1/2-y,z
loop_
_atom_site_type_symbol
_atom_site_label
_atom_site_fract_x
_atom_site_fract_y
_atom_site_fract_z
Si Si1 0.029923 0.325995 0.633395
Si Si2 0.260684 0.174896 0.444250
Si Si3 0.336522 0.674836 0.148554
Si Si4 0.478211 0.822284 0.902537
Si Si5 0.921981 0.322582 0.497720
Si Si6 0.132622 0.823580 0.129274
Si Si7 0.360350 0.675533 0.763661
Si Si8 0.669283 0.675744 0.960346
O O1 0.995802 0.500000 0.652840
O O2 0.127546 0.302339 0.620694
O O3 0.045448 0.281876 0.570822
O O4 0.950055 0.215479 0.690133
O O5 0.250000 0.250000 0.500000
O O6 0.182853 0.249612 0.443452
O O7 0.235118 0.000000 0.460563
O O8 0.350681 0.500000 0.156128
O O9 0.410566 0.777821 0.144319
O O10 0.230259 0.725602 0.211858
O O11 0.354432 0.702868 0.084349
O O12 0.443569 0.775098 0.865509
O O13 0.464328 0.000000 0.917061
O O14 0.421398 0.729567 0.968551
O O15 0.909431 0.500000 0.510684
O O16 0.000000 0.257436 0.500000
O O17 0.113487 0.786525 0.193353
O O18 0.239100 0.774007 0.065390
O O19 0.119873 0.000000 0.122886
O O20 0.333985 0.500000 0.769669
O O21 0.690747 0.500000 0.961317
#
# Coordination Sequence:
#
# PCOD8099065 Si02
#       8
#     8   8   8   8   8   8   8   8
#     4   9  18  33  54  77 103 139 177 213 254 302
#     4   9  17  30  50  77 106 137 173 210 250 295
#     4  10  21  37  56  76 103 138 173 213 260 311
#     4  12  23  34  52  78 106 134 168 214 265 314
#     4   9  18  33  53  80 113 144 173 209 255 302
#     4  10  21  37  54  74 102 134 172 217 262 308
#     4  10  21  37  57  78 100 134 178 217 255 306
#     4  10  20  35  55  78 103 134 171 210 260 318
#
# _framework density 18.668047999999999
#
# number of rings (size 3 to 8) (size 9 to 14) (size 15 to 20)
#    0.000    2.125    0.000    4.500    0.000    7.250 
#    0.000    1.250    0.000    4.500    0.000    0.000 
#    0.000    0.000    0.000    0.000    0.000    0.000 
#
# Total GULP energy -396833.765117 kJ/mol
# GULP energy per Si atom -12401.055160 kJ/mol
# Density = 1.862556 g / cm^3
# Si number density = 18.668048 Si / 1000 Ang^3
#
#
#
# Elastic Constant Matrix: (Units=GPa)
#
#
# Indices 1 2 3 4 5 6 
#
# 1 117.9213 37.6341 34.8213 0.0001 -22.5605 0.0014
# 2 37.6341 70.4853 25.2218 0.0000 -4.5589 0.0024
# 3 34.8213 25.2218 74.8693 0.0000 -13.0719 0.0003
# 4 0.0001 0.0000 0.0000 30.8769 -0.0001 -7.4496
# 5 -22.5605 -4.5589 -13.0719 -0.0001 17.2294 -0.0001
# 6 0.0014 0.0024 0.0003 -7.4496 -0.0001 32.4762
#
#
#
# Elastic Compliance Matrix: (Units=1/GPa)
#
#
# Indices 1 2 3 4 5 6 
#
# 1 0.013723 -0.005697 -0.001832 0.000000 0.015072 0.000000
# 2 -0.005697 0.018497 -0.004645 0.000000 -0.006089 -0.000001
# 3 -0.001832 -0.004645 0.017452 0.000000 0.009613 0.000000
# 4 0.000000 0.000000 0.000000 0.034284 0.000000 0.007864
# 5 0.015072 -0.006089 0.009613 0.000000 0.083457 0.000000
# 6 0.000000 -0.000001 0.000000 0.007864 0.000000 0.032596
#
#
# Mechanical properties :
#
#
# Convention : Reuss Voigt Hill
#
# Bulk Modulus (GPa) = 39.48694 50.95894 45.22294
# Shear Modulus (GPa) = 21.47792 27.15641 24.31716
#
# Velocity S-wave (km/s) = 3.39561 3.81819 3.61308
# Velocity P-wave (km/s) = 6.04745 6.84067 6.45625
#
# Compressibility (1/GPa) = 0.02532483
#
# Stress axis : x y z
#
# Youngs Moduli (GPa) = 72.87206 54.06216 57.30084
#
# Poissons Ratio (x) = 0.30797 0.10497
# Poissons Ratio (y) = 0.41512 0.26616
# Poissons Ratio (z) = 0.13349 0.25112
#
# Static dielectric constant tensor:
#      x y z
#    x 3.648010 0.000000 -0.228550 
#    y 0.000000 3.509370 0.000000 
#    z -0.228550 0.000000 3.244540 
# 
# 
# High freq. dielectric constant tensor:
#      x y z
#    x 1.725620 0.000000 -0.019590 
#    y 0.000000 1.734700 0.000000 
#    z -0.019590 0.000000 1.701780 
# 
# From -- ./inp_files/378167.got.cif
#   From: 2010.06.25/outbox.cif.g09.slc.cpg/sg12_190_cif.got.tgz:378167.got - 2010.06.28 00:19:55.
