data_PCOD8099537
_publ_section_title
;
Structure prediction by ZEFSAII (Michael W. Deem and Ramdas Pophale) SiO2 
 PCOD8099537
Probable space group: C 2/M
;
_chemical_formula_sum "Si O2"
_cell_formula_units_Z 48
_cell_length_a 24.986123
_cell_length_b 13.700430
_cell_length_c 14.091428
_cell_angle_alpha 90.000000
_cell_angle_beta 149.740617
_cell_angle_gamma 90.000000
_cell_volume 2430.780475
_symmetry_space_group_name_H-M "C 2/M"
_symmetry_group_IT_number 12
_symmetry_cell_setting 'monoclinic'
loop_
_space_group_symop_operation_xyz
x,y,z
-x,y,-z
-x,-y,-z
x,-y,z
1/2+x,1/2+y,z
1/2-x,1/2+y,-z
1/2-x,1/2-y,-z
1/2+x,1/2-y,z
loop_
_atom_site_type_symbol
_atom_site_label
_atom_site_fract_x
_atom_site_fract_y
_atom_site_fract_z
Si Si1 0.742752 0.731542 0.206076
Si Si2 0.381426 0.776730 0.607958
Si Si3 0.590786 0.393619 0.075902
Si Si4 0.100540 0.612494 0.910842
Si Si5 0.713764 0.394292 0.445180
Si Si6 0.384433 0.889190 0.288926
O O1 0.821201 0.726394 0.415094
O O2 0.632783 0.672270 0.054762
O O3 0.798298 0.683719 0.200428
O O4 0.702769 0.841395 0.121449
O O5 0.496053 0.823971 0.772066
O O6 0.380113 0.663845 0.642101
O O7 0.323750 0.834087 0.607005
O O8 0.549251 0.500000 0.974856
O O9 0.688055 0.411190 0.295833
O O10 0.500000 0.340512 0.000000
O O11 0.084843 0.500000 0.919653
O O12 0.124932 0.617234 0.837562
O O13 0.730357 0.500000 0.520282
O O14 0.500000 0.854858 0.500000
O O15 0.362905 0.000000 0.291780
#
# Coordination Sequence:
#
# PCOD8099537 Si02
#       6
#     8   8   8   8   8   8
#     4  11  21  35  58  85 114 149 190 237 285 337
#     4  10  20  35  56  81 115 157 194 232 286 343
#     4   9  17  30  51  79 110 142 185 235 278 328
#     4  11  23  38  58  85 117 151 190 236 288 345
#     4   9  18  32  52  78 111 151 195 237 279 332
#     4  10  20  37  62  87 111 143 191 242 287 338
#
# _framework density 19.746744
#
# number of rings (size 3 to 8) (size 9 to 14) (size 15 to 20)
#    0.000    2.000    1.667    2.500    0.000    2.000 
#    0.000    0.833    0.000   12.000    0.000    0.000 
#    0.000    0.000    0.000    0.000    0.000    0.000 
#
# Total GULP energy -297363.651832 kJ/mol
# GULP energy per Si atom -12390.152160 kJ/mol
# Density = 1.970180 g / cm^3
# Si number density = 19.746744 Si / 1000 Ang^3
#
#
#
# Elastic Constant Matrix: (Units=GPa)
#
#
# Indices 1 2 3 4 5 6 
#
# 1 98.6890 59.0333 16.3656 0.0000 18.0781 0.0000
# 2 59.0333 143.6593 33.7023 0.0000 13.1391 0.0000
# 3 16.3656 33.7023 53.3963 0.0000 13.9421 0.0000
# 4 0.0000 0.0000 0.0000 18.4687 0.0000 1.8427
# 5 18.0781 13.1391 13.9421 0.0000 22.0454 0.0000
# 6 0.0000 0.0000 0.0000 1.8427 0.0000 28.5825
#
#
#
# Elastic Compliance Matrix: (Units=1/GPa)
#
#
# Indices 1 2 3 4 5 6 
#
# 1 0.015083 -0.005648 0.001549 0.000000 -0.009982 0.000000
# 2 -0.005648 0.010355 -0.005273 0.000000 0.001795 0.000000
# 3 0.001549 -0.005273 0.025265 0.000000 -0.014105 0.000000
# 4 0.000000 0.000000 0.000000 0.054496 0.000000 -0.003513
# 5 -0.009982 0.001795 -0.014105 0.000000 0.061397 0.000000
# 6 0.000000 0.000000 0.000000 -0.003513 0.000000 0.035213
#
#
# Mechanical properties :
#
#
# Convention : Reuss Voigt Hill
#
# Bulk Modulus (GPa) = 31.29277 57.10522 44.19900
# Shear Modulus (GPa) = 21.62563 26.26223 23.94393
#
# Velocity S-wave (km/s) = 3.31289 3.65081 3.48595
# Velocity P-wave (km/s) = 5.52405 6.83760 6.21562
#
# Compressibility (1/GPa) = 0.03195626
#
# Stress axis : x y z
#
# Youngs Moduli (GPa) = 66.29846 96.57243 39.58115
#
# Poissons Ratio (x) = 0.54549 -0.06129
# Poissons Ratio (y) = 0.37448 0.20872
# Poissons Ratio (z) = -0.10267 0.50926
#
# Static dielectric constant tensor:
#      x y z
#    x 3.525860 0.000000 0.056120 
#    y 0.000000 3.905710 0.000000 
#    z 0.056120 0.000000 3.396400 
# 
# 
# High freq. dielectric constant tensor:
#      x y z
#    x 1.764530 0.000000 0.009560 
#    y 0.000000 1.773480 0.000000 
#    z 0.009560 0.000000 1.751470 
# 
# From -- ./inp_files/167620.got.cif
#   From: 2010.06.25/outbox.cif.g09.slc.cpg/sg12_84_cif.got.tgz:167620.got - 2010.06.28 00:19:55.
