data_PCOD8099007
_publ_section_title
;
Structure prediction by ZEFSAII (Michael W. Deem and Ramdas Pophale) SiO2 
 PCOD8099007
Probable space group: C 2/M
;
_chemical_formula_sum "Si O2"
_cell_formula_units_Z 40
_cell_length_a 14.546253
_cell_length_b 10.621042
_cell_length_c 14.105239
_cell_angle_alpha 90.000000
_cell_angle_beta 67.883976
_cell_angle_gamma 90.000000
_cell_volume 2018.869360
_symmetry_space_group_name_H-M "C 2/M"
_symmetry_group_IT_number 12
_symmetry_cell_setting 'monoclinic'
loop_
_space_group_symop_operation_xyz
x,y,z
-x,y,-z
-x,-y,-z
x,-y,z
1/2+x,1/2+y,z
1/2-x,1/2+y,-z
1/2-x,1/2-y,-z
1/2+x,1/2-y,z
loop_
_atom_site_type_symbol
_atom_site_label
_atom_site_fract_x
_atom_site_fract_y
_atom_site_fract_z
Si Si1 0.401564 0.000000 0.475861
Si Si2 0.720015 0.803289 0.370890
Si Si3 0.429897 0.500000 0.116634
Si Si4 0.993168 0.500000 0.232810
Si Si5 0.059089 0.769175 0.747120
Si Si6 0.791909 0.500000 0.784910
Si Si7 0.945121 0.855336 0.614603
O O1 0.500000 0.000000 0.500000
O O2 0.332448 0.122870 0.521824
O O3 0.441422 0.000000 0.355002
O O4 0.835498 0.784588 0.346749
O O5 0.701961 0.878276 0.281884
O O6 0.670096 0.668840 0.365977
O O7 0.453943 0.375962 0.168781
O O8 0.316212 0.500000 0.122022
O O9 0.500000 0.500000 0.000000
O O10 0.113639 0.500000 0.181847
O O11 0.955216 0.630482 0.198702
O O12 0.978044 0.779451 0.695142
O O13 0.000000 0.803962 0.500000
O O14 0.967293 0.000000 0.625427
#
# Coordination Sequence:
#
# PCOD8099007 Si02
#       7
#     4   8   4   4   8   4   8
#     4  11  18  32  56  79 119 174 211 230 279 345
#     4  10  20  35  54  81 122 168 209 238 275 346
#     4  10  23  47  70  84 109 154 200 252 317 386
#     4  12  21  34  60  90 122 154 201 251 297 341
#     4  11  23  40  61  89 122 160 204 250 299 356
#     4   9  18  36  63  80 110 151 194 243 297 357
#     4  11  22  34  52  83 128 166 200 242 282 335
#
# _framework density 19.813071000000001
#
# number of rings (size 3 to 8) (size 9 to 14) (size 15 to 20)
#    0.000    1.400    5.000    2.400    1.400    3.200 
#    0.000    1.500    0.000    0.000    0.000    0.000 
#    0.000    0.000    0.000    0.000    0.000    0.000 
#
# Total GULP energy -247848.548227 kJ/mol
# GULP energy per Si atom -12392.427411 kJ/mol
# Density = 1.976798 g / cm^3
# Si number density = 19.813071 Si / 1000 Ang^3
#
#
#
# Elastic Constant Matrix: (Units=GPa)
#
#
# Indices 1 2 3 4 5 6 
#
# 1 87.3112 34.2247 40.5252 0.0000 -13.2051 0.0000
# 2 34.2247 126.5586 30.9763 0.0000 -0.8053 0.0000
# 3 40.5252 30.9763 80.8515 0.0000 -17.5223 0.0000
# 4 0.0000 0.0000 0.0000 21.9303 0.0000 -8.2462
# 5 -13.2051 -0.8053 -17.5223 0.0000 22.3409 0.0000
# 6 0.0000 0.0000 0.0000 -8.2462 0.0000 33.5734
#
#
#
# Elastic Compliance Matrix: (Units=1/GPa)
#
#
# Indices 1 2 3 4 5 6 
#
# 1 0.016036 -0.002858 -0.005916 0.000000 0.004735 0.000000
# 2 -0.002858 0.009374 -0.002954 0.000000 -0.003668 0.000000
# 3 -0.005916 -0.002954 0.018897 0.000000 0.011217 0.000000
# 4 0.000000 0.000000 0.000000 0.050239 0.000000 0.012340
# 5 0.004735 -0.003668 0.011217 0.000000 0.056225 0.000000
# 6 0.000000 0.000000 0.000000 0.012340 0.000000 0.032816
#
#
# Mechanical properties :
#
#
# Convention : Reuss Voigt Hill
#
# Bulk Modulus (GPa) = 47.96264 56.24152 52.10208
# Shear Modulus (GPa) = 23.36513 28.16859 25.76686
#
# Velocity S-wave (km/s) = 3.43779 3.77466 3.61015
# Velocity P-wave (km/s) = 6.32598 6.88804 6.61298
#
# Compressibility (1/GPa) = 0.02084956
#
# Stress axis : x y z
#
# Youngs Moduli (GPa) = 62.36003 106.67733 52.91967
#
# Poissons Ratio (x) = 0.30492 0.31309
# Poissons Ratio (y) = 0.17824 0.15631
# Poissons Ratio (z) = 0.36895 0.31510
#
# Static dielectric constant tensor:
#      x y z
#    x 3.808480 0.000000 -0.184550 
#    y 0.000000 4.413170 0.000000 
#    z -0.184550 0.000000 3.106240 
# 
# 
# High freq. dielectric constant tensor:
#      x y z
#    x 1.779790 0.000000 -0.014390 
#    y 0.000000 1.791620 0.000000 
#    z -0.014390 0.000000 1.709420 
# 
# From -- ./inp_files/140870.got.cif
#   From: 2010.06.25/outbox.cif.g09.slc.cpg/sg12_71_cif.got.tgz:140870.got - 2010.06.28 00:19:55.
