data_PCOD8099720
_publ_section_title
;
Structure prediction by ZEFSAII (Michael W. Deem and Ramdas Pophale) SiO2 
 PCOD8099720
Probable space group: C 2/M
;
_chemical_formula_sum "Si O2"
_cell_formula_units_Z 64
_cell_length_a 31.907373
_cell_length_b 13.968272
_cell_length_c 7.988291
_cell_angle_alpha 90.000000
_cell_angle_beta 123.155317
_cell_angle_gamma 90.000000
_cell_volume 2980.658388
_symmetry_space_group_name_H-M "C 2/M"
_symmetry_group_IT_number 12
_symmetry_cell_setting 'monoclinic'
loop_
_space_group_symop_operation_xyz
x,y,z
-x,y,-z
-x,-y,-z
x,-y,z
1/2+x,1/2+y,z
1/2-x,1/2+y,-z
1/2-x,1/2-y,-z
1/2+x,1/2-y,z
loop_
_atom_site_type_symbol
_atom_site_label
_atom_site_fract_x
_atom_site_fract_y
_atom_site_fract_z
Si Si1 0.590845 0.795530 0.883537
Si Si2 0.133849 0.103368 0.621268
Si Si3 0.995864 0.391805 0.796491
Si Si4 0.397242 0.200660 0.477631
Si Si5 0.188006 0.385439 0.228382
Si Si6 0.198875 0.610096 0.620110
Si Si7 0.753160 0.888467 0.058775
Si Si8 0.450011 0.604272 0.288369
O O1 0.547773 0.873976 0.815375
O O2 0.611352 0.797747 0.739938
O O3 0.566204 0.690510 0.872632
O O4 0.636602 0.824954 0.102549
O O5 0.115110 0.193616 0.470458
O O6 0.188253 0.132381 0.809269
O O7 0.096365 0.090141 0.691157
O O8 0.136542 0.000000 0.529500
O O9 0.979153 0.500000 0.724741
O O10 0.954497 0.321013 0.635287
O O11 0.000000 0.370120 0.000000
O O12 0.360462 0.123708 0.479575
O O13 0.176681 0.500000 0.197190
O O14 0.212161 0.355459 0.460824
O O15 0.226213 0.350679 0.168356
O O16 0.212321 0.500000 0.659537
O O17 0.230477 0.661945 0.839472
O O18 0.741215 0.000000 0.022853
O O19 0.500000 0.633846 0.500000
O O20 0.458846 0.500000 0.217319
#
# Coordination Sequence:
#
# PCOD8099720 Si02
#       8
#     8   8   8   8   8   8   8   8
#     4  11  20  34  57  89 118 152 198 245 294 354
#     4   9  19  36  61  88 114 151 200 252 299 347
#     4  11  24  39  57  84 121 158 193 238 292 357
#     4  11  21  35  58  86 115 155 198 244 295 356
#     4  10  20  35  57  86 124 163 197 243 298 357
#     4  10  20  35  56  84 121 162 200 242 297 356
#     4   9  18  36  60  85 116 159 206 246 294 354
#     4   9  18  35  59  87 114 147 197 248 298 354
#
# _framework density 21.471765999999999
#
# number of rings (size 3 to 8) (size 9 to 14) (size 15 to 20)
#    0.000    2.000    1.250    3.375    0.000    4.500 
#    0.000    0.625    5.500    3.750    0.000    0.000 
#    0.000    0.000    0.000    0.000    0.000    0.000 
#
# Total GULP energy -396503.864080 kJ/mol
# GULP energy per Si atom -12390.745752 kJ/mol
# Density = 2.142289 g / cm^3
# Si number density = 21.471766 Si / 1000 Ang^3
#
#
#
# Elastic Constant Matrix: (Units=GPa)
#
#
# Indices 1 2 3 4 5 6 
#
# 1 102.4113 24.5832 66.6376 0.0000 14.2213 0.0000
# 2 24.5832 54.2654 36.3569 0.0000 -11.7735 0.0000
# 3 66.6376 36.3569 92.0065 0.0000 -3.4512 0.0000
# 4 0.0000 0.0000 0.0000 109.4005 0.0000 -9.1064
# 5 14.2213 -11.7735 -3.4512 0.0000 35.2620 0.0000
# 6 0.0000 0.0000 0.0000 -9.1064 0.0000 26.2245
#
#
#
# Elastic Compliance Matrix: (Units=1/GPa)
#
#
# Indices 1 2 3 4 5 6 
#
# 1 0.021781 -0.001896 -0.015436 0.000000 -0.010928 0.000000
# 2 -0.001896 0.027328 -0.009088 0.000000 0.009000 0.000000
# 3 -0.015436 -0.009088 0.025855 0.000000 0.005722 0.000000
# 4 0.000000 0.000000 0.000000 0.009413 0.000000 0.003269
# 5 -0.010928 0.009000 0.005722 0.000000 0.036332 0.000000
# 6 0.000000 0.000000 0.000000 0.003269 0.000000 0.039267
#
#
# Mechanical properties :
#
#
# Convention : Reuss Voigt Hill
#
# Bulk Modulus (GPa) = 45.20103 55.98207 50.59155
# Shear Modulus (GPa) = 22.70747 42.25109 32.47928
#
# Velocity S-wave (km/s) = 3.25553 4.44075 3.89350
# Velocity P-wave (km/s) = 5.93535 7.24035 6.62008
#
# Compressibility (1/GPa) = 0.02212339
#
# Stress axis : x y z
#
# Youngs Moduli (GPa) = 45.91053 36.59191 38.67785
#
# Poissons Ratio (x) = 0.06939 0.59704
# Poissons Ratio (y) = 0.08707 0.35150
# Poissons Ratio (z) = 0.70869 0.33254
#
# Static dielectric constant tensor:
#      x y z
#    x 3.777840 0.000000 0.015670 
#    y 0.000000 4.437490 0.000000 
#    z 0.015670 0.000000 3.806790 
# 
# 
# High freq. dielectric constant tensor:
#      x y z
#    x 1.837560 0.000000 0.021500 
#    y 0.000000 1.852770 0.000000 
#    z 0.021500 0.000000 1.819060 
# 
# From -- ./inp_files/112049.got.cif
#   From: 2010.06.25/outbox.cif.g09.slc.cpg/sg12_57_cif.got.tgz:112049.got - 2010.06.28 00:19:55.
