data_PCOD8099773
_publ_section_title
;
Structure prediction by ZEFSAII (Michael W. Deem and Ramdas Pophale) SiO2 
 PCOD8099773
Probable space group: C 2/M
;
_chemical_formula_sum "Si O2"
_cell_formula_units_Z 36
_cell_length_a 17.030262
_cell_length_b 18.361610
_cell_length_c 10.085404
_cell_angle_alpha 90.000000
_cell_angle_beta 144.058246
_cell_angle_gamma 90.000000
_cell_volume 1851.125036
_symmetry_space_group_name_H-M "C 2/M"
_symmetry_group_IT_number 12
_symmetry_cell_setting 'monoclinic'
loop_
_space_group_symop_operation_xyz
x,y,z
-x,y,-z
-x,-y,-z
x,-y,z
1/2+x,1/2+y,z
1/2-x,1/2+y,-z
1/2-x,1/2-y,-z
1/2+x,1/2-y,z
loop_
_atom_site_type_symbol
_atom_site_label
_atom_site_fract_x
_atom_site_fract_y
_atom_site_fract_z
Si Si1 0.247805 0.207883 0.290242
Si Si2 0.145267 0.000000 0.770531
Si Si3 0.087986 0.854402 0.827232
Si Si4 0.500000 0.247149 0.500000
Si Si5 0.782651 0.143263 0.471101
Si Si6 0.342259 0.000000 0.796639
O O1 0.402295 0.197698 0.455581
O O2 0.223891 0.157514 0.382516
O O3 0.221255 0.291533 0.297781
O O4 0.147548 0.182044 0.039630
O O5 0.161545 0.071175 0.885586
O O6 0.000000 0.000000 0.500000
O O7 0.272118 0.000000 0.845283
O O8 0.100354 0.796265 0.725404
O O9 0.933581 0.872647 0.636326
O O10 0.699127 0.071500 0.337301
O O11 0.500000 0.000000 0.000000
#
# Coordination Sequence:
#
# PCOD8099773 Si02
#       6
#     8   4   8   4   8   4
#     4  10  22  36  61  90 122 158 201 256 306 352
#     4  12  20  41  65  85 121 159 201 252 293 359
#     4  11  20  37  65  88 114 163 212 243 301 358
#     4  10  20  35  56  87 126 156 200 252 300 367
#     4  10  22  41  59  87 124 157 204 256 295 368
#     4  12  26  41  63  89 121 164 196 247 317 366
#
# _framework density 19.447631000000001
#
# number of rings (size 3 to 8) (size 9 to 14) (size 15 to 20)
#    0.000    1.333    3.333    2.667    0.000    8.000 
#    0.000    2.222    0.000    2.667    0.000    0.000 
#    0.000    0.000    0.000    0.000    0.000    0.000 
#
# Total GULP energy -223194.607961 kJ/mol
# GULP energy per Si atom -12399.700442 kJ/mol
# Density = 1.940337 g / cm^3
# Si number density = 19.447631 Si / 1000 Ang^3
#
#
#
# Elastic Constant Matrix: (Units=GPa)
#
#
# Indices 1 2 3 4 5 6 
#
# 1 114.6648 38.3060 35.2682 0.0000 -3.3383 0.0000
# 2 38.3060 106.7295 56.4794 0.0000 -8.3188 0.0000
# 3 35.2682 56.4794 109.2391 0.0000 -15.5239 0.0000
# 4 0.0000 0.0000 0.0000 35.5571 0.0000 -23.5723
# 5 -3.3383 -8.3188 -15.5239 0.0000 40.5900 0.0000
# 6 0.0000 0.0000 0.0000 -23.5723 0.0000 97.2011
#
#
#
# Elastic Compliance Matrix: (Units=1/GPa)
#
#
# Indices 1 2 3 4 5 6 
#
# 1 0.010204 -0.002643 -0.001994 0.000000 -0.000465 0.000000
# 2 -0.002643 0.013584 -0.006139 0.000000 0.000219 0.000000
# 3 -0.001994 -0.006139 0.013504 0.000000 0.003742 0.000000
# 4 0.000000 0.000000 0.000000 0.033511 0.000000 0.008127
# 5 -0.000465 0.000219 0.003742 0.000000 0.026075 0.000000
# 6 0.000000 0.000000 0.000000 0.008127 0.000000 0.012259
#
#
# Mechanical properties :
#
#
# Convention : Reuss Voigt Hill
#
# Bulk Modulus (GPa) = 63.53389 65.63783 64.58586
# Shear Modulus (GPa) = 36.78258 48.04163 42.41211
#
# Velocity S-wave (km/s) = 4.35370 4.97561 4.67501
# Velocity P-wave (km/s) = 7.61663 8.17516 7.90083
#
# Compressibility (1/GPa) = 0.01573963
#
# Stress axis : x y z
#
# Youngs Moduli (GPa) = 98.00223 73.61754 74.05466
#
# Poissons Ratio (x) = 0.19460 0.14764
# Poissons Ratio (y) = 0.25906 0.45459
# Poissons Ratio (z) = 0.19539 0.45191
#
# Static dielectric constant tensor:
#      x y z
#    x 3.823440 0.000000 -0.048750 
#    y 0.000000 3.632420 0.000000 
#    z -0.048750 0.000000 3.321550 
# 
# 
# High freq. dielectric constant tensor:
#      x y z
#    x 1.782210 0.000000 -0.005870 
#    y 0.000000 1.754140 0.000000 
#    z -0.005870 0.000000 1.738330 
# 
# From -- ./inp_files/46843.got.cif
#   From: 2010.06.25/outbox.cif.g09.slc.cpg/sg12_24_cif.got.tgz:46843.got - 2010.06.28 00:19:55.
