data_PCOD8099182
_publ_section_title
;
Structure prediction by ZEFSAII (Michael W. Deem and Ramdas Pophale) SiO2 
 PCOD8099182
Probable space group: C 2/M
;
_chemical_formula_sum "Si O2"
_cell_formula_units_Z 56
_cell_length_a 18.588186
_cell_length_b 9.076975
_cell_length_c 26.608337
_cell_angle_alpha 90.000000
_cell_angle_beta 41.284124
_cell_angle_gamma 90.000000
_cell_volume 2962.128523
_symmetry_space_group_name_H-M "C 2/M"
_symmetry_group_IT_number 12
_symmetry_cell_setting 'monoclinic'
loop_
_space_group_symop_operation_xyz
x,y,z
-x,y,-z
-x,-y,-z
x,-y,z
1/2+x,1/2+y,z
1/2-x,1/2+y,-z
1/2-x,1/2-y,-z
1/2+x,1/2-y,z
loop_
_atom_site_type_symbol
_atom_site_label
_atom_site_fract_x
_atom_site_fract_y
_atom_site_fract_z
Si Si1 0.781373 0.171737 0.931991
Si Si2 0.825536 0.672158 0.290509
Si Si3 0.069989 0.664644 0.317721
Si Si4 0.926217 0.172270 0.585389
Si Si5 0.374942 0.159845 0.074055
Si Si6 0.983542 0.824826 0.757292
Si Si7 0.825067 0.838184 0.194200
O O1 0.684286 0.213221 0.945153
O O2 0.895591 0.223620 0.846234
O O3 0.787078 0.000000 0.940793
O O4 0.750000 0.250000 0.000000
O O5 0.847731 0.500000 0.285433
O O6 0.698351 0.713260 0.363646
O O7 0.897083 0.760598 0.293338
O O8 0.866176 0.723275 0.214280
O O9 0.019166 0.500000 0.338740
O O10 0.024965 0.744024 0.391556
O O11 0.196788 0.652079 0.260422
O O12 0.049458 0.761038 0.279318
O O13 0.000000 0.220344 0.500000
O O14 0.934898 0.000000 0.592744
O O15 0.364863 0.286494 0.119697
O O16 0.323672 0.000000 0.117653
O O17 0.500000 0.133938 0.000000
O O18 0.989185 0.000000 0.749836
O O19 0.874857 0.000000 0.179538
#
# Coordination Sequence:
#
# PCOD8099182 Si02
#       7
#     8   8   8   8   8   8   8
#     4  10  23  39  55  78 111 149 189 236 290 338
#     4  10  21  36  58  85 114 147 185 229 277 333
#     4  10  20  35  58  86 113 147 187 228 277 333
#     4   9  19  38  63  89 117 149 184 226 278 335
#     4  10  21  37  55  77 105 142 188 234 283 336
#     4  11  22  38  58  82 115 152 192 236 280 336
#     4  10  20  35  55  80 108 142 185 232 278 332
#
# _framework density 18.905325000000001
#
# number of rings (size 3 to 8) (size 9 to 14) (size 15 to 20)
#    0.000    2.000    1.429    1.714    2.000    4.000 
#    0.000    0.714    0.000    0.000    0.000    0.000 
#    0.000    0.000    0.000    0.000    0.000    0.000 
#
# Total GULP energy -347109.788694 kJ/mol
# GULP energy per Si atom -12396.778168 kJ/mol
# Density = 1.886230 g / cm^3
# Si number density = 18.905325 Si / 1000 Ang^3
#
#
#
# Elastic Constant Matrix: (Units=GPa)
#
#
# Indices 1 2 3 4 5 6 
#
# 1 86.5161 49.2340 43.7969 -0.0001 9.8563 0.0001
# 2 49.2340 104.1023 52.5997 -0.0001 11.2655 0.0004
# 3 43.7969 52.5997 103.3204 0.0000 22.9426 0.0000
# 4 -0.0001 -0.0001 0.0000 26.5075 0.0000 5.6792
# 5 9.8563 11.2655 22.9426 0.0000 27.7997 -0.0001
# 6 0.0001 0.0004 0.0000 5.6792 -0.0001 37.0556
#
#
#
# Elastic Compliance Matrix: (Units=1/GPa)
#
#
# Indices 1 2 3 4 5 6 
#
# 1 0.017076 -0.005950 -0.004163 0.000000 -0.000207 0.000000
# 2 -0.005950 0.015007 -0.005186 0.000000 0.000308 0.000000
# 3 -0.004163 -0.005186 0.016271 0.000000 -0.009850 0.000000
# 4 0.000000 0.000000 0.000000 0.039006 0.000000 -0.005978
# 5 -0.000207 0.000308 -0.009850 0.000000 0.044049 0.000000
# 6 0.000000 0.000000 0.000000 -0.005978 0.000000 0.027903
#
#
# Mechanical properties :
#
#
# Convention : Reuss Voigt Hill
#
# Bulk Modulus (GPa) = 56.32244 65.02224 60.67234
# Shear Modulus (GPa) = 25.53255 28.15976 26.84616
#
# Velocity S-wave (km/s) = 3.67897 3.86361 3.77242
# Velocity P-wave (km/s) = 6.92119 7.37371 7.15103
#
# Compressibility (1/GPa) = 0.01775491
#
# Stress axis : x y z
#
# Youngs Moduli (GPa) = 58.56337 66.63607 61.45890
#
# Poissons Ratio (x) = 0.39646 0.25587
# Poissons Ratio (y) = 0.34843 0.31874
# Poissons Ratio (z) = 0.24382 0.34560
#
# Static dielectric constant tensor:
#      x y z
#    x 3.544580 0.000000 0.020640 
#    y 0.000000 3.321320 0.000000 
#    z 0.020640 0.000000 3.322280 
# 
# 
# High freq. dielectric constant tensor:
#      x y z
#    x 1.738720 0.000000 0.005800 
#    y 0.000000 1.743430 0.000000 
#    z 0.005800 0.000000 1.716560 
# 
# From -- ./inp_files/342230.got.cif
#   From: 2010.06.25/outbox.cif.g09.slc.cpg/sg12_172_cif.got.tgz:342230.got - 2010.06.28 00:19:55.
