data_PCOD8099149
_publ_section_title
;
Structure prediction by ZEFSAII (Michael W. Deem and Ramdas Pophale) SiO2 
 PCOD8099149
Probable space group: C 2/M
;
_chemical_formula_sum "Si O2"
_cell_formula_units_Z 40
_cell_length_a 22.564774
_cell_length_b 8.630770
_cell_length_c 28.399070
_cell_angle_alpha 90.000000
_cell_angle_beta 157.313428
_cell_angle_gamma 90.000000
_cell_volume 2133.157043
_symmetry_space_group_name_H-M "C 2/M"
_symmetry_group_IT_number 12
_symmetry_cell_setting 'monoclinic'
loop_
_space_group_symop_operation_xyz
x,y,z
-x,y,-z
-x,-y,-z
x,-y,z
1/2+x,1/2+y,z
1/2-x,1/2+y,-z
1/2-x,1/2-y,-z
1/2+x,1/2-y,z
loop_
_atom_site_type_symbol
_atom_site_label
_atom_site_fract_x
_atom_site_fract_y
_atom_site_fract_z
Si Si1 0.716137 0.319998 0.545376
Si Si2 0.994172 0.320272 0.683338
Si Si3 0.171489 0.319085 0.611779
Si Si4 0.123024 0.818670 0.149200
Si Si5 0.690703 0.180786 0.100551
O O1 0.679330 0.500000 0.511258
O O2 0.878366 0.276589 0.640453
O O3 0.579871 0.223706 0.421154
O O4 0.726492 0.278085 0.607439
O O5 0.036424 0.500000 0.713307
O O6 0.148811 0.224328 0.806100
O O7 0.180951 0.500000 0.606549
O O8 0.284801 0.272055 0.736779
O O9 0.000000 0.270118 0.500000
O O10 0.196689 0.726188 0.159811
O O11 0.137380 0.000000 0.148814
O O12 0.945290 0.772430 0.025644
O O13 0.658736 0.000000 0.071898
#
# Coordination Sequence:
#
# PCOD8099149 Si02
#       5
#     8   8   8   8   8
#     4  10  21  35  55  82 108 137 175 220 265 311
#     4  10  20  36  56  78 107 141 177 216 263 318
#     4  10  21  36  55  79 108 142 175 211 261 319
#     4  10  20  35  55  79 109 144 178 214 263 319
#     4  11  21  34  55  81 107 138 179 224 265 306
#
# _framework density 18.751549000000001
#
# number of rings (size 3 to 8) (size 9 to 14) (size 15 to 20)
#    0.000    1.800    0.000    6.000    0.000    6.000 
#    0.000    1.000    0.000    0.000    0.000    0.000 
#    0.000    0.000    0.000    0.000    0.000    0.000 
#
# Total GULP energy -248114.027481 kJ/mol
# GULP energy per Si atom -12405.701374 kJ/mol
# Density = 1.870887 g / cm^3
# Si number density = 18.751549 Si / 1000 Ang^3
#
#
#
# Elastic Constant Matrix: (Units=GPa)
#
#
# Indices 1 2 3 4 5 6 
#
# 1 90.8899 22.3216 60.0394 0.0048 -4.5579 0.0021
# 2 22.3216 52.4339 20.2050 0.0024 1.1367 0.0013
# 3 60.0394 20.2050 122.2388 0.0196 3.2714 0.0056
# 4 0.0048 0.0024 0.0196 26.4390 -0.0036 1.4529
# 5 -4.5579 1.1367 3.2714 -0.0036 30.7669 -0.0020
# 6 0.0021 0.0013 0.0056 1.4529 -0.0020 31.0735
#
#
#
# Elastic Compliance Matrix: (Units=1/GPa)
#
#
# Indices 1 2 3 4 5 6 
#
# 1 0.017553 -0.004477 -0.007978 0.000004 0.003614 0.000000
# 2 -0.004477 0.021515 -0.001322 0.000000 -0.001317 0.000000
# 3 -0.007978 -0.001322 0.012384 -0.000008 -0.002450 -0.000001
# 4 0.000004 0.000000 -0.000008 0.037920 0.000006 -0.001773
# 5 0.003614 -0.001317 -0.002450 0.000006 0.033347 0.000002
# 6 0.000000 0.000000 -0.000001 -0.001773 0.000002 0.032265
#
#
# Mechanical properties :
#
#
# Convention : Reuss Voigt Hill
#
# Bulk Modulus (GPa) = 41.84488 52.29942 47.07215
# Shear Modulus (GPa) = 26.24610 28.52232 27.38421
#
# Velocity S-wave (km/s) = 3.74528 3.90431 3.82563
# Velocity P-wave (km/s) = 6.40833 6.94810 6.68367
#
# Compressibility (1/GPa) = 0.02389778
#
# Stress axis : x y z
#
# Youngs Moduli (GPa) = 56.96960 46.47824 80.75251
#
# Poissons Ratio (x) = 0.20806 0.64427
# Poissons Ratio (y) = 0.25503 0.10678
# Poissons Ratio (z) = 0.45452 0.06146
#
# Static dielectric constant tensor:
#      x y z
#    x 3.304330 0.000010 0.102510 
#    y 0.000010 3.473000 -0.000030 
#    z 0.102510 -0.000030 3.533010 
# 
# 
# High freq. dielectric constant tensor:
#      x y z
#    x 1.715980 0.000000 0.010460 
#    y 0.000000 1.737640 0.000000 
#    z 0.010460 0.000000 1.733390 
# 
# From -- ./inp_files/162365.got.cif
#   From: 2010.06.25/outbox.cif.g09.slc.cpg/sg12_82_cif.got.tgz:162365.got - 2010.06.28 00:19:55.
