data_PCOD8099974
_publ_section_title
;
Structure prediction by ZEFSAII (Michael W. Deem and Ramdas Pophale) SiO2 
 PCOD8099974
Probable space group: C 2/M
;
_chemical_formula_sum "Si O2"
_cell_formula_units_Z 48
_cell_length_a 15.895733
_cell_length_b 17.082594
_cell_length_c 20.268973
_cell_angle_alpha 90.000000
_cell_angle_beta 151.971428
_cell_angle_gamma 90.000000
_cell_volume 2586.321330
_symmetry_space_group_name_H-M "C 2/M"
_symmetry_group_IT_number 12
_symmetry_cell_setting 'monoclinic'
loop_
_space_group_symop_operation_xyz
x,y,z
-x,y,-z
-x,-y,-z
x,-y,z
1/2+x,1/2+y,z
1/2-x,1/2+y,-z
1/2-x,1/2-y,-z
1/2+x,1/2-y,z
loop_
_atom_site_type_symbol
_atom_site_label
_atom_site_fract_x
_atom_site_fract_y
_atom_site_fract_z
Si Si1 0.280401 0.411390 0.026766
Si Si2 0.904126 0.197069 0.796549
Si Si3 0.622302 0.185739 0.026706
Si Si4 0.038942 0.590436 0.296979
Si Si5 0.361712 0.201832 0.275891
Si Si6 0.791341 0.224559 0.455463
O O1 0.339701 0.500000 0.076205
O O2 0.447718 0.368574 0.110351
O O3 0.239197 0.380021 0.071752
O O4 0.108941 0.402276 0.861799
O O5 0.766595 0.165997 0.756905
O O6 0.805974 0.214911 0.660408
O O7 0.994086 0.277143 0.882973
O O8 0.749995 0.253419 0.142813
O O9 0.500000 0.148302 0.000000
O O10 0.087831 0.500000 0.345042
O O11 0.218444 0.635670 0.395800
O O12 0.966506 0.630085 0.314199
O O13 0.494345 0.264714 0.403973
O O14 0.750000 0.250000 0.500000
#
# Coordination Sequence:
#
# PCOD8099974 Si02
#       6
#     8   8   8   8   8   8
#     4  11  21  34  56  85 116 149 184 230 285 335
#     4  11  20  36  59  82 114 146 190 234 275 330
#     4  10  20  36  58  82 110 147 191 238 271 324
#     4  10  20  35  57  84 116 149 184 230 283 338
#     4  10  21  36  57  86 111 149 190 231 278 331
#     4  10  20  36  58  81 109 149 193 228 271 329
#
# _framework density 18.559179
#
# number of rings (size 3 to 8) (size 9 to 14) (size 15 to 20)
#    0.000    1.667    3.333    3.000    0.000    1.000 
#    0.000    9.167    0.000    8.000    0.000    0.000 
#    0.000    0.000    0.000    0.000    0.000    0.000 
#
# Total GULP energy -297548.006104 kJ/mol
# GULP energy per Si atom -12397.833588 kJ/mol
# Density = 1.851694 g / cm^3
# Si number density = 18.559179 Si / 1000 Ang^3
#
#
#
# Elastic Constant Matrix: (Units=GPa)
#
#
# Indices 1 2 3 4 5 6 
#
# 1 114.8194 64.2202 29.5179 -0.0009 8.6064 -0.0001
# 2 64.2202 100.0582 20.8917 0.0091 6.0764 0.0056
# 3 29.5179 20.8917 78.1004 -0.0029 -2.7068 0.0001
# 4 -0.0009 0.0091 -0.0029 21.0560 -0.0006 -3.6163
# 5 8.6064 6.0764 -2.7068 -0.0006 35.0006 0.0000
# 6 -0.0001 0.0056 0.0001 -3.6163 0.0000 12.4472
#
#
#
# Elastic Compliance Matrix: (Units=1/GPa)
#
#
# Indices 1 2 3 4 5 6 
#
# 1 0.014455 -0.008450 -0.003284 0.000005 -0.002341 0.000005
# 2 -0.008450 0.015675 -0.001025 -0.000009 -0.000723 -0.000010
# 3 -0.003284 -0.001025 0.014392 0.000003 0.002098 0.000001
# 4 0.000005 -0.000009 0.000003 0.049987 0.000001 0.014523
# 5 -0.002341 -0.000723 0.002098 0.000001 0.029435 0.000001
# 6 0.000005 -0.000010 0.000001 0.014523 0.000001 0.084559
#
#
# Mechanical properties :
#
#
# Convention : Reuss Voigt Hill
#
# Bulk Modulus (GPa) = 52.61639 58.02640 55.32140
# Shear Modulus (GPa) = 20.80256 25.59063 23.19659
#
# Velocity S-wave (km/s) = 3.35158 3.71734 3.53919
# Velocity P-wave (km/s) = 6.58708 7.05396 6.82451
#
# Compressibility (1/GPa) = 0.01900548
#
# Stress axis : x y z
#
# Youngs Moduli (GPa) = 69.17889 63.79426 69.48270
#
# Poissons Ratio (x) = 0.53905 0.22819
# Poissons Ratio (y) = 0.58455 0.07119
# Poissons Ratio (z) = 0.22719 0.06536
#
# Static dielectric constant tensor:
#      x y z
#    x 3.597060 0.000010 0.216490 
#    y 0.000010 3.317380 0.000060 
#    z 0.216490 0.000060 4.057370 
# 
# 
# High freq. dielectric constant tensor:
#      x y z
#    x 1.728590 0.000000 -0.002400 
#    y 0.000000 1.691120 0.000000 
#    z -0.002400 0.000000 1.730680 
# 
# From -- ./inp_files/61680.got.cif
#   From: 2010.06.25/outbox.cif.g09.slc.cpg/sg12_31_cif.got.tgz:61680.got - 2010.06.28 00:19:55.
