data_PCOD8099013
_publ_section_title
;
Structure prediction by ZEFSAII (Michael W. Deem and Ramdas Pophale) SiO2 
 PCOD8099013
Probable space group: C 2/M
;
_chemical_formula_sum "Si O2"
_cell_formula_units_Z 56
_cell_length_a 32.495590
_cell_length_b 8.839378
_cell_length_c 23.528744
_cell_angle_alpha 90.000000
_cell_angle_beta 157.196630
_cell_angle_gamma 90.000000
_cell_volume 2619.357728
_symmetry_space_group_name_H-M "C 2/M"
_symmetry_group_IT_number 12
_symmetry_cell_setting 'monoclinic'
loop_
_space_group_symop_operation_xyz
x,y,z
-x,y,-z
-x,-y,-z
x,-y,z
1/2+x,1/2+y,z
1/2-x,1/2+y,-z
1/2-x,1/2-y,-z
1/2+x,1/2-y,z
loop_
_atom_site_type_symbol
_atom_site_label
_atom_site_fract_x
_atom_site_fract_y
_atom_site_fract_z
Si Si1 0.805054 0.677986 0.893094
Si Si2 0.641312 0.175744 0.343091
Si Si3 0.281951 0.831428 0.680033
Si Si4 0.047927 0.828236 0.400361
Si Si5 0.094478 0.326808 0.576489
Si Si6 0.409083 0.675417 0.926411
Si Si7 0.555252 0.321034 0.843975
O O1 0.803441 0.500000 0.897373
O O2 0.693306 0.731888 0.725925
O O3 0.902033 0.730177 0.975511
O O4 0.834149 0.749885 0.991750
O O5 0.750000 0.250000 0.500000
O O6 0.639331 0.196620 0.272362
O O7 0.541598 0.258955 0.242381
O O8 0.639783 0.000000 0.358757
O O9 0.158460 0.815712 0.505939
O O10 0.300956 0.707772 0.753659
O O11 0.301682 0.000000 0.730330
O O12 0.049829 0.726137 0.458745
O O13 0.959099 0.776713 0.241107
O O14 0.026948 0.000000 0.393582
O O15 0.131368 0.500000 0.618780
O O16 0.000000 0.305218 0.500000
O O17 0.422962 0.500000 0.958897
O O18 0.500000 0.737117 0.000000
O O19 0.558789 0.500000 0.855440
#
# Coordination Sequence:
#
# PCOD8099013 Si02
#       7
#     8   8   8   8   8   8   8
#     4  12  25  42  65  95 130 169 214 263 321 386
#     4  11  21  34  53  82 124 173 222 265 312 371
#     4  10  20  35  54  82 118 161 212 261 310 363
#     4  10  21  40  65  93 125 163 205 256 315 375
#     4  11  25  46  73 102 128 159 206 265 326 389
#     4  11  23  37  56  85 122 168 216 262 315 370
#     4  11  23  41  62  90 131 172 215 266 320 373
#
# _framework density 21.379287999999999
#
# number of rings (size 3 to 8) (size 9 to 14) (size 15 to 20)
#    0.000    1.143    2.857    3.857    0.000    6.857 
#    0.000    0.714    0.000    0.000    0.000    0.000 
#    0.000    0.000    0.000    0.000    0.000    0.000 
#
# Total GULP energy -347131.742463 kJ/mol
# GULP energy per Si atom -12397.562231 kJ/mol
# Density = 2.133063 g / cm^3
# Si number density = 21.379288 Si / 1000 Ang^3
#
#
#
# Elastic Constant Matrix: (Units=GPa)
#
#
# Indices 1 2 3 4 5 6 
#
# 1 81.4986 47.4739 40.7256 0.0000 -17.3196 0.0000
# 2 47.4739 129.4522 52.9697 0.0000 -16.7265 0.0000
# 3 40.7256 52.9697 108.6797 0.0000 -34.5268 0.0000
# 4 0.0000 0.0000 0.0000 33.1171 0.0000 -7.0387
# 5 -17.3196 -16.7265 -34.5268 0.0000 30.0590 0.0000
# 6 0.0000 0.0000 0.0000 -7.0387 0.0000 29.2340
#
#
#
# Elastic Compliance Matrix: (Units=1/GPa)
#
#
# Indices 1 2 3 4 5 6 
#
# 1 0.017284 -0.004611 -0.002961 0.000000 0.003991 0.000000
# 2 -0.004611 0.010879 -0.003929 0.000000 -0.001116 0.000000
# 3 -0.002961 -0.003929 0.017304 0.000000 0.015983 0.000000
# 4 0.000000 0.000000 0.000000 0.031824 0.000000 0.007662
# 5 0.003991 -0.001116 0.015983 0.000000 0.053305 0.000000
# 6 0.000000 0.000000 0.000000 0.007662 0.000000 0.036052
#
#
# Mechanical properties :
#
#
# Convention : Reuss Voigt Hill
#
# Bulk Modulus (GPa) = 44.51578 66.88542 55.70060
# Shear Modulus (GPa) = 25.36263 30.37945 27.87104
#
# Velocity S-wave (km/s) = 3.44803 3.77367 3.61452
# Velocity P-wave (km/s) = 6.05962 7.09511 6.59771
#
# Compressibility (1/GPa) = 0.02246394
#
# Stress axis : x y z
#
# Youngs Moduli (GPa) = 57.85598 91.91644 57.79057
#
# Poissons Ratio (x) = 0.42384 0.17114
# Poissons Ratio (y) = 0.26678 0.22707
# Poissons Ratio (z) = 0.17134 0.36116
#
# Static dielectric constant tensor:
#      x y z
#    x 3.805930 0.000000 -0.185280 
#    y 0.000000 3.840370 0.000000 
#    z -0.185280 0.000000 3.980960 
# 
# 
# High freq. dielectric constant tensor:
#      x y z
#    x 1.821490 0.000000 -0.019260 
#    y 0.000000 1.840720 0.000000 
#    z -0.019260 0.000000 1.845680 
# 
# From -- ./inp_files/329684.got.cif
#   From: 2010.06.25/outbox.cif.g09.slc.cpg/sg12_165_cif.got.tgz:329684.got - 2010.06.28 00:19:55.
