data_PCOD8099461
_publ_section_title
;
Structure prediction by ZEFSAII (Michael W. Deem and Ramdas Pophale) SiO2 
 PCOD8099461
Probable space group: C 2/M
;
_chemical_formula_sum "Si O2"
_cell_formula_units_Z 48
_cell_length_a 15.380038
_cell_length_b 9.326633
_cell_length_c 17.249957
_cell_angle_alpha 90.000000
_cell_angle_beta 92.413517
_cell_angle_gamma 90.000000
_cell_volume 2472.207329
_symmetry_space_group_name_H-M "C 2/M"
_symmetry_group_IT_number 12
_symmetry_cell_setting 'monoclinic'
loop_
_space_group_symop_operation_xyz
x,y,z
-x,y,-z
-x,-y,-z
x,-y,z
1/2+x,1/2+y,z
1/2-x,1/2+y,-z
1/2-x,1/2-y,-z
1/2+x,1/2-y,z
loop_
_atom_site_type_symbol
_atom_site_label
_atom_site_fract_x
_atom_site_fract_y
_atom_site_fract_z
Si Si1 0.092199 0.329989 0.668733
Si Si2 0.982992 0.169179 0.087001
Si Si3 0.896254 0.341906 0.494989
Si Si4 0.663204 0.165572 0.832770
Si Si5 0.647093 0.334214 0.193397
Si Si6 0.604940 0.171019 0.337814
O O1 0.093036 0.500000 0.657686
O O2 0.128985 0.263327 0.587844
O O3 0.149176 0.280328 0.743761
O O4 0.994046 0.279333 0.681001
O O5 0.893845 0.242466 0.110520
O O6 0.064889 0.222304 0.141164
O O7 0.970441 0.000000 0.093129
O O8 0.000000 0.217274 0.000000
O O9 0.854923 0.500000 0.493553
O O10 0.865361 0.269755 0.575283
O O11 0.000000 0.353991 0.500000
O O12 0.765513 0.186795 0.854903
O O13 0.634740 0.000000 0.839749
O O14 0.635473 0.500000 0.215206
O O15 0.660762 0.245911 0.273038
O O16 0.615322 0.000000 0.333012
#
# Coordination Sequence:
#
# PCOD8099461 Si02
#       6
#     8   8   8   8   8   8
#     4   8  13  25  47  73 100 131 171 213 248 288
#     4  10  22  40  58  76 103 137 167 203 259 318
#     4   7  11  20  40  71  99 127 170 215 244 278
#     4  10  20  35  56  81 105 133 171 212 253 301
#     4  10  21  35  52  77 109 137 164 209 265 306
#     4   9  15  27  50  75  99 134 180 214 240 291
#
# _framework density 19.415845999999998
#
# number of rings (size 3 to 8) (size 9 to 14) (size 15 to 20)
#    0.000    3.000    1.667    2.000    0.000    1.667 
#    0.000    0.833    0.000    5.500    0.000    0.000 
#    0.000    0.000    0.000    0.000    0.000    0.000 
#
# Total GULP energy -297313.240150 kJ/mol
# GULP energy per Si atom -12388.051673 kJ/mol
# Density = 1.937166 g / cm^3
# Si number density = 19.415846 Si / 1000 Ang^3
#
#
#
# Elastic Constant Matrix: (Units=GPa)
#
#
# Indices 1 2 3 4 5 6 
#
# 1 68.3765 22.3435 35.2080 0.0000 -19.1455 0.0000
# 2 22.3435 30.4994 36.9896 0.0000 -10.4938 0.0000
# 3 35.2080 36.9896 139.3233 0.0000 -22.9768 0.0000
# 4 0.0000 0.0000 0.0000 24.1144 0.0000 -6.1935
# 5 -19.1455 -10.4938 -22.9768 0.0000 16.6638 0.0000
# 6 0.0000 0.0000 0.0000 -6.1935 0.0000 20.9124
#
#
#
# Elastic Compliance Matrix: (Units=1/GPa)
#
#
# Indices 1 2 3 4 5 6 
#
# 1 0.023843 -0.010497 0.000245 0.000000 0.021121 0.000000
# 2 -0.010497 0.056760 -0.011016 0.000000 0.008495 0.000000
# 3 0.000245 -0.011016 0.011575 0.000000 0.009304 0.000000
# 4 0.000000 0.000000 0.000000 0.044883 0.000000 0.013293
# 5 0.021121 0.008495 0.009304 0.000000 0.102455 0.000000
# 6 0.000000 0.000000 0.000000 0.013293 0.000000 0.051755
#
#
# Mechanical properties :
#
#
# Convention : Reuss Voigt Hill
#
# Bulk Modulus (GPa) = 20.14434 47.47572 33.81003
# Shear Modulus (GPa) = 14.27124 21.91531 18.09328
#
# Velocity S-wave (km/s) = 2.71409 3.36331 3.05599
# Velocity P-wave (km/s) = 4.49660 6.29187 5.46841
#
# Compressibility (1/GPa) = 0.04964174
#
# Stress axis : x y z
#
# Youngs Moduli (GPa) = 41.94134 17.61795 86.39493
#
# Poissons Ratio (x) = 0.18493 -0.02115
# Poissons Ratio (y) = 0.44025 0.95173
# Poissons Ratio (z) = -0.01027 0.19408
#
# Static dielectric constant tensor:
#      x y z
#    x 3.327830 0.000000 0.046660 
#    y 0.000000 3.020040 0.000000 
#    z 0.046660 0.000000 3.865250 
# 
# 
# High freq. dielectric constant tensor:
#      x y z
#    x 1.738540 0.000000 -0.002080 
#    y 0.000000 1.703990 0.000000 
#    z -0.002080 0.000000 1.769760 
# 
# From -- ./inp_files/267715.got.cif
#   From: 2010.06.25/outbox.cif.g09.slc.cpg/sg12_134_cif.got.tgz:267715.got - 2010.06.28 00:19:55.
