data_PCOD8099185
_publ_section_title
;
Structure prediction by ZEFSAII (Michael W. Deem and Ramdas Pophale) SiO2 
 PCOD8099185
Probable space group: C 2/M
;
_chemical_formula_sum "Si O2"
_cell_formula_units_Z 48
_cell_length_a 22.346490
_cell_length_b 13.772487
_cell_length_c 15.767403
_cell_angle_alpha 90.000000
_cell_angle_beta 32.583764
_cell_angle_gamma 90.000000
_cell_volume 2613.324863
_symmetry_space_group_name_H-M "C 2/M"
_symmetry_group_IT_number 12
_symmetry_cell_setting 'monoclinic'
loop_
_space_group_symop_operation_xyz
x,y,z
-x,y,-z
-x,-y,-z
x,-y,z
1/2+x,1/2+y,z
1/2-x,1/2+y,-z
1/2-x,1/2-y,-z
1/2+x,1/2-y,z
loop_
_atom_site_type_symbol
_atom_site_label
_atom_site_fract_x
_atom_site_fract_y
_atom_site_fract_z
Si Si1 0.878326 0.730550 0.177517
Si Si2 0.302735 0.890527 0.118816
Si Si3 0.744750 0.889130 0.251251
Si Si4 0.697321 0.229203 0.153701
Si Si5 0.018382 0.608710 0.608324
Si Si6 0.953365 0.609400 0.236302
O O1 0.824950 0.643246 0.187801
O O2 0.806975 0.828663 0.250934
O O3 0.884078 0.690249 0.266777
O O4 0.000000 0.756565 0.000000
O O5 0.200906 0.831162 0.199149
O O6 0.262146 0.000000 0.168642
O O7 0.414227 0.874563 0.930567
O O8 0.768020 0.846299 0.128824
O O9 0.612076 0.881095 0.424478
O O10 0.786169 0.000000 0.206451
O O11 0.572471 0.191819 0.294409
O O12 0.750000 0.250000 0.000000
O O13 0.964589 0.500000 0.667732
O O14 0.077995 0.622382 0.628053
O O15 0.924147 0.500000 0.239369
#
# Coordination Sequence:
#
# PCOD8099185 Si02
#       6
#     8   8   8   8   8   8
#     4   9  18  32  53  78 105 138 177 220 263 310
#     4   9  17  30  49  76 104 132 171 219 264 306
#     4  10  22  37  54  78 109 144 176 215 269 319
#     4  11  20  32  54  78 103 134 175 223 261 309
#     4  10  20  35  55  80 109 140 177 220 265 314
#     4   9  16  29  52  78 104 135 176 220 257 304
#
# _framework density 18.367405999999999
#
# number of rings (size 3 to 8) (size 9 to 14) (size 15 to 20)
#    0.000    2.333    1.667    1.500    0.000    5.000 
#    0.000    0.000    0.000    9.000    0.000    0.000 
#    0.000    0.000    0.000    0.000    0.000    0.000 
#
# Total GULP energy -297478.489660 kJ/mol
# GULP energy per Si atom -12394.937069 kJ/mol
# Density = 1.832560 g / cm^3
# Si number density = 18.367406 Si / 1000 Ang^3
#
#
#
# Elastic Constant Matrix: (Units=GPa)
#
#
# Indices 1 2 3 4 5 6 
#
# 1 86.7582 64.0275 29.0343 0.0000 -0.5377 0.0000
# 2 64.0275 152.7091 37.2029 0.0000 -8.2623 0.0000
# 3 29.0343 37.2029 46.1399 0.0000 6.1114 0.0000
# 4 0.0000 0.0000 0.0000 24.5647 0.0000 -6.4501
# 5 -0.5377 -8.2623 6.1114 0.0000 25.9415 0.0000
# 6 0.0000 0.0000 0.0000 -6.4501 0.0000 34.5918
#
#
#
# Elastic Compliance Matrix: (Units=1/GPa)
#
#
# Indices 1 2 3 4 5 6 
#
# 1 0.018167 -0.006012 -0.006586 0.000000 0.000013 0.000000
# 2 -0.006012 0.010626 -0.005384 0.000000 0.004528 0.000000
# 3 -0.006586 -0.005384 0.031384 0.000000 -0.009245 0.000000
# 4 0.000000 0.000000 0.000000 0.042805 0.000000 0.007982
# 5 0.000013 0.004528 -0.009245 0.000000 0.042169 0.000000
# 6 0.000000 0.000000 0.000000 0.007982 0.000000 0.030397
#
#
# Mechanical properties :
#
#
# Convention : Reuss Voigt Hill
#
# Bulk Modulus (GPa) = 41.30254 60.68184 50.99219
# Shear Modulus (GPa) = 22.77045 27.37577 25.07311
#
# Velocity S-wave (km/s) = 3.52479 3.86483 3.69872
# Velocity P-wave (km/s) = 6.25309 7.28185 6.78699
#
# Compressibility (1/GPa) = 0.02421159
#
# Stress axis : x y z
#
# Youngs Moduli (GPa) = 55.04390 94.11107 31.86357
#
# Poissons Ratio (x) = 0.56578 0.20987
# Poissons Ratio (y) = 0.33091 0.17156
# Poissons Ratio (z) = 0.36255 0.50673
#
# Static dielectric constant tensor:
#      x y z
#    x 3.524860 0.000000 0.170400 
#    y 0.000000 3.442710 0.000000 
#    z 0.170400 0.000000 3.101840 
# 
# 
# High freq. dielectric constant tensor:
#      x y z
#    x 1.720370 0.000000 0.019030 
#    y 0.000000 1.712680 0.000000 
#    z 0.019030 0.000000 1.675230 
# 
# From -- ./inp_files/166889.got.cif
#   From: 2010.06.25/outbox.cif.g09.slc.cpg/sg12_84_cif.got.tgz:166889.got - 2010.06.28 00:19:55.
