data_PCOD8099777
_publ_section_title
;
Structure prediction by ZEFSAII (Michael W. Deem and Ramdas Pophale) SiO2 
 PCOD8099777
Probable space group: C 2/M
;
_chemical_formula_sum "Si O2"
_cell_formula_units_Z 60
_cell_length_a 15.777977
_cell_length_b 15.077023
_cell_length_c 21.330583
_cell_angle_alpha 90.000000
_cell_angle_beta 36.154276
_cell_angle_gamma 90.000000
_cell_volume 2993.596835
_symmetry_space_group_name_H-M "C 2/M"
_symmetry_group_IT_number 12
_symmetry_cell_setting 'monoclinic'
loop_
_space_group_symop_operation_xyz
x,y,z
-x,y,-z
-x,-y,-z
x,-y,z
1/2+x,1/2+y,z
1/2-x,1/2+y,-z
1/2-x,1/2-y,-z
1/2+x,1/2-y,z
loop_
_atom_site_type_symbol
_atom_site_label
_atom_site_fract_x
_atom_site_fract_y
_atom_site_fract_z
Si Si1 0.173554 0.596329 0.454964
Si Si2 0.111357 0.900529 0.777963
Si Si3 0.508121 0.264473 0.426232
Si Si4 0.208213 0.904100 0.479147
Si Si5 0.218529 0.671263 0.219291
Si Si6 0.500000 0.754031 0.000000
Si Si7 0.497167 0.896575 0.756868
Si Si8 0.584909 0.232084 0.084127
O O1 0.121439 0.500000 0.460945
O O2 0.306775 0.630245 0.333715
O O3 0.043330 0.664242 0.531902
O O4 0.222956 0.585262 0.495310
O O5 0.226768 0.904065 0.765730
O O6 0.988980 0.828103 0.863454
O O7 0.045076 0.000000 0.810533
O O8 0.500000 0.310611 0.500000
O O9 0.406695 0.326077 0.445287
O O10 0.658452 0.254011 0.298628
O O11 0.334793 0.879310 0.355496
O O12 0.139279 0.000000 0.501359
O O13 0.355874 0.697861 0.096469
O O14 0.094812 0.636844 0.247464
O O15 0.542639 0.805646 0.039329
O O16 0.465955 0.842793 0.838104
O O17 0.463054 0.000000 0.788205
O O18 0.750000 0.250000 0.000000
#
# Coordination Sequence:
#
# PCOD8099777 Si02
#       8
#     8   8   8   8   8   4   8   8
#     4  10  20  35  56  88 125 156 194 245 308 379
#     4  10  22  38  61  93 129 162 199 257 323 381
#     4  12  23  36  62  92 124 168 202 251 318 378
#     4  10  23  39  58  89 126 164 210 253 301 378
#     4  11  22  39  63  93 129 161 206 260 318 383
#     4  10  24  44  62  92 124 166 210 268 320 366
#     4  11  23  40  65  92 123 166 210 259 320 378
#     4  11  23  42  64  89 125 163 215 270 315 377
#
# _framework density 20.042777999999998
#
# number of rings (size 3 to 8) (size 9 to 14) (size 15 to 20)
#    0.000    1.333    4.000    1.600    3.733    1.600 
#    0.000    2.000    0.000    0.800    0.000    0.000 
#    0.000    0.000    0.000    0.000    0.000    0.000 
#
# Total GULP energy -371681.999388 kJ/mol
# GULP energy per Si atom -12389.399980 kJ/mol
# Density = 1.999716 g / cm^3
# Si number density = 20.042778 Si / 1000 Ang^3
#
#
#
# Elastic Constant Matrix: (Units=GPa)
#
#
# Indices 1 2 3 4 5 6 
#
# 1 75.3955 26.3725 24.9374 -0.0002 11.4595 0.0002
# 2 26.3725 79.5070 43.4317 -0.0004 -1.2257 0.0001
# 3 24.9374 43.4317 118.2421 -0.0013 7.0152 0.0000
# 4 -0.0002 -0.0004 -0.0013 56.8920 0.0003 2.1893
# 5 11.4595 -1.2257 7.0152 0.0003 36.3065 0.0000
# 6 0.0002 0.0001 0.0000 2.1893 0.0000 15.6549
#
#
#
# Elastic Compliance Matrix: (Units=1/GPa)
#
#
# Indices 1 2 3 4 5 6 
#
# 1 0.016109 -0.004661 -0.001391 0.000000 -0.004973 0.000000
# 2 -0.004661 0.017183 -0.005514 0.000000 0.003117 0.000000
# 3 -0.001391 -0.005514 0.010886 0.000000 -0.001851 0.000000
# 4 0.000000 0.000000 0.000000 0.017672 0.000000 -0.002471
# 5 -0.004973 0.003117 -0.001851 0.000000 0.029576 0.000000
# 6 0.000000 0.000000 0.000000 -0.002471 0.000000 0.064223
#
#
# Mechanical properties :
#
#
# Convention : Reuss Voigt Hill
#
# Bulk Modulus (GPa) = 47.50865 51.40309 49.45587
# Shear Modulus (GPa) = 26.91131 33.66421 30.28776
#
# Velocity S-wave (km/s) = 3.66825 4.10276 3.89158
# Velocity P-wave (km/s) = 6.45728 6.93872 6.70233
#
# Compressibility (1/GPa) = 0.02104880
#
# Stress axis : x y z
#
# Youngs Moduli (GPa) = 62.07543 58.19581 91.86524
#
# Poissons Ratio (x) = 0.27123 0.12774
# Poissons Ratio (y) = 0.28931 0.50651
# Poissons Ratio (z) = 0.08632 0.32087
#
# Static dielectric constant tensor:
#      x y z
#    x 3.710910 0.000000 0.283200 
#    y 0.000000 3.632210 0.000000 
#    z 0.283200 0.000000 3.876800 
# 
# 
# High freq. dielectric constant tensor:
#      x y z
#    x 1.787650 0.000000 0.013930 
#    y 0.000000 1.763100 0.000000 
#    z 0.013930 0.000000 1.793110 
# 
# From -- ./inp_files/311018.got.cif
#   From: 2010.06.25/outbox.cif.g09.slc.cpg/sg12_156_cif.got.tgz:311018.got - 2010.06.28 00:19:55.
