data_PCOD8099717
_publ_section_title
;
Structure prediction by ZEFSAII (Michael W. Deem and Ramdas Pophale) SiO2 
 PCOD8099717
Probable space group: C 2/M
;
_chemical_formula_sum "Si O2"
_cell_formula_units_Z 56
_cell_length_a 30.561342
_cell_length_b 8.719224
_cell_length_c 11.643171
_cell_angle_alpha 90.000000
_cell_angle_beta 115.563429
_cell_angle_gamma 90.000000
_cell_volume 2798.853273
_symmetry_space_group_name_H-M "C 2/M"
_symmetry_group_IT_number 12
_symmetry_cell_setting 'monoclinic'
loop_
_space_group_symop_operation_xyz
x,y,z
-x,y,-z
-x,-y,-z
x,-y,z
1/2+x,1/2+y,z
1/2-x,1/2+y,-z
1/2-x,1/2-y,-z
1/2+x,1/2-y,z
loop_
_atom_site_type_symbol
_atom_site_label
_atom_site_fract_x
_atom_site_fract_y
_atom_site_fract_z
Si Si1 0.019185 0.320313 0.825568
Si Si2 0.365201 0.680958 0.437455
Si Si3 0.814327 0.319896 0.978124
Si Si4 0.716428 0.180073 0.800996
Si Si5 0.599022 0.319103 0.057878
Si Si6 0.408473 0.181412 0.710325
Si Si7 0.547475 0.677825 0.626864
O O1 0.022349 0.500000 0.852962
O O2 0.046808 0.280377 0.739482
O O3 0.963839 0.262570 0.755353
O O4 0.045229 0.235115 0.960737
O O5 0.363903 0.500000 0.451661
O O6 0.313966 0.741721 0.334515
O O7 0.375260 0.756504 0.571064
O O8 0.406588 0.731106 0.394807
O O9 0.816926 0.500000 0.958481
O O10 0.808065 0.280368 0.104969
O O11 0.770034 0.250259 0.855484
O O12 0.863643 0.240706 0.994911
O O13 0.719581 0.000000 0.783048
O O14 0.601175 0.500000 0.067484
O O15 0.612739 0.248949 0.196239
O O16 0.405196 0.000000 0.710005
O O17 0.500000 0.712822 0.500000
O O18 0.550501 0.500000 0.666190
#
# Coordination Sequence:
#
# PCOD8099717 Si02
#       7
#     8   8   8   8   8   8   8
#     4  11  23  38  59  86 117 156 201 247 295 348
#     4  11  22  37  59  87 121 159 199 240 293 351
#     4  10  21  40  65  92 121 152 192 242 293 347
#     4  10  21  38  63  93 123 154 191 237 293 351
#     4  12  25  40  61  86 116 155 199 245 295 350
#     4  11  24  41  59  82 117 158 201 247 293 347
#     4  10  20  35  56  84 119 155 193 240 289 343
#
# _framework density 20.008194
#
# number of rings (size 3 to 8) (size 9 to 14) (size 15 to 20)
#    0.000    1.286    1.429    4.714    0.000    8.857 
#    0.000    0.714    0.000    0.000    0.000    0.000 
#    0.000    0.000    0.000    0.000    0.000    0.000 
#
# Total GULP energy -347423.069274 kJ/mol
# GULP energy per Si atom -12407.966760 kJ/mol
# Density = 1.996265 g / cm^3
# Si number density = 20.008194 Si / 1000 Ang^3
#
#
#
# Elastic Constant Matrix: (Units=GPa)
#
#
# Indices 1 2 3 4 5 6 
#
# 1 48.9511 25.9368 25.2715 0.0000 5.7213 0.0000
# 2 25.9368 93.5840 40.6438 0.0000 2.3115 0.0000
# 3 25.2715 40.6438 126.6291 0.0000 12.6172 0.0000
# 4 0.0000 0.0000 0.0000 39.0238 0.0000 -0.3769
# 5 5.7213 2.3115 12.6172 0.0000 33.2418 0.0000
# 6 0.0000 0.0000 0.0000 -0.3769 0.0000 30.0936
#
#
#
# Elastic Compliance Matrix: (Units=1/GPa)
#
#
# Indices 1 2 3 4 5 6 
#
# 1 0.025278 -0.005656 -0.002947 0.000000 -0.002839 0.000000
# 2 -0.005656 0.013697 -0.003398 0.000000 0.001311 0.000000
# 3 -0.002947 -0.003398 0.009875 0.000000 -0.003005 0.000000
# 4 0.000000 0.000000 0.000000 0.025629 0.000000 0.000321
# 5 -0.002839 0.001311 -0.003005 0.000000 0.031621 0.000000
# 6 0.000000 0.000000 0.000000 0.000321 0.000000 0.033234
#
#
# Mechanical properties :
#
#
# Convention : Reuss Voigt Hill
#
# Bulk Modulus (GPa) = 40.24318 50.31872 45.28095
# Shear Modulus (GPa) = 29.13462 32.29264 30.71363
#
# Velocity S-wave (km/s) = 3.82007 4.02178 3.92223
# Velocity P-wave (km/s) = 6.29399 6.83886 6.57207
#
# Compressibility (1/GPa) = 0.02484893
#
# Stress axis : x y z
#
# Youngs Moduli (GPa) = 39.55935 73.01106 101.26427
#
# Poissons Ratio (x) = 0.41296 0.29838
# Poissons Ratio (y) = 0.22375 0.34409
# Poissons Ratio (z) = 0.11656 0.24809
#
# Static dielectric constant tensor:
#      x y z
#    x 3.696940 0.000000 0.028420 
#    y 0.000000 3.612600 0.000000 
#    z 0.028420 0.000000 3.696450 
# 
# 
# High freq. dielectric constant tensor:
#      x y z
#    x 1.771020 0.000000 0.005280 
#    y 0.000000 1.790350 0.000000 
#    z 0.005280 0.000000 1.789450 
# 
# From -- ./inp_files/180851.got.cif
#   From: 2010.06.25/outbox.cif.g09.slc.cpg/sg12_91_cif.got.tgz:180851.got - 2010.06.28 00:19:55.
