data_PCOD8099468
_publ_section_title
;
Structure prediction by ZEFSAII (Michael W. Deem and Ramdas Pophale) SiO2 
 PCOD8099468
Probable space group: C 2/M
;
_chemical_formula_sum "Si O2"
_cell_formula_units_Z 56
_cell_length_a 18.721645
_cell_length_b 8.890648
_cell_length_c 22.897318
_cell_angle_alpha 90.000000
_cell_angle_beta 127.615308
_cell_angle_gamma 90.000000
_cell_volume 3018.954966
_symmetry_space_group_name_H-M "C 2/M"
_symmetry_group_IT_number 12
_symmetry_cell_setting 'monoclinic'
loop_
_space_group_symop_operation_xyz
x,y,z
-x,y,-z
-x,-y,-z
x,-y,z
1/2+x,1/2+y,z
1/2-x,1/2+y,-z
1/2-x,1/2-y,-z
1/2+x,1/2-y,z
loop_
_atom_site_type_symbol
_atom_site_label
_atom_site_fract_x
_atom_site_fract_y
_atom_site_fract_z
Si Si1 0.671653 0.677720 0.999151
Si Si2 0.178005 0.674295 0.126740
Si Si3 0.121061 0.833320 0.274307
Si Si4 0.096005 0.320706 0.566671
Si Si5 0.753573 0.822299 0.564317
Si Si6 0.511836 0.825912 0.128280
Si Si7 0.210240 0.667163 0.726765
O O1 0.680492 0.500000 0.999557
O O2 0.575126 0.726526 0.926741
O O3 0.750000 0.750000 0.000000
O O4 0.680092 0.727318 0.070073
O O5 0.184607 0.500000 0.113272
O O6 0.085920 0.709259 0.115598
O O7 0.265027 0.718708 0.208911
O O8 0.153410 0.779955 0.354929
O O9 0.049915 0.716834 0.211277
O O10 0.209678 0.842123 0.279437
O O11 0.076940 0.000000 0.255044
O O12 0.094877 0.500000 0.563213
O O13 0.168689 0.256381 0.557470
O O14 0.122740 0.274056 0.646783
O O15 0.000000 0.251589 0.500000
O O16 0.750000 0.750000 0.500000
O O17 0.746353 0.000000 0.554643
O O18 0.484610 0.000000 0.114382
O O19 0.193361 0.500000 0.744584
#
# Coordination Sequence:
#
# PCOD8099468 Si02
#       7
#     8   8   8   8   8   8   8
#     4  12  25  40  57  77 106 140 171 206 254 309
#     4  10  20  35  56  81 107 134 170 215 257 302
#     4   8  15  29  48  71  99 132 171 211 253 302
#     4   8  14  27  48  72  97 128 169 213 253 295
#     4   9  17  29  47  71  99 132 169 211 258 306
#     4  10  20  35  57  83 106 131 170 216 258 304
#     4   8  14  27  49  74  98 128 169 213 254 298
#
# _framework density 18.549467
#
# number of rings (size 3 to 8) (size 9 to 14) (size 15 to 20)
#    0.000    2.714    0.000    4.286    0.000    4.000 
#    0.000    3.571    0.000    6.857    0.000    0.000 
#    0.000    0.000    0.000    0.000    0.000    0.000 
#
# Total GULP energy -347058.280467 kJ/mol
# GULP energy per Si atom -12394.938588 kJ/mol
# Density = 1.850725 g / cm^3
# Si number density = 18.549467 Si / 1000 Ang^3
#
#
#
# Elastic Constant Matrix: (Units=GPa)
#
#
# Indices 1 2 3 4 5 6 
#
# 1 65.2539 41.9890 58.8238 0.0000 4.7982 0.0000
# 2 41.9890 94.5517 60.5042 0.0000 0.2422 0.0000
# 3 58.8238 60.5042 167.1096 0.0000 5.8383 0.0000
# 4 0.0000 0.0000 0.0000 33.0787 0.0000 -3.8692
# 5 4.7982 0.2422 5.8383 0.0000 27.1913 0.0000
# 6 0.0000 0.0000 0.0000 -3.8692 0.0000 21.3273
#
#
#
# Elastic Compliance Matrix: (Units=1/GPa)
#
#
# Indices 1 2 3 4 5 6 
#
# 1 0.026140 -0.007527 -0.006365 0.000000 -0.003179 0.000000
# 2 -0.007527 0.015958 -0.003193 0.000000 0.001872 0.000000
# 3 -0.006365 -0.003193 0.009411 0.000000 -0.000869 0.000000
# 4 0.000000 0.000000 0.000000 0.030886 0.000000 0.005603
# 5 -0.003179 0.001872 -0.000869 0.000000 0.037507 0.000000
# 6 0.000000 0.000000 0.000000 0.005603 0.000000 0.047905
#
#
# Mechanical properties :
#
#
# Convention : Reuss Voigt Hill
#
# Bulk Modulus (GPa) = 57.67872 72.17213 64.92542
# Shear Modulus (GPa) = 24.06650 27.35934 25.71292
#
# Velocity S-wave (km/s) = 3.60588 3.84466 3.72718
# Velocity P-wave (km/s) = 6.96409 7.66165 7.32119
#
# Compressibility (1/GPa) = 0.01733742
#
# Stress axis : x y z
#
# Youngs Moduli (GPa) = 38.25581 62.66599 106.25608
#
# Poissons Ratio (x) = 0.47170 0.67632
# Poissons Ratio (y) = 0.28796 0.33932
# Poissons Ratio (z) = 0.24350 0.20012
#
# Static dielectric constant tensor:
#      x y z
#    x 3.266880 0.000000 0.104260 
#    y 0.000000 3.271010 0.000000 
#    z 0.104260 0.000000 3.924440 
# 
# 
# High freq. dielectric constant tensor:
#      x y z
#    x 1.680940 0.000000 0.006210 
#    y 0.000000 1.705540 0.000000 
#    z 0.006210 0.000000 1.741920 
# 
# From -- ./inp_files/314442.got.cif
#   From: 2010.06.25/outbox.cif.g09.slc.cpg/sg12_158_cif.got.tgz:314442.got - 2010.06.28 00:19:55.
