data_PCOD8099212
_publ_section_title
;
Structure prediction by ZEFSAII (Michael W. Deem and Ramdas Pophale) SiO2 
 PCOD8099212
Probable space group: C 2/M
;
_chemical_formula_sum "Si O2"
_cell_formula_units_Z 56
_cell_length_a 17.869756
_cell_length_b 8.746227
_cell_length_c 18.624768
_cell_angle_alpha 90.000000
_cell_angle_beta 76.153824
_cell_angle_gamma 90.000000
_cell_volume 2826.333484
_symmetry_space_group_name_H-M "C 2/M"
_symmetry_group_IT_number 12
_symmetry_cell_setting 'monoclinic'
loop_
_space_group_symop_operation_xyz
x,y,z
-x,y,-z
-x,-y,-z
x,-y,z
1/2+x,1/2+y,z
1/2-x,1/2+y,-z
1/2-x,1/2-y,-z
1/2+x,1/2-y,z
loop_
_atom_site_type_symbol
_atom_site_label
_atom_site_fract_x
_atom_site_fract_y
_atom_site_fract_z
Si Si1 0.584143 0.318761 0.999612
Si Si2 0.724394 0.320729 0.431422
Si Si3 0.562742 0.179582 0.427247
Si Si4 0.853624 0.677298 0.287707
Si Si5 0.011984 0.179931 0.291056
Si Si6 0.801449 0.321919 0.139130
Si Si7 0.869104 0.181421 0.855962
O O1 0.581790 0.500000 0.003490
O O2 0.643200 0.270179 0.925408
O O3 0.500000 0.252419 0.000000
O O4 0.609632 0.250968 0.070796
O O5 0.719352 0.500000 0.442689
O O6 0.750000 0.250000 0.500000
O O7 0.641973 0.262280 0.425887
O O8 0.785903 0.275129 0.356998
O O9 0.500000 0.230757 0.500000
O O10 0.531121 0.227533 0.357705
O O11 0.577246 0.000000 0.426345
O O12 0.876826 0.500000 0.292130
O O13 0.824250 0.712333 0.215079
O O14 0.925568 0.785168 0.286795
O O15 0.069073 0.240323 0.215982
O O16 0.021971 0.000000 0.302928
O O17 0.807526 0.500000 0.118915
O O18 0.715127 0.259726 0.147086
O O19 0.870924 0.000000 0.857497
#
# Coordination Sequence:
#
# PCOD8099212 Si02
#       7
#     8   8   8   8   8   8   8
#     4  10  20  35  55  80 112 146 182 230 284 335
#     4  11  23  40  62  87 117 154 194 236 285 339
#     4  11  24  41  60  85 119 154 188 233 288 340
#     4  10  22  39  57  81 116 152 186 234 292 339
#     4  11  22  38  62  87 112 148 193 235 281 342
#     4  10  20  36  57  79 108 147 188 229 277 336
#     4   9  19  36  56  80 112 148 184 229 287 341
#
# _framework density 19.813656000000002
#
# number of rings (size 3 to 8) (size 9 to 14) (size 15 to 20)
#    0.000    1.714    0.000    4.286    0.000   10.000 
#    0.000    4.286    0.000    0.000    0.000    0.000 
#    0.000    0.000    0.000    0.000    0.000    0.000 
#
# Total GULP energy -347333.805592 kJ/mol
# GULP energy per Si atom -12404.778771 kJ/mol
# Density = 1.976856 g / cm^3
# Si number density = 19.813656 Si / 1000 Ang^3
#
#
#
# Elastic Constant Matrix: (Units=GPa)
#
#
# Indices 1 2 3 4 5 6 
#
# 1 163.6510 25.7279 70.0465 0.0000 -7.4734 0.0000
# 2 25.7279 27.0756 25.1879 0.0000 -8.9634 0.0000
# 3 70.0465 25.1879 167.2591 0.0000 -7.2930 0.0000
# 4 0.0000 0.0000 0.0000 23.4433 0.0000 -6.1630
# 5 -7.4734 -8.9634 -7.2930 0.0000 44.1098 0.0000
# 6 0.0000 0.0000 0.0000 -6.1630 0.0000 30.6235
#
#
#
# Elastic Compliance Matrix: (Units=1/GPa)
#
#
# Indices 1 2 3 4 5 6 
#
# 1 0.008038 -0.005287 -0.002576 0.000000 -0.000138 0.000000
# 2 -0.005287 0.049203 -0.004833 0.000000 0.008303 0.000000
# 3 -0.002576 -0.004833 0.007780 0.000000 -0.000132 0.000000
# 4 0.000000 0.000000 0.000000 0.045039 0.000000 0.009064
# 5 -0.000138 0.008303 -0.000132 0.000000 0.024313 0.000000
# 6 0.000000 0.000000 0.000000 0.009064 0.000000 0.034479
#
#
# Mechanical properties :
#
#
# Convention : Reuss Voigt Hill
#
# Bulk Modulus (GPa) = 25.23510 66.65669 45.94589
# Shear Modulus (GPa) = 24.10176 35.43686 29.76931
#
# Velocity S-wave (km/s) = 3.49151 4.23366 3.88037
# Velocity P-wave (km/s) = 5.38684 7.59035 6.58147
#
# Compressibility (1/GPa) = 0.03962734
#
# Stress axis : x y z
#
# Youngs Moduli (GPa) = 124.40742 20.32399 128.54032
#
# Poissons Ratio (x) = 0.10746 0.33113
# Poissons Ratio (y) = 0.65779 0.62126
# Poissons Ratio (z) = 0.32048 0.09823
#
# Static dielectric constant tensor:
#      x y z
#    x 3.823120 0.000000 0.015480 
#    y 0.000000 3.412880 0.000000 
#    z 0.015480 0.000000 3.837640 
# 
# 
# High freq. dielectric constant tensor:
#      x y z
#    x 1.793090 0.000000 0.001310 
#    y 0.000000 1.755780 0.000000 
#    z 0.001310 0.000000 1.793510 
# 
# From -- ./inp_files/275147.got.cif
#   From: 2010.06.25/outbox.cif.g09.slc.cpg/sg12_138_cif.got.tgz:275147.got - 2010.06.28 00:19:55.
