data_PCOD8099919
_publ_section_title
;
Structure prediction by ZEFSAII (Michael W. Deem and Ramdas Pophale) SiO2 
 PCOD8099919
Probable space group: C 2/M
;
_chemical_formula_sum "Si O2"
_cell_formula_units_Z 64
_cell_length_a 15.222824
_cell_length_b 9.125400
_cell_length_c 28.568628
_cell_angle_alpha 90.000000
_cell_angle_beta 58.318069
_cell_angle_gamma 90.000000
_cell_volume 3377.180177
_symmetry_space_group_name_H-M "C 2/M"
_symmetry_group_IT_number 12
_symmetry_cell_setting 'monoclinic'
loop_
_space_group_symop_operation_xyz
x,y,z
-x,y,-z
-x,-y,-z
x,-y,z
1/2+x,1/2+y,z
1/2-x,1/2+y,-z
1/2-x,1/2-y,-z
1/2+x,1/2-y,z
loop_
_atom_site_type_symbol
_atom_site_label
_atom_site_fract_x
_atom_site_fract_y
_atom_site_fract_z
Si Si1 0.606543 0.835642 0.444678
Si Si2 0.627320 0.672750 0.257247
Si Si3 0.249283 0.326767 0.867042
Si Si4 0.330032 0.671188 0.944415
Si Si5 0.395727 0.328014 0.336816
Si Si6 0.535438 0.328531 0.938694
Si Si7 0.723624 0.828645 0.555240
Si Si8 0.204675 0.664733 0.324703
O O1 0.500000 0.806959 0.500000
O O2 0.678712 0.702867 0.439638
O O3 0.606520 0.826360 0.388079
O O4 0.647503 0.000000 0.447071
O O5 0.634634 0.500000 0.257682
O O6 0.683756 0.732405 0.195165
O O7 0.508078 0.722872 0.287726
O O8 0.685540 0.731298 0.286507
O O9 0.235319 0.500000 0.869193
O O10 0.309976 0.278464 0.896865
O O11 0.136999 0.256621 0.895252
O O12 0.311142 0.500000 0.956406
O O13 0.446626 0.712379 0.926222
O O14 0.250000 0.750000 0.000000
O O15 0.391816 0.500000 0.349228
O O16 0.375281 0.241631 0.391153
O O17 0.310435 0.287673 0.321479
O O18 0.560770 0.500000 0.931674
O O19 0.500000 0.276747 0.000000
O O20 0.750000 0.750000 0.500000
O O21 0.704890 0.000000 0.552526
O O22 0.216685 0.500000 0.302213
#
# Coordination Sequence:
#
# PCOD8099919 Si02
#       8
#     8   8   8   8   8   8   8   8
#     4   9  19  36  56  81 113 144 179 231 290 350
#     4  10  22  39  59  82 113 150 194 237 277 333
#     4  10  22  38  56  84 116 152 192 231 279 339
#     4  10  20  35  57  83 115 151 187 229 282 334
#     4   9  20  40  60  80 110 151 191 235 289 346
#     4  10  20  35  57  86 117 148 185 234 284 332
#     4  11  22  35  54  82 114 146 186 234 286 345
#     4   9  19  36  58  83 111 147 189 230 287 344
#
# _framework density 18.950721000000001
#
# number of rings (size 3 to 8) (size 9 to 14) (size 15 to 20)
#    0.000    2.250    1.250    1.875    1.750    5.000 
#    0.000    2.500    0.000    0.000    0.000    0.000 
#    0.000    0.000    0.000    0.000    0.000    0.000 
#
# Total GULP energy -396687.194429 kJ/mol
# GULP energy per Si atom -12396.474826 kJ/mol
# Density = 1.890759 g / cm^3
# Si number density = 18.950721 Si / 1000 Ang^3
#
#
#
# Elastic Constant Matrix: (Units=GPa)
#
#
# Indices 1 2 3 4 5 6 
#
# 1 118.9780 36.1510 82.6339 0.0000 -2.5483 0.0000
# 2 36.1510 51.4555 51.0565 0.0000 -2.3074 0.0000
# 3 82.6339 51.0565 180.9458 0.0000 -7.8635 0.0000
# 4 0.0000 0.0000 0.0000 28.5846 0.0000 0.9054
# 5 -2.5483 -2.3074 -7.8635 0.0000 33.9578 0.0000
# 6 0.0000 0.0000 0.0000 0.9054 0.0000 31.1821
#
#
#
# Elastic Compliance Matrix: (Units=1/GPa)
#
#
# Indices 1 2 3 4 5 6 
#
# 1 0.013028 -0.004514 -0.004694 0.000000 -0.000416 0.000000
# 2 -0.004514 0.028555 -0.005987 0.000000 0.000215 0.000000
# 3 -0.004694 -0.005987 0.009421 0.000000 0.001423 0.000000
# 4 0.000000 0.000000 0.000000 0.035016 0.000000 -0.001017
# 5 -0.000416 0.000215 0.001423 0.000000 0.029761 0.000000
# 6 0.000000 0.000000 0.000000 -0.001017 0.000000 0.032099
#
#
# Mechanical properties :
#
#
# Convention : Reuss Voigt Hill
#
# Bulk Modulus (GPa) = 48.50743 76.78467 62.64605
# Shear Modulus (GPa) = 27.00646 30.84741 28.92694
#
# Velocity S-wave (km/s) = 3.77913 4.03894 3.91119
# Velocity P-wave (km/s) = 6.68540 7.89663 7.31612
#
# Compressibility (1/GPa) = 0.02061540
#
# Stress axis : x y z
#
# Youngs Moduli (GPa) = 76.76051 35.01967 106.14522
#
# Poissons Ratio (x) = 0.15808 0.49822
# Poissons Ratio (y) = 0.34650 0.63544
# Poissons Ratio (z) = 0.36030 0.20965
#
# Static dielectric constant tensor:
#      x y z
#    x 3.437590 0.000000 -0.065770 
#    y 0.000000 2.053100 0.000000 
#    z -0.065770 0.000000 3.730340 
# 
# 
# High freq. dielectric constant tensor:
#      x y z
#    x 1.735050 0.000000 -0.001170 
#    y 0.000000 1.725040 0.000000 
#    z -0.001170 0.000000 1.742810 
# 
# From -- ./inp_files/375022.got.cif
#   From: 2010.06.25/outbox.cif.g09.slc.cpg/sg12_188_cif.got.tgz:375022.got - 2010.06.28 00:19:55.
