data_PCOD8099531
_publ_section_title
;
Structure prediction by ZEFSAII (Michael W. Deem and Ramdas Pophale) SiO2 
 PCOD8099531
Probable space group: C 2/M
;
_chemical_formula_sum "Si O2"
_cell_formula_units_Z 56
_cell_length_a 19.553837
_cell_length_b 8.913645
_cell_length_c 21.351523
_cell_angle_alpha 90.000000
_cell_angle_beta 126.380896
_cell_angle_gamma 90.000000
_cell_volume 2996.135748
_symmetry_space_group_name_H-M "C 2/M"
_symmetry_group_IT_number 12
_symmetry_cell_setting 'monoclinic'
loop_
_space_group_symop_operation_xyz
x,y,z
-x,y,-z
-x,-y,-z
x,-y,z
1/2+x,1/2+y,z
1/2-x,1/2+y,-z
1/2-x,1/2-y,-z
1/2+x,1/2-y,z
loop_
_atom_site_type_symbol
_atom_site_label
_atom_site_fract_x
_atom_site_fract_y
_atom_site_fract_z
Si Si1 0.172804 0.677044 0.643908
Si Si2 0.991548 0.325494 0.373161
Si Si3 0.598538 0.332975 0.043424
Si Si4 0.660135 0.826887 0.957137
Si Si5 0.769250 0.323056 0.804997
Si Si6 0.875429 0.328489 0.199963
Si Si7 0.677100 0.822550 0.502311
O O1 0.178827 0.500000 0.658314
O O2 0.079368 0.734833 0.615946
O O3 0.245247 0.755894 0.724477
O O4 0.190465 0.721062 0.582015
O O5 0.002895 0.500000 0.392583
O O6 0.960381 0.290188 0.285455
O O7 0.084849 0.253739 0.432932
O O8 0.638834 0.500000 0.061430
O O9 0.640887 0.242948 0.123728
O O10 0.500000 0.344155 0.000000
O O11 0.607765 0.249183 0.983058
O O12 0.606980 0.805674 0.863885
O O13 0.674007 0.000000 0.980967
O O14 0.750000 0.750000 0.000000
O O15 0.776354 0.500000 0.802953
O O16 0.700567 0.279662 0.820430
O O17 0.847963 0.500000 0.199747
O O18 0.750000 0.750000 0.500000
O O19 0.681090 0.000000 0.494289
#
# Coordination Sequence:
#
# PCOD8099531 Si02
#       7
#     8   8   8   8   8   8   8
#     4   9  18  35  59  81 105 142 187 228 270 327
#     4   8  15  32  58  82 103 138 187 228 260 314
#     4  11  24  41  58  78 112 155 192 233 283 334
#     4  11  21  34  58  86 115 149 188 232 278 331
#     4  11  21  34  57  85 112 142 182 236 283 330
#     4   9  18  34  57  83 111 143 183 230 278 328
#     4  10  20  35  56  81 113 146 179 221 274 331
#
# _framework density 18.690743000000001
#
# number of rings (size 3 to 8) (size 9 to 14) (size 15 to 20)
#    0.000    2.143    1.429    3.429    0.000    4.000 
#    2.571    2.857    0.000    4.286    0.000    0.000 
#    0.000    0.000    0.000    0.000    0.000    0.000 
#
# Total GULP energy -347145.719648 kJ/mol
# GULP energy per Si atom -12398.061416 kJ/mol
# Density = 1.864820 g / cm^3
# Si number density = 18.690743 Si / 1000 Ang^3
#
#
#
# Elastic Constant Matrix: (Units=GPa)
#
#
# Indices 1 2 3 4 5 6 
#
# 1 101.0786 40.2313 72.0261 0.0000 -9.7362 0.0000
# 2 40.2313 94.4646 58.4392 0.0000 -4.3475 0.0000
# 3 72.0261 58.4392 155.1093 0.0000 -6.8833 0.0000
# 4 0.0000 0.0000 0.0000 24.9429 0.0000 -4.9579
# 5 -9.7362 -4.3475 -6.8833 0.0000 29.1738 0.0000
# 6 0.0000 0.0000 0.0000 -4.9579 0.0000 25.4594
#
#
#
# Elastic Compliance Matrix: (Units=1/GPa)
#
#
# Indices 1 2 3 4 5 6 
#
# 1 0.015644 -0.002746 -0.006080 0.000000 0.003377 0.000000
# 2 -0.002746 0.014305 -0.004104 0.000000 0.000247 0.000000
# 3 -0.006080 -0.004104 0.010813 0.000000 -0.000090 0.000000
# 4 0.000000 0.000000 0.000000 0.041706 0.000000 0.008122
# 5 0.003377 0.000247 -0.000090 0.000000 0.035420 0.000000
# 6 0.000000 0.000000 0.000000 0.008122 0.000000 0.040860
#
#
# Mechanical properties :
#
#
# Convention : Reuss Voigt Hill
#
# Bulk Modulus (GPa) = 67.10140 76.89398 71.99769
# Shear Modulus (GPa) = 26.37486 27.91229 27.14358
#
# Velocity S-wave (km/s) = 3.76056 3.86861 3.81497
# Velocity P-wave (km/s) = 7.40504 7.82204 7.61639
#
# Compressibility (1/GPa) = 0.01490282
#
# Stress axis : x y z
#
# Youngs Moduli (GPa) = 63.92256 69.90327 92.48554
#
# Poissons Ratio (x) = 0.19194 0.56231
# Poissons Ratio (y) = 0.17552 0.37954
# Poissons Ratio (z) = 0.38865 0.28686
#
# Static dielectric constant tensor:
#      x y z
#    x 2.986320 0.000000 0.365370 
#    y 0.000000 3.440380 0.000000 
#    z 0.365370 0.000000 3.207870 
# 
# 
# High freq. dielectric constant tensor:
#      x y z
#    x 1.703510 0.000000 -0.003260 
#    y 0.000000 1.711090 0.000000 
#    z -0.003260 0.000000 1.744580 
# 
# From -- ./inp_files/314405.got.cif
#   From: 2010.06.25/outbox.cif.g09.slc.cpg/sg12_158_cif.got.tgz:314405.got - 2010.06.28 00:19:55.
