data_PCOD8099282
_publ_section_title
;
Structure prediction by ZEFSAII (Michael W. Deem and Ramdas Pophale) SiO2 
 PCOD8099282
Probable space group: C 2/M
;
_chemical_formula_sum "Si O2"
_cell_formula_units_Z 40
_cell_length_a 9.966609
_cell_length_b 20.374598
_cell_length_c 16.288406
_cell_angle_alpha 90.000000
_cell_angle_beta 42.463467
_cell_angle_gamma 90.000000
_cell_volume 2233.037456
_symmetry_space_group_name_H-M "C 2/M"
_symmetry_group_IT_number 12
_symmetry_cell_setting 'monoclinic'
loop_
_space_group_symop_operation_xyz
x,y,z
-x,y,-z
-x,-y,-z
x,-y,z
1/2+x,1/2+y,z
1/2-x,1/2+y,-z
1/2-x,1/2-y,-z
1/2+x,1/2-y,z
loop_
_atom_site_type_symbol
_atom_site_label
_atom_site_fract_x
_atom_site_fract_y
_atom_site_fract_z
Si Si1 0.533245 0.632051 0.764978
Si Si2 0.142462 0.636456 0.246108
Si Si3 0.570312 0.500000 0.113013
Si Si4 0.283773 0.000000 0.856728
Si Si5 0.841219 0.311940 0.504976
Si Si6 0.769325 0.743575 0.085893
O O1 0.654488 0.644995 0.793919
O O2 0.442354 0.559840 0.817224
O O3 0.678295 0.640988 0.621370
O O4 0.348613 0.679583 0.831782
O O5 0.105621 0.567245 0.217335
O O6 0.157396 0.693642 0.173120
O O7 0.949920 0.642749 0.389781
O O8 0.408332 0.500000 0.114341
O O9 0.762855 0.500000 0.966114
O O10 0.750000 0.250000 0.500000
O O11 0.000000 0.285222 0.500000
O O12 0.750000 0.750000 0.000000
O O13 0.000000 0.737112 0.000000
#
# Coordination Sequence:
#
# PCOD8099282 Si02
#       6
#     8   8   4   4   8   8
#     4  10  20  36  55  81 111 146 182 230 274 323
#     4  10  20  35  55  83 111 144 186 227 273 327
#     4   9  18  33  54  79 113 148 179 223 279 329
#     4   9  18  31  53  81 115 143 180 227 277 324
#     4  10  20  35  56  83 112 142 184 228 274 323
#     4  12  22  33  54  82 111 141 187 227 272 326
#
# _framework density 17.912821999999998
#
# number of rings (size 3 to 8) (size 9 to 14) (size 15 to 20)
#    0.000    1.800    4.000    1.200    2.800    0.800 
#    0.000    4.500    0.000    0.000    0.000    1.400 
#    0.000    0.000    0.000    0.000    0.000    0.000 
#
# Total GULP energy -247835.302225 kJ/mol
# GULP energy per Si atom -12391.765111 kJ/mol
# Density = 1.787205 g / cm^3
# Si number density = 17.912822 Si / 1000 Ang^3
#
#
#
# Elastic Constant Matrix: (Units=GPa)
#
#
# Indices 1 2 3 4 5 6 
#
# 1 58.8253 42.3682 51.3311 -0.0004 2.2344 0.0003
# 2 42.3682 174.7617 89.3006 -0.0003 6.8980 -0.0002
# 3 51.3311 89.3006 159.8414 -0.0013 7.1001 -0.0010
# 4 -0.0004 -0.0003 -0.0013 36.9888 0.0005 1.8735
# 5 2.2344 6.8980 7.1001 0.0005 25.3947 0.0001
# 6 0.0003 -0.0002 -0.0010 1.8735 0.0001 11.3010
#
#
#
# Elastic Compliance Matrix: (Units=1/GPa)
#
#
# Indices 1 2 3 4 5 6 
#
# 1 0.024489 -0.002693 -0.006376 0.000000 0.000359 -0.000001
# 2 -0.002693 0.008327 -0.003744 0.000000 -0.000978 0.000000
# 3 -0.006376 -0.003744 0.010455 0.000000 -0.001345 0.000001
# 4 0.000000 0.000000 0.000000 0.027264 -0.000001 -0.004520
# 5 0.000359 -0.000978 -0.001345 -0.000001 0.039988 0.000000
# 6 -0.000001 0.000000 0.000001 -0.004520 0.000000 0.089237
#
#
# Mechanical properties :
#
#
# Convention : Reuss Voigt Hill
#
# Bulk Modulus (GPa) = 56.67163 84.38092 70.52627
# Shear Modulus (GPa) = 21.62009 28.76548 25.19278
#
# Velocity S-wave (km/s) = 3.47790 4.01167 3.75428
# Velocity P-wave (km/s) = 6.91621 8.28653 7.63219
#
# Compressibility (1/GPa) = 0.01764551
#
# Stress axis : x y z
#
# Youngs Moduli (GPa) = 40.83466 120.09830 95.64960
#
# Poissons Ratio (x) = 0.32346 0.60982
# Poissons Ratio (y) = 0.10998 0.35806
# Poissons Ratio (z) = 0.26034 0.44959
#
# Static dielectric constant tensor:
#      x y z
#    x 2.892720 0.000000 0.188200 
#    y 0.000000 3.356340 0.000000 
#    z 0.188200 0.000000 3.485530 
# 
# 
# High freq. dielectric constant tensor:
#      x y z
#    x 1.659430 0.000000 0.008950 
#    y 0.000000 1.693990 0.000000 
#    z 0.008950 0.000000 1.713890 
# 
# From -- ./inp_files/48832.got.cif
#   From: 2010.06.25/outbox.cif.g09.slc.cpg/sg12_25_cif.got.tgz:48832.got - 2010.06.28 00:19:55.
