data_PCOD8100704
_publ_section_title
;
Structure prediction by ZEFSAII (Michael W. Deem and Ramdas Pophale) SiO2 
 PCOD8100704
Probable space group: C 2/M
;
_chemical_formula_sum "Si O2"
_cell_formula_units_Z 40
_cell_length_a 21.373670
_cell_length_b 9.124530
_cell_length_c 18.623481
_cell_angle_alpha 90.000000
_cell_angle_beta 29.897275
_cell_angle_gamma 90.000000
_cell_volume 1810.376996
_symmetry_space_group_name_H-M "C 2/M"
_symmetry_group_IT_number 12
_symmetry_cell_setting 'monoclinic'
loop_
_space_group_symop_operation_xyz
x,y,z
-x,y,-z
-x,-y,-z
x,-y,z
1/2+x,1/2+y,z
1/2-x,1/2+y,-z
1/2-x,1/2-y,-z
1/2+x,1/2-y,z
loop_
_atom_site_type_symbol
_atom_site_label
_atom_site_fract_x
_atom_site_fract_y
_atom_site_fract_z
Si Si1 0.244762 0.166384 0.077983
Si Si2 0.483031 0.833317 0.197257
Si Si3 0.974419 0.827693 0.354487
Si Si4 0.871323 0.669539 0.161275
Si Si5 0.126315 0.672875 0.415303
O O1 0.114805 0.212008 0.246660
O O2 0.225431 0.000000 0.075266
O O3 0.250000 0.250000 0.000000
O O4 0.380751 0.192473 0.979756
O O5 0.459710 0.723774 0.286463
O O6 0.378351 0.810550 0.240750
O O7 0.479872 0.000000 0.230204
O O8 0.878404 0.739555 0.499833
O O9 0.943126 0.000000 0.389803
O O10 0.853393 0.500000 0.156602
O O11 0.749608 0.758227 0.254035
O O12 0.000000 0.732756 0.000000
O O13 0.143125 0.500000 0.402061
O O14 0.000000 0.719542 0.500000
#
# Coordination Sequence:
#
# PCOD8100704 Si02
#       5
#     8   8   8   8   8
#     4   8  15  28  50  83 119 153 190 236 292 353
#     4   9  18  35  59  90 127 161 198 250 311 369
#     4  10  20  35  61  93 122 160 208 255 307 363
#     4  10  23  42  67  95 124 163 208 255 311 371
#     4  11  26  45  63  88 124 167 209 255 313 371
#
# _framework density 22.094847000000001
#
# number of rings (size 3 to 8) (size 9 to 14) (size 15 to 20)
#    0.000    2.400    0.000    1.200    2.800    4.400 
#    0.000    0.000    0.000    0.000    0.000    0.000 
#    0.000    0.000    0.000    0.000    0.000    0.000 
#
# Total GULP energy -247778.431082 kJ/mol
# GULP energy per Si atom -12388.921554 kJ/mol
# Density = 2.204456 g / cm^3
# Si number density = 22.094847 Si / 1000 Ang^3
#
#
#
# Elastic Constant Matrix: (Units=GPa)
#
#
# Indices 1 2 3 4 5 6 
#
# 1 63.8083 29.2694 31.0165 0.0000 -21.6385 0.0000
# 2 29.2694 74.0771 54.6284 -0.0011 -12.8374 0.0006
# 3 31.0165 54.6284 133.9962 -0.0006 -17.7050 0.0004
# 4 0.0000 -0.0011 -0.0006 31.0204 0.0002 -5.2297
# 5 -21.6385 -12.8374 -17.7050 0.0002 30.9147 -0.0001
# 6 0.0000 0.0006 0.0004 -5.2297 -0.0001 24.2403
#
#
#
# Elastic Compliance Matrix: (Units=1/GPa)
#
#
# Indices 1 2 3 4 5 6 
#
# 1 0.023563 -0.006123 -0.001206 0.000000 0.013260 0.000000
# 2 -0.006123 0.021315 -0.007215 0.000001 0.000433 0.000000
# 3 -0.001206 -0.007215 0.011009 0.000000 0.002465 0.000000
# 4 0.000000 0.000001 0.000000 0.033454 0.000000 0.007217
# 5 0.013260 0.000433 0.002465 0.000000 0.043219 0.000000
# 6 0.000000 0.000000 0.000000 0.007217 0.000000 0.042811
#
#
# Mechanical properties :
#
#
# Convention : Reuss Voigt Hill
#
# Bulk Modulus (GPa) = 37.31509 55.74559 46.53034
# Shear Modulus (GPa) = 23.43094 27.69956 25.56525
#
# Velocity S-wave (km/s) = 3.26002 3.54456 3.40526
# Velocity P-wave (km/s) = 5.57634 6.48357 6.04700
#
# Compressibility (1/GPa) = 0.02679881
#
# Stress axis : x y z
#
# Youngs Moduli (GPa) = 42.43853 46.91586 90.83269
#
# Poissons Ratio (x) = 0.28728 0.10954
# Poissons Ratio (y) = 0.25986 0.65537
# Poissons Ratio (z) = 0.05118 0.33851
#
# Static dielectric constant tensor:
#      x y z
#    x 4.319610 0.000000 -0.742600 
#    y 0.000000 3.764820 0.000000 
#    z -0.742600 0.000000 4.534900 
# 
# 
# High freq. dielectric constant tensor:
#      x y z
#    x 1.859620 0.000000 -0.014590 
#    y 0.000000 1.853170 0.000000 
#    z -0.014590 0.000000 1.880800 
# 
# From -- ./inp_files/323982.got.cif
#   From: 2010.06.25/outbox.cif.g09.slc.cpg/sg12_162_cif.got.tgz:323982.got - 2010.06.28 00:19:55.
