data_PCOD8100515
_publ_section_title
;
Structure prediction by ZEFSAII (Michael W. Deem and Ramdas Pophale) SiO2 
 PCOD8100515
Probable space group: C 2/M
;
_chemical_formula_sum "Si O2"
_cell_formula_units_Z 56
_cell_length_a 24.850204
_cell_length_b 13.761891
_cell_length_c 9.935326
_cell_angle_alpha 90.000000
_cell_angle_beta 59.244881
_cell_angle_gamma 90.000000
_cell_volume 2919.884660
_symmetry_space_group_name_H-M "C 2/M"
_symmetry_group_IT_number 12
_symmetry_cell_setting 'monoclinic'
loop_
_space_group_symop_operation_xyz
x,y,z
-x,y,-z
-x,-y,-z
x,-y,z
1/2+x,1/2+y,z
1/2-x,1/2+y,-z
1/2-x,1/2-y,-z
1/2+x,1/2-y,z
loop_
_atom_site_type_symbol
_atom_site_label
_atom_site_fract_x
_atom_site_fract_y
_atom_site_fract_z
Si Si1 0.011930 0.114297 0.138829
Si Si2 0.319225 0.388411 0.747873
Si Si3 0.199739 0.887006 0.686751
Si Si4 0.107897 0.801738 0.585976
Si Si5 0.147481 0.195952 0.017425
Si Si6 0.822667 0.392143 0.132665
Si Si7 0.660336 0.108849 0.579377
O O1 0.080159 0.146845 0.096358
O O2 0.963637 0.170522 0.295988
O O3 0.003680 0.000000 0.171222
O O4 0.000000 0.143475 0.000000
O O5 0.332615 0.500000 0.767791
O O6 0.371665 0.353358 0.576931
O O7 0.321635 0.324261 0.878621
O O8 0.251775 0.374527 0.766267
O O9 0.150162 0.832827 0.657563
O O10 0.268944 0.863536 0.548834
O O11 0.183368 0.000000 0.700528
O O12 0.193243 0.848722 0.846532
O O13 0.114039 0.684640 0.565188
O O14 0.142978 0.312602 0.004134
O O15 0.837073 0.500000 0.055931
O O16 0.848797 0.383291 0.249414
O O17 0.644164 0.000000 0.549687
#
# Coordination Sequence:
#
# PCOD8100515 Si02
#       7
#     8   8   8   8   8   8   8
#     4  11  22  36  58  84 112 147 193 238 278 334
#     4  11  23  37  57  86 119 149 184 234 291 344
#     4  11  19  32  58  83 109 144 187 232 282 336
#     4  12  21  37  58  82 113 153 190 227 284 335
#     4  12  23  38  55  84 119 152 188 234 283 334
#     4  10  20  37  59  85 114 149 190 235 287 338
#     4  10  20  35  59  89 113 143 192 243 281 331
#
# _framework density 19.178840000000001
#
# number of rings (size 3 to 8) (size 9 to 14) (size 15 to 20)
#    0.000    1.000    4.286    4.286    0.000    0.571 
#    0.000    4.286    0.000    2.571    0.000    2.000 
#    0.000    0.000    0.000    0.000    0.000    0.000 
#
# Total GULP energy -347339.977397 kJ/mol
# GULP energy per Si atom -12404.999193 kJ/mol
# Density = 1.913519 g / cm^3
# Si number density = 19.178840 Si / 1000 Ang^3
#
#
#
# Elastic Constant Matrix: (Units=GPa)
#
#
# Indices 1 2 3 4 5 6 
#
# 1 24.8839 16.9936 4.7125 0.0000 -0.9883 0.0000
# 2 16.9936 100.4264 20.7398 0.0000 -14.0493 0.0000
# 3 4.7125 20.7398 73.7312 0.0000 7.5277 0.0000
# 4 0.0000 0.0000 0.0000 28.8836 0.0000 0.5029
# 5 -0.9883 -14.0493 7.5277 0.0000 14.7182 0.0000
# 6 0.0000 0.0000 0.0000 0.5029 0.0000 24.3672
#
#
#
# Elastic Compliance Matrix: (Units=1/GPa)
#
#
# Indices 1 2 3 4 5 6 
#
# 1 0.045752 -0.008423 -0.000050 0.000000 -0.004942 0.000000
# 2 -0.008423 0.014733 -0.005259 0.000000 0.016188 0.000000
# 3 -0.000050 -0.005259 0.016415 0.000000 -0.013419 0.000000
# 4 0.000000 0.000000 0.000000 0.034634 0.000000 -0.000715
# 5 -0.004942 0.016188 -0.013419 0.000000 0.089926 0.000000
# 6 0.000000 0.000000 0.000000 -0.000715 0.000000 0.041053
#
#
# Mechanical properties :
#
#
# Convention : Reuss Voigt Hill
#
# Bulk Modulus (GPa) = 20.22790 31.54814 25.88802
# Shear Modulus (GPa) = 17.45459 24.03351 20.74405
#
# Velocity S-wave (km/s) = 3.02005 3.54379 3.29235
# Velocity P-wave (km/s) = 4.76769 5.76453 5.28964
#
# Compressibility (1/GPa) = 0.04943667
#
# Stress axis : x y z
#
# Youngs Moduli (GPa) = 21.85697 67.87278 60.91910
#
# Poissons Ratio (x) = 0.57168 0.00307
# Poissons Ratio (y) = 0.18410 0.32036
# Poissons Ratio (z) = 0.00110 0.35692
#
# Static dielectric constant tensor:
#      x y z
#    x 3.240070 0.000000 0.006060 
#    y 0.000000 3.936400 0.000000 
#    z 0.006060 0.000000 3.503730 
# 
# 
# High freq. dielectric constant tensor:
#      x y z
#    x 1.714440 0.000000 0.001160 
#    y 0.000000 1.763730 0.000000 
#    z 0.001160 0.000000 1.741860 
# 
# From -- ./inp_files/96736.got.cif
#   From: 2010.06.25/outbox.cif.g09.slc.cpg/sg12_49_cif.got.tgz:96736.got - 2010.06.28 00:19:55.
