data_PCOD8100935
_publ_section_title
;
Structure prediction by ZEFSAII (Michael W. Deem and Ramdas Pophale) SiO2 
 PCOD8100935
Probable space group: C 2/M
;
_chemical_formula_sum "Si O2"
_cell_formula_units_Z 64
_cell_length_a 22.826513
_cell_length_b 8.568327
_cell_length_c 22.640819
_cell_angle_alpha 90.000000
_cell_angle_beta 130.903674
_cell_angle_gamma 90.000000
_cell_volume 3346.888349
_symmetry_space_group_name_H-M "C 2/M"
_symmetry_group_IT_number 12
_symmetry_cell_setting 'monoclinic'
loop_
_space_group_symop_operation_xyz
x,y,z
-x,y,-z
-x,-y,-z
x,-y,z
1/2+x,1/2+y,z
1/2-x,1/2+y,-z
1/2-x,1/2-y,-z
1/2+x,1/2-y,z
loop_
_atom_site_type_symbol
_atom_site_label
_atom_site_fract_x
_atom_site_fract_y
_atom_site_fract_z
Si Si1 0.969225 0.685876 0.068723
Si Si2 0.702634 0.818557 0.608543
Si Si3 0.085972 0.817323 0.444851
Si Si4 0.380504 0.814771 0.899041
Si Si5 0.433998 0.815967 0.297730
Si Si6 0.009279 0.683286 0.789196
Si Si7 0.216575 0.183360 0.745190
Si Si8 0.141951 0.818539 0.354277
O O1 0.972711 0.500000 0.071568
O O2 0.955701 0.751873 0.126238
O O3 0.051909 0.748993 0.099314
O O4 0.900111 0.740497 0.979242
O O5 0.622678 0.775811 0.523624
O O6 0.710947 0.716217 0.672313
O O7 0.772309 0.774528 0.610261
O O8 0.702759 0.000000 0.625879
O O9 0.131969 0.768365 0.415842
O O10 0.996178 0.768712 0.380887
O O11 0.092254 0.000000 0.461855
O O12 0.297757 0.748867 0.823668
O O13 0.378259 0.000000 0.894312
O O14 0.444883 0.751718 0.237730
O O15 0.348748 0.774941 0.262346
O O16 0.448605 0.000000 0.310801
O O17 0.017580 0.500000 0.796157
O O18 0.918718 0.725746 0.726126
O O19 0.207462 0.000000 0.750577
O O20 0.123631 0.000000 0.334615
#
# Coordination Sequence:
#
# PCOD8100935 Si02
#       8
#     8   8   8   8   8   8   8   8
#     4   8  13  26  49  79 107 130 160 204 252 299
#     4  11  22  35  52  77 106 136 166 205 257 310
#     4  10  20  36  56  78 102 132 170 211 249 297
#     4   8  15  27  48  77 107 132 161 205 253 295
#     4  10  21  37  53  72 100 136 172 213 260 303
#     4   9  17  30  53  78 101 133 175 213 249 297
#     4  11  22  36  53  74  99 134 177 217 252 296
#     4   9  19  33  51  77 110 138 162 200 254 305
#
# _framework density 19.122239
#
# number of rings (size 3 to 8) (size 9 to 14) (size 15 to 20)
#    0.000    2.500    0.000    3.375    0.000    3.500 
#    0.000    3.125    0.000    1.500    0.000    6.125 
#    0.000    0.000    0.000    0.000    0.000    0.000 
#
# Total GULP energy -396747.197838 kJ/mol
# GULP energy per Si atom -12398.349932 kJ/mol
# Density = 1.907872 g / cm^3
# Si number density = 19.122239 Si / 1000 Ang^3
#
#
#
# Elastic Constant Matrix: (Units=GPa)
#
#
# Indices 1 2 3 4 5 6 
#
# 1 81.6095 9.8939 61.2770 0.0000 11.4703 0.0000
# 2 9.8939 21.1081 6.1304 0.0000 -2.6133 0.0000
# 3 61.2770 6.1304 150.6878 0.0000 -6.9198 0.0000
# 4 0.0000 0.0000 0.0000 19.0320 0.0000 1.8105
# 5 11.4703 -2.6133 -6.9198 0.0000 21.7606 0.0000
# 6 0.0000 0.0000 0.0000 1.8105 0.0000 22.1609
#
#
#
# Elastic Compliance Matrix: (Units=1/GPa)
#
#
# Indices 1 2 3 4 5 6 
#
# 1 0.023103 -0.010040 -0.009743 0.000000 -0.016482 0.000000
# 2 -0.010040 0.052895 0.002502 0.000000 0.012440 0.000000
# 3 -0.009743 0.002502 0.010905 0.000000 0.008904 0.000000
# 4 0.000000 0.000000 0.000000 0.052955 0.000000 -0.004326
# 5 -0.016482 0.012440 0.008904 0.000000 0.058968 0.000000
# 6 0.000000 0.000000 0.000000 -0.004326 0.000000 0.045478
#
#
# Mechanical properties :
#
#
# Convention : Reuss Voigt Hill
#
# Bulk Modulus (GPa) = 19.10544 45.33419 32.21982
# Shear Modulus (GPa) = 16.87409 24.33097 20.60253
#
# Velocity S-wave (km/s) = 2.97380 3.57093 3.28596
# Velocity P-wave (km/s) = 4.66950 6.38444 5.59309
#
# Compressibility (1/GPa) = 0.05234110
#
# Stress axis : x y z
#
# Youngs Moduli (GPa) = 43.28456 18.90551 91.69773
#
# Poissons Ratio (x) = 0.18981 0.89343
# Poissons Ratio (y) = 0.43457 -0.22943
# Poissons Ratio (z) = 0.42173 -0.04730
#
# Static dielectric constant tensor:
#      x y z
#    x 3.565010 0.000000 -0.164100 
#    y 0.000000 3.190360 0.000000 
#    z -0.164100 0.000000 3.780170 
# 
# 
# High freq. dielectric constant tensor:
#      x y z
#    x 1.734630 0.000000 -0.008460 
#    y 0.000000 1.719610 0.000000 
#    z -0.008460 0.000000 1.750140 
# 
# From -- ./inp_files/346180.got.cif
#   From: 2010.06.25/outbox.cif.g09.slc.cpg/sg12_174_cif.got.tgz:346180.got - 2010.06.28 00:19:55.
