data_PCOD8100613
_publ_section_title
;
Structure prediction by ZEFSAII (Michael W. Deem and Ramdas Pophale) SiO2 
 PCOD8100613
Probable space group: C 2/M
;
_chemical_formula_sum "Si O2"
_cell_formula_units_Z 40
_cell_length_a 20.922876
_cell_length_b 9.076200
_cell_length_c 10.333515
_cell_angle_alpha 90.000000
_cell_angle_beta 81.525493
_cell_angle_gamma 90.000000
_cell_volume 1940.910928
_symmetry_space_group_name_H-M "C 2/M"
_symmetry_group_IT_number 12
_symmetry_cell_setting 'monoclinic'
loop_
_space_group_symop_operation_xyz
x,y,z
-x,y,-z
-x,-y,-z
x,-y,z
1/2+x,1/2+y,z
1/2-x,1/2+y,-z
1/2-x,1/2-y,-z
1/2+x,1/2-y,z
loop_
_atom_site_type_symbol
_atom_site_label
_atom_site_fract_x
_atom_site_fract_y
_atom_site_fract_z
Si Si1 0.345416 0.327266 0.388035
Si Si2 0.454018 0.325151 0.895761
Si Si3 0.311479 0.335876 0.933883
Si Si4 0.770990 0.165232 0.664474
Si Si5 0.019944 0.674929 0.639531
O O1 0.358181 0.500000 0.365188
O O2 0.291138 0.272179 0.302432
O O3 0.318770 0.283215 0.536836
O O4 0.410857 0.240583 0.344305
O O5 0.457771 0.500000 0.868245
O O6 0.381326 0.277114 0.960252
O O7 0.470350 0.240889 0.758477
O O8 0.500000 0.276981 0.000000
O O9 0.301801 0.500000 0.988759
O O10 0.314166 0.328589 0.778461
O O11 0.250000 0.250000 0.000000
O O12 0.745506 0.000000 0.643806
O O13 0.021439 0.500000 0.652338
O O14 0.000000 0.722915 0.500000
#
# Coordination Sequence:
#
# PCOD8100613 Si02
#       5
#     8   8   8   8   8
#     4  10  20  35  60  88 117 155 199 251 306 361
#     4  10  23  43  65  92 127 164 209 258 308 370
#     4  10  22  39  60  86 120 160 202 249 298 358
#     4   9  19  36  56  84 120 156 198 248 303 359
#     4  11  24  40  61  90 125 162 205 254 309 370
#
# _framework density 20.608879000000002
#
# number of rings (size 3 to 8) (size 9 to 14) (size 15 to 20)
#    0.000    2.000    0.000    2.400    2.800    6.000 
#    0.000    0.000    0.000    0.000    0.000    0.000 
#    0.000    0.000    0.000    0.000    0.000    0.000 
#
# Total GULP energy -248001.039390 kJ/mol
# GULP energy per Si atom -12400.051969 kJ/mol
# Density = 2.056197 g / cm^3
# Si number density = 20.608879 Si / 1000 Ang^3
#
#
#
# Elastic Constant Matrix: (Units=GPa)
#
#
# Indices 1 2 3 4 5 6 
#
# 1 168.5088 55.0358 46.4208 0.0000 -7.7580 0.0000
# 2 55.0358 78.2715 35.9586 0.0000 -7.2211 0.0000
# 3 46.4208 35.9586 72.3178 0.0000 -1.6608 0.0000
# 4 0.0000 0.0000 0.0000 30.3531 0.0000 -5.6142
# 5 -7.7580 -7.2211 -1.6608 0.0000 31.5285 0.0000
# 6 0.0000 0.0000 0.0000 -5.6142 0.0000 34.3976
#
#
#
# Elastic Compliance Matrix: (Units=1/GPa)
#
#
# Indices 1 2 3 4 5 6 
#
# 1 0.008234 -0.004263 -0.003145 0.000000 0.000884 0.000000
# 2 -0.004263 0.019130 -0.006707 0.000000 0.002979 0.000000
# 3 -0.003145 -0.006707 0.019152 0.000000 -0.001301 0.000000
# 4 0.000000 0.000000 0.000000 0.033971 0.000000 0.005545
# 5 0.000884 0.002979 -0.001301 0.000000 0.032549 0.000000
# 6 0.000000 0.000000 0.000000 0.005545 0.000000 0.029977
#
#
# Mechanical properties :
#
#
# Convention : Reuss Voigt Hill
#
# Bulk Modulus (GPa) = 54.69048 65.99207 60.34127
# Shear Modulus (GPa) = 28.19482 31.36802 29.78142
#
# Velocity S-wave (km/s) = 3.70278 3.90560 3.80554
# Velocity P-wave (km/s) = 6.69894 7.24078 6.97512
#
# Compressibility (1/GPa) = 0.01828472
#
# Stress axis : x y z
#
# Youngs Moduli (GPa) = 121.44893 52.27493 52.21423
#
# Poissons Ratio (x) = 0.22285 0.16423
# Poissons Ratio (y) = 0.51774 0.35020
# Poissons Ratio (z) = 0.38200 0.35061
#
# Static dielectric constant tensor:
#      x y z
#    x 3.828260 0.000000 0.106160 
#    y 0.000000 3.734500 0.000000 
#    z 0.106160 0.000000 3.825390 
# 
# 
# High freq. dielectric constant tensor:
#      x y z
#    x 1.818370 0.000000 0.002720 
#    y 0.000000 1.798740 0.000000 
#    z 0.002720 0.000000 1.805220 
# 
# From -- ./inp_files/151842.got.cif
#   From: 2010.06.25/outbox.cif.g09.slc.cpg/sg12_76_cif.got.tgz:151842.got - 2010.06.28 00:19:55.
