data_PCOD8100228
_publ_section_title
;
Structure prediction by ZEFSAII (Michael W. Deem and Ramdas Pophale) SiO2 
 PCOD8100228
Probable space group: C 2/M
;
_chemical_formula_sum "Si O2"
_cell_formula_units_Z 56
_cell_length_a 17.999345
_cell_length_b 9.021150
_cell_length_c 19.595325
_cell_angle_alpha 90.000000
_cell_angle_beta 63.117827
_cell_angle_gamma 90.000000
_cell_volume 2837.957376
_symmetry_space_group_name_H-M "C 2/M"
_symmetry_group_IT_number 12
_symmetry_cell_setting 'monoclinic'
loop_
_space_group_symop_operation_xyz
x,y,z
-x,y,-z
-x,-y,-z
x,-y,z
1/2+x,1/2+y,z
1/2-x,1/2+y,-z
1/2-x,1/2-y,-z
1/2+x,1/2-y,z
loop_
_atom_site_type_symbol
_atom_site_label
_atom_site_fract_x
_atom_site_fract_y
_atom_site_fract_z
Si Si1 0.812221 0.828128 0.226993
Si Si2 0.226717 0.171931 0.908850
Si Si3 0.855106 0.328455 0.623710
Si Si4 0.026484 0.670445 0.794483
Si Si5 0.833892 0.175310 0.490643
Si Si6 0.374388 0.327304 0.916681
Si Si7 0.017891 0.330217 0.641640
O O1 0.809753 0.781389 0.148850
O O2 0.724080 0.791145 0.297279
O O3 0.880753 0.732232 0.236890
O O4 0.835255 0.000000 0.225414
O O5 0.310308 0.262858 0.888179
O O6 0.252417 0.000000 0.899284
O O7 0.156603 0.208396 0.994047
O O8 0.855435 0.500000 0.600831
O O9 0.855761 0.225861 0.557509
O O10 0.936382 0.287940 0.633072
O O11 0.026503 0.500000 0.815686
O O12 0.996261 0.693536 0.729708
O O13 0.964629 0.754967 0.871028
O O14 0.750000 0.250000 0.500000
O O15 0.907734 0.221711 0.409555
O O16 0.822688 0.000000 0.492927
O O17 0.382811 0.500000 0.899736
O O18 0.044959 0.500000 0.616344
#
# Coordination Sequence:
#
# PCOD8100228 Si02
#       7
#     8   8   8   8   8   8   8
#     4  10  21  38  59  83 113 150 191 233 281 336
#     4   9  19  37  59  83 113 149 190 235 283 337
#     4  10  21  39  63  87 113 148 188 231 281 337
#     4  11  23  38  57  83 116 151 189 235 284 334
#     4  12  25  40  60  87 119 152 187 231 281 333
#     4  10  20  35  58  85 113 148 190 236 284 337
#     4  10  22  41  63  86 114 150 190 232 281 336
#
# _framework density 19.732503999999999
#
# number of rings (size 3 to 8) (size 9 to 14) (size 15 to 20)
#    0.000    1.714    0.000    4.286    0.000   10.286 
#    0.000    4.286    0.000    0.000    0.000    0.000 
#    0.000    0.000    0.000    0.000    0.000    0.000 
#
# Total GULP energy -347381.247033 kJ/mol
# GULP energy per Si atom -12406.473108 kJ/mol
# Density = 1.968759 g / cm^3
# Si number density = 19.732504 Si / 1000 Ang^3
#
#
#
# Elastic Constant Matrix: (Units=GPa)
#
#
# Indices 1 2 3 4 5 6 
#
# 1 104.2763 43.4036 24.6614 0.0000 -16.4625 -0.0001
# 2 43.4036 91.8375 31.9151 -0.0001 -13.0664 -0.0003
# 3 24.6614 31.9151 74.8255 0.0000 -10.7865 0.0000
# 4 0.0000 -0.0001 0.0000 29.7571 0.0000 -4.1824
# 5 -16.4625 -13.0664 -10.7865 0.0000 35.3972 0.0000
# 6 -0.0001 -0.0003 0.0000 -4.1824 0.0000 37.3458
#
#
#
# Elastic Compliance Matrix: (Units=1/GPa)
#
#
# Indices 1 2 3 4 5 6 
#
# 1 0.012552 -0.004891 -0.001537 0.000000 0.003564 0.000000
# 2 -0.004891 0.015045 -0.004532 0.000000 0.001898 0.000000
# 3 -0.001537 -0.004532 0.016170 0.000000 0.002540 0.000000
# 4 0.000000 0.000000 0.000000 0.034143 0.000000 0.003824
# 5 0.003564 0.001898 0.002540 0.000000 0.031383 0.000000
# 6 0.000000 0.000000 0.000000 0.003824 0.000000 0.027205
#
#
# Mechanical properties :
#
#
# Convention : Reuss Voigt Hill
#
# Bulk Modulus (GPa) = 45.77104 52.32216 49.04660
# Shear Modulus (GPa) = 30.17512 31.89732 31.03622
#
# Velocity S-wave (km/s) = 3.91475 4.02492 3.97022
# Velocity P-wave (km/s) = 6.60907 6.94069 6.77691
#
# Compressibility (1/GPa) = 0.02184788
#
# Stress axis : x y z
#
# Youngs Moduli (GPa) = 79.66950 66.46645 61.84307
#
# Poissons Ratio (x) = 0.32509 0.09506
# Poissons Ratio (y) = 0.38966 0.28024
# Poissons Ratio (z) = 0.12246 0.30120
#
# Static dielectric constant tensor:
#      x y z
#    x 3.594920 0.000000 0.012970 
#    y 0.000000 3.584510 0.000000 
#    z 0.012970 0.000000 3.708400 
# 
# 
# High freq. dielectric constant tensor:
#      x y z
#    x 1.776260 0.000000 -0.002290 
#    y 0.000000 1.766860 0.000000 
#    z -0.002290 0.000000 1.781070 
# 
# From -- ./inp_files/275301.got.cif
#   From: 2010.06.25/outbox.cif.g09.slc.cpg/sg12_138_cif.got.tgz:275301.got - 2010.06.28 00:19:55.
