data_PCOD8100990
_publ_section_title
;
Structure prediction by ZEFSAII (Michael W. Deem and Ramdas Pophale) SiO2 
 PCOD8100990
Probable space group: C 2/M
;
_chemical_formula_sum "Si O2"
_cell_formula_units_Z 56
_cell_length_a 34.497640
_cell_length_b 12.529783
_cell_length_c 7.658130
_cell_angle_alpha 90.000000
_cell_angle_beta 114.558782
_cell_angle_gamma 90.000000
_cell_volume 3010.753840
_symmetry_space_group_name_H-M "C 2/M"
_symmetry_group_IT_number 12
_symmetry_cell_setting 'monoclinic'
loop_
_space_group_symop_operation_xyz
x,y,z
-x,y,-z
-x,-y,-z
x,-y,z
1/2+x,1/2+y,z
1/2-x,1/2+y,-z
1/2-x,1/2-y,-z
1/2+x,1/2-y,z
loop_
_atom_site_type_symbol
_atom_site_label
_atom_site_fract_x
_atom_site_fract_y
_atom_site_fract_z
Si Si1 0.701716 0.269432 0.863437
Si Si2 0.172977 0.876700 0.480886
Si Si3 0.419907 0.241502 0.046883
Si Si4 0.840666 0.879310 0.920402
Si Si5 0.086824 0.767796 0.357734
Si Si6 0.999922 0.121818 0.706091
Si Si7 0.879674 0.374963 0.272753
O O1 0.701694 0.305774 0.662670
O O2 0.668699 0.171671 0.836023
O O3 0.750000 0.250000 0.000000
O O4 0.688853 0.366200 0.966884
O O5 0.181846 0.835566 0.299373
O O6 0.123612 0.856727 0.434276
O O7 0.184516 0.000000 0.530023
O O8 0.465733 0.294189 0.159428
O O9 0.408858 0.141588 0.153222
O O10 0.385998 0.328621 0.044371
O O11 0.414751 0.208921 0.834146
O O12 0.851181 0.000000 0.901313
O O13 0.095067 0.677844 0.518450
O O14 0.044593 0.835026 0.308139
O O15 0.000000 0.122584 0.500000
O O16 0.007651 0.000000 0.788637
O O17 0.875115 0.500000 0.299551
#
# Coordination Sequence:
#
# PCOD8100990 Si02
#       7
#     8   8   8   8   8   8   8
#     4  10  21  35  55  81 107 137 172 220 272 324
#     4   9  18  33  54  79 107 138 169 207 262 327
#     4  10  20  36  56  80 110 145 183 223 269 320
#     4   9  18  33  54  79 107 138 169 207 262 327
#     4  10  20  36  56  80 110 145 183 223 269 320
#     4  11  21  33  55  87 119 146 175 220 280 334
#     4  10  22  40  57  76 107 146 190 233 268 312
#
# _framework density 18.599993000000001
#
# number of rings (size 3 to 8) (size 9 to 14) (size 15 to 20)
#    0.000    2.143    1.429    1.714    0.000    4.571 
#    0.000    1.429    0.000    1.714    0.000    0.000 
#    0.000    0.000    0.000    0.000    0.000    0.000 
#
# Total GULP energy -347040.884514 kJ/mol
# GULP energy per Si atom -12394.317304 kJ/mol
# Density = 1.855766 g / cm^3
# Si number density = 18.599993 Si / 1000 Ang^3
#
#
#
# Elastic Constant Matrix: (Units=GPa)
#
#
# Indices 1 2 3 4 5 6 
#
# 1 54.6123 7.8651 22.9899 0.0000 10.5216 0.0000
# 2 7.8651 68.4737 18.5728 0.0000 3.4280 0.0000
# 3 22.9899 18.5728 95.2081 0.0000 -0.7668 0.0000
# 4 0.0000 0.0000 0.0000 21.1840 0.0000 -5.6991
# 5 10.5216 3.4280 -0.7668 0.0000 37.4812 0.0000
# 6 0.0000 0.0000 0.0000 -5.6991 0.0000 13.6115
#
#
#
# Elastic Compliance Matrix: (Units=1/GPa)
#
#
# Indices 1 2 3 4 5 6 
#
# 1 0.021779 -0.000796 -0.005153 0.000000 -0.006146 0.000000
# 2 -0.000796 0.015531 -0.002848 0.000000 -0.001255 0.000000
# 3 -0.005153 -0.002848 0.012319 0.000000 0.001959 0.000000
# 4 0.000000 0.000000 0.000000 0.053198 0.000000 0.022274
# 5 -0.006146 -0.001255 0.001959 0.000000 0.028560 0.000000
# 6 0.000000 0.000000 0.000000 0.022274 0.000000 0.082793
#
#
# Mechanical properties :
#
#
# Convention : Reuss Voigt Hill
#
# Bulk Modulus (GPa) = 31.21587 35.23885 33.22736
# Shear Modulus (GPa) = 20.62264 25.71310 23.16787
#
# Velocity S-wave (km/s) = 3.33339 3.72213 3.53311
# Velocity P-wave (km/s) = 5.62446 6.12038 5.87765
#
# Compressibility (1/GPa) = 0.03203499
#
# Stress axis : x y z
#
# Youngs Moduli (GPa) = 45.91577 64.38814 81.17605
#
# Poissons Ratio (x) = 0.05126 0.41831
# Poissons Ratio (y) = 0.03656 0.23115
# Poissons Ratio (z) = 0.23661 0.18335
#
# Static dielectric constant tensor:
#      x y z
#    x 3.570140 0.000000 -0.312990 
#    y 0.000000 3.432800 0.000000 
#    z -0.312990 0.000000 3.903640 
# 
# 
# High freq. dielectric constant tensor:
#      x y z
#    x 1.716920 0.000000 -0.011510 
#    y 0.000000 1.693430 0.000000 
#    z -0.011510 0.000000 1.742290 
# 
# From -- ./inp_files/110091.got.cif
#   From: 2010.06.25/outbox.cif.g09.slc.cpg/sg12_56_cif.got.tgz:110091.got - 2010.06.28 00:19:55.
