data_PCOD8100232
_publ_section_title
;
Structure prediction by ZEFSAII (Michael W. Deem and Ramdas Pophale) SiO2 
 PCOD8100232
Probable space group: C 2/M
;
_chemical_formula_sum "Si O2"
_cell_formula_units_Z 56
_cell_length_a 23.795455
_cell_length_b 10.314055
_cell_length_c 13.680153
_cell_angle_alpha 90.000000
_cell_angle_beta 123.064287
_cell_angle_gamma 90.000000
_cell_volume 2813.772473
_symmetry_space_group_name_H-M "C 2/M"
_symmetry_group_IT_number 12
_symmetry_cell_setting 'monoclinic'
loop_
_space_group_symop_operation_xyz
x,y,z
-x,y,-z
-x,-y,-z
x,-y,z
1/2+x,1/2+y,z
1/2-x,1/2+y,-z
1/2-x,1/2-y,-z
1/2+x,1/2-y,z
loop_
_atom_site_type_symbol
_atom_site_label
_atom_site_fract_x
_atom_site_fract_y
_atom_site_fract_z
Si Si1 0.867801 0.354751 0.520851
Si Si2 0.873586 0.852090 0.211506
Si Si3 0.075233 0.147007 0.093243
Si Si4 0.280164 0.268149 0.281998
Si Si5 0.316198 0.645530 0.963076
Si Si6 0.483560 0.648384 0.597382
Si Si7 0.158166 0.356826 0.284750
O O1 0.898498 0.500000 0.539843
O O2 0.812521 0.339648 0.383175
O O3 0.830396 0.338540 0.588923
O O4 0.924366 0.245590 0.568140
O O5 0.840075 0.847474 0.287451
O O6 0.949316 0.796894 0.285864
O O7 0.881048 0.000000 0.187293
O O8 0.830220 0.785748 0.082238
O O9 0.114078 0.153130 0.028495
O O10 0.107882 0.245199 0.201563
O O11 0.077582 0.000000 0.138636
O O12 0.000000 0.191816 0.000000
O O13 0.241866 0.211911 0.152844
O O14 0.230228 0.353686 0.299684
O O15 0.291099 0.500000 0.954886
O O16 0.500000 0.650829 0.500000
O O17 0.465266 0.500000 0.611571
O O18 0.127502 0.500000 0.234236
#
# Coordination Sequence:
#
# PCOD8100232 Si02
#       7
#     8   8   8   8   8   8   8
#     4  11  24  40  59  87 122 158 198 246 298 353
#     4  10  20  35  58  85 114 147 193 246 291 348
#     4   9  19  36  59  85 115 155 199 241 292 351
#     4  11  20  38  59  82 116 159 197 241 292 351
#     4   9  19  34  54  83 115 146 191 244 290 346
#     4  10  21  39  61  88 115 152 200 244 295 349
#     4  10  23  39  58  86 120 156 198 245 298 354
#
# _framework density 19.902107000000001
#
# number of rings (size 3 to 8) (size 9 to 14) (size 15 to 20)
#    0.000    2.000    1.429    1.714    2.000    2.286 
#    0.000    0.000    0.000    1.714    0.000    0.000 
#    0.000    0.000    0.000    0.000    0.000    0.000 
#
# Total GULP energy -346990.310873 kJ/mol
# GULP energy per Si atom -12392.511103 kJ/mol
# Density = 1.985681 g / cm^3
# Si number density = 19.902107 Si / 1000 Ang^3
#
#
#
# Elastic Constant Matrix: (Units=GPa)
#
#
# Indices 1 2 3 4 5 6 
#
# 1 83.7729 40.3003 42.5498 0.0000 6.1196 0.0000
# 2 40.3003 98.8355 50.0214 0.0000 3.0064 0.0000
# 3 42.5498 50.0214 131.8359 0.0000 0.0417 0.0000
# 4 0.0000 0.0000 0.0000 20.3980 0.0000 -7.2367
# 5 6.1196 3.0064 0.0417 0.0000 31.2775 0.0000
# 6 0.0000 0.0000 0.0000 -7.2367 0.0000 17.2627
#
#
#
# Elastic Compliance Matrix: (Units=1/GPa)
#
#
# Indices 1 2 3 4 5 6 
#
# 1 0.016164 -0.004789 -0.003399 0.000000 -0.002698 0.000000
# 2 -0.004789 0.013986 -0.003761 0.000000 -0.000402 0.000000
# 3 -0.003399 -0.003761 0.010109 0.000000 0.001013 0.000000
# 4 0.000000 0.000000 0.000000 0.057590 0.000000 0.024142
# 5 -0.002698 -0.000402 0.001013 0.000000 0.032537 0.000000
# 6 0.000000 0.000000 0.000000 0.024142 0.000000 0.068049
#
#
# Mechanical properties :
#
#
# Convention : Reuss Voigt Hill
#
# Bulk Modulus (GPa) = 61.11832 64.46526 62.79179
# Shear Modulus (GPa) = 21.95040 25.89249 23.92145
#
# Velocity S-wave (km/s) = 3.32462 3.61084 3.47068
# Velocity P-wave (km/s) = 6.74638 7.06015 6.90505
#
# Compressibility (1/GPa) = 0.01636171
#
# Stress axis : x y z
#
# Youngs Moduli (GPa) = 61.86485 71.49973 98.92198
#
# Poissons Ratio (x) = 0.34238 0.33626
# Poissons Ratio (y) = 0.29624 0.37204
# Poissons Ratio (z) = 0.21029 0.26891
#
# Static dielectric constant tensor:
#      x y z
#    x 3.659610 0.000000 -0.018230 
#    y 0.000000 3.539730 0.000000 
#    z -0.018230 0.000000 3.909920 
# 
# 
# High freq. dielectric constant tensor:
#      x y z
#    x 1.777750 0.000000 -0.003330 
#    y 0.000000 1.756630 0.000000 
#    z -0.003330 0.000000 1.789770 
# 
# From -- ./inp_files/165724.got.cif
#   From: 2010.06.25/outbox.cif.g09.slc.cpg/sg12_83_cif.got.tgz:165724.got - 2010.06.28 00:19:55.
