data_PCOD8100828
_publ_section_title
;
Structure prediction by ZEFSAII (Michael W. Deem and Ramdas Pophale) SiO2 
 PCOD8100828
Probable space group: C 2/M
;
_chemical_formula_sum "Si O2"
_cell_formula_units_Z 52
_cell_length_a 9.732293
_cell_length_b 21.179375
_cell_length_c 14.526653
_cell_angle_alpha 90.000000
_cell_angle_beta 67.875193
_cell_angle_gamma 90.000000
_cell_volume 2773.807525
_symmetry_space_group_name_H-M "C 2/M"
_symmetry_group_IT_number 12
_symmetry_cell_setting 'monoclinic'
loop_
_space_group_symop_operation_xyz
x,y,z
-x,y,-z
-x,-y,-z
x,-y,z
1/2+x,1/2+y,z
1/2-x,1/2+y,-z
1/2-x,1/2-y,-z
1/2+x,1/2-y,z
loop_
_atom_site_type_symbol
_atom_site_label
_atom_site_fract_x
_atom_site_fract_y
_atom_site_fract_z
Si Si1 0.165965 0.843784 0.324573
Si Si2 0.550369 0.171807 0.654045
Si Si3 0.346683 0.748791 0.826055
Si Si4 0.443257 0.572752 0.280399
Si Si5 0.000000 0.249653 0.500000
Si Si6 0.448140 0.669965 0.109194
Si Si7 0.614455 0.069161 0.388803
O O1 0.313220 0.868004 0.338219
O O2 0.213809 0.809718 0.218374
O O3 0.058551 0.901884 0.327693
O O4 0.104916 0.792557 0.411440
O O5 0.491913 0.224192 0.738461
O O6 0.593315 0.204778 0.545483
O O7 0.417856 0.121528 0.679043
O O8 0.421911 0.721470 0.900305
O O9 0.212535 0.798124 0.870273
O O10 0.481954 0.500000 0.244461
O O11 0.439078 0.615865 0.189677
O O12 0.286341 0.576702 0.373531
O O13 0.500000 0.638383 0.000000
O O14 0.500000 0.080303 0.500000
O O15 0.589429 0.000000 0.352018
#
# Coordination Sequence:
#
# PCOD8100828 Si02
#       7
#     8   8   8   8   4   8   8
#     4  10  22  34  55  82 117 148 185 232 285 329
#     4  11  19  34  56  78 115 149 186 233 281 332
#     4  10  20  36  54  87 118 143 179 228 289 346
#     4  10  23  42  58  80 115 152 193 236 276 335
#     4  10  22  30  54  86 112 146 192 230 278 340
#     4  11  21  37  62  88 115 148 184 234 289 341
#     4  10  21  36  56  78 107 150 196 233 271 323
#
# _framework density 18.746794999999999
#
# number of rings (size 3 to 8) (size 9 to 14) (size 15 to 20)
#    0.000    1.692    3.846    0.923    2.154    0.923 
#    0.000    0.385    0.000    0.000    0.000    1.077 
#    0.000    0.000    0.000    0.000    0.000    0.000 
#
# Total GULP energy -322110.427365 kJ/mol
# GULP energy per Si atom -12388.862591 kJ/mol
# Density = 1.870413 g / cm^3
# Si number density = 18.746795 Si / 1000 Ang^3
#
#
#
# Elastic Constant Matrix: (Units=GPa)
#
#
# Indices 1 2 3 4 5 6 
#
# 1 129.9773 49.7140 35.7536 0.0000 0.8104 0.0000
# 2 49.7140 99.9501 23.0400 0.0000 0.6191 0.0000
# 3 35.7536 23.0400 77.8508 0.0000 5.6965 0.0000
# 4 0.0000 0.0000 0.0000 16.5235 0.0000 -3.3219
# 5 0.8104 0.6191 5.6965 0.0000 20.0266 0.0000
# 6 0.0000 0.0000 0.0000 -3.3219 0.0000 14.1775
#
#
#
# Elastic Compliance Matrix: (Units=1/GPa)
#
#
# Indices 1 2 3 4 5 6 
#
# 1 0.010307 -0.004323 -0.003507 0.000000 0.000714 0.000000
# 2 -0.004323 0.012557 -0.001752 0.000000 0.000285 0.000000
# 3 -0.003507 -0.001752 0.015278 0.000000 -0.004150 0.000000
# 4 0.000000 0.000000 0.000000 0.063512 0.000000 0.014881
# 5 0.000714 0.000285 -0.004150 0.000000 0.051076 0.000000
# 6 0.000000 0.000000 0.000000 0.014881 0.000000 0.074021
#
#
# Mechanical properties :
#
#
# Convention : Reuss Voigt Hill
#
# Bulk Modulus (GPa) = 52.68849 58.31039 55.49944
# Shear Modulus (GPa) = 19.82240 23.43023 21.62631
#
# Velocity S-wave (km/s) = 3.25526 3.53912 3.40015
# Velocity P-wave (km/s) = 6.50348 6.91898 6.71444
#
# Compressibility (1/GPa) = 0.01897948
#
# Stress axis : x y z
#
# Youngs Moduli (GPa) = 97.02004 79.63588 65.45531
#
# Poissons Ratio (x) = 0.34425 0.22952
# Poissons Ratio (y) = 0.41939 0.11467
# Poissons Ratio (z) = 0.34021 0.13951
#
# Static dielectric constant tensor:
#      x y z
#    x 3.567040 0.000000 0.101850 
#    y 0.000000 3.471390 0.000000 
#    z 0.101850 0.000000 3.263370 
# 
# 
# High freq. dielectric constant tensor:
#      x y z
#    x 1.737180 0.000000 -0.000840 
#    y 0.000000 1.717670 0.000000 
#    z -0.000840 0.000000 1.707550 
# 
# From -- ./inp_files/198293.got.cif
#   From: 2010.06.25/outbox.cif.g09.slc.cpg/sg12_100_cif.got.tgz:198293.got - 2010.06.28 00:19:55.
