data_PCOD8100420
_publ_section_title
;
Structure prediction by ZEFSAII (Michael W. Deem and Ramdas Pophale) SiO2 
 PCOD8100420
Probable space group: C 2/M
;
_chemical_formula_sum "Si O2"
_cell_formula_units_Z 28
_cell_length_a 8.707053
_cell_length_b 12.641817
_cell_length_c 14.629408
_cell_angle_alpha 90.000000
_cell_angle_beta 56.704743
_cell_angle_gamma 90.000000
_cell_volume 1345.975779
_symmetry_space_group_name_H-M "C 2/M"
_symmetry_group_IT_number 12
_symmetry_cell_setting 'monoclinic'
loop_
_space_group_symop_operation_xyz
x,y,z
-x,y,-z
-x,-y,-z
x,-y,z
1/2+x,1/2+y,z
1/2-x,1/2+y,-z
1/2-x,1/2-y,-z
1/2+x,1/2-y,z
loop_
_atom_site_type_symbol
_atom_site_label
_atom_site_fract_x
_atom_site_fract_y
_atom_site_fract_z
Si Si1 0.000000 0.240523 0.000000
Si Si2 0.620736 0.121197 0.123243
Si Si3 0.701957 0.619046 0.593187
Si Si4 0.492299 0.821206 0.643319
O O1 0.824856 0.165971 0.064123
O O2 0.003079 0.313978 0.088242
O O3 0.518840 0.129650 0.253104
O O4 0.630562 0.000000 0.088651
O O5 0.628674 0.500000 0.630489
O O6 0.526852 0.694574 0.634688
O O7 0.838138 0.622093 0.462403
O O8 0.804427 0.657999 0.650981
#
# Coordination Sequence:
#
# PCOD8100420 Si02
#       4
#     4   8   8   8
#     4  10  24  38  56  84 108 138 192 230 268 330
#     4  11  21  39  59  80 110 146 180 229 277 317
#     4  10  20  37  55  83 117 144 176 224 266 321
#     4  10  20  35  59  83 110 146 185 216 269 333
#
# _framework density 20.802752000000002
#
# number of rings (size 3 to 8) (size 9 to 14) (size 15 to 20)
#    0.000    1.714    0.000    6.000    0.000    0.000 
#    0.000   24.286    0.000    0.000    0.000    0.000 
#    0.000    0.000    0.000    0.000    0.000    0.000 
#
# Total GULP energy -173665.869885 kJ/mol
# GULP energy per Si atom -12404.704992 kJ/mol
# Density = 2.075540 g / cm^3
# Si number density = 20.802752 Si / 1000 Ang^3
#
#
#
# Elastic Constant Matrix: (Units=GPa)
#
#
# Indices 1 2 3 4 5 6 
#
# 1 20.9407 18.6192 6.1400 0.0000 11.8122 0.0000
# 2 18.6192 163.0114 2.1797 0.0000 -0.1331 0.0000
# 3 6.1400 2.1797 80.9681 0.0000 26.7427 0.0000
# 4 0.0000 0.0000 0.0000 13.1631 0.0000 -3.1262
# 5 11.8122 -0.1331 26.7427 0.0000 25.2759 0.0000
# 6 0.0000 0.0000 0.0000 -3.1262 0.0000 19.5177
#
#
#
# Elastic Compliance Matrix: (Units=1/GPa)
#
#
# Indices 1 2 3 4 5 6 
#
# 1 0.080346 -0.009352 0.010110 0.000000 -0.048294 0.000000
# 2 -0.009352 0.007227 -0.001447 0.000000 0.005940 0.000000
# 3 0.010110 -0.001447 0.020269 0.000000 -0.026178 0.000000
# 4 0.000000 0.000000 0.000000 0.078974 0.000000 0.012649
# 5 -0.048294 0.005940 -0.026178 0.000000 0.089861 0.000000
# 6 0.000000 0.000000 0.000000 0.012649 0.000000 0.053262
#
#
# Mechanical properties :
#
#
# Convention : Reuss Voigt Hill
#
# Bulk Modulus (GPa) = 9.39282 35.42199 22.40740
# Shear Modulus (GPa) = 13.63122 27.45676 20.54399
#
# Velocity S-wave (km/s) = 2.56258 3.63693 3.14596
# Velocity P-wave (km/s) = 3.64428 5.89075 4.89804
#
# Compressibility (1/GPa) = 0.10646426
#
# Stress axis : x y z
#
# Youngs Moduli (GPa) = 12.44611 138.37194 49.33653
#
# Poissons Ratio (x) = 1.29402 -0.49879
# Poissons Ratio (y) = 0.11639 0.07140
# Poissons Ratio (z) = -0.12583 0.20025
#
# Static dielectric constant tensor:
#      x y z
#    x 3.701210 0.000000 0.217430 
#    y 0.000000 3.843850 0.000000 
#    z 0.217430 0.000000 3.710260 
# 
# 
# High freq. dielectric constant tensor:
#      x y z
#    x 1.805500 0.000000 0.017100 
#    y 0.000000 1.825220 0.000000 
#    z 0.017100 0.000000 1.813120 
# 
# From -- ./inp_files/192981.got.cif
#   From: 2010.06.25/outbox.cif.g09.slc.cpg/sg12_97_cif.got.tgz:192981.got - 2010.06.28 00:19:55.
