data_PCOD8100626
_publ_section_title
;
Structure prediction by ZEFSAII (Michael W. Deem and Ramdas Pophale) SiO2 
 PCOD8100626
Probable space group: C 2/M
;
_chemical_formula_sum "Si O2"
_cell_formula_units_Z 64
_cell_length_a 15.506195
_cell_length_b 26.247791
_cell_length_c 11.538580
_cell_angle_alpha 90.000000
_cell_angle_beta 140.042623
_cell_angle_gamma 90.000000
_cell_volume 3016.008380
_symmetry_space_group_name_H-M "C 2/M"
_symmetry_group_IT_number 12
_symmetry_cell_setting 'monoclinic'
loop_
_space_group_symop_operation_xyz
x,y,z
-x,y,-z
-x,-y,-z
x,-y,z
1/2+x,1/2+y,z
1/2-x,1/2+y,-z
1/2-x,1/2-y,-z
1/2+x,1/2-y,z
loop_
_atom_site_type_symbol
_atom_site_label
_atom_site_fract_x
_atom_site_fract_y
_atom_site_fract_z
Si Si1 0.863054 0.191056 0.306193
Si Si2 0.155318 0.308802 0.661968
Si Si3 0.378655 0.652727 0.067897
Si Si4 0.802127 0.941907 0.891495
Si Si5 0.840092 0.870614 0.711500
Si Si6 0.923389 0.443231 0.177762
Si Si7 0.783353 0.557935 0.585191
Si Si8 0.147015 0.388569 0.119081
O O1 0.838915 0.248445 0.320465
O O2 0.872345 0.184750 0.177975
O O3 0.742077 0.159438 0.234670
O O4 0.000000 0.169334 0.500000
O O5 0.222952 0.328722 0.612414
O O6 0.000000 0.327356 0.500000
O O7 0.246335 0.332071 0.858311
O O8 0.521489 0.662177 0.150554
O O9 0.374795 0.590338 0.070323
O O10 0.836229 0.914586 0.805910
O O11 0.643423 0.939727 0.762984
O O12 0.854824 0.000000 0.941931
O O13 0.821669 0.900528 0.571174
O O14 0.906088 0.500000 0.109011
O O15 0.081157 0.431359 0.349560
O O16 0.847627 0.406588 0.008412
O O17 0.732772 0.500000 0.515105
O O18 0.809072 0.566441 0.748179
O O19 0.000000 0.369021 0.000000
#
# Coordination Sequence:
#
# PCOD8100626 Si02
#       8
#     8   8   8   8   8   8   8   8
#     4  11  23  43  64  92 124 163 209 258 317 373
#     4  10  24  42  66  90 119 158 210 262 317 372
#     4  11  23  43  64  89 129 167 202 255 315 374
#     4  10  20  35  60  89 122 163 208 246 300 365
#     4  11  24  38  62  92 127 164 201 255 314 377
#     4   9  18  34  57  89 123 166 213 259 302 356
#     4  10  21  36  58  91 131 167 206 254 309 366
#     4  10  20  36  62  90 121 166 214 260 303 363
#
# _framework density 21.220099000000001
#
# number of rings (size 3 to 8) (size 9 to 14) (size 15 to 20)
#    0.000    1.750    1.250    3.375    3.500    4.000 
#    0.000    7.500    0.000    1.875    0.000    0.000 
#    0.000    0.000    0.000    0.000    0.000    0.000 
#
# Total GULP energy -396498.829923 kJ/mol
# GULP energy per Si atom -12390.588435 kJ/mol
# Density = 2.117180 g / cm^3
# Si number density = 21.220099 Si / 1000 Ang^3
#
#
#
# Elastic Constant Matrix: (Units=GPa)
#
#
# Indices 1 2 3 4 5 6 
#
# 1 91.2800 30.9778 37.2067 0.0000 13.1247 0.0000
# 2 30.9778 108.3711 38.3822 0.0000 14.6897 0.0000
# 3 37.2067 38.3822 115.5970 0.0000 16.0833 0.0000
# 4 0.0000 0.0000 0.0000 31.9668 0.0000 3.2812
# 5 13.1247 14.6897 16.0833 0.0000 33.3427 0.0000
# 6 0.0000 0.0000 0.0000 3.2812 0.0000 22.0007
#
#
#
# Elastic Compliance Matrix: (Units=1/GPa)
#
#
# Indices 1 2 3 4 5 6 
#
# 1 0.013435 -0.002350 -0.003165 0.000000 -0.002727 0.000000
# 2 -0.002350 0.011185 -0.002573 0.000000 -0.002761 0.000000
# 3 -0.003165 -0.002573 0.010926 0.000000 -0.002891 0.000000
# 4 0.000000 0.000000 0.000000 0.031769 0.000000 -0.004738
# 5 -0.002727 -0.002761 -0.002891 0.000000 0.033676 0.000000
# 6 0.000000 0.000000 0.000000 -0.004738 0.000000 0.046160
#
#
# Mechanical properties :
#
#
# Convention : Reuss Voigt Hill
#
# Bulk Modulus (GPa) = 51.62568 58.70906 55.16737
# Shear Modulus (GPa) = 29.44948 31.37412 30.41180
#
# Velocity S-wave (km/s) = 3.72937 3.84931 3.78982
# Velocity P-wave (km/s) = 6.55178 6.89079 6.72342
#
# Compressibility (1/GPa) = 0.01937020
#
# Stress axis : x y z
#
# Youngs Moduli (GPa) = 74.43379 89.40576 91.52529
#
# Poissons Ratio (x) = 0.21010 0.28964
# Poissons Ratio (y) = 0.17491 0.23551
# Poissons Ratio (z) = 0.23555 0.23006
#
# Static dielectric constant tensor:
#      x y z
#    x 3.895560 0.000000 0.208340 
#    y 0.000000 3.854440 0.000000 
#    z 0.208340 0.000000 3.856000 
# 
# 
# High freq. dielectric constant tensor:
#      x y z
#    x 1.834920 0.000000 0.012320 
#    y 0.000000 1.827230 0.000000 
#    z 0.012320 0.000000 1.824230 
# 
# From -- ./inp_files/150307.got.cif
#   From: 2010.06.25/outbox.cif.g09.slc.cpg/sg12_76_cif.got.tgz:150307.got - 2010.06.28 00:19:55.
