data_PCOD8100686
_publ_section_title
;
Structure prediction by ZEFSAII (Michael W. Deem and Ramdas Pophale) SiO2 
 PCOD8100686
Probable space group: C 2/M
;
_chemical_formula_sum "Si O2"
_cell_formula_units_Z 56
_cell_length_a 19.038128
_cell_length_b 13.528805
_cell_length_c 12.079559
_cell_angle_alpha 90.000000
_cell_angle_beta 114.437997
_cell_angle_gamma 90.000000
_cell_volume 2832.510576
_symmetry_space_group_name_H-M "C 2/M"
_symmetry_group_IT_number 12
_symmetry_cell_setting 'monoclinic'
loop_
_space_group_symop_operation_xyz
x,y,z
-x,y,-z
-x,-y,-z
x,-y,z
1/2+x,1/2+y,z
1/2-x,1/2+y,-z
1/2-x,1/2-y,-z
1/2+x,1/2-y,z
loop_
_atom_site_type_symbol
_atom_site_label
_atom_site_fract_x
_atom_site_fract_y
_atom_site_fract_z
Si Si1 0.829491 0.760149 0.789365
Si Si2 0.036635 0.114533 0.199718
Si Si3 0.436170 0.785468 0.043103
Si Si4 0.448700 0.114212 0.276659
Si Si5 0.660824 0.790279 0.617771
Si Si6 0.573599 0.610612 0.472179
Si Si7 0.627461 0.113532 0.377631
O O1 0.881752 0.856652 0.801565
O O2 0.740305 0.789119 0.737223
O O3 0.842469 0.678039 0.704048
O O4 0.854569 0.720395 0.926388
O O5 0.043407 0.141601 0.332495
O O6 0.966561 0.178028 0.103110
O O7 0.018314 0.000000 0.165804
O O8 0.420994 0.857353 0.135875
O O9 0.500000 0.830976 0.000000
O O10 0.406032 0.175299 0.343603
O O11 0.538713 0.138667 0.345417
O O12 0.430538 0.000000 0.285608
O O13 0.641353 0.681607 0.558494
O O14 0.672682 0.862532 0.520524
O O15 0.500000 0.617823 0.500000
O O16 0.608694 0.500000 0.493964
O O17 0.639723 0.000000 0.352946
#
# Coordination Sequence:
#
# PCOD8100686 Si02
#       7
#     8   8   8   8   8   8   8
#     4  11  24  39  58  90 123 164 199 249 308 357
#     4  10  20  37  61  88 115 154 206 250 296 356
#     4  10  20  40  63  87 118 156 208 253 299 354
#     4  11  23  40  65  91 118 160 206 252 302 359
#     4  12  23  39  59  90 132 156 196 252 313 366
#     4  10  20  35  61  89 118 158 201 247 301 361
#     4  11  22  39  63  90 119 162 209 247 297 362
#
# _framework density 19.770447999999998
#
# number of rings (size 3 to 8) (size 9 to 14) (size 15 to 20)
#    0.000    1.286    4.286    3.000    0.000    6.857 
#    0.000    0.000    0.000    1.714    0.000    0.000 
#    0.000    0.000    0.000    0.000    0.000    0.000 
#
# Total GULP energy -347271.298980 kJ/mol
# GULP energy per Si atom -12402.546392 kJ/mol
# Density = 1.972545 g / cm^3
# Si number density = 19.770448 Si / 1000 Ang^3
#
#
#
# Elastic Constant Matrix: (Units=GPa)
#
#
# Indices 1 2 3 4 5 6 
#
# 1 42.4167 22.3710 20.2605 0.0000 10.6350 0.0000
# 2 22.3710 67.8457 13.7616 0.0000 -6.2108 0.0000
# 3 20.2605 13.7616 109.7321 0.0000 5.7565 0.0000
# 4 0.0000 0.0000 0.0000 21.0787 0.0000 -5.9168
# 5 10.6350 -6.2108 5.7565 0.0000 34.1902 0.0000
# 6 0.0000 0.0000 0.0000 -5.9168 0.0000 20.5443
#
#
#
# Elastic Compliance Matrix: (Units=1/GPa)
#
#
# Indices 1 2 3 4 5 6 
#
# 1 0.034922 -0.011760 -0.004329 0.000000 -0.012270 0.000000
# 2 -0.011760 0.019416 -0.000646 0.000000 0.007294 0.000000
# 3 -0.004329 -0.000646 0.010017 0.000000 -0.000457 0.000000
# 4 0.000000 0.000000 0.000000 0.051614 0.000000 0.014865
# 5 -0.012270 0.007294 -0.000457 0.000000 0.034467 0.000000
# 6 0.000000 0.000000 0.000000 0.014865 0.000000 0.052956
#
#
# Mechanical properties :
#
#
# Convention : Reuss Voigt Hill
#
# Bulk Modulus (GPa) = 32.37909 36.97564 34.67737
# Shear Modulus (GPa) = 20.22987 26.06939 23.14963
#
# Velocity S-wave (km/s) = 3.20228 3.63520 3.42558
# Velocity P-wave (km/s) = 5.48506 6.03014 5.76405
#
# Compressibility (1/GPa) = 0.03088412
#
# Stress axis : x y z
#
# Youngs Moduli (GPa) = 28.63492 51.50437 99.82534
#
# Poissons Ratio (x) = 0.60570 0.43218
# Poissons Ratio (y) = 0.33675 0.06451
# Poissons Ratio (z) = 0.12397 0.03328
#
# Static dielectric constant tensor:
#      x y z
#    x 3.248460 0.000000 -0.193400 
#    y 0.000000 3.694340 0.000000 
#    z -0.193400 0.000000 3.614990 
# 
# 
# High freq. dielectric constant tensor:
#      x y z
#    x 1.747000 0.000000 -0.008090 
#    y 0.000000 1.774940 0.000000 
#    z -0.008090 0.000000 1.784880 
# 
# From -- ./inp_files/156159.got.cif
#   From: 2010.06.25/outbox.cif.g09.slc.cpg/sg12_79_cif.got.tgz:156159.got - 2010.06.28 00:19:55.
