data_PCOD8100475
_publ_section_title
;
Structure prediction by ZEFSAII (Michael W. Deem and Ramdas Pophale) SiO2 
 PCOD8100475
Probable space group: C 2/M
;
_chemical_formula_sum "Si O2"
_cell_formula_units_Z 56
_cell_length_a 19.423843
_cell_length_b 8.859271
_cell_length_c 16.870795
_cell_angle_alpha 90.000000
_cell_angle_beta 95.990367
_cell_angle_gamma 90.000000
_cell_volume 2887.292024
_symmetry_space_group_name_H-M "C 2/M"
_symmetry_group_IT_number 12
_symmetry_cell_setting 'monoclinic'
loop_
_space_group_symop_operation_xyz
x,y,z
-x,y,-z
-x,-y,-z
x,-y,z
1/2+x,1/2+y,z
1/2-x,1/2+y,-z
1/2-x,1/2-y,-z
1/2+x,1/2-y,z
loop_
_atom_site_type_symbol
_atom_site_label
_atom_site_fract_x
_atom_site_fract_y
_atom_site_fract_z
Si Si1 0.137632 0.326199 0.303213
Si Si2 0.680832 0.326477 0.016323
Si Si3 0.227768 0.823172 0.185413
Si Si4 0.676078 0.823259 0.484482
Si Si5 0.559690 0.678089 0.566497
Si Si6 0.019946 0.323704 0.725111
Si Si7 0.628319 0.321671 0.848931
O O1 0.157312 0.500000 0.291711
O O2 0.192976 0.226219 0.262945
O O3 0.141890 0.283118 0.396050
O O4 0.060129 0.291115 0.264518
O O5 0.695869 0.500000 0.007666
O O6 0.670303 0.288344 0.108463
O O7 0.750000 0.250000 0.000000
O O8 0.623014 0.282610 0.943507
O O9 0.298994 0.733205 0.179733
O O10 0.245804 0.000000 0.191623
O O11 0.750000 0.750000 0.500000
O O12 0.630725 0.755111 0.549403
O O13 0.682517 0.000000 0.498409
O O14 0.500000 0.733842 0.500000
O O15 0.569207 0.500000 0.564960
O O16 0.542698 0.728332 0.652501
O O17 0.032199 0.500000 0.709526
O O18 0.064516 0.268781 0.804757
O O19 0.620637 0.500000 0.831520
#
# Coordination Sequence:
#
# PCOD8100475 Si02
#       7
#     8   8   8   8   8   8   8
#     4  10  23  41  58  80 115 154 189 233 288 337
#     4   8  16  32  54  82 113 147 186 231 281 333
#     4  10  20  35  59  87 115 150 192 234 282 340
#     4  11  24  42  62  85 116 152 193 239 286 336
#     4  11  23  40  63  88 114 148 191 234 284 342
#     4  11  23  40  60  83 114 152 194 235 280 338
#     4  10  20  36  59  86 117 149 188 237 285 335
#
# _framework density 19.395337000000001
#
# number of rings (size 3 to 8) (size 9 to 14) (size 15 to 20)
#    0.000    1.857    1.429    2.143    2.000    4.000 
#    0.000    0.714    0.000    4.286    0.000    0.000 
#    0.000    0.000    0.000    0.000    0.000    0.000 
#
# Total GULP energy -347078.428040 kJ/mol
# GULP energy per Si atom -12395.658144 kJ/mol
# Density = 1.935119 g / cm^3
# Si number density = 19.395337 Si / 1000 Ang^3
#
#
#
# Elastic Constant Matrix: (Units=GPa)
#
#
# Indices 1 2 3 4 5 6 
#
# 1 82.7145 29.2842 8.7348 0.0000 14.5067 0.0000
# 2 29.2842 59.4861 18.9557 0.0000 6.3217 0.0000
# 3 8.7348 18.9557 45.4820 0.0000 14.4558 0.0000
# 4 0.0000 0.0000 0.0000 28.7225 0.0000 2.7575
# 5 14.5067 6.3217 14.4558 0.0000 34.6872 0.0000
# 6 0.0000 0.0000 0.0000 2.7575 0.0000 31.3993
#
#
#
# Elastic Compliance Matrix: (Units=1/GPa)
#
#
# Indices 1 2 3 4 5 6 
#
# 1 0.015666 -0.007753 0.002139 0.000000 -0.006031 0.000000
# 2 -0.007753 0.023223 -0.009078 0.000000 0.002793 0.000000
# 3 0.002139 -0.009078 0.028953 0.000000 -0.011306 0.000000
# 4 0.000000 0.000000 0.000000 0.035112 0.000000 -0.003084
# 5 -0.006031 0.002793 -0.011306 0.000000 0.035554 0.000000
# 6 0.000000 0.000000 0.000000 -0.003084 0.000000 0.032119
#
#
# Mechanical properties :
#
#
# Convention : Reuss Voigt Hill
#
# Bulk Modulus (GPa) = 26.00144 33.51467 29.75806
# Shear Modulus (GPa) = 23.49295 27.67566 25.58430
#
# Velocity S-wave (km/s) = 3.48410 3.78156 3.63588
# Velocity P-wave (km/s) = 5.44247 6.03193 5.74476
#
# Compressibility (1/GPa) = 0.03845940
#
# Stress axis : x y z
#
# Youngs Moduli (GPa) = 63.83069 43.06032 34.53907
#
# Poissons Ratio (x) = 0.33386 -0.07389
# Poissons Ratio (y) = 0.49489 0.31353
# Poissons Ratio (z) = -0.13655 0.39088
#
# Static dielectric constant tensor:
#      x y z
#    x 3.398660 0.000000 0.327370 
#    y 0.000000 3.576850 0.000000 
#    z 0.327370 0.000000 5.202590 
# 
# 
# High freq. dielectric constant tensor:
#      x y z
#    x 1.739240 0.000000 0.013520 
#    y 0.000000 1.765590 0.000000 
#    z 0.013520 0.000000 1.766520 
# 
# From -- ./inp_files/230933.got.cif
#   From: 2010.06.25/outbox.cif.g09.slc.cpg/sg12_116_cif.got.tgz:230933.got - 2010.06.28 00:19:55.
