data_PCOD8100026
_publ_section_title
;
Structure prediction by ZEFSAII (Michael W. Deem and Ramdas Pophale) SiO2 
 PCOD8100026
Probable space group: C 2/M
;
_chemical_formula_sum "Si O2"
_cell_formula_units_Z 56
_cell_length_a 22.995169
_cell_length_b 13.530274
_cell_length_c 10.004467
_cell_angle_alpha 90.000000
_cell_angle_beta 112.436231
_cell_angle_gamma 90.000000
_cell_volume 2877.083052
_symmetry_space_group_name_H-M "C 2/M"
_symmetry_group_IT_number 12
_symmetry_cell_setting 'monoclinic'
loop_
_space_group_symop_operation_xyz
x,y,z
-x,y,-z
-x,-y,-z
x,-y,z
1/2+x,1/2+y,z
1/2-x,1/2+y,-z
1/2-x,1/2-y,-z
1/2+x,1/2-y,z
loop_
_atom_site_type_symbol
_atom_site_label
_atom_site_fract_x
_atom_site_fract_y
_atom_site_fract_z
Si Si1 0.885301 0.890942 0.345757
Si Si2 0.440842 0.198888 0.298327
Si Si3 0.159736 0.696825 0.012831
Si Si4 0.213623 0.890066 0.964577
Si Si5 0.823397 0.690199 0.675520
Si Si6 0.074239 0.385482 0.436474
Si Si7 0.693941 0.387911 0.472669
O O1 0.937044 0.812956 0.342134
O O2 0.820778 0.878094 0.207233
O O3 0.866063 0.874912 0.482599
O O4 0.914390 0.000000 0.349107
O O5 0.413102 0.132072 0.394617
O O6 0.513288 0.174957 0.333976
O O7 0.403037 0.180884 0.128628
O O8 0.212681 0.628578 0.992608
O O9 0.145576 0.666831 0.153423
O O10 0.183473 0.810456 0.038504
O O11 0.204485 0.000000 0.016736
O O12 0.866218 0.649705 0.594317
O O13 0.757442 0.633554 0.610546
O O14 0.813285 0.808573 0.652424
O O15 0.061377 0.500000 0.399924
O O16 0.696042 0.500000 0.417163
#
# Coordination Sequence:
#
# PCOD8100026 Si02
#       7
#     8   8   8   8   8   8   8
#     4   9  16  33  59  85 109 142 186 235 282 333
#     4  10  21  40  58  80 112 152 197 237 276 330
#     4  10  21  34  56  86 114 147 188 235 282 333
#     4   9  18  32  53  81 117 149 180 225 284 342
#     4  11  22  37  58  87 121 150 187 234 286 337
#     4  11  24  42  59  79 113 156 195 234 279 335
#     4  10  20  35  57  85 117 151 183 227 287 347
#
# _framework density 19.46416
#
# number of rings (size 3 to 8) (size 9 to 14) (size 15 to 20)
#    0.000    2.000    2.857    1.286    0.000    2.857 
#    0.000    2.857    0.000    0.000    0.000    5.000 
#    0.000    0.000    0.000    0.000    0.000    0.000 
#
# Total GULP energy -347175.640303 kJ/mol
# GULP energy per Si atom -12399.130011 kJ/mol
# Density = 1.941986 g / cm^3
# Si number density = 19.464160 Si / 1000 Ang^3
#
#
#
# Elastic Constant Matrix: (Units=GPa)
#
#
# Indices 1 2 3 4 5 6 
#
# 1 54.9276 35.8230 22.0267 0.0000 0.1736 0.0000
# 2 35.8230 113.6646 8.8235 0.0000 12.8643 0.0000
# 3 22.0267 8.8235 92.3081 0.0000 6.7153 0.0000
# 4 0.0000 0.0000 0.0000 18.4123 0.0000 3.8863
# 5 0.1736 12.8643 6.7153 0.0000 21.3647 0.0000
# 6 0.0000 0.0000 0.0000 3.8863 0.0000 23.6340
#
#
#
# Elastic Compliance Matrix: (Units=1/GPa)
#
#
# Indices 1 2 3 4 5 6 
#
# 1 0.026127 -0.008544 -0.005912 0.000000 0.006790 0.000000
# 2 -0.008544 0.012258 0.001432 0.000000 -0.007761 0.000000
# 3 -0.005912 0.001432 0.012451 0.000000 -0.004728 0.000000
# 4 0.000000 0.000000 0.000000 0.056264 0.000000 -0.009252
# 5 0.006790 -0.007761 -0.004728 0.000000 0.052910 0.000000
# 6 0.000000 0.000000 0.000000 -0.009252 0.000000 0.043833
#
#
# Mechanical properties :
#
#
# Convention : Reuss Voigt Hill
#
# Bulk Modulus (GPa) = 40.34215 43.80520 42.07367
# Shear Modulus (GPa) = 20.99473 25.63068 23.31270
#
# Velocity S-wave (km/s) = 3.28782 3.63273 3.46457
# Velocity P-wave (km/s) = 5.93164 6.33641 6.13736
#
# Compressibility (1/GPa) = 0.02478797
#
# Stress axis : x y z
#
# Youngs Moduli (GPa) = 38.27413 81.58034 80.31449
#
# Poissons Ratio (x) = 0.69702 0.47481
# Poissons Ratio (y) = 0.32701 -0.11499
# Poissons Ratio (z) = 0.22627 -0.11680
#
# Static dielectric constant tensor:
#      x y z
#    x 3.226650 0.000000 0.028300 
#    y 0.000000 3.804410 0.000000 
#    z 0.028300 0.000000 3.360310 
# 
# 
# High freq. dielectric constant tensor:
#      x y z
#    x 1.737280 0.000000 0.001720 
#    y 0.000000 1.771680 0.000000 
#    z 0.001720 0.000000 1.741820 
# 
# From -- ./inp_files/96454.got.cif
#   From: 2010.06.25/outbox.cif.g09.slc.cpg/sg12_49_cif.got.tgz:96454.got - 2010.06.28 00:19:55.
