data_PCOD8100428
_publ_section_title
;
Structure prediction by ZEFSAII (Michael W. Deem and Ramdas Pophale) SiO2 
 PCOD8100428
Probable space group: C 2/M
;
_chemical_formula_sum "Si O2"
_cell_formula_units_Z 64
_cell_length_a 18.215656
_cell_length_b 22.710502
_cell_length_c 15.939670
_cell_angle_alpha 90.000000
_cell_angle_beta 149.013338
_cell_angle_gamma 90.000000
_cell_volume 3394.860309
_symmetry_space_group_name_H-M "C 2/M"
_symmetry_group_IT_number 12
_symmetry_cell_setting 'monoclinic'
loop_
_space_group_symop_operation_xyz
x,y,z
-x,y,-z
-x,-y,-z
x,-y,z
1/2+x,1/2+y,z
1/2-x,1/2+y,-z
1/2-x,1/2-y,-z
1/2+x,1/2-y,z
loop_
_atom_site_type_symbol
_atom_site_label
_atom_site_fract_x
_atom_site_fract_y
_atom_site_fract_z
Si Si1 0.010675 0.857906 0.746494
Si Si2 0.658439 0.784877 0.678841
Si Si3 0.768054 0.933636 0.452003
Si Si4 0.834488 0.566981 0.837382
Si Si5 0.093910 0.324853 0.327222
Si Si6 0.695944 0.281156 0.342177
Si Si7 0.884002 0.155041 0.325722
Si Si8 0.784557 0.687376 0.076207
O O1 0.930786 0.918231 0.640465
O O2 0.915963 0.820767 0.717372
O O3 0.044114 0.825069 0.691454
O O4 0.165033 0.862972 0.941955
O O5 0.500000 0.807658 0.500000
O O6 0.776790 0.804573 0.725504
O O7 0.668813 0.714537 0.682873
O O8 0.704292 0.809555 0.813016
O O9 0.740187 0.926691 0.326075
O O10 0.662673 0.889344 0.395831
O O11 0.735764 0.000000 0.449712
O O12 0.823449 0.500000 0.859492
O O13 0.747637 0.609545 0.815453
O O14 0.000000 0.586704 0.000000
O O15 0.150865 0.285649 0.461113
O O16 0.138013 0.286652 0.287639
O O17 0.927052 0.335322 0.171878
O O18 0.000000 0.124262 0.500000
O O19 0.750000 0.750000 0.000000
#
# Coordination Sequence:
#
# PCOD8100428 Si02
#       8
#     8   8   8   8   8   8   8   8
#     4  11  23  39  56  86 123 159 192 247 298 347
#     4  11  22  36  57  85 118 153 195 234 292 370
#     4  10  22  40  59  82 116 163 207 241 290 353
#     4  10  22  37  54  82 116 154 205 248 275 323
#     4  10  20  35  59  84 119 158 196 244 291 343
#     4  10  20  36  59  84 118 161 192 235 302 358
#     4  11  21  35  56  81 115 163 197 226 285 351
#     4  12  22  38  54  91 126 150 193 248 300 354
#
# _framework density 18.852027
#
# number of rings (size 3 to 8) (size 9 to 14) (size 15 to 20)
#    0.000    1.375    5.000    0.750    8.750    1.250 
#    2.250    0.625    0.000    0.000    0.000   14.000 
#    0.000    0.000    0.000    0.000    0.000    0.000 
#
# Total GULP energy -396544.616546 kJ/mol
# GULP energy per Si atom -12392.019267 kJ/mol
# Density = 1.880912 g / cm^3
# Si number density = 18.852027 Si / 1000 Ang^3
#
#
#
# Elastic Constant Matrix: (Units=GPa)
#
#
# Indices 1 2 3 4 5 6 
#
# 1 133.5029 29.6898 53.2872 0.0000 2.9981 0.0000
# 2 29.6898 75.6345 35.9987 0.0000 11.8564 0.0000
# 3 53.2872 35.9987 127.6069 0.0000 10.4373 0.0000
# 4 0.0000 0.0000 0.0000 22.6837 0.0000 2.7438
# 5 2.9981 11.8564 10.4373 0.0000 35.6676 0.0000
# 6 0.0000 0.0000 0.0000 2.7438 0.0000 19.1079
#
#
#
# Elastic Compliance Matrix: (Units=1/GPa)
#
#
# Indices 1 2 3 4 5 6 
#
# 1 0.009291 -0.002206 -0.003333 0.000000 0.000928 0.000000
# 2 -0.002206 0.016347 -0.003341 0.000000 -0.004271 0.000000
# 3 -0.003333 -0.003341 0.010304 0.000000 -0.001624 0.000000
# 4 0.000000 0.000000 0.000000 0.044864 0.000000 -0.006442
# 5 0.000928 -0.004271 -0.001624 0.000000 0.029854 0.000000
# 6 0.000000 0.000000 0.000000 -0.006442 0.000000 0.053259
#
#
# Mechanical properties :
#
#
# Convention : Reuss Voigt Hill
#
# Bulk Modulus (GPa) = 55.00223 63.85507 59.42865
# Shear Modulus (GPa) = 26.63264 30.00976 28.32120
#
# Velocity S-wave (km/s) = 3.76269 3.99414 3.88014
# Velocity P-wave (km/s) = 6.93659 7.43075 7.18792
#
# Compressibility (1/GPa) = 0.01818108
#
# Stress axis : x y z
#
# Youngs Moduli (GPa) = 107.63486 61.17281 97.05059
#
# Poissons Ratio (x) = 0.13494 0.32349
# Poissons Ratio (y) = 0.23744 0.32426
# Poissons Ratio (z) = 0.35877 0.20439
#
# Static dielectric constant tensor:
#      x y z
#    x 3.399340 0.000000 0.119300 
#    y 0.000000 3.193310 0.000000 
#    z 0.119300 0.000000 3.816980 
# 
# 
# High freq. dielectric constant tensor:
#      x y z
#    x 1.733720 0.000000 0.012400 
#    y 0.000000 1.689460 0.000000 
#    z 0.012400 0.000000 1.739130 
# 
# From -- ./inp_files/228162.got.cif
#   From: 2010.06.25/outbox.cif.g09.slc.cpg/sg12_115_cif.got.tgz:228162.got - 2010.06.28 00:19:55.
