data_PCOD8100104
_publ_section_title
;
Structure prediction by ZEFSAII (Michael W. Deem and Ramdas Pophale) SiO2 
 PCOD8100104
Probable space group: C 2/M
;
_chemical_formula_sum "Si O2"
_cell_formula_units_Z 56
_cell_length_a 32.159250
_cell_length_b 8.182698
_cell_length_c 21.242674
_cell_angle_alpha 90.000000
_cell_angle_beta 27.574295
_cell_angle_gamma 90.000000
_cell_volume 2587.600958
_symmetry_space_group_name_H-M "C 2/M"
_symmetry_group_IT_number 12
_symmetry_cell_setting 'monoclinic'
loop_
_space_group_symop_operation_xyz
x,y,z
-x,y,-z
-x,-y,-z
x,-y,z
1/2+x,1/2+y,z
1/2-x,1/2+y,-z
1/2-x,1/2-y,-z
1/2+x,1/2-y,z
loop_
_atom_site_type_symbol
_atom_site_label
_atom_site_fract_x
_atom_site_fract_y
_atom_site_fract_z
Si Si1 0.914390 0.681990 0.474732
Si Si2 0.107452 0.812696 0.209875
Si Si3 0.370581 0.675344 0.294994
Si Si4 0.039208 0.500000 0.858688
Si Si5 0.792721 0.177293 0.536778
Si Si6 0.853724 0.500000 0.155477
Si Si7 0.229760 0.191397 0.933771
Si Si8 0.739587 0.311134 0.776727
O O1 0.912902 0.500000 0.451312
O O2 0.876955 0.785163 0.467039
O O3 0.848363 0.701061 0.623810
O O4 0.016460 0.725323 0.353749
O O5 0.180817 0.785620 0.165501
O O6 0.082428 0.000000 0.237646
O O7 0.146469 0.750446 0.089756
O O8 0.418702 0.500000 0.214073
O O9 0.435130 0.831312 0.210971
O O10 0.290344 0.696806 0.350985
O O11 0.327603 0.657531 0.420286
O O12 0.087305 0.500000 0.860926
O O13 0.931973 0.500000 0.998452
O O14 0.751930 0.000000 0.613711
O O15 0.798967 0.671986 0.219184
O O16 0.210460 0.232870 0.886900
O O17 0.247393 0.000000 0.920235
O O18 0.709265 0.500000 0.801078
#
# Coordination Sequence:
#
# PCOD8100104 Si02
#       8
#     8   8   8   4   8   4   8   8
#     4  11  23  37  59  91 127 165 208 257 315 369
#     4  10  21  37  63  95 124 161 205 259 314 367
#     4  10  21  37  60  87 120 164 206 258 320 373
#     4  11  24  42  60  90 122 160 212 262 310 382
#     4  10  20  35  57  87 124 161 206 260 314 371
#     4  11  26  42  64  89 120 164 210 261 318 365
#     4   9  20  42  64  86 126 166 206 253 312 375
#     4  10  24  44  65  91 123 170 213 254 313 379
#
# _framework density 21.641669
#
# number of rings (size 3 to 8) (size 9 to 14) (size 15 to 20)
#    0.000    1.857    0.714    2.143    5.000    4.571 
#    0.000    7.143    0.000    0.000    0.000    0.000 
#    0.000    0.000    0.000    0.000    0.000    0.000 
#
# Total GULP energy -346935.840626 kJ/mol
# GULP energy per Si atom -12390.565737 kJ/mol
# Density = 2.159241 g / cm^3
# Si number density = 21.641669 Si / 1000 Ang^3
#
#
#
# Elastic Constant Matrix: (Units=GPa)
#
#
# Indices 1 2 3 4 5 6 
#
# 1 50.4520 17.9114 0.1856 -0.0042 5.7601 0.0009
# 2 17.9114 137.0029 38.5441 -0.0311 0.1049 0.0084
# 3 0.1856 38.5441 83.8662 -0.0286 -20.2450 0.0092
# 4 -0.0042 -0.0311 -0.0286 27.3412 0.0031 4.5163
# 5 5.7601 0.1049 -20.2450 0.0031 23.2774 0.0013
# 6 0.0009 0.0084 0.0092 4.5163 0.0013 27.0089
#
#
#
# Elastic Compliance Matrix: (Units=1/GPa)
#
#
# Indices 1 2 3 4 5 6 
#
# 1 0.021417 -0.002779 -0.000059 0.000001 -0.005338 0.000000
# 2 -0.002779 0.009096 -0.005086 0.000005 -0.003777 -0.000002
# 3 -0.000059 -0.005086 0.018063 0.000013 0.015747 -0.000007
# 4 0.000001 0.000005 0.000013 0.037614 0.000006 -0.006290
# 5 -0.005338 -0.003777 0.015747 0.000006 0.057994 -0.000008
# 6 0.000000 -0.000002 -0.000007 -0.006290 -0.000008 0.038077
#
#
# Mechanical properties :
#
#
# Convention : Reuss Voigt Hill
#
# Bulk Modulus (GPa) = 30.55499 42.73370 36.64434
# Shear Modulus (GPa) = 23.92134 29.83749 26.87941
#
# Velocity S-wave (km/s) = 3.32827 3.71712 3.52806
# Velocity P-wave (km/s) = 5.37765 6.18155 5.79356
#
# Compressibility (1/GPa) = 0.03272788
#
# Stress axis : x y z
#
# Youngs Moduli (GPa) = 46.69134 109.93473 55.36256
#
# Poissons Ratio (x) = 0.30556 0.00325
# Poissons Ratio (y) = 0.12978 0.28158
# Poissons Ratio (z) = 0.00274 0.55914
#
# Static dielectric constant tensor:
#      x y z
#    x 3.624270 0.000010 0.159610 
#    y 0.000010 4.306060 0.000050 
#    z 0.159610 0.000050 4.200120 
# 
# 
# High freq. dielectric constant tensor:
#      x y z
#    x 1.829040 0.000000 0.012990 
#    y 0.000000 1.864640 0.000000 
#    z 0.012990 0.000000 1.852510 
# 
# From -- ./inp_files/329574.got.cif
#   From: 2010.06.25/outbox.cif.g09.slc.cpg/sg12_165_cif.got.tgz:329574.got - 2010.06.28 00:19:55.
