data_PCOD8100592
_publ_section_title
;
Structure prediction by ZEFSAII (Michael W. Deem and Ramdas Pophale) SiO2 
 PCOD8100592
Probable space group: C 2/M
;
_chemical_formula_sum "Si O2"
_cell_formula_units_Z 40
_cell_length_a 19.687105
_cell_length_b 18.867048
_cell_length_c 8.687299
_cell_angle_alpha 90.000000
_cell_angle_beta 141.302477
_cell_angle_gamma 90.000000
_cell_volume 2017.417317
_symmetry_space_group_name_H-M "C 2/M"
_symmetry_group_IT_number 12
_symmetry_cell_setting 'monoclinic'
loop_
_space_group_symop_operation_xyz
x,y,z
-x,y,-z
-x,-y,-z
x,-y,z
1/2+x,1/2+y,z
1/2-x,1/2+y,-z
1/2-x,1/2-y,-z
1/2+x,1/2-y,z
loop_
_atom_site_type_symbol
_atom_site_label
_atom_site_fract_x
_atom_site_fract_y
_atom_site_fract_z
Si Si1 0.537780 0.840814 0.899420
Si Si2 0.120962 0.817815 0.535318
Si Si3 0.691916 0.172535 0.571700
Si Si4 0.622375 0.293501 0.888590
Si Si5 0.728821 0.918983 0.344745
O O1 0.429623 0.859515 0.607515
O O2 0.615794 0.784699 0.951706
O O3 0.500000 0.810593 0.000000
O O4 0.610486 0.910918 0.055556
O O5 0.167914 0.756903 0.503418
O O6 0.146525 0.787461 0.750579
O O7 0.177939 0.893242 0.607935
O O8 0.992936 0.831665 0.285123
O O9 0.740028 0.132640 0.510124
O O10 0.780002 0.161261 0.862513
O O11 0.748214 0.000000 0.425569
#
# Coordination Sequence:
#
# PCOD8100592 Si02
#       5
#     8   8   8   8   8
#     4   9  20  33  57  89 113 147 183 240 287 331
#     4  10  21  37  59  90 115 149 187 240 290 334
#     4  10  20  35  60  85 113 145 194 238 276 333
#     4  10  20  35  61  90 114 140 192 246 285 327
#     4  11  23  39  57  82 119 158 190 227 285 346
#
# _framework density 19.827331000000001
#
# number of rings (size 3 to 8) (size 9 to 14) (size 15 to 20)
#    0.000    2.000    2.000    1.200    5.600    3.600 
#    0.000    5.000    0.000    1.200    0.000    0.000 
#    0.000    0.000    0.000    0.000    0.000    0.000 
#
# Total GULP energy -247823.019796 kJ/mol
# GULP energy per Si atom -12391.150990 kJ/mol
# Density = 1.978220 g / cm^3
# Si number density = 19.827331 Si / 1000 Ang^3
#
#
#
# Elastic Constant Matrix: (Units=GPa)
#
#
# Indices 1 2 3 4 5 6 
#
# 1 90.2441 60.3384 32.1787 0.0000 -0.2182 0.0000
# 2 60.3384 94.1038 42.1387 0.0000 -0.3528 0.0000
# 3 32.1787 42.1387 154.7730 0.0000 15.2200 0.0000
# 4 0.0000 0.0000 0.0000 17.5926 0.0000 5.1866
# 5 -0.2182 -0.3528 15.2200 0.0000 16.8804 0.0000
# 6 0.0000 0.0000 0.0000 5.1866 0.0000 13.6790
#
#
#
# Elastic Compliance Matrix: (Units=1/GPa)
#
#
# Indices 1 2 3 4 5 6 
#
# 1 0.019479 -0.012118 -0.000823 0.000000 0.000741 0.000000
# 2 -0.012118 0.019837 -0.003189 0.000000 0.003134 0.000000
# 3 -0.000823 -0.003189 0.008239 0.000000 -0.007506 0.000000
# 4 0.000000 0.000000 0.000000 0.063996 0.000000 -0.024265
# 5 0.000741 0.003134 -0.007506 0.000000 0.066083 0.000000
# 6 0.000000 0.000000 0.000000 -0.024265 0.000000 0.082305
#
#
# Mechanical properties :
#
#
# Convention : Reuss Voigt Hill
#
# Bulk Modulus (GPa) = 65.39287 67.60363 66.49825
# Shear Modulus (GPa) = 16.81818 23.26139 20.03979
#
# Velocity S-wave (km/s) = 2.91560 3.42891 3.18262
# Velocity P-wave (km/s) = 6.66236 7.06023 6.86418
#
# Compressibility (1/GPa) = 0.01529219
#
# Stress axis : x y z
#
# Youngs Moduli (GPa) = 51.33793 50.41209 121.37835
#
# Poissons Ratio (x) = 0.61090 0.09994
# Poissons Ratio (y) = 0.62212 0.38712
# Poissons Ratio (z) = 0.04227 0.16078
#
# Static dielectric constant tensor:
#      x y z
#    x 3.645320 0.000000 0.247140 
#    y 0.000000 3.047900 0.000000 
#    z 0.247140 0.000000 3.960510 
# 
# 
# High freq. dielectric constant tensor:
#      x y z
#    x 1.777720 0.000000 0.022780 
#    y 0.000000 1.708550 0.000000 
#    z 0.022780 0.000000 1.791180 
# 
# From -- ./inp_files/60260.got.cif
#   From: 2010.06.25/outbox.cif.g09.slc.cpg/sg12_31_cif.got.tgz:60260.got - 2010.06.28 00:19:55.
