data_PCOD8100174
_publ_section_title
;
Structure prediction by ZEFSAII (Michael W. Deem and Ramdas Pophale) SiO2 
 PCOD8100174
Probable space group: C 2/M
;
_chemical_formula_sum "Si O2"
_cell_formula_units_Z 56
_cell_length_a 19.019404
_cell_length_b 8.823667
_cell_length_c 20.059378
_cell_angle_alpha 90.000000
_cell_angle_beta 123.331506
_cell_angle_gamma 90.000000
_cell_volume 2812.630641
_symmetry_space_group_name_H-M "C 2/M"
_symmetry_group_IT_number 12
_symmetry_cell_setting 'monoclinic'
loop_
_space_group_symop_operation_xyz
x,y,z
-x,y,-z
-x,-y,-z
x,-y,z
1/2+x,1/2+y,z
1/2-x,1/2+y,-z
1/2-x,1/2-y,-z
1/2+x,1/2-y,z
loop_
_atom_site_type_symbol
_atom_site_label
_atom_site_fract_x
_atom_site_fract_y
_atom_site_fract_z
Si Si1 0.250341 0.825452 0.808234
Si Si2 0.676862 0.173691 0.502152
Si Si3 0.494787 0.320799 0.573642
Si Si4 0.560401 0.822468 0.091285
Si Si5 0.084102 0.678223 0.739816
Si Si6 0.231214 0.170100 0.315990
Si Si7 0.541589 0.674935 0.222037
O O1 0.344228 0.781142 0.881612
O O2 0.179003 0.728580 0.809447
O O3 0.246138 0.793488 0.727222
O O4 0.230487 0.000000 0.811258
O O5 0.750000 0.250000 0.500000
O O6 0.593569 0.267180 0.442331
O O7 0.698841 0.186260 0.591223
O O8 0.664671 0.000000 0.473537
O O9 0.500000 0.263554 0.500000
O O10 0.503143 0.500000 0.582860
O O11 0.566377 0.247371 0.657199
O O12 0.531549 0.730643 0.141032
O O13 0.553523 0.000000 0.104443
O O14 0.500000 0.773469 0.000000
O O15 0.078874 0.500000 0.731922
O O16 0.018983 0.732442 0.761314
O O17 0.137638 0.200710 0.296344
O O18 0.233488 0.000000 0.286198
O O19 0.515338 0.500000 0.212451
#
# Coordination Sequence:
#
# PCOD8100174 Si02
#       7
#     8   8   8   8   8   8   8
#     4  10  20  35  58  84 110 143 181 222 271 328
#     4  11  22  35  53  77 107 144 187 235 286 336
#     4  11  24  40  57  79 110 148 191 240 291 339
#     4   9  19  38  63  90 119 149 183 224 273 333
#     4  12  24  38  57  81 113 150 190 234 281 336
#     4   9  19  35  54  77 106 141 182 229 277 330
#     4  10  20  36  59  86 116 149 188 232 280 333
#
# _framework density 19.910185999999999
#
# number of rings (size 3 to 8) (size 9 to 14) (size 15 to 20)
#    0.000    1.714    0.000    4.714    0.000    7.143 
#    0.000    0.714    0.000    0.000    0.000    0.000 
#    0.000    0.000    0.000    0.000    0.000    0.000 
#
# Total GULP energy -347264.740807 kJ/mol
# GULP energy per Si atom -12402.312172 kJ/mol
# Density = 1.986487 g / cm^3
# Si number density = 19.910186 Si / 1000 Ang^3
#
#
#
# Elastic Constant Matrix: (Units=GPa)
#
#
# Indices 1 2 3 4 5 6 
#
# 1 99.5662 39.6329 23.9819 0.0000 13.3571 0.0000
# 2 39.6329 98.9429 33.3106 0.0000 4.7400 0.0000
# 3 23.9819 33.3106 79.7579 0.0000 13.3648 0.0000
# 4 0.0000 0.0000 0.0000 27.1345 0.0000 -1.1115
# 5 13.3571 4.7400 13.3648 0.0000 24.8197 0.0000
# 6 0.0000 0.0000 0.0000 -1.1115 0.0000 37.3730
#
#
#
# Elastic Compliance Matrix: (Units=1/GPa)
#
#
# Indices 1 2 3 4 5 6 
#
# 1 0.012832 -0.004524 -0.001052 0.000000 -0.005476 0.000000
# 2 -0.004524 0.013360 -0.004616 0.000000 0.002369 0.000000
# 3 -0.001052 -0.004616 0.015982 0.000000 -0.007158 0.000000
# 4 0.000000 0.000000 0.000000 0.036898 0.000000 0.001097
# 5 -0.005476 0.002369 -0.007158 0.000000 0.046640 0.000000
# 6 0.000000 0.000000 0.000000 0.001097 0.000000 0.026790
#
#
# Mechanical properties :
#
#
# Convention : Reuss Voigt Hill
#
# Bulk Modulus (GPa) = 45.89246 52.45754 49.17500
# Shear Modulus (GPa) = 27.75501 29.95487 28.85494
#
# Velocity S-wave (km/s) = 3.73770 3.88300 3.81104
# Velocity P-wave (km/s) = 6.45964 6.81966 6.64209
#
# Compressibility (1/GPa) = 0.02179007
#
# Stress axis : x y z
#
# Youngs Moduli (GPa) = 77.92937 74.85278 62.57196
#
# Poissons Ratio (x) = 0.33861 0.06580
# Poissons Ratio (y) = 0.35253 0.28885
# Poissons Ratio (z) = 0.08195 0.34554
#
# Static dielectric constant tensor:
#      x y z
#    x 3.679520 0.000000 0.252960 
#    y 0.000000 3.671980 0.000000 
#    z 0.252960 0.000000 3.650930 
# 
# 
# High freq. dielectric constant tensor:
#      x y z
#    x 1.785710 0.000000 0.014610 
#    y 0.000000 1.784080 0.000000 
#    z 0.014610 0.000000 1.757140 
# 
# From -- ./inp_files/275547.got.cif
#   From: 2010.06.25/outbox.cif.g09.slc.cpg/sg12_138_cif.got.tgz:275547.got - 2010.06.28 00:19:55.
