data_PCOD8100469
_publ_section_title
;
Structure prediction by ZEFSAII (Michael W. Deem and Ramdas Pophale) SiO2 
 PCOD8100469
Probable space group: C 2/M
;
_chemical_formula_sum "Si O2"
_cell_formula_units_Z 56
_cell_length_a 29.331006
_cell_length_b 9.021336
_cell_length_c 21.461022
_cell_angle_alpha 90.000000
_cell_angle_beta 31.599943
_cell_angle_gamma 90.000000
_cell_volume 2975.549095
_symmetry_space_group_name_H-M "C 2/M"
_symmetry_group_IT_number 12
_symmetry_cell_setting 'monoclinic'
loop_
_space_group_symop_operation_xyz
x,y,z
-x,y,-z
-x,-y,-z
x,-y,z
1/2+x,1/2+y,z
1/2-x,1/2+y,-z
1/2-x,1/2-y,-z
1/2+x,1/2-y,z
loop_
_atom_site_type_symbol
_atom_site_label
_atom_site_fract_x
_atom_site_fract_y
_atom_site_fract_z
Si Si1 0.756591 0.672289 0.895031
Si Si2 0.887282 0.328256 0.270864
Si Si3 0.964034 0.173261 0.973927
Si Si4 0.078566 0.670381 0.628690
Si Si5 0.278972 0.325708 0.612611
Si Si6 0.220028 0.324467 0.816903
Si Si7 0.381126 0.172619 0.862156
O O1 0.742553 0.500000 0.898109
O O2 0.777010 0.755800 0.806561
O O3 0.838099 0.702080 0.845121
O O4 0.668036 0.735080 0.027789
O O5 0.906136 0.500000 0.232079
O O6 0.875234 0.306276 0.358561
O O7 0.800720 0.269785 0.337473
O O8 0.967460 0.228209 0.156589
O O9 0.946030 0.000000 0.985698
O O10 0.876633 0.262940 0.065177
O O11 0.000000 0.210656 0.000000
O O12 0.077930 0.500000 0.609638
O O13 0.131111 0.756695 0.514878
O O14 0.979871 0.730217 0.744976
O O15 0.287735 0.500000 0.597104
O O16 0.262831 0.274060 0.702104
O O17 0.217275 0.500000 0.826072
O O18 0.375902 0.000000 0.886954
#
# Coordination Sequence:
#
# PCOD8100469 Si02
#       7
#     8   8   8   8   8   8   8
#     4  10  20  35  59  87 113 140 178 229 278 326
#     4  10  20  36  56  80 110 147 185 222 273 331
#     4  11  22  34  53  83 113 141 179 226 272 320
#     4  10  21  36  57  80 105 142 185 227 273 325
#     4  10  22  37  53  76 109 148 187 226 269 323
#     4  11  22  37  56  78 111 151 186 221 272 331
#     4   9  19  37  58  85 115 142 177 224 281 336
#
# _framework density 18.820056000000001
#
# number of rings (size 3 to 8) (size 9 to 14) (size 15 to 20)
#    0.000    1.857    1.429    2.571    0.000    5.143 
#    0.000    0.714    0.000    4.286    0.000    0.000 
#    0.000    0.000    0.000    0.000    0.000    0.000 
#
# Total GULP energy -347335.254661 kJ/mol
# GULP energy per Si atom -12404.830524 kJ/mol
# Density = 1.877722 g / cm^3
# Si number density = 18.820056 Si / 1000 Ang^3
#
#
#
# Elastic Constant Matrix: (Units=GPa)
#
#
# Indices 1 2 3 4 5 6 
#
# 1 109.7499 40.4330 51.3442 -0.0005 10.1668 -0.0009
# 2 40.4330 57.6648 37.4493 -0.0004 5.1327 0.0013
# 3 51.3442 37.4493 112.1791 0.0015 4.6084 -0.0025
# 4 -0.0005 -0.0004 0.0015 34.9281 0.0000 5.8466
# 5 10.1668 5.1327 4.6084 0.0000 21.7574 0.0010
# 6 -0.0009 0.0013 -0.0025 5.8466 0.0010 17.5444
#
#
#
# Elastic Compliance Matrix: (Units=1/GPa)
#
#
# Indices 1 2 3 4 5 6 
#
# 1 0.013807 -0.006800 -0.003884 0.000000 -0.004025 0.000001
# 2 -0.006800 0.025789 -0.005425 0.000001 -0.001757 -0.000003
# 3 -0.003884 -0.005425 0.012484 -0.000001 0.000450 0.000002
# 4 0.000000 0.000001 -0.000001 0.030322 0.000000 -0.010105
# 5 -0.004025 -0.001757 0.000450 0.000000 0.048161 -0.000003
# 6 0.000001 -0.000003 0.000002 -0.010105 -0.000003 0.060366
#
#
# Mechanical properties :
#
#
# Convention : Reuss Voigt Hill
#
# Bulk Modulus (GPa) = 50.34569 59.78297 55.06433
# Shear Modulus (GPa) = 21.76116 24.87047 23.31581
#
# Velocity S-wave (km/s) = 3.40409 3.63917 3.52359
# Velocity P-wave (km/s) = 6.50074 7.03510 6.77319
#
# Compressibility (1/GPa) = 0.01986267
#
# Stress axis : x y z
#
# Youngs Moduli (GPa) = 72.42835 38.77596 80.10041
#
# Poissons Ratio (x) = 0.26369 0.31109
# Poissons Ratio (y) = 0.49254 0.43451
# Poissons Ratio (z) = 0.28129 0.21034
#
# Static dielectric constant tensor:
#      x y z
#    x 3.711030 0.000000 0.058500 
#    y 0.000000 3.415980 0.000010 
#    z 0.058500 0.000010 3.337530 
# 
# 
# High freq. dielectric constant tensor:
#      x y z
#    x 1.739480 0.000000 0.005780 
#    y 0.000000 1.730680 0.000000 
#    z 0.005780 0.000000 1.721590 
# 
# From -- ./inp_files/237905.got.cif
#   From: 2010.06.25/outbox.cif.g09.slc.cpg/sg12_119_cif.got.tgz:237905.got - 2010.06.28 00:19:55.
