data_PCOD8100114
_publ_section_title
;
Structure prediction by ZEFSAII (Michael W. Deem and Ramdas Pophale) SiO2 
 PCOD8100114
Probable space group: C 2/M
;
_chemical_formula_sum "Si O2"
_cell_formula_units_Z 64
_cell_length_a 23.250062
_cell_length_b 8.968086
_cell_length_c 14.672410
_cell_angle_alpha 90.000000
_cell_angle_beta 85.532509
_cell_angle_gamma 90.000000
_cell_volume 3050.027844
_symmetry_space_group_name_H-M "C 2/M"
_symmetry_group_IT_number 12
_symmetry_cell_setting 'monoclinic'
loop_
_space_group_symop_operation_xyz
x,y,z
-x,y,-z
-x,-y,-z
x,-y,z
1/2+x,1/2+y,z
1/2-x,1/2+y,-z
1/2-x,1/2-y,-z
1/2+x,1/2-y,z
loop_
_atom_site_type_symbol
_atom_site_label
_atom_site_fract_x
_atom_site_fract_y
_atom_site_fract_z
Si Si1 0.114133 0.669107 0.062507
Si Si2 0.634332 0.328120 0.883149
Si Si3 0.732253 0.165494 0.137743
Si Si4 0.936997 0.168196 0.756561
Si Si5 0.685574 0.663161 0.300981
Si Si6 0.629209 0.173770 0.694357
Si Si7 0.237357 0.829179 0.593304
Si Si8 0.515688 0.172870 0.601012
O O1 0.092132 0.500000 0.056742
O O2 0.183995 0.671848 0.064673
O O3 0.078325 0.741683 0.150115
O O4 0.099104 0.756358 0.971449
O O5 0.616865 0.500000 0.875832
O O6 0.701964 0.310269 0.900463
O O7 0.613184 0.247524 0.793208
O O8 0.716503 0.305600 0.201829
O O9 0.728036 0.000000 0.185572
O O10 0.882440 0.163285 0.697421
O O11 0.984571 0.244392 0.687796
O O12 0.956177 0.000000 0.780697
O O13 0.706522 0.500000 0.333608
O O14 0.702682 0.802004 0.362154
O O15 0.687663 0.250817 0.656130
O O16 0.582855 0.197830 0.618534
O O17 0.639623 0.000000 0.710089
O O18 0.250000 0.750000 0.500000
O O19 0.222000 0.000000 0.581314
O O20 0.500000 0.233429 0.500000
O O21 0.498178 0.000000 0.607166
#
# Coordination Sequence:
#
# PCOD8100114 Si02
#       8
#     8   8   8   8   8   8   8   8
#     4  10  20  35  58  88 124 168 212 255 306 365
#     4  11  21  35  57  88 126 167 209 254 310 370
#     4   9  18  32  52  82 121 167 207 245 297 358
#     4  10  22  40  63  93 126 161 207 261 311 364
#     4  10  20  35  57  88 123 161 202 248 303 364
#     4  11  24  43  65  93 126 163 209 258 312 375
#     4  12  25  40  60  88 125 164 204 250 309 373
#     4  10  24  46  70  94 120 159 207 258 314 373
#
# _framework density 20.983415999999998
#
# number of rings (size 3 to 8) (size 9 to 14) (size 15 to 20)
#    0.000    1.625    1.250    3.375    1.750    3.750 
#    0.000    0.625    0.000    3.750    0.000    0.000 
#    0.000    0.000    0.000    0.000    0.000    0.000 
#
# Total GULP energy -396499.332340 kJ/mol
# GULP energy per Si atom -12390.604136 kJ/mol
# Density = 2.093566 g / cm^3
# Si number density = 20.983416 Si / 1000 Ang^3
#
#
#
# Elastic Constant Matrix: (Units=GPa)
#
#
# Indices 1 2 3 4 5 6 
#
# 1 27.8862 27.9391 17.9162 0.0000 3.9401 0.0000
# 2 27.9391 136.3071 49.9019 0.0000 4.2827 0.0000
# 3 17.9162 49.9019 116.2473 0.0000 9.8175 0.0000
# 4 0.0000 0.0000 0.0000 39.9629 0.0000 -0.3445
# 5 3.9401 4.2827 9.8175 0.0000 23.7314 0.0000
# 6 0.0000 0.0000 0.0000 -0.3445 0.0000 21.1416
#
#
#
# Elastic Compliance Matrix: (Units=1/GPa)
#
#
# Indices 1 2 3 4 5 6 
#
# 1 0.046945 -0.008271 -0.003267 0.000000 -0.004950 0.000000
# 2 -0.008271 0.010162 -0.003159 0.000000 0.000846 0.000000
# 3 -0.003267 -0.003159 0.010743 0.000000 -0.003332 0.000000
# 4 0.000000 0.000000 0.000000 0.025027 0.000000 0.000408
# 5 -0.004950 0.000846 -0.003332 0.000000 0.044186 0.000000
# 6 0.000000 0.000000 0.000000 0.000408 0.000000 0.047307
#
#
# Mechanical properties :
#
#
# Convention : Reuss Voigt Hill
#
# Bulk Modulus (GPa) = 26.00323 52.43947 39.22135
# Shear Modulus (GPa) = 22.06721 29.27941 25.67331
#
# Velocity S-wave (km/s) = 3.24643 3.73950 3.50166
# Velocity P-wave (km/s) = 5.14506 6.60987 5.92292
#
# Compressibility (1/GPa) = 0.03845676
#
# Stress axis : x y z
#
# Youngs Moduli (GPa) = 21.30162 98.41040 93.08217
#
# Poissons Ratio (x) = 0.81394 0.30407
# Poissons Ratio (y) = 0.17618 0.29403
# Poissons Ratio (z) = 0.06959 0.31086
#
# Static dielectric constant tensor:
#      x y z
#    x 3.689100 0.000000 0.157410 
#    y 0.000000 4.016120 0.000000 
#    z 0.157410 0.000000 3.704700 
# 
# 
# High freq. dielectric constant tensor:
#      x y z
#    x 1.804630 0.000000 0.007350 
#    y 0.000000 1.834960 0.000000 
#    z 0.007350 0.000000 1.819910 
# 
# From -- ./inp_files/243877.got.cif
#   From: 2010.06.25/outbox.cif.g09.slc.cpg/sg12_122_cif.got.tgz:243877.got - 2010.06.28 00:19:55.
