data_PCOD8100414
_publ_section_title
;
Structure prediction by ZEFSAII (Michael W. Deem and Ramdas Pophale) SiO2 
 PCOD8100414
Probable space group: C 2/M
;
_chemical_formula_sum "Si O2"
_cell_formula_units_Z 64
_cell_length_a 14.698718
_cell_length_b 26.824563
_cell_length_c 9.242445
_cell_angle_alpha 90.000000
_cell_angle_beta 118.172366
_cell_angle_gamma 90.000000
_cell_volume 3212.452443
_symmetry_space_group_name_H-M "C 2/M"
_symmetry_group_IT_number 12
_symmetry_cell_setting 'monoclinic'
loop_
_space_group_symop_operation_xyz
x,y,z
-x,y,-z
-x,-y,-z
x,-y,z
1/2+x,1/2+y,z
1/2-x,1/2+y,-z
1/2-x,1/2-y,-z
1/2+x,1/2-y,z
loop_
_atom_site_type_symbol
_atom_site_label
_atom_site_fract_x
_atom_site_fract_y
_atom_site_fract_z
Si Si1 0.697287 0.368983 0.241118
Si Si2 0.799830 0.224646 0.901337
Si Si3 0.905080 0.880146 0.341282
Si Si4 0.386790 0.058058 0.911156
Si Si5 0.793099 0.059309 0.018771
Si Si6 0.711390 0.121543 0.388703
Si Si7 0.919553 0.291459 0.812186
Si Si8 0.000052 0.190829 0.801796
O O1 0.760848 0.322496 0.213767
O O2 0.686527 0.414291 0.119679
O O3 0.764800 0.389020 0.425906
O O4 0.587325 0.349208 0.218507
O O5 0.814319 0.270126 0.803428
O O6 0.750000 0.250000 0.000000
O O7 0.912692 0.198436 0.009127
O O8 0.814667 0.862729 0.381111
O O9 0.000000 0.904789 0.500000
O O10 0.942838 0.828702 0.297608
O O11 0.874731 0.920463 0.196949
O O12 0.329620 0.071793 0.719172
O O13 0.399736 0.000000 0.918932
O O14 0.500000 0.083630 0.000000
O O15 0.320354 0.073683 0.003257
O O16 0.807096 0.000000 0.010377
O O17 0.618551 0.161708 0.308530
O O18 0.960319 0.247096 0.738498
O O19 0.000000 0.307027 0.000000
#
# Coordination Sequence:
#
# PCOD8100414 Si02
#       8
#     8   8   8   8   8   8   8   8
#     4  11  22  38  58  86 131 159 196 254 310 366
#     4  10  20  35  59  81 112 164 214 243 295 353
#     4  11  21  38  63  85 120 164 205 249 301 357
#     4   9  20  42  71  91 113 154 200 249 308 370
#     4  10  23  41  66  93 118 157 204 246 303 375
#     4  11  22  37  60  92 122 156 202 256 302 361
#     4   9  20  35  57  83 113 154 204 257 289 352
#     4  10  20  38  58  83 123 166 207 245 305 359
#
# _framework density 19.922474000000001
#
# number of rings (size 3 to 8) (size 9 to 14) (size 15 to 20)
#    0.000    1.875    2.500    2.250    1.750    2.750 
#    2.250    1.875    0.000    2.250    0.000    0.000 
#    0.000    0.000    0.000    0.000    0.000    0.000 
#
# Total GULP energy -396437.689251 kJ/mol
# GULP energy per Si atom -12388.677789 kJ/mol
# Density = 1.987713 g / cm^3
# Si number density = 19.922474 Si / 1000 Ang^3
#
#
#
# Elastic Constant Matrix: (Units=GPa)
#
#
# Indices 1 2 3 4 5 6 
#
# 1 81.3546 25.9030 37.4977 0.0000 4.1479 0.0000
# 2 25.9030 41.2964 32.1853 0.0000 -3.9612 0.0000
# 3 37.4977 32.1853 123.0500 0.0000 -1.4089 0.0000
# 4 0.0000 0.0000 0.0000 19.3547 0.0000 -2.8270
# 5 4.1479 -3.9612 -1.4089 0.0000 28.8934 0.0000
# 6 0.0000 0.0000 0.0000 -2.8270 0.0000 22.1613
#
#
#
# Elastic Compliance Matrix: (Units=1/GPa)
#
#
# Indices 1 2 3 4 5 6 
#
# 1 0.016491 -0.008474 -0.002851 0.000000 -0.003668 0.000000
# 2 -0.008474 0.035189 -0.006556 0.000000 0.005721 0.000000
# 3 -0.002851 -0.006556 0.010711 0.000000 0.000033 0.000000
# 4 0.000000 0.000000 0.000000 0.052648 0.000000 0.006716
# 5 -0.003668 0.005721 0.000033 0.000000 0.035922 0.000000
# 6 0.000000 0.000000 0.000000 0.006716 0.000000 0.045980
#
#
# Mechanical properties :
#
#
# Convention : Reuss Voigt Hill
#
# Bulk Modulus (GPa) = 37.55364 48.54146 43.04755
# Shear Modulus (GPa) = 20.69705 24.08954 22.39330
#
# Velocity S-wave (km/s) = 3.22666 3.48108 3.35628
# Velocity P-wave (km/s) = 5.72474 6.36987 6.05590
#
# Compressibility (1/GPa) = 0.02662857
#
# Stress axis : x y z
#
# Youngs Moduli (GPa) = 60.63919 28.41793 93.36333
#
# Poissons Ratio (x) = 0.24081 0.26617
# Poissons Ratio (y) = 0.51385 0.61212
# Poissons Ratio (z) = 0.17288 0.18632
#
# Static dielectric constant tensor:
#      x y z
#    x 3.890200 0.000000 0.151850 
#    y 0.000000 3.522260 0.000000 
#    z 0.151850 0.000000 3.685410 
# 
# 
# High freq. dielectric constant tensor:
#      x y z
#    x 1.775050 0.000000 -0.000220 
#    y 0.000000 1.769320 0.000000 
#    z -0.000220 0.000000 1.766940 
# 
# From -- ./inp_files/68255.got.cif
#   From: 2010.06.25/outbox.cif.g09.slc.cpg/sg12_35_cif.got.tgz:68255.got - 2010.06.28 00:19:55.
