data_PCOD8100936
_publ_section_title
;
Structure prediction by ZEFSAII (Michael W. Deem and Ramdas Pophale) SiO2 
 PCOD8100936
Probable space group: C 2/M
;
_chemical_formula_sum "Si O2"
_cell_formula_units_Z 64
_cell_length_a 14.182746
_cell_length_b 8.946674
_cell_length_c 29.443184
_cell_angle_alpha 90.000000
_cell_angle_beta 62.895629
_cell_angle_gamma 90.000000
_cell_volume 3325.703993
_symmetry_space_group_name_H-M "C 2/M"
_symmetry_group_IT_number 12
_symmetry_cell_setting 'monoclinic'
loop_
_space_group_symop_operation_xyz
x,y,z
-x,y,-z
-x,-y,-z
x,-y,z
1/2+x,1/2+y,z
1/2-x,1/2+y,-z
1/2-x,1/2-y,-z
1/2+x,1/2-y,z
loop_
_atom_site_type_symbol
_atom_site_label
_atom_site_fract_x
_atom_site_fract_y
_atom_site_fract_z
Si Si1 0.219714 0.676027 0.127795
Si Si2 0.145913 0.170130 0.507733
Si Si3 0.201014 0.823729 0.400631
Si Si4 0.917779 0.174886 0.383147
Si Si5 0.495588 0.824064 0.141383
Si Si6 0.628978 0.176609 0.325054
Si Si7 0.427195 0.176020 0.056801
Si Si8 0.211176 0.824994 0.787968
O O1 0.227226 0.500000 0.119248
O O2 0.312167 0.749521 0.077565
O O3 0.231904 0.722511 0.177702
O O4 0.107521 0.738275 0.134700
O O5 0.250000 0.250000 0.500000
O O6 0.118969 0.212705 0.461004
O O7 0.059830 0.195794 0.566816
O O8 0.179913 0.000000 0.498665
O O9 0.318347 0.772047 0.389084
O O10 0.167291 0.725016 0.365911
O O11 0.200234 0.000000 0.388392
O O12 0.020738 0.239036 0.335438
O O13 0.901005 0.000000 0.374847
O O14 0.482693 0.776603 0.091739
O O15 0.402242 0.754002 0.192106
O O16 0.489135 0.000000 0.149230
O O17 0.715807 0.227926 0.269451
O O18 0.609618 0.000000 0.327971
O O19 0.411295 0.000000 0.057020
O O20 0.500000 0.236162 0.000000
O O21 0.190569 0.000000 0.790961
#
# Coordination Sequence:
#
# PCOD8100936 Si02
#       8
#     8   8   8   8   8   8   8   8
#     4   9  18  34  54  75  99 132 174 215 254 298
#     4   8  16  31  52  75 101 132 167 207 254 310
#     4  10  20  36  56  78 104 136 172 213 261 314
#     4  10  20  36  56  79 106 136 170 212 262 317
#     4   9  18  33  54  77 101 134 175 213 254 306
#     4  11  23  37  52  76 107 138 174 217 267 322
#     4   9  18  32  49  75 112 144 169 205 251 299
#     4   9  20  37  53  71  99 131 168 217 263 302
#
# _framework density 19.244046000000001
#
# number of rings (size 3 to 8) (size 9 to 14) (size 15 to 20)
#    0.000    2.625    0.000    1.125    0.000    4.750 
#    0.000    3.750    0.000    0.000    0.000    0.000 
#    0.000    0.000    0.000    0.000    0.000    0.000 
#
# Total GULP energy -396630.747083 kJ/mol
# GULP energy per Si atom -12394.710846 kJ/mol
# Density = 1.920025 g / cm^3
# Si number density = 19.244046 Si / 1000 Ang^3
#
#
#
# Elastic Constant Matrix: (Units=GPa)
#
#
# Indices 1 2 3 4 5 6 
#
# 1 82.8850 12.5410 31.2400 0.0000 -15.8290 0.0000
# 2 12.5410 32.0645 28.7737 0.0000 -6.6675 0.0000
# 3 31.2400 28.7737 112.2192 0.0000 -20.7119 0.0000
# 4 0.0000 0.0000 0.0000 29.5027 0.0000 -3.9394
# 5 -15.8290 -6.6675 -20.7119 0.0000 25.5101 0.0000
# 6 0.0000 0.0000 0.0000 -3.9394 0.0000 30.0102
#
#
#
# Elastic Compliance Matrix: (Units=1/GPa)
#
#
# Indices 1 2 3 4 5 6 
#
# 1 0.014514 -0.002302 -0.002234 0.000000 0.006591 0.000000
# 2 -0.002302 0.041012 -0.009599 0.000000 0.001498 0.000000
# 3 -0.002234 -0.009599 0.013263 0.000000 0.006873 0.000000
# 4 0.000000 0.000000 0.000000 0.034500 0.000000 0.004529
# 5 0.006591 0.001498 0.006873 0.000000 0.049262 0.000000
# 6 0.000000 0.000000 0.000000 0.004529 0.000000 0.033917
#
#
# Mechanical properties :
#
#
# Convention : Reuss Voigt Hill
#
# Bulk Modulus (GPa) = 24.67875 41.36424 33.02149
# Shear Modulus (GPa) = 21.90658 27.31218 24.60938
#
# Velocity S-wave (km/s) = 3.37761 3.77139 3.57992
# Velocity P-wave (km/s) = 5.29745 6.36441 5.85528
#
# Compressibility (1/GPa) = 0.04052070
#
# Stress axis : x y z
#
# Youngs Moduli (GPa) = 68.90019 24.38287 75.39921
#
# Poissons Ratio (x) = 0.05612 0.16843
# Poissons Ratio (y) = 0.15858 0.72373
# Poissons Ratio (z) = 0.15391 0.23404
#
# Static dielectric constant tensor:
#      x y z
#    x 3.474710 0.000000 -0.021720 
#    y 0.000000 3.403170 0.000000 
#    z -0.021720 0.000000 3.805990 
# 
# 
# High freq. dielectric constant tensor:
#      x y z
#    x 1.744280 0.000000 -0.004100 
#    y 0.000000 1.744160 0.000000 
#    z -0.004100 0.000000 1.752140 
# 
# From -- ./inp_files/375064.got.cif
#   From: 2010.06.25/outbox.cif.g09.slc.cpg/sg12_188_cif.got.tgz:375064.got - 2010.06.28 00:19:55.
