data_PCOD8100108
_publ_section_title
;
Structure prediction by ZEFSAII (Michael W. Deem and Ramdas Pophale) SiO2 
 PCOD8100108
Probable space group: C 2/M
;
_chemical_formula_sum "Si O2"
_cell_formula_units_Z 56
_cell_length_a 20.041799
_cell_length_b 8.547884
_cell_length_c 16.343087
_cell_angle_alpha 90.000000
_cell_angle_beta 92.385107
_cell_angle_gamma 90.000000
_cell_volume 2797.389975
_symmetry_space_group_name_H-M "C 2/M"
_symmetry_group_IT_number 12
_symmetry_cell_setting 'monoclinic'
loop_
_space_group_symop_operation_xyz
x,y,z
-x,y,-z
-x,-y,-z
x,-y,z
1/2+x,1/2+y,z
1/2-x,1/2+y,-z
1/2-x,1/2-y,-z
1/2+x,1/2-y,z
loop_
_atom_site_type_symbol
_atom_site_label
_atom_site_fract_x
_atom_site_fract_y
_atom_site_fract_z
Si Si1 0.574588 0.815214 0.014415
Si Si2 0.020143 0.820338 0.738464
Si Si3 0.301761 0.684773 0.437481
Si Si4 0.630814 0.818053 0.852168
Si Si5 0.943981 0.319707 0.429601
Si Si6 0.257461 0.813910 0.262447
Si Si7 0.616282 0.319191 0.186163
O O1 0.607282 0.773284 0.101846
O O2 0.569904 0.000000 0.005789
O O3 0.500000 0.743482 0.000000
O O4 0.621136 0.747290 0.943059
O O5 0.063553 0.710597 0.798402
O O6 0.034461 0.784431 0.645527
O O7 0.943045 0.784255 0.753651
O O8 0.038274 0.000000 0.757486
O O9 0.307703 0.500000 0.447391
O O10 0.250000 0.750000 0.500000
O O11 0.373304 0.761472 0.460583
O O12 0.277726 0.727158 0.345806
O O13 0.694363 0.748239 0.807225
O O14 0.643359 0.000000 0.860523
O O15 0.937898 0.500000 0.402367
O O16 0.000000 0.295271 0.500000
O O17 0.183036 0.763004 0.234791
O O18 0.264530 0.000000 0.275948
O O19 0.620847 0.500000 0.162583
#
# Coordination Sequence:
#
# PCOD8100108 Si02
#       7
#     8   8   8   8   8   8   8
#     4  10  20  35  57  88 120 158 207 256 309 364
#     4  11  22  37  60  90 122 159 206 254 308 364
#     4  12  26  44  67  95 127 165 208 253 308 368
#     4  10  20  37  62  85 117 163 207 252 306 369
#     4  11  25  44  66  95 127 162 205 254 311 369
#     4  10  22  42  63  87 123 166 207 250 308 369
#     4  10  23  39  58  89 124 161 204 256 309 360
#
# _framework density 20.018661000000002
#
# number of rings (size 3 to 8) (size 9 to 14) (size 15 to 20)
#    0.000    1.429    2.857    2.143    2.000    3.714 
#    0.000    0.000    0.000    0.000    0.000    0.000 
#    0.000    0.000    0.000    0.000    0.000    0.000 
#
# Total GULP energy -347259.381940 kJ/mol
# GULP energy per Si atom -12402.120784 kJ/mol
# Density = 1.997310 g / cm^3
# Si number density = 20.018661 Si / 1000 Ang^3
#
#
#
# Elastic Constant Matrix: (Units=GPa)
#
#
# Indices 1 2 3 4 5 6 
#
# 1 155.9378 19.4217 54.2326 0.0000 -12.6823 0.0000
# 2 19.4217 15.2907 16.7437 0.0000 -4.2520 0.0000
# 3 54.2326 16.7437 105.2765 0.0000 -22.0846 0.0000
# 4 0.0000 0.0000 0.0000 32.6130 0.0000 1.2597
# 5 -12.6823 -4.2520 -22.0846 0.0000 41.8366 0.0000
# 6 0.0000 0.0000 0.0000 1.2597 0.0000 22.8428
#
#
#
# Elastic Compliance Matrix: (Units=1/GPa)
#
#
# Indices 1 2 3 4 5 6 
#
# 1 0.008421 -0.007190 -0.003162 0.000000 0.000153 0.000000
# 2 -0.007190 0.085423 -0.009579 0.000000 0.001446 0.000000
# 3 -0.003162 -0.009579 0.013771 0.000000 0.005337 0.000000
# 4 0.000000 0.000000 0.000000 0.030728 0.000000 -0.001695
# 5 0.000153 0.001446 0.005337 0.000000 0.026913 0.000000
# 6 0.000000 0.000000 0.000000 -0.001695 0.000000 0.043871
#
#
# Mechanical properties :
#
#
# Convention : Reuss Voigt Hill
#
# Bulk Modulus (GPa) = 14.75968 50.81121 32.78545
# Shear Modulus (GPa) = 18.41122 31.86560 25.13841
#
# Velocity S-wave (km/s) = 3.03595 3.99406 3.54750
# Velocity P-wave (km/s) = 4.43602 6.83425 5.76131
#
# Compressibility (1/GPa) = 0.06775213
#
# Stress axis : x y z
#
# Youngs Moduli (GPa) = 118.75741 11.70640 72.61707
#
# Poissons Ratio (x) = 0.08417 0.22963
# Poissons Ratio (y) = 0.85391 0.69558
# Poissons Ratio (z) = 0.37553 0.11213
#
# Static dielectric constant tensor:
#      x y z
#    x 3.819110 0.000000 -0.209540 
#    y 0.000000 3.549120 0.000000 
#    z -0.209540 0.000000 3.763940 
# 
# 
# High freq. dielectric constant tensor:
#      x y z
#    x 1.792560 0.000000 -0.011650 
#    y 0.000000 1.771320 0.000000 
#    z -0.011650 0.000000 1.790780 
# 
# From -- ./inp_files/231057.got.cif
#   From: 2010.06.25/outbox.cif.g09.slc.cpg/sg12_116_cif.got.tgz:231057.got - 2010.06.28 00:19:55.
