data_PCOD8100988
_publ_section_title
;
Structure prediction by ZEFSAII (Michael W. Deem and Ramdas Pophale) SiO2 
 PCOD8100988
Probable space group: C 2/M
;
_chemical_formula_sum "Si O2"
_cell_formula_units_Z 56
_cell_length_a 23.304377
_cell_length_b 9.389237
_cell_length_c 15.067172
_cell_angle_alpha 90.000000
_cell_angle_beta 115.853420
_cell_angle_gamma 90.000000
_cell_volume 2966.879261
_symmetry_space_group_name_H-M "C 2/M"
_symmetry_group_IT_number 12
_symmetry_cell_setting 'monoclinic'
loop_
_space_group_symop_operation_xyz
x,y,z
-x,y,-z
-x,-y,-z
x,-y,z
1/2+x,1/2+y,z
1/2-x,1/2+y,-z
1/2-x,1/2-y,-z
1/2+x,1/2-y,z
loop_
_atom_site_type_symbol
_atom_site_label
_atom_site_fract_x
_atom_site_fract_y
_atom_site_fract_z
Si Si1 0.984278 0.668210 0.585736
Si Si2 0.057183 0.334288 0.806586
Si Si3 0.187301 0.335095 0.981815
Si Si4 0.149552 0.663936 0.151749
Si Si5 0.970898 0.164218 0.883840
Si Si6 0.758365 0.338074 0.632938
Si Si7 0.343626 0.833415 0.526119
O O1 0.980987 0.500000 0.574203
O O2 0.915808 0.725467 0.573114
O O3 0.000000 0.736101 0.500000
O O4 0.038673 0.710499 0.693707
O O5 0.040784 0.500000 0.813802
O O6 0.132399 0.305978 0.871784
O O7 0.017352 0.239299 0.846586
O O8 0.206176 0.500000 0.998747
O O9 0.250000 0.250000 0.000000
O O10 0.161341 0.283673 0.059677
O O11 0.126107 0.500000 0.138032
O O12 0.097385 0.760632 0.164354
O O13 0.215257 0.682153 0.250129
O O14 0.962644 0.000000 0.851268
O O15 0.000000 0.182097 0.000000
O O16 0.737637 0.500000 0.601079
O O17 0.696470 0.240395 0.579469
O O18 0.813926 0.293692 0.601239
O O19 0.341833 0.000000 0.505462
#
# Coordination Sequence:
#
# PCOD8100988 Si02
#       7
#     8   8   8   8   8   8   8
#     4   9  18  33  55  81 107 138 183 231 267 311
#     4  10  20  37  59  81 108 147 188 225 271 329
#     4  10  22  37  55  78 106 143 182 220 264 319
#     4  10  20  36  56  80 108 143 184 220 264 328
#     4  11  22  34  54  85 115 141 174 226 283 326
#     4   9  18  32  52  76 105 138 173 215 263 316
#     4   9  17  31  51  77 105 135 171 217 270 313
#
# _framework density 18.875052
#
# number of rings (size 3 to 8) (size 9 to 14) (size 15 to 20)
#    0.000    2.286    1.429    1.286    0.000    5.714 
#    0.000    5.000    0.000    1.714    0.000    0.000 
#    0.000    0.000    0.000    0.000    0.000    0.000 
#
# Total GULP energy -347226.539823 kJ/mol
# GULP energy per Si atom -12400.947851 kJ/mol
# Density = 1.883209 g / cm^3
# Si number density = 18.875052 Si / 1000 Ang^3
#
#
#
# Elastic Constant Matrix: (Units=GPa)
#
#
# Indices 1 2 3 4 5 6 
#
# 1 103.5284 42.4700 54.2119 0.0000 11.5502 0.0000
# 2 42.4700 61.2905 38.9002 0.0000 3.3936 0.0000
# 3 54.2119 38.9002 132.4069 0.0000 9.1811 0.0000
# 4 0.0000 0.0000 0.0000 24.0338 0.0000 6.6003
# 5 11.5502 3.3936 9.1811 0.0000 27.8021 0.0000
# 6 0.0000 0.0000 0.0000 6.6003 0.0000 29.4160
#
#
#
# Elastic Compliance Matrix: (Units=1/GPa)
#
#
# Indices 1 2 3 4 5 6 
#
# 1 0.015343 -0.008109 -0.003609 0.000000 -0.004193 0.000000
# 2 -0.008109 0.024348 -0.003951 0.000000 0.001702 0.000000
# 3 -0.003609 -0.003951 0.010289 0.000000 -0.001416 0.000000
# 4 0.000000 0.000000 0.000000 0.044340 0.000000 -0.009949
# 5 -0.004193 0.001702 -0.001416 0.000000 0.037970 0.000000
# 6 0.000000 0.000000 0.000000 -0.009949 0.000000 0.036227
#
#
# Mechanical properties :
#
#
# Convention : Reuss Voigt Hill
#
# Bulk Modulus (GPa) = 53.64170 63.15443 58.39806
# Shear Modulus (GPa) = 24.26344 27.02664 25.64504
#
# Velocity S-wave (km/s) = 3.58924 3.78811 3.69002
# Velocity P-wave (km/s) = 6.75707 7.25706 7.01152
#
# Compressibility (1/GPa) = 0.01864221
#
# Stress axis : x y z
#
# Youngs Moduli (GPa) = 65.17497 41.07058 97.18996
#
# Poissons Ratio (x) = 0.33305 0.35075
# Poissons Ratio (y) = 0.52851 0.38402
# Poissons Ratio (z) = 0.23521 0.16228
#
# Static dielectric constant tensor:
#      x y z
#    x 3.418810 0.000000 0.401190 
#    y 0.000000 3.297630 0.000000 
#    z 0.401190 0.000000 7.604590 
# 
# 
# High freq. dielectric constant tensor:
#      x y z
#    x 1.722450 0.000000 0.007290 
#    y 0.000000 1.710810 0.000000 
#    z 0.007290 0.000000 1.745420 
# 
# From -- ./inp_files/238952.got.cif
#   From: 2010.06.25/outbox.cif.g09.slc.cpg/sg12_120_cif.got.tgz:238952.got - 2010.06.28 00:19:55.
