data_PCOD8100152
_publ_section_title
;
Structure prediction by ZEFSAII (Michael W. Deem and Ramdas Pophale) SiO2 
 PCOD8100152
Probable space group: C 2/M
;
_chemical_formula_sum "Si O2"
_cell_formula_units_Z 48
_cell_length_a 15.875626
_cell_length_b 17.245648
_cell_length_c 10.999111
_cell_angle_alpha 90.000000
_cell_angle_beta 57.676098
_cell_angle_gamma 90.000000
_cell_volume 2544.747138
_symmetry_space_group_name_H-M "C 2/M"
_symmetry_group_IT_number 12
_symmetry_cell_setting 'monoclinic'
loop_
_space_group_symop_operation_xyz
x,y,z
-x,y,-z
-x,-y,-z
x,-y,z
1/2+x,1/2+y,z
1/2-x,1/2+y,-z
1/2-x,1/2-y,-z
1/2+x,1/2-y,z
loop_
_atom_site_type_symbol
_atom_site_label
_atom_site_fract_x
_atom_site_fract_y
_atom_site_fract_z
Si Si1 0.052653 0.639764 0.580663
Si Si2 0.773651 0.412775 0.405322
Si Si3 0.739296 0.231237 0.148805
Si Si4 0.604036 0.695291 0.449572
Si Si5 0.616663 0.149831 0.905867
Si Si6 0.637914 0.089732 0.147422
O O1 0.160137 0.600794 0.524373
O O2 0.073544 0.731100 0.555154
O O3 0.000000 0.605710 0.500000
O O4 0.975121 0.620438 0.747966
O O5 0.733362 0.500000 0.435216
O O6 0.677344 0.357488 0.473191
O O7 0.847885 0.398742 0.236375
O O8 0.651438 0.278476 0.284473
O O9 0.841534 0.260989 0.132887
O O10 0.713477 0.139337 0.176594
O O11 0.750000 0.250000 0.000000
O O12 0.500000 0.650509 0.500000
O O13 0.500000 0.154606 0.000000
O O14 0.661964 0.104917 0.987513
O O15 0.650975 0.000000 0.170969
#
# Coordination Sequence:
#
# PCOD8100152 Si02
#       6
#     8   8   8   8   8   8
#     4  11  21  36  55  78 115 153 185 225 284 341
#     4  11  23  36  56  86 117 148 190 243 289 333
#     4   9  19  36  55  81 109 149 187 223 275 342
#     4  10  20  39  58  81 116 152 192 231 280 346
#     4  10  20  35  58  83 111 144 189 235 286 333
#     4  11  20  33  56  84 113 144 183 235 285 331
#
# _framework density 18.862386000000001
#
# number of rings (size 3 to 8) (size 9 to 14) (size 15 to 20)
#    0.000    1.667    5.000    1.500    0.000    2.333 
#    0.000    0.000    0.000    0.500    0.000    0.000 
#    0.000    0.000    0.000    0.000    0.000    0.000 
#
# Total GULP energy -297359.411075 kJ/mol
# GULP energy per Si atom -12389.975461 kJ/mol
# Density = 1.881945 g / cm^3
# Si number density = 18.862386 Si / 1000 Ang^3
#
#
#
# Elastic Constant Matrix: (Units=GPa)
#
#
# Indices 1 2 3 4 5 6 
#
# 1 95.8906 58.4111 23.5660 0.0000 4.9428 0.0000
# 2 58.4111 130.3910 25.3217 0.0000 -8.7799 0.0000
# 3 23.5660 25.3217 54.3388 0.0000 -1.9593 0.0000
# 4 0.0000 0.0000 0.0000 20.4745 0.0000 -2.0815
# 5 4.9428 -8.7799 -1.9593 0.0000 23.2314 0.0000
# 6 0.0000 0.0000 0.0000 -2.0815 0.0000 20.0290
#
#
#
# Elastic Compliance Matrix: (Units=1/GPa)
#
#
# Indices 1 2 3 4 5 6 
#
# 1 0.015830 -0.006746 -0.003947 0.000000 -0.006250 0.000000
# 2 -0.006746 0.011501 -0.002232 0.000000 0.005594 0.000000
# 3 -0.003947 -0.002232 0.021220 0.000000 0.001786 0.000000
# 4 0.000000 0.000000 0.000000 0.049363 0.000000 0.005130
# 5 -0.006250 0.005594 0.001786 0.000000 0.046640 0.000000
# 6 0.000000 0.000000 0.000000 0.005130 0.000000 0.050461
#
#
# Mechanical properties :
#
#
# Convention : Reuss Voigt Hill
#
# Bulk Modulus (GPa) = 44.05211 55.02425 49.53818
# Shear Modulus (GPa) = 21.88846 24.30174 23.09510
#
# Velocity S-wave (km/s) = 3.41020 3.59328 3.50294
# Velocity P-wave (km/s) = 6.23788 6.81545 6.53305
#
# Compressibility (1/GPa) = 0.02270039
#
# Stress axis : x y z
#
# Youngs Moduli (GPa) = 63.17193 86.94716 47.12640
#
# Poissons Ratio (x) = 0.58651 0.18601
# Poissons Ratio (y) = 0.42613 0.10520
# Poissons Ratio (z) = 0.24935 0.19410
#
# Static dielectric constant tensor:
#      x y z
#    x 3.729190 0.000000 -0.050740 
#    y 0.000000 3.480550 0.000000 
#    z -0.050740 0.000000 3.594950 
# 
# 
# High freq. dielectric constant tensor:
#      x y z
#    x 1.726700 0.000000 0.001180 
#    y 0.000000 1.713360 0.000000 
#    z 0.001180 0.000000 1.736810 
# 
# From -- ./inp_files/157655.got.cif
#   From: 2010.06.25/outbox.cif.g09.slc.cpg/sg12_79_cif.got.tgz:157655.got - 2010.06.28 00:19:55.
