data_PCOD8100417
_publ_section_title
;
Structure prediction by ZEFSAII (Michael W. Deem and Ramdas Pophale) SiO2 
 PCOD8100417
Probable space group: C 2/M
;
_chemical_formula_sum "Si O2"
_cell_formula_units_Z 40
_cell_length_a 9.652787
_cell_length_b 17.851216
_cell_length_c 17.298234
_cell_angle_alpha 90.000000
_cell_angle_beta 44.013321
_cell_angle_gamma 90.000000
_cell_volume 2071.085860
_symmetry_space_group_name_H-M "C 2/M"
_symmetry_group_IT_number 12
_symmetry_cell_setting 'monoclinic'
loop_
_space_group_symop_operation_xyz
x,y,z
-x,y,-z
-x,-y,-z
x,-y,z
1/2+x,1/2+y,z
1/2-x,1/2+y,-z
1/2-x,1/2-y,-z
1/2+x,1/2-y,z
loop_
_atom_site_type_symbol
_atom_site_label
_atom_site_fract_x
_atom_site_fract_y
_atom_site_fract_z
Si Si1 0.145107 0.911263 0.508887
Si Si2 0.266970 0.675382 0.086139
Si Si3 0.917178 0.087191 0.295462
Si Si4 0.399752 0.088706 0.702128
Si Si5 0.274920 0.155461 0.066925
O O1 0.086626 0.877420 0.616601
O O2 0.372831 0.887938 0.403025
O O3 0.000000 0.877721 0.500000
O O4 0.121051 0.000000 0.518756
O O5 0.164744 0.629225 0.194231
O O6 0.188517 0.760947 0.116187
O O7 0.500000 0.678328 0.000000
O O8 0.222852 0.633760 0.023838
O O9 0.738063 0.118697 0.313205
O O10 0.132069 0.100280 0.171339
O O11 0.878017 0.000000 0.320286
O O12 0.374242 0.000000 0.723598
O O13 0.500000 0.143139 0.000000
#
# Coordination Sequence:
#
# PCOD8100417 Si02
#       5
#     8   8   8   8   8
#     4   9  19  35  54  80 112 142 174 220 276 322
#     4  10  20  38  56  78 110 146 183 215 268 327
#     4  10  20  36  57  82 110 141 181 223 267 320
#     4  10  20  35  59  83 107 141 181 225 267 318
#     4  10  22  36  55  79 111 149 178 218 269 321
#
# _framework density 19.313541000000001
#
# number of rings (size 3 to 8) (size 9 to 14) (size 15 to 20)
#    0.000    2.200    2.000    0.600    2.800    4.000 
#    0.000    1.000    0.000    0.000    0.000    0.000 
#    0.000    0.000    0.000    0.000    0.000    0.000 
#
# Total GULP energy -247952.548050 kJ/mol
# GULP energy per Si atom -12397.627402 kJ/mol
# Density = 1.926958 g / cm^3
# Si number density = 19.313541 Si / 1000 Ang^3
#
#
#
# Elastic Constant Matrix: (Units=GPa)
#
#
# Indices 1 2 3 4 5 6 
#
# 1 136.7486 21.9961 88.3304 -0.0003 23.3916 0.0006
# 2 21.9961 16.2403 20.9554 -0.0001 6.6736 -0.0003
# 3 88.3304 20.9554 142.2746 -0.0021 23.2813 0.0004
# 4 -0.0003 -0.0001 -0.0021 -12.2253 0.0017 5.4551
# 5 23.3916 6.6736 23.2813 0.0017 42.1513 -0.0004
# 6 0.0006 -0.0003 0.0004 5.4551 -0.0004 21.3675
#
#
#
# Elastic Compliance Matrix: (Units=1/GPa)
#
#
# Indices 1 2 3 4 5 6 
#
# 1 0.013411 -0.008569 -0.006671 0.000000 -0.002401 -0.000001
# 2 -0.008569 0.083120 -0.006098 0.000001 -0.005036 0.000001
# 3 -0.006671 -0.006098 0.012428 -0.000002 -0.002197 0.000000
# 4 0.000000 0.000001 -0.000002 -0.073433 0.000004 0.018747
# 5 -0.002401 -0.005036 -0.002197 0.000004 0.027067 0.000000
# 6 -0.000001 0.000001 0.000000 0.018747 0.000000 0.042014
#
#
# Mechanical properties :
#
#
# Convention : Reuss Voigt Hill
#
# Bulk Modulus (GPa) = 15.08711 61.98080 38.53396
# Shear Modulus (GPa) = 29.51966 21.19081 25.35523
#
# Velocity S-wave (km/s) = 3.91377 3.31599 3.62722
# Velocity P-wave (km/s) = 5.31527 6.84271 6.12678
#
# Compressibility (1/GPa) = 0.06628174
#
# Stress axis : x y z
#
# Youngs Moduli (GPa) = 74.56693 12.03076 80.46371
#
# Poissons Ratio (x) = 0.10310 0.53677
# Poissons Ratio (y) = 0.63900 0.49069
# Poissons Ratio (z) = 0.49743 0.07337
#
# Static dielectric constant tensor:
#      x y z
#    x 3.926940 0.000000 0.148520 
#    y 0.000000 3.304750 0.000000 
#    z 0.148520 0.000000 3.555240 
# 
# 
# High freq. dielectric constant tensor:
#      x y z
#    x 1.773770 0.000000 0.007600 
#    y 0.000000 1.709330 0.000000 
#    z 0.007600 0.000000 1.760400 
# 
# From -- ./inp_files/118873.got.cif
#   From: 2010.06.25/outbox.cif.g09.slc.cpg/sg12_60_cif.got.tgz:118873.got - 2010.06.28 00:19:55.
