data_PCOD8100959
_publ_section_title
;
Structure prediction by ZEFSAII (Michael W. Deem and Ramdas Pophale) SiO2 
 PCOD8100959
Probable space group: C 2/M
;
_chemical_formula_sum "Si O2"
_cell_formula_units_Z 56
_cell_length_a 29.404402
_cell_length_b 8.884199
_cell_length_c 20.227079
_cell_angle_alpha 90.000000
_cell_angle_beta 32.758129
_cell_angle_gamma 90.000000
_cell_volume 2859.146115
_symmetry_space_group_name_H-M "C 2/M"
_symmetry_group_IT_number 12
_symmetry_cell_setting 'monoclinic'
loop_
_space_group_symop_operation_xyz
x,y,z
-x,y,-z
-x,-y,-z
x,-y,z
1/2+x,1/2+y,z
1/2-x,1/2+y,-z
1/2-x,1/2-y,-z
1/2+x,1/2-y,z
loop_
_atom_site_type_symbol
_atom_site_label
_atom_site_fract_x
_atom_site_fract_y
_atom_site_fract_z
Si Si1 0.992813 0.323365 0.306801
Si Si2 0.034021 0.674167 0.807792
Si Si3 0.148749 0.827246 0.440023
Si Si4 0.619090 0.322937 0.936664
Si Si5 0.829984 0.326740 0.255407
Si Si6 0.326354 0.178494 0.867038
Si Si7 0.216672 0.175856 0.213803
O O1 0.989420 0.500000 0.315705
O O2 0.087506 0.267116 0.203782
O O3 0.962506 0.267972 0.271765
O O4 0.931015 0.264519 0.438582
O O5 0.004889 0.500000 0.847297
O O6 0.126581 0.694475 0.726475
O O7 0.971025 0.777899 0.925352
O O8 0.232136 0.779309 0.379310
O O9 0.163427 0.792937 0.344912
O O10 0.127593 0.000000 0.478011
O O11 0.633164 0.500000 0.925938
O O12 0.622179 0.275381 0.856362
O O13 0.689211 0.237492 0.893658
O O14 0.835293 0.500000 0.224120
O O15 0.329289 0.236988 0.788645
O O16 0.316624 0.000000 0.879698
O O17 0.250000 0.250000 0.000000
O O18 0.222118 0.000000 0.190240
#
# Coordination Sequence:
#
# PCOD8100959 Si02
#       7
#     8   8   8   8   8   8   8
#     4  10  23  39  56  81 113 147 184 230 280 332
#     4  10  20  36  56  78 111 155 193 227 278 337
#     4   9  20  38  58  81 109 144 189 235 279 330
#     4  11  21  33  54  86 117 144 183 235 287 336
#     4   9  19  36  57  80 110 151 192 229 275 334
#     4  11  23  39  60  88 118 148 185 229 280 335
#     4  10  21  39  61  83 111 149 189 230 280 336
#
# _framework density 19.586268
#
# number of rings (size 3 to 8) (size 9 to 14) (size 15 to 20)
#    0.000    2.000    0.000    4.286    0.000    9.143 
#    0.000    2.857    0.000    0.000    0.000    0.000 
#    0.000    0.000    0.000    0.000    0.000    0.000 
#
# Total GULP energy -347285.809696 kJ/mol
# GULP energy per Si atom -12403.064632 kJ/mol
# Density = 1.954169 g / cm^3
# Si number density = 19.586268 Si / 1000 Ang^3
#
#
#
# Elastic Constant Matrix: (Units=GPa)
#
#
# Indices 1 2 3 4 5 6 
#
# 1 148.3029 41.9838 57.2021 0.0022 -3.4150 0.0008
# 2 41.9838 58.5765 40.5612 0.0080 -7.6729 -0.0025
# 3 57.2021 40.5612 125.6479 -0.0016 -11.1388 -0.0022
# 4 0.0022 0.0080 -0.0016 32.2605 -0.0021 -0.0632
# 5 -3.4150 -7.6729 -11.1388 -0.0021 15.9340 -0.0002
# 6 0.0008 -0.0025 -0.0022 -0.0632 -0.0002 28.4246
#
#
#
# Elastic Compliance Matrix: (Units=1/GPa)
#
#
# Indices 1 2 3 4 5 6 
#
# 1 0.009163 -0.004950 -0.002783 0.000000 -0.002366 -0.000001
# 2 -0.004950 0.025212 -0.005227 -0.000006 0.007426 0.000002
# 3 -0.002783 -0.005227 0.011340 0.000002 0.004814 0.000001
# 4 0.000000 -0.000006 0.000002 0.030998 0.000003 0.000069
# 5 -0.002366 0.007426 0.004814 0.000003 0.069193 0.000002
# 6 -0.000001 0.000002 0.000001 0.000069 0.000002 0.035181
#
#
# Mechanical properties :
#
#
# Convention : Reuss Voigt Hill
#
# Bulk Modulus (GPa) = 50.52003 68.00241 59.26122
# Shear Modulus (GPa) = 23.40760 28.17582 25.79171
#
# Velocity S-wave (km/s) = 3.46078 3.79694 3.63275
# Velocity P-wave (km/s) = 6.46675 7.34963 6.92228
#
# Compressibility (1/GPa) = 0.01979413
#
# Stress axis : x y z
#
# Youngs Moduli (GPa) = 109.12886 39.66415 88.18356
#
# Poissons Ratio (x) = 0.19635 0.24545
# Poissons Ratio (y) = 0.54022 0.46092
# Poissons Ratio (z) = 0.30375 0.20732
#
# Static dielectric constant tensor:
#      x y z
#    x 3.881180 -0.000010 -0.037440 
#    y -0.000010 3.502970 0.000020 
#    z -0.037440 0.000020 3.413550 
# 
# 
# High freq. dielectric constant tensor:
#      x y z
#    x 1.774080 0.000000 -0.004010 
#    y 0.000000 1.759010 0.000000 
#    z -0.004010 0.000000 1.755130 
# 
# From -- ./inp_files/329448.got.cif
#   From: 2010.06.25/outbox.cif.g09.slc.cpg/sg12_165_cif.got.tgz:329448.got - 2010.06.28 00:19:55.
