data_PCOD8100604
_publ_section_title
;
Structure prediction by ZEFSAII (Michael W. Deem and Ramdas Pophale) SiO2 
 PCOD8100604
Probable space group: C 2/M
;
_chemical_formula_sum "Si O2"
_cell_formula_units_Z 48
_cell_length_a 11.958959
_cell_length_b 18.616319
_cell_length_c 10.769512
_cell_angle_alpha 90.000000
_cell_angle_beta 111.804435
_cell_angle_gamma 90.000000
_cell_volume 2226.101925
_symmetry_space_group_name_H-M "C 2/M"
_symmetry_group_IT_number 12
_symmetry_cell_setting 'monoclinic'
loop_
_space_group_symop_operation_xyz
x,y,z
-x,y,-z
-x,-y,-z
x,-y,z
1/2+x,1/2+y,z
1/2-x,1/2+y,-z
1/2-x,1/2-y,-z
1/2+x,1/2-y,z
loop_
_atom_site_type_symbol
_atom_site_label
_atom_site_fract_x
_atom_site_fract_y
_atom_site_fract_z
Si Si1 0.167774 0.855857 0.195629
Si Si2 0.781074 0.668773 0.994951
Si Si3 0.609741 0.780525 0.628008
Si Si4 0.607960 0.500000 0.641572
Si Si5 0.479924 0.212121 0.827403
Si Si6 0.468523 0.500000 0.838709
Si Si7 0.262888 0.641541 0.294576
O O1 0.224733 0.876426 0.085209
O O2 0.278099 0.835884 0.333567
O O3 0.077634 0.787041 0.145674
O O4 0.104436 0.927010 0.220780
O O5 0.928102 0.670582 0.039295
O O6 0.750000 0.750000 0.000000
O O7 0.719557 0.639011 0.846610
O O8 0.500000 0.808765 0.500000
O O9 0.568024 0.769934 0.750929
O O10 0.656636 0.702398 0.604141
O O11 0.500000 0.500000 0.500000
O O12 0.571726 0.500000 0.773810
O O13 0.692837 0.566001 0.637631
O O14 0.377540 0.157515 0.736734
O O15 0.500000 0.500000 0.000000
#
# Coordination Sequence:
#
# PCOD8100604 Si02
#       7
#     8   8   8   4   8   4   8
#     4  10  23  36  58  90 119 154 200 251 310 367
#     4  11  19  35  62  93 126 148 195 262 319 367
#     4  10  21  37  58  85 113 150 206 258 294 358
#     4  12  28  46  60  88 134 174 210 256 311 380
#     4  10  20  35  60  87 116 155 194 251 316 361
#     4  12  26  40  66  90 122 162 210 261 314 371
#     4  11  22  37  61  88 119 162 207 246 308 373
#
# _framework density 21.562355
#
# number of rings (size 3 to 8) (size 9 to 14) (size 15 to 20)
#    0.000    1.333    5.000    3.000    2.333    4.000 
#    0.000    5.417    0.000    0.000    0.000    0.000 
#    0.000    0.000    0.000    0.000    0.000    0.000 
#
# Total GULP energy -297356.089972 kJ/mol
# GULP energy per Si atom -12389.837082 kJ/mol
# Density = 2.151328 g / cm^3
# Si number density = 21.562355 Si / 1000 Ang^3
#
#
#
# Elastic Constant Matrix: (Units=GPa)
#
#
# Indices 1 2 3 4 5 6 
#
# 1 94.9621 38.1962 0.1852 0.0000 16.3271 0.0000
# 2 38.1962 114.6381 13.7164 0.0000 20.1066 0.0000
# 3 0.1852 13.7164 65.7091 0.0000 28.6067 0.0000
# 4 0.0000 0.0000 0.0000 20.5644 0.0000 3.3428
# 5 16.3271 20.1066 28.6067 0.0000 39.6173 0.0000
# 6 0.0000 0.0000 0.0000 3.3428 0.0000 31.3460
#
#
#
# Elastic Compliance Matrix: (Units=1/GPa)
#
#
# Indices 1 2 3 4 5 6 
#
# 1 0.013022 -0.003704 0.003288 0.000000 -0.005861 0.000000
# 2 -0.003704 0.010630 -0.000765 0.000000 -0.003316 0.000000
# 3 0.003288 -0.000765 0.023029 0.000000 -0.017596 0.000000
# 4 0.000000 0.000000 0.000000 0.049486 0.000000 -0.005277
# 5 -0.005861 -0.003316 -0.017596 0.000000 0.042046 0.000000
# 6 0.000000 0.000000 0.000000 -0.005277 0.000000 0.032465
#
#
# Mechanical properties :
#
#
# Convention : Reuss Voigt Hill
#
# Bulk Modulus (GPa) = 22.56334 42.16722 32.36528
# Shear Modulus (GPa) = 26.62226 33.18628 29.90427
#
# Velocity S-wave (km/s) = 3.51759 3.92737 3.72812
# Velocity P-wave (km/s) = 5.19470 6.33751 5.79435
#
# Compressibility (1/GPa) = 0.04431969
#
# Stress axis : x y z
#
# Youngs Moduli (GPa) = 76.79503 94.06929 43.42266
#
# Poissons Ratio (x) = 0.34845 -0.14278
# Poissons Ratio (y) = 0.28446 0.03321
# Poissons Ratio (z) = -0.25250 0.07195
#
# Static dielectric constant tensor:
#      x y z
#    x 5.075330 0.000000 1.744830 
#    y 0.000000 3.588700 0.000000 
#    z 1.744830 0.000000 3.780860 
# 
# 
# High freq. dielectric constant tensor:
#      x y z
#    x 1.869780 0.000000 0.008670 
#    y 0.000000 1.808030 0.000000 
#    z 0.008670 0.000000 1.844400 
# 
# From -- ./inp_files/131811.got.cif
#   From: 2010.06.25/outbox.cif.g09.slc.cpg/sg12_66_cif.got.tgz:131811.got - 2010.06.28 00:19:55.
