data_PCOD8100798
_publ_section_title
;
Structure prediction by ZEFSAII (Michael W. Deem and Ramdas Pophale) SiO2 
 PCOD8100798
Probable space group: C 2/M
;
_chemical_formula_sum "Si O2"
_cell_formula_units_Z 64
_cell_length_a 23.706976
_cell_length_b 9.163015
_cell_length_c 31.140833
_cell_angle_alpha 90.000000
_cell_angle_beta 30.104641
_cell_angle_gamma 90.000000
_cell_volume 3393.014366
_symmetry_space_group_name_H-M "C 2/M"
_symmetry_group_IT_number 12
_symmetry_cell_setting 'monoclinic'
loop_
_space_group_symop_operation_xyz
x,y,z
-x,y,-z
-x,-y,-z
x,-y,z
1/2+x,1/2+y,z
1/2-x,1/2+y,-z
1/2-x,1/2-y,-z
1/2+x,1/2-y,z
loop_
_atom_site_type_symbol
_atom_site_label
_atom_site_fract_x
_atom_site_fract_y
_atom_site_fract_z
Si Si1 0.660040 0.170965 0.589247
Si Si2 0.342999 0.830651 0.240851
Si Si3 0.776575 0.833121 0.369566
Si Si4 0.660139 0.330170 0.291668
Si Si5 0.400973 0.169714 0.927979
Si Si6 0.903404 0.330900 0.747411
Si Si7 0.300878 0.171307 0.903954
Si Si8 0.016677 0.665433 0.537293
O O1 0.750000 0.250000 0.500000
O O2 0.659319 0.237217 0.637450
O O3 0.535713 0.196412 0.652265
O O4 0.689289 0.000000 0.572392
O O5 0.297559 0.731184 0.308879
O O6 0.271779 0.795416 0.245277
O O7 0.470982 0.789710 0.145766
O O8 0.331785 0.000000 0.261943
O O9 0.645232 0.826816 0.466851
O O10 0.819638 0.000000 0.342742
O O11 0.642761 0.500000 0.296065
O O12 0.670719 0.255578 0.238364
O O13 0.550553 0.270419 0.387416
O O14 0.375041 0.218675 0.896180
O O15 0.376992 0.000000 0.950002
O O16 0.321525 0.254575 0.013531
O O17 0.874491 0.500000 0.761239
O O18 0.867417 0.274719 0.818161
O O19 0.281531 0.000000 0.915742
O O20 0.970328 0.500000 0.571841
O O21 0.000000 0.722795 0.500000
#
# Coordination Sequence:
#
# PCOD8100798 Si02
#       8
#     8   8   8   8   8   8   8   8
#     4  11  23  39  57  80 112 148 184 227 277 328
#     4  10  21  37  55  80 113 146 179 222 280 332
#     4  11  22  35  56  83 109 143 186 230 276 326
#     4  11  23  36  55  82 110 144 190 236 272 318
#     4   9  18  35  59  84 112 140 170 219 281 334
#     4  10  22  40  59  77 109 154 188 220 275 335
#     4   9  18  35  59  85 107 137 181 222 267 327
#     4  10  20  36  54  75 108 148 185 223 273 327
#
# _framework density 18.862283999999999
#
# number of rings (size 3 to 8) (size 9 to 14) (size 15 to 20)
#    0.000    1.875    1.250    2.625    0.000    8.750 
#    0.000    3.125    0.000    3.750    0.000    0.000 
#    0.000    0.000    0.000    0.000    0.000    0.000 
#
# Total GULP energy -396936.145654 kJ/mol
# GULP energy per Si atom -12404.254552 kJ/mol
# Density = 1.881935 g / cm^3
# Si number density = 18.862284 Si / 1000 Ang^3
#
#
#
# Elastic Constant Matrix: (Units=GPa)
#
#
# Indices 1 2 3 4 5 6 
#
# 1 104.6082 57.9468 47.3855 -0.0009 2.8191 -0.0141
# 2 57.9468 86.9855 53.0665 -0.0017 2.2503 -0.0027
# 3 47.3855 53.0665 117.3732 -0.0025 1.9983 0.0051
# 4 -0.0009 -0.0017 -0.0025 29.7716 0.0018 3.2119
# 5 2.8191 2.2503 1.9983 0.0018 30.1055 -0.0017
# 6 -0.0141 -0.0027 0.0051 3.2119 -0.0017 33.5882
#
#
#
# Elastic Compliance Matrix: (Units=1/GPa)
#
#
# Indices 1 2 3 4 5 6 
#
# 1 0.015564 -0.009010 -0.002199 -0.000001 -0.000638 0.000006
# 2 -0.009010 0.021106 -0.005899 0.000001 -0.000342 -0.000001
# 3 -0.002199 -0.005899 0.012077 0.000001 -0.000155 -0.000003
# 4 -0.000001 0.000001 0.000001 0.033939 -0.000002 -0.003245
# 5 -0.000638 -0.000342 -0.000155 -0.000002 0.033312 0.000002
# 6 0.000006 -0.000001 -0.000003 -0.003245 0.000002 0.030083
#
#
# Mechanical properties :
#
#
# Convention : Reuss Voigt Hill
#
# Bulk Modulus (GPa) = 68.81834 69.52940 69.17387
# Shear Modulus (GPa) = 27.00645 28.73093 27.86869
#
# Velocity S-wave (km/s) = 3.78798 3.90705 3.84797
# Velocity P-wave (km/s) = 7.46294 7.56934 7.51633
#
# Compressibility (1/GPa) = 0.01453101
#
# Stress axis : x y z
#
# Youngs Moduli (GPa) = 64.25166 47.37972 82.80032
#
# Poissons Ratio (x) = 0.42690 0.18207
# Poissons Ratio (y) = 0.57892 0.48844
# Poissons Ratio (z) = 0.14128 0.27950
#
# Static dielectric constant tensor:
#      x y z
#    x 3.575170 -0.000020 -0.018470 
#    y -0.000020 3.476200 0.000010 
#    z -0.018470 0.000010 3.400060 
# 
# 
# High freq. dielectric constant tensor:
#      x y z
#    x 1.735890 0.000000 -0.000700 
#    y 0.000000 1.733950 0.000000 
#    z -0.000700 0.000000 1.726090 
# 
# From -- ./inp_files/382294.got.cif
#   From: 2010.06.25/outbox.cif.g09.slc.cpg/sg12_192_cif.got.tgz:382294.got - 2010.06.28 00:19:55.
