data_PCOD8100928
_publ_section_title
;
Structure prediction by ZEFSAII (Michael W. Deem and Ramdas Pophale) SiO2 
 PCOD8100928
Probable space group: C 2/M
;
_chemical_formula_sum "Si O2"
_cell_formula_units_Z 56
_cell_length_a 29.541813
_cell_length_b 9.465005
_cell_length_c 21.475001
_cell_angle_alpha 90.000000
_cell_angle_beta 149.023543
_cell_angle_gamma 90.000000
_cell_volume 3090.533016
_symmetry_space_group_name_H-M "C 2/M"
_symmetry_group_IT_number 12
_symmetry_cell_setting 'monoclinic'
loop_
_space_group_symop_operation_xyz
x,y,z
-x,y,-z
-x,-y,-z
x,-y,z
1/2+x,1/2+y,z
1/2-x,1/2+y,-z
1/2-x,1/2-y,-z
1/2+x,1/2-y,z
loop_
_atom_site_type_symbol
_atom_site_label
_atom_site_fract_x
_atom_site_fract_y
_atom_site_fract_z
Si Si1 0.225393 0.161709 0.381903
Si Si2 0.116985 0.335396 0.344226
Si Si3 0.709941 0.161350 0.675536
Si Si4 0.964892 0.835436 0.527315
Si Si5 0.719017 0.337163 0.106764
Si Si6 0.582011 0.162269 0.873572
Si Si7 0.890247 0.663513 0.234328
O O1 0.147062 0.255157 0.317367
O O2 0.319172 0.204386 0.523008
O O3 0.229185 0.188273 0.312607
O O4 0.203429 0.000000 0.371490
O O5 0.120613 0.500000 0.333380
O O6 0.019183 0.287256 0.247516
O O7 0.631168 0.270848 0.580939
O O8 0.768845 0.188945 0.805658
O O9 0.673371 0.000000 0.632436
O O10 0.000000 0.808339 0.500000
O O11 0.027325 0.757793 0.649631
O O12 0.960916 0.000000 0.539608
O O13 0.702371 0.500000 0.071217
O O14 0.804778 0.283089 0.170671
O O15 0.633817 0.251482 0.985694
O O16 0.625844 0.185278 0.857866
O O17 0.588149 0.000000 0.901159
O O18 0.911352 0.500000 0.274979
#
# Coordination Sequence:
#
# PCOD8100928 Si02
#       7
#     8   8   8   8   8   8   8
#     4   9  18  34  58  82 103 131 170 217 264 313
#     4   9  18  34  54  79 107 133 168 214 267 319
#     4  10  20  36  56  78 107 143 179 215 263 318
#     4  11  22  33  50  80 112 139 172 216 262 309
#     4  10  21  35  53  77 105 141 182 220 260 312
#     4  10  21  36  55  77 105 142 180 220 265 311
#     4  10  20  36  56  77 104 143 183 218 262 314
#
# _framework density 18.119852000000002
#
# number of rings (size 3 to 8) (size 9 to 14) (size 15 to 20)
#    0.000    2.143    1.429    1.714    0.000    5.714 
#    0.000    3.571    0.000    4.286    0.000    0.000 
#    0.000    0.000    0.000    0.000    0.000    0.000 
#
# Total GULP energy -347306.447071 kJ/mol
# GULP energy per Si atom -12403.801681 kJ/mol
# Density = 1.807861 g / cm^3
# Si number density = 18.119852 Si / 1000 Ang^3
#
#
#
# Elastic Constant Matrix: (Units=GPa)
#
#
# Indices 1 2 3 4 5 6 
#
# 1 115.1596 35.0970 41.6126 0.0000 -8.4515 0.0000
# 2 35.0970 59.0528 40.2511 0.0000 -3.4765 0.0000
# 3 41.6126 40.2511 84.3816 0.0000 -7.3737 0.0000
# 4 0.0000 0.0000 0.0000 39.3682 0.0000 -1.0543
# 5 -8.4515 -3.4765 -7.3737 0.0000 21.5291 0.0000
# 6 0.0000 0.0000 0.0000 -1.0543 0.0000 32.6718
#
#
#
# Elastic Compliance Matrix: (Units=1/GPa)
#
#
# Indices 1 2 3 4 5 6 
#
# 1 0.011404 -0.004366 -0.003311 0.000000 0.002638 0.000000
# 2 -0.004366 0.026764 -0.010706 0.000000 -0.001059 0.000000
# 3 -0.003311 -0.010706 0.018891 0.000000 0.003442 0.000000
# 4 0.000000 0.000000 0.000000 0.025423 0.000000 0.000820
# 5 0.002638 -0.001059 0.003442 0.000000 0.048492 0.000000
# 6 0.000000 0.000000 0.000000 0.000820 0.000000 0.030634
#
#
# Mechanical properties :
#
#
# Convention : Reuss Voigt Hill
#
# Bulk Modulus (GPa) = 49.27662 54.72394 52.00028
# Shear Modulus (GPa) = 24.37373 28.15606 26.26490
#
# Velocity S-wave (km/s) = 3.67159 3.94620 3.81137
# Velocity P-wave (km/s) = 6.72518 7.14353 6.93751
#
# Compressibility (1/GPa) = 0.02029360
#
# Stress axis : x y z
#
# Youngs Moduli (GPa) = 87.68755 37.36377 52.93402
#
# Poissons Ratio (x) = 0.16312 0.17526
# Poissons Ratio (y) = 0.38283 0.56672
# Poissons Ratio (z) = 0.29032 0.40003
#
# Static dielectric constant tensor:
#      x y z
#    x 3.401380 0.000000 -0.069760 
#    y 0.000000 3.324460 0.000000 
#    z -0.069760 0.000000 3.201650 
# 
# 
# High freq. dielectric constant tensor:
#      x y z
#    x 1.703910 0.000000 -0.005910 
#    y 0.000000 1.699430 0.000000 
#    z -0.005910 0.000000 1.690550 
# 
# From -- ./inp_files/237414.got.cif
#   From: 2010.06.25/outbox.cif.g09.slc.cpg/sg12_119_cif.got.tgz:237414.got - 2010.06.28 00:19:55.
