data_PCOD8100234
_publ_section_title
;
Structure prediction by ZEFSAII (Michael W. Deem and Ramdas Pophale) SiO2 
 PCOD8100234
Probable space group: C 2/M
;
_chemical_formula_sum "Si O2"
_cell_formula_units_Z 48
_cell_length_a 19.663373
_cell_length_b 8.973620
_cell_length_c 20.456356
_cell_angle_alpha 90.000000
_cell_angle_beta 136.813107
_cell_angle_gamma 90.000000
_cell_volume 2470.310154
_symmetry_space_group_name_H-M "C 2/M"
_symmetry_group_IT_number 12
_symmetry_cell_setting 'monoclinic'
loop_
_space_group_symop_operation_xyz
x,y,z
-x,y,-z
-x,-y,-z
x,-y,z
1/2+x,1/2+y,z
1/2-x,1/2+y,-z
1/2-x,1/2-y,-z
1/2+x,1/2-y,z
loop_
_atom_site_type_symbol
_atom_site_label
_atom_site_fract_x
_atom_site_fract_y
_atom_site_fract_z
Si Si1 0.696357 0.325940 0.403375
Si Si2 0.009542 0.324770 0.082306
Si Si3 0.857307 0.822073 0.075676
Si Si4 0.021174 0.175573 0.716506
Si Si5 0.436359 0.326721 0.395089
Si Si6 0.779737 0.328886 0.710197
O O1 0.711100 0.500000 0.420455
O O2 0.750000 0.250000 0.500000
O O3 0.582497 0.275887 0.325114
O O4 0.741315 0.271178 0.367295
O O5 0.990557 0.500000 0.078164
O O6 0.121082 0.278705 0.182131
O O7 0.927419 0.237700 0.066749
O O8 0.000000 0.278070 0.000000
O O9 0.897758 0.769929 0.174677
O O10 0.851668 0.000000 0.065138
O O11 0.750000 0.750000 0.000000
O O12 0.033118 0.248638 0.652792
O O13 0.029178 0.000000 0.713677
O O14 0.500000 0.254622 0.500000
O O15 0.464267 0.500000 0.413495
O O16 0.317923 0.302962 0.314893
O O17 0.788991 0.500000 0.694685
#
# Coordination Sequence:
#
# PCOD8100234 Si02
#       6
#     8   8   8   8   8   8
#     4  11  21  36  58  85 115 151 193 239 292 349
#     4  10  22  39  61  89 119 154 200 251 301 357
#     4  11  23  40  62  88 119 156 199 248 302 362
#     4   9  19  35  57  83 114 149 192 240 287 345
#     4   9  17  31  54  83 112 146 191 235 280 340
#     4  10  20  35  58  85 114 149 192 242 294 348
#
# _framework density 19.430758000000001
#
# number of rings (size 3 to 8) (size 9 to 14) (size 15 to 20)
#    0.000    2.000    1.667    2.000    2.333    3.000 
#    0.000    0.000    0.000    5.500    0.000    0.000 
#    0.000    0.000    0.000    0.000    0.000    0.000 
#
# Total GULP energy -297535.787590 kJ/mol
# GULP energy per Si atom -12397.324483 kJ/mol
# Density = 1.938653 g / cm^3
# Si number density = 19.430758 Si / 1000 Ang^3
#
#
#
# Elastic Constant Matrix: (Units=GPa)
#
#
# Indices 1 2 3 4 5 6 
#
# 1 84.7818 30.7747 29.4147 0.0000 -20.3509 0.0000
# 2 30.7747 51.1391 31.7399 0.0000 1.1684 0.0000
# 3 29.4147 31.7399 121.9838 0.0000 -13.0168 0.0000
# 4 0.0000 0.0000 0.0000 25.1155 0.0000 -0.6123
# 5 -20.3509 1.1684 -13.0168 0.0000 38.8605 0.0000
# 6 0.0000 0.0000 0.0000 -0.6123 0.0000 27.9627
#
#
#
# Elastic Compliance Matrix: (Units=1/GPa)
#
#
# Indices 1 2 3 4 5 6 
#
# 1 0.018260 -0.010877 -0.000537 0.000000 0.009710 0.000000
# 2 -0.010877 0.030105 -0.006134 0.000000 -0.008656 0.000000
# 3 -0.000537 -0.006134 0.010280 0.000000 0.003347 0.000000
# 4 0.000000 0.000000 0.000000 0.039837 0.000000 0.000872
# 5 0.009710 -0.008656 0.003347 0.000000 0.032200 0.000000
# 6 0.000000 0.000000 0.000000 0.000872 0.000000 0.035781
#
#
# Mechanical properties :
#
#
# Convention : Reuss Voigt Hill
#
# Bulk Modulus (GPa) = 42.46378 49.08480 45.77429
# Shear Modulus (GPa) = 23.87655 29.45278 26.66466
#
# Velocity S-wave (km/s) = 3.50923 3.89753 3.70846
# Velocity P-wave (km/s) = 6.19039 6.75059 6.47655
#
# Compressibility (1/GPa) = 0.02354948
#
# Stress axis : x y z
#
# Youngs Moduli (GPa) = 54.76332 33.21668 97.27185
#
# Poissons Ratio (x) = 0.36131 0.05222
# Poissons Ratio (y) = 0.59569 0.59667
# Poissons Ratio (z) = 0.02940 0.20375
#
# Static dielectric constant tensor:
#      x y z
#    x 3.620400 0.000000 -0.084420 
#    y 0.000000 3.220470 0.000000 
#    z -0.084420 0.000000 3.746970 
# 
# 
# High freq. dielectric constant tensor:
#      x y z
#    x 1.768440 0.000000 -0.000880 
#    y 0.000000 1.719580 0.000000 
#    z -0.000880 0.000000 1.775500 
# 
# From -- ./inp_files/230440.got.cif
#   From: 2010.06.25/outbox.cif.g09.slc.cpg/sg12_116_cif.got.tgz:230440.got - 2010.06.28 00:19:55.
