data_PCOD8100146
_publ_section_title
;
Structure prediction by ZEFSAII (Michael W. Deem and Ramdas Pophale) SiO2 
 PCOD8100146
Probable space group: C 2/M
;
_chemical_formula_sum "Si O2"
_cell_formula_units_Z 48
_cell_length_a 23.880473
_cell_length_b 8.990520
_cell_length_c 18.761733
_cell_angle_alpha 90.000000
_cell_angle_beta 141.282284
_cell_angle_gamma 90.000000
_cell_volume 2519.514422
_symmetry_space_group_name_H-M "C 2/M"
_symmetry_group_IT_number 12
_symmetry_cell_setting 'monoclinic'
loop_
_space_group_symop_operation_xyz
x,y,z
-x,y,-z
-x,-y,-z
x,-y,z
1/2+x,1/2+y,z
1/2-x,1/2+y,-z
1/2-x,1/2-y,-z
1/2+x,1/2-y,z
loop_
_atom_site_type_symbol
_atom_site_label
_atom_site_fract_x
_atom_site_fract_y
_atom_site_fract_z
Si Si1 0.156627 0.828055 0.983637
Si Si2 0.358967 0.673225 0.538060
Si Si3 0.984770 0.173376 0.903352
Si Si4 0.160937 0.172761 0.823697
Si Si5 0.651735 0.827132 0.327094
Si Si6 0.502625 0.172981 0.586112
O O1 0.239014 0.728966 0.092030
O O2 0.181657 0.000000 0.020854
O O3 0.071550 0.778944 0.944892
O O4 0.134120 0.796976 0.878871
O O5 0.381931 0.500000 0.564364
O O6 0.384576 0.741800 0.639690
O O7 0.255968 0.705132 0.417435
O O8 0.416830 0.747283 0.534070
O O9 0.899916 0.267064 0.792949
O O10 0.963277 0.000000 0.872218
O O11 0.000000 0.215878 0.000000
O O12 0.094242 0.262054 0.707442
O O13 0.155147 0.000000 0.798523
O O14 0.632829 0.000000 0.319736
O O15 0.500000 0.203428 0.500000
O O16 0.497871 0.000000 0.600023
#
# Coordination Sequence:
#
# PCOD8100146 Si02
#       6
#     8   8   8   8   8   8
#     4   9  19  36  56  80 109 141 181 227 275 327
#     4  10  21  38  60  85 112 144 185 231 278 330
#     4  10  21  36  55  80 112 150 187 226 275 329
#     4  10  20  35  58  83 107 141 184 230 276 324
#     4  10  21  37  59  85 112 145 186 233 280 328
#     4  11  24  39  56  81 114 151 187 226 276 332
#
# _framework density 19.051289000000001
#
# number of rings (size 3 to 8) (size 9 to 14) (size 15 to 20)
#    0.000    2.000    0.000    3.000    0.000    7.667 
#    0.000    5.000    0.000    0.000    0.000    0.000 
#    0.000    0.000    0.000    0.000    0.000    0.000 
#
# Total GULP energy -297752.878585 kJ/mol
# GULP energy per Si atom -12406.369941 kJ/mol
# Density = 1.900793 g / cm^3
# Si number density = 19.051289 Si / 1000 Ang^3
#
#
#
# Elastic Constant Matrix: (Units=GPa)
#
#
# Indices 1 2 3 4 5 6 
#
# 1 63.1943 53.4565 63.5231 0.0000 -7.7950 0.0000
# 2 53.4565 108.5553 71.5651 0.0000 -5.2780 0.0000
# 3 63.5231 71.5651 131.0130 0.0000 -7.8643 0.0000
# 4 0.0000 0.0000 0.0000 36.1165 0.0000 0.9122
# 5 -7.7950 -5.2780 -7.8643 0.0000 17.8806 0.0000
# 6 0.0000 0.0000 0.0000 0.9122 0.0000 31.4367
#
#
#
# Elastic Compliance Matrix: (Units=1/GPa)
#
#
# Indices 1 2 3 4 5 6 
#
# 1 0.037686 -0.010063 -0.012292 0.000000 0.008052 0.000000
# 2 -0.010063 0.017094 -0.004539 0.000000 -0.001337 0.000000
# 3 -0.012292 -0.004539 0.016095 0.000000 0.000380 0.000000
# 4 0.000000 0.000000 0.000000 0.027708 0.000000 -0.000804
# 5 0.008052 -0.001337 0.000380 0.000000 0.059210 0.000000
# 6 0.000000 0.000000 0.000000 -0.000804 0.000000 0.031833
#
#
# Mechanical properties :
#
#
# Convention : Reuss Voigt Hill
#
# Bulk Modulus (GPa) = 58.52271 75.53911 67.03091
# Shear Modulus (GPa) = 20.07140 24.70128 22.38634
#
# Velocity S-wave (km/s) = 3.24936 3.60469 3.43163
# Velocity P-wave (km/s) = 6.69798 7.55391 7.13879
#
# Compressibility (1/GPa) = 0.01708738
#
# Stress axis : x y z
#
# Youngs Moduli (GPa) = 26.53517 58.49869 62.13021
#
# Poissons Ratio (x) = 0.58865 0.76373
# Poissons Ratio (y) = 0.26701 0.28201
# Poissons Ratio (z) = 0.32618 0.26553
#
# Static dielectric constant tensor:
#      x y z
#    x 3.480140 0.000000 0.012960 
#    y 0.000000 3.557480 0.000000 
#    z 0.012960 0.000000 3.477670 
# 
# 
# High freq. dielectric constant tensor:
#      x y z
#    x 1.739840 0.000000 0.005560 
#    y 0.000000 1.749570 0.000000 
#    z 0.005560 0.000000 1.747560 
# 
# From -- ./inp_files/327360.got.cif
#   From: 2010.06.25/outbox.cif.g09.slc.cpg/sg12_164_cif.got.tgz:327360.got - 2010.06.28 00:19:55.
