data_PCOD8100457
_publ_section_title
;
Structure prediction by ZEFSAII (Michael W. Deem and Ramdas Pophale) SiO2 
 PCOD8100457
Probable space group: C 2/M
;
_chemical_formula_sum "Si O2"
_cell_formula_units_Z 64
_cell_length_a 8.823275
_cell_length_b 20.801496
_cell_length_c 18.930175
_cell_angle_alpha 90.000000
_cell_angle_beta 114.815468
_cell_angle_gamma 90.000000
_cell_volume 3153.582693
_symmetry_space_group_name_H-M "C 2/M"
_symmetry_group_IT_number 12
_symmetry_cell_setting 'monoclinic'
loop_
_space_group_symop_operation_xyz
x,y,z
-x,y,-z
-x,-y,-z
x,-y,z
1/2+x,1/2+y,z
1/2-x,1/2+y,-z
1/2-x,1/2-y,-z
1/2+x,1/2-y,z
loop_
_atom_site_type_symbol
_atom_site_label
_atom_site_fract_x
_atom_site_fract_y
_atom_site_fract_z
Si Si1 0.937161 0.925858 0.116902
Si Si2 0.090753 0.160436 0.763193
Si Si3 0.870957 0.575341 0.031781
Si Si4 0.990220 0.659685 0.334404
Si Si5 0.823774 0.576150 0.178801
Si Si6 0.729571 0.927325 0.450686
Si Si7 0.001450 0.926577 0.615838
Si Si8 0.301736 0.248302 0.715716
O O1 0.853517 0.888982 0.166268
O O2 0.127847 0.906199 0.140811
O O3 0.924376 0.000000 0.134539
O O4 0.821513 0.909895 0.026847
O O5 0.247927 0.203139 0.770438
O O6 0.009454 0.121859 0.682298
O O7 0.954227 0.207720 0.770874
O O8 0.903309 0.500000 0.039006
O O9 0.897220 0.599645 0.117389
O O10 0.000000 0.606826 0.000000
O O11 0.918041 0.615560 0.257433
O O12 0.849896 0.706161 0.339226
O O13 0.062722 0.615568 0.411436
O O14 0.143463 0.703580 0.338244
O O15 0.851185 0.500000 0.196590
O O16 0.843093 0.904638 0.538150
O O17 0.831162 0.922209 0.397423
O O18 0.671065 0.000000 0.451917
O O19 0.978102 0.000000 0.638030
#
# Coordination Sequence:
#
# PCOD8100457 Si02
#       8
#     8   8   8   8   8   8   8   8
#     4  10  20  35  59  86 115 146 179 228 288 342
#     4  11  20  40  56  82 108 153 191 234 276 331
#     4   9  19  33  53  88 121 142 176 226 281 337
#     4  11  20  40  56  82 108 153 191 234 276 331
#     4  10  20  35  59  86 115 146 179 228 288 342
#     4   9  18  34  58  87 116 144 180 232 288 339
#     4   9  18  34  58  87 116 144 180 232 288 339
#     4  10  24  36  57  77 112 148 200 236 270 313
#
# _framework density 20.294378999999999
#
# number of rings (size 3 to 8) (size 9 to 14) (size 15 to 20)
#    0.000    2.125    2.500    1.875    1.750    1.500 
#    0.000    4.375    0.000    6.000    0.000    0.000 
#    0.000    0.000    0.000    0.000    0.000    0.000 
#
# Total GULP energy -396699.826443 kJ/mol
# GULP energy per Si atom -12396.869576 kJ/mol
# Density = 2.024819 g / cm^3
# Si number density = 20.294379 Si / 1000 Ang^3
#
#
#
# Elastic Constant Matrix: (Units=GPa)
#
#
# Indices 1 2 3 4 5 6 
#
# 1 73.1370 26.8332 6.7155 0.0000 5.2054 0.0000
# 2 26.8332 73.1836 33.4856 0.0000 0.7771 0.0000
# 3 6.7155 33.4856 69.8619 0.0000 1.2271 0.0000
# 4 0.0000 0.0000 0.0000 11.3861 0.0000 1.3509
# 5 5.2054 0.7771 1.2271 0.0000 24.8985 0.0000
# 6 0.0000 0.0000 0.0000 1.3509 0.0000 22.5787
#
#
#
# Elastic Compliance Matrix: (Units=1/GPa)
#
#
# Indices 1 2 3 4 5 6 
#
# 1 0.016202 -0.006686 0.001704 0.000000 -0.003262 0.000000
# 2 -0.006686 0.020262 -0.009090 0.000000 0.001213 0.000000
# 3 0.001704 -0.009090 0.018525 0.000000 -0.000986 0.000000
# 4 0.000000 0.000000 0.000000 0.088454 0.000000 -0.005292
# 5 -0.003262 0.001213 -0.000986 0.000000 0.040856 0.000000
# 6 0.000000 0.000000 0.000000 -0.005292 0.000000 0.044606
#
#
# Mechanical properties :
#
#
# Convention : Reuss Voigt Hill
#
# Bulk Modulus (GPa) = 37.25107 38.91677 38.08392
# Shear Modulus (GPa) = 18.79726 21.71588 20.25657
#
# Velocity S-wave (km/s) = 3.04670 3.27470 3.16276
# Velocity P-wave (km/s) = 5.54723 5.78930 5.66956
#
# Compressibility (1/GPa) = 0.02684487
#
# Stress axis : x y z
#
# Youngs Moduli (GPa) = 61.72246 49.35325 53.98225
#
# Poissons Ratio (x) = 0.32996 -0.09201
# Poissons Ratio (y) = 0.41265 0.49073
# Poissons Ratio (z) = -0.10520 0.44865
#
# Static dielectric constant tensor:
#      x y z
#    x 3.785420 0.000000 0.039250 
#    y 0.000000 3.785320 0.000000 
#    z 0.039250 0.000000 3.492260 
# 
# 
# High freq. dielectric constant tensor:
#      x y z
#    x 1.794480 0.000000 0.007410 
#    y 0.000000 1.784100 0.000000 
#    z 0.007410 0.000000 1.774940 
# 
# From -- ./inp_files/258102.got.cif
#   From: 2010.06.25/outbox.cif.g09.slc.cpg/sg12_130_cif.got.tgz:258102.got - 2010.06.28 00:19:55.
