data_PCOD8100570
_publ_section_title
;
Structure prediction by ZEFSAII (Michael W. Deem and Ramdas Pophale) SiO2 
 PCOD8100570
Probable space group: C 2/M
;
_chemical_formula_sum "Si O2"
_cell_formula_units_Z 48
_cell_length_a 27.823252
_cell_length_b 8.701052
_cell_length_c 17.127936
_cell_angle_alpha 90.000000
_cell_angle_beta 36.016814
_cell_angle_gamma 90.000000
_cell_volume 2438.252808
_symmetry_space_group_name_H-M "C 2/M"
_symmetry_group_IT_number 12
_symmetry_cell_setting 'monoclinic'
loop_
_space_group_symop_operation_xyz
x,y,z
-x,y,-z
-x,-y,-z
x,-y,z
1/2+x,1/2+y,z
1/2-x,1/2+y,-z
1/2-x,1/2-y,-z
1/2+x,1/2-y,z
loop_
_atom_site_type_symbol
_atom_site_label
_atom_site_fract_x
_atom_site_fract_y
_atom_site_fract_z
Si Si1 0.686991 0.680630 0.522070
Si Si2 0.488106 0.179594 0.233966
Si Si3 0.248274 0.821594 0.718269
Si Si4 0.439340 0.677697 0.010607
Si Si5 0.231402 0.178693 0.146809
Si Si6 0.625415 0.678765 0.140845
O O1 0.690697 0.500000 0.525647
O O2 0.750000 0.750000 0.500000
O O3 0.597351 0.735795 0.662709
O O4 0.707605 0.728143 0.407323
O O5 0.542305 0.214691 0.086771
O O6 0.537004 0.243031 0.245384
O O7 0.472999 0.000000 0.263454
O O8 0.286780 0.766489 0.749224
O O9 0.267657 0.000000 0.681145
O O10 0.151970 0.787776 0.840714
O O11 0.449983 0.500000 0.972132
O O12 0.500000 0.723679 0.000000
O O13 0.153611 0.205708 0.192728
O O14 0.246080 0.000000 0.144145
O O15 0.311999 0.245458 0.001485
O O16 0.620423 0.500000 0.126472
#
# Coordination Sequence:
#
# PCOD8100570 Si02
#       6
#     8   8   8   8   8   8
#     4  12  26  45  66  88 123 164 208 253 306 369
#     4  12  24  39  62  91 123 159 206 254 305 366
#     4  11  22  38  62  91 125 162 204 252 308 367
#     4  10  21  37  59  87 120 156 198 251 307 362
#     4  10  20  35  59  91 125 161 203 252 306 364
#     4  10  20  36  59  89 125 163 203 251 308 362
#
# _framework density 19.686228
#
# number of rings (size 3 to 8) (size 9 to 14) (size 15 to 20)
#    0.000    1.167    1.667    5.500    0.000    4.333 
#    0.000    0.833    0.000    5.000    0.000    0.000 
#    0.000    0.000    0.000    0.000    0.000    0.000 
#
# Total GULP energy -297749.407554 kJ/mol
# GULP energy per Si atom -12406.225315 kJ/mol
# Density = 1.964142 g / cm^3
# Si number density = 19.686228 Si / 1000 Ang^3
#
#
#
# Elastic Constant Matrix: (Units=GPa)
#
#
# Indices 1 2 3 4 5 6 
#
# 1 116.2762 47.0244 16.3029 0.0082 -3.5605 -0.0051
# 2 47.0244 153.6005 38.3857 0.0056 7.6829 -0.0014
# 3 16.3029 38.3857 47.9389 0.0085 3.0643 -0.0037
# 4 0.0082 0.0056 0.0085 33.8851 0.0006 1.1742
# 5 -3.5605 7.6829 3.0643 0.0006 46.6415 0.0000
# 6 -0.0051 -0.0014 -0.0037 1.1742 0.0000 37.2764
#
#
#
# Elastic Compliance Matrix: (Units=1/GPa)
#
#
# Indices 1 2 3 4 5 6 
#
# 1 0.009945 -0.002805 -0.001219 -0.000002 0.001301 0.000001
# 2 -0.002805 0.008969 -0.006146 0.000001 -0.001288 -0.000001
# 3 -0.001219 -0.006146 0.026247 -0.000005 -0.000805 0.000002
# 4 -0.000002 0.000001 -0.000005 0.029544 0.000000 -0.000931
# 5 0.001301 -0.001288 -0.000805 0.000000 0.021804 0.000000
# 6 0.000001 -0.000001 0.000002 -0.000931 0.000000 0.026856
#
#
# Mechanical properties :
#
#
# Convention : Reuss Voigt Hill
#
# Bulk Modulus (GPa) = 40.28745 57.91574 49.10159
# Shear Modulus (GPa) = 32.89896 37.96743 35.43319
#
# Velocity S-wave (km/s) = 4.09243 4.39638 4.24712
# Velocity P-wave (km/s) = 6.54521 7.43331 7.00336
#
# Compressibility (1/GPa) = 0.02482162
#
# Stress axis : x y z
#
# Youngs Moduli (GPa) = 100.54819 111.48924 38.09953
#
# Poissons Ratio (x) = 0.31275 0.04645
# Poissons Ratio (y) = 0.28206 0.23415
# Poissons Ratio (z) = 0.12259 0.68519
#
# Static dielectric constant tensor:
#      x y z
#    x 3.919440 0.000000 -0.074780 
#    y 0.000000 3.707610 0.000010 
#    z -0.074780 0.000010 3.428530 
# 
# 
# High freq. dielectric constant tensor:
#      x y z
#    x 1.787320 0.000000 -0.004240 
#    y 0.000000 1.780570 0.000000 
#    z -0.004240 0.000000 1.747960 
# 
# From -- ./inp_files/295336.got.cif
#   From: 2010.06.25/outbox.cif.g09.slc.cpg/sg12_148_cif.got.tgz:295336.got - 2010.06.28 00:19:55.
