data_PCOD8100350
_publ_section_title
;
Structure prediction by ZEFSAII (Michael W. Deem and Ramdas Pophale) SiO2 
 PCOD8100350
Probable space group: C 2/M
;
_chemical_formula_sum "Si O2"
_cell_formula_units_Z 64
_cell_length_a 28.138435
_cell_length_b 9.013233
_cell_length_c 14.355520
_cell_angle_alpha 90.000000
_cell_angle_beta 107.489754
_cell_angle_gamma 90.000000
_cell_volume 3472.509536
_symmetry_space_group_name_H-M "C 2/M"
_symmetry_group_IT_number 12
_symmetry_cell_setting 'monoclinic'
loop_
_space_group_symop_operation_xyz
x,y,z
-x,y,-z
-x,-y,-z
x,-y,z
1/2+x,1/2+y,z
1/2-x,1/2+y,-z
1/2-x,1/2-y,-z
1/2+x,1/2-y,z
loop_
_atom_site_type_symbol
_atom_site_label
_atom_site_fract_x
_atom_site_fract_y
_atom_site_fract_z
Si Si1 0.151232 0.329339 0.236011
Si Si2 0.107190 0.665204 0.711139
Si Si3 0.311609 0.325792 0.122909
Si Si4 0.904716 0.823932 0.643220
Si Si5 0.747223 0.328976 0.596365
Si Si6 0.997755 0.673785 0.605901
Si Si7 0.154203 0.667426 0.548620
Si Si8 0.301139 0.175027 0.925656
O O1 0.133950 0.500000 0.228352
O O2 0.108132 0.231332 0.259263
O O3 0.202775 0.305983 0.318767
O O4 0.162461 0.276320 0.137169
O O5 0.119103 0.500000 0.755918
O O6 0.144695 0.777980 0.781644
O O7 0.049354 0.705825 0.691361
O O8 0.111942 0.667381 0.601848
O O9 0.314963 0.500000 0.113154
O O10 0.256661 0.278244 0.127656
O O11 0.322242 0.253537 0.029334
O O12 0.862260 0.759942 0.550858
O O13 0.957890 0.764953 0.641561
O O14 0.904440 0.000000 0.640521
O O15 0.733198 0.500000 0.576809
O O16 0.750000 0.250000 0.500000
O O17 0.702376 0.245407 0.623581
O O18 0.983575 0.500000 0.599601
O O19 0.000000 0.729354 0.500000
O O20 0.166540 0.500000 0.522156
O O21 0.303497 0.000000 0.941807
#
# Coordination Sequence:
#
# PCOD8100350 Si02
#       8
#     8   8   8   8   8   8   8   8
#     4  10  21  37  56  75 107 152 191 227 271 329
#     4  10  21  36  58  82 107 145 186 228 277 334
#     4  10  20  35  58  88 118 144 176 231 285 328
#     4  12  24  35  52  79 110 144 185 231 279 330
#     4  11  21  32  48  74 107 145 183 221 268 321
#     4  10  20  39  60  78 107 147 191 232 276 331
#     4  11  21  35  52  74 107 147 187 226 270 323
#     4   9  19  37  59  83 112 150 190 224 268 332
#
# _framework density 18.430474
#
# number of rings (size 3 to 8) (size 9 to 14) (size 15 to 20)
#    0.000    1.625    2.500    3.000    0.000    4.250 
#    0.000    0.000    0.000    0.750    0.000    5.250 
#    0.000    0.000    0.000    0.000    0.000    0.000 
#
# Total GULP energy -396759.920618 kJ/mol
# GULP energy per Si atom -12398.747519 kJ/mol
# Density = 1.838853 g / cm^3
# Si number density = 18.430474 Si / 1000 Ang^3
#
#
#
# Elastic Constant Matrix: (Units=GPa)
#
#
# Indices 1 2 3 4 5 6 
#
# 1 110.3620 53.0727 36.6053 0.0000 -18.1985 0.0000
# 2 53.0727 89.6917 33.9459 0.0000 -12.3653 0.0000
# 3 36.6053 33.9459 74.2269 0.0000 -14.4103 0.0000
# 4 0.0000 0.0000 0.0000 26.3668 0.0000 1.9550
# 5 -18.1985 -12.3653 -14.4103 0.0000 25.8865 0.0000
# 6 0.0000 0.0000 0.0000 1.9550 0.0000 30.3408
#
#
#
# Elastic Compliance Matrix: (Units=1/GPa)
#
#
# Indices 1 2 3 4 5 6 
#
# 1 0.013987 -0.006454 -0.002955 0.000000 0.005105 0.000000
# 2 -0.006454 0.016729 -0.004257 0.000000 0.001084 0.000000
# 3 -0.002955 -0.004257 0.018026 0.000000 0.005924 0.000000
# 4 0.000000 0.000000 0.000000 0.038108 0.000000 -0.002456
# 5 0.005105 0.001084 0.005924 0.000000 0.046034 0.000000
# 6 0.000000 0.000000 0.000000 -0.002456 0.000000 0.033117
#
#
# Mechanical properties :
#
#
# Convention : Reuss Voigt Hill
#
# Bulk Modulus (GPa) = 46.70828 57.94760 52.32794
# Shear Modulus (GPa) = 24.94118 26.56260 25.75189
#
# Velocity S-wave (km/s) = 3.68266 3.80048 3.74203
# Velocity P-wave (km/s) = 6.59398 7.12514 6.86470
#
# Compressibility (1/GPa) = 0.02140948
#
# Stress axis : x y z
#
# Youngs Moduli (GPa) = 71.49616 59.77613 55.47395
#
# Poissons Ratio (x) = 0.38580 0.16392
# Poissons Ratio (y) = 0.46145 0.23617
# Poissons Ratio (z) = 0.21127 0.25449
#
# Static dielectric constant tensor:
#      x y z
#    x 3.877250 0.000000 0.112950 
#    y 0.000000 3.580070 0.000000 
#    z 0.112950 0.000000 3.409980 
# 
# 
# High freq. dielectric constant tensor:
#      x y z
#    x 1.717750 0.000000 -0.010370 
#    y 0.000000 1.715190 0.000000 
#    z -0.010370 0.000000 1.691810 
# 
# From -- ./inp_files/244192.got.cif
#   From: 2010.06.25/outbox.cif.g09.slc.cpg/sg12_123_cif.got.tgz:244192.got - 2010.06.28 00:19:55.
