data_PCOD8100931
_publ_section_title
;
Structure prediction by ZEFSAII (Michael W. Deem and Ramdas Pophale) SiO2 
 PCOD8100931
Probable space group: C 2/M
;
_chemical_formula_sum "Si O2"
_cell_formula_units_Z 56
_cell_length_a 16.114694
_cell_length_b 9.580813
_cell_length_c 21.084920
_cell_angle_alpha 90.000000
_cell_angle_beta 125.122043
_cell_angle_gamma 90.000000
_cell_volume 2662.635347
_symmetry_space_group_name_H-M "C 2/M"
_symmetry_group_IT_number 12
_symmetry_cell_setting 'monoclinic'
loop_
_space_group_symop_operation_xyz
x,y,z
-x,y,-z
-x,-y,-z
x,-y,z
1/2+x,1/2+y,z
1/2-x,1/2+y,-z
1/2-x,1/2-y,-z
1/2+x,1/2-y,z
loop_
_atom_site_type_symbol
_atom_site_label
_atom_site_fract_x
_atom_site_fract_y
_atom_site_fract_z
Si Si1 0.712119 0.163107 0.826159
Si Si2 0.307563 0.658667 0.391813
Si Si3 0.072022 0.337918 0.644098
Si Si4 0.137728 0.850236 0.312473
Si Si5 0.564228 0.338716 0.840651
Si Si6 0.109901 0.849614 0.438298
Si Si7 0.055605 0.834512 0.086821
O O1 0.647228 0.193290 0.735026
O O2 0.662452 0.247408 0.863837
O O3 0.826960 0.216315 0.862893
O O4 0.710616 0.000000 0.844027
O O5 0.312615 0.500000 0.371001
O O6 0.399976 0.747665 0.405225
O O7 0.205671 0.724524 0.315818
O O8 0.311884 0.674405 0.469863
O O9 0.069368 0.500000 0.625609
O O10 0.959789 0.283354 0.608151
O O11 0.170803 0.867467 0.399916
O O12 0.018507 0.820302 0.251682
O O13 0.163027 0.000000 0.288610
O O14 0.598680 0.500000 0.863424
O O15 0.508356 0.282026 0.880005
O O16 0.052588 0.000000 0.426171
O O17 0.054745 0.000000 0.087263
O O18 0.000000 0.775229 0.000000
#
# Coordination Sequence:
#
# PCOD8100931 Si02
#       7
#     8   8   8   8   8   8   8
#     4  10  21  38  61  88 118 153 196 242 287 343
#     4  11  23  35  52  78 109 145 189 240 294 341
#     4  11  22  36  55  78 108 146 191 236 285 345
#     4  10  20  36  56  77 108 146 189 234 284 345
#     4  10  20  37  63  89 117 156 197 237 288 347
#     4  10  21  37  54  76 108 145 185 238 292 340
#     4   9  19  37  61  90 123 157 191 229 282 351
#
# _framework density 21.031794999999999
#
# number of rings (size 3 to 8) (size 9 to 14) (size 15 to 20)
#    0.000    1.857    1.429    2.571    0.000    7.429 
#    0.000    0.714    0.000    0.857    0.000    0.000 
#    0.000    0.000    0.000    0.000    0.000    0.000 
#
# Total GULP energy -346927.071863 kJ/mol
# GULP energy per Si atom -12390.252567 kJ/mol
# Density = 2.098393 g / cm^3
# Si number density = 21.031795 Si / 1000 Ang^3
#
#
#
# Elastic Constant Matrix: (Units=GPa)
#
#
# Indices 1 2 3 4 5 6 
#
# 1 90.1877 38.1397 19.4049 0.0000 -5.2049 0.0000
# 2 38.1397 104.9604 31.1846 0.0000 4.6866 0.0000
# 3 19.4049 31.1846 62.5945 0.0000 0.9643 0.0000
# 4 0.0000 0.0000 0.0000 16.0160 0.0000 2.5112
# 5 -5.2049 4.6866 0.9643 0.0000 32.5493 0.0000
# 6 0.0000 0.0000 0.0000 2.5112 0.0000 38.5735
#
#
#
# Elastic Compliance Matrix: (Units=1/GPa)
#
#
# Indices 1 2 3 4 5 6 
#
# 1 0.013576 -0.004458 -0.002032 0.000000 0.002873 0.000000
# 2 -0.004458 0.012715 -0.004916 0.000000 -0.002398 0.000000
# 3 -0.002032 -0.004916 0.019058 0.000000 -0.000182 0.000000
# 4 0.000000 0.000000 0.000000 0.063081 0.000000 -0.004107
# 5 0.002873 -0.002398 -0.000182 0.000000 0.031533 0.000000
# 6 0.000000 0.000000 0.000000 -0.004107 0.000000 0.026192
#
#
# Mechanical properties :
#
#
# Convention : Reuss Voigt Hill
#
# Bulk Modulus (GPa) = 44.37044 48.35566 46.36305
# Shear Modulus (GPa) = 25.44815 28.69534 27.07175
#
# Velocity S-wave (km/s) = 3.48226 3.69776 3.59162
# Velocity P-wave (km/s) = 6.10826 6.42439 6.26832
#
# Compressibility (1/GPa) = 0.02253753
#
# Stress axis : x y z
#
# Youngs Moduli (GPa) = 73.65851 78.64881 52.47247
#
# Poissons Ratio (x) = 0.35059 0.10663
# Poissons Ratio (y) = 0.32835 0.25794
# Poissons Ratio (z) = 0.14969 0.38661
#
# Static dielectric constant tensor:
#      x y z
#    x 3.732950 0.000000 -0.087340 
#    y 0.000000 3.837890 0.000000 
#    z -0.087340 0.000000 3.715450 
# 
# 
# High freq. dielectric constant tensor:
#      x y z
#    x 1.821310 0.000000 -0.004910 
#    y 0.000000 1.809430 0.000000 
#    z -0.004910 0.000000 1.811120 
# 
# From -- ./inp_files/314359.got.cif
#   From: 2010.06.25/outbox.cif.g09.slc.cpg/sg12_158_cif.got.tgz:314359.got - 2010.06.28 00:19:55.
