data_PCOD8100293
_publ_section_title
;
Structure prediction by ZEFSAII (Michael W. Deem and Ramdas Pophale) SiO2 
 PCOD8100293
Probable space group: C 2/M
;
_chemical_formula_sum "Si O2"
_cell_formula_units_Z 48
_cell_length_a 18.785210
_cell_length_b 8.942948
_cell_length_c 29.471879
_cell_angle_alpha 90.000000
_cell_angle_beta 29.445161
_cell_angle_gamma 90.000000
_cell_volume 2433.928910
_symmetry_space_group_name_H-M "C 2/M"
_symmetry_group_IT_number 12
_symmetry_cell_setting 'monoclinic'
loop_
_space_group_symop_operation_xyz
x,y,z
-x,y,-z
-x,-y,-z
x,-y,z
1/2+x,1/2+y,z
1/2-x,1/2+y,-z
1/2-x,1/2-y,-z
1/2+x,1/2-y,z
loop_
_atom_site_type_symbol
_atom_site_label
_atom_site_fract_x
_atom_site_fract_y
_atom_site_fract_z
Si Si1 0.454299 0.325195 0.750671
Si Si2 0.634723 0.170659 0.949994
Si Si3 0.106413 0.332257 0.069315
Si Si4 0.370590 0.822456 0.268744
Si Si5 0.095526 0.824120 0.576760
Si Si6 0.426139 0.169808 0.589430
O O1 0.461986 0.500000 0.758812
O O2 0.293659 0.258221 0.851818
O O3 0.576137 0.242493 0.712786
O O4 0.489480 0.296261 0.678452
O O5 0.647301 0.000000 0.925909
O O6 0.500000 0.252913 0.000000
O O7 0.578655 0.181014 0.031951
O O8 0.127935 0.500000 0.073864
O O9 0.976423 0.263300 0.170425
O O10 0.250000 0.250000 0.000000
O O11 0.218911 0.761437 0.336484
O O12 0.360548 0.000000 0.278420
O O13 0.250000 0.750000 0.500000
O O14 0.026205 0.750494 0.570887
O O15 0.117399 0.000000 0.556096
O O16 0.500000 0.169385 0.500000
O O17 0.395790 0.000000 0.622343
#
# Coordination Sequence:
#
# PCOD8100293 Si02
#       6
#     8   8   8   8   8   8
#     4  10  21  38  61  87 118 160 202 241 294 360
#     4   9  18  33  57  83 113 154 198 241 285 342
#     4  10  20  35  58  86 118 156 200 243 291 351
#     4  11  23  37  60  92 124 156 199 252 301 352
#     4  11  24  41  64  92 122 156 198 245 299 358
#     4  11  25  44  65  89 118 156 202 246 298 363
#
# _framework density 19.721201000000001
#
# number of rings (size 3 to 8) (size 9 to 14) (size 15 to 20)
#    0.000    1.667    1.667    2.500    2.333    7.333 
#    0.000    0.000    0.000    1.000    0.000    0.000 
#    0.000    0.000    0.000    0.000    0.000    0.000 
#
# Total GULP energy -297527.980330 kJ/mol
# GULP energy per Si atom -12396.999180 kJ/mol
# Density = 1.967631 g / cm^3
# Si number density = 19.721201 Si / 1000 Ang^3
#
#
#
# Elastic Constant Matrix: (Units=GPa)
#
#
# Indices 1 2 3 4 5 6 
#
# 1 139.7908 58.6062 48.3753 -0.0007 -22.1157 0.0016
# 2 58.6062 85.0160 35.4157 -0.0016 -4.0413 0.0054
# 3 48.3753 35.4157 92.6258 -0.0024 -8.3440 -0.0032
# 4 -0.0007 -0.0016 -0.0024 18.1609 -0.0005 17.0444
# 5 -22.1157 -4.0413 -8.3440 -0.0005 42.5785 -0.0005
# 6 0.0016 0.0054 -0.0032 17.0444 -0.0005 -3.0815
#
#
#
# Elastic Compliance Matrix: (Units=1/GPa)
#
#
# Indices 1 2 3 4 5 6 
#
# 1 0.011782 -0.006554 -0.003209 0.000000 0.004869 -0.000001
# 2 -0.006554 0.017640 -0.003540 -0.000005 -0.002424 0.000006
# 3 -0.003209 -0.003540 0.013890 0.000004 0.000719 -0.000002
# 4 0.000000 -0.000005 0.000004 0.008894 0.000001 0.049194
# 5 0.004869 -0.002424 0.000719 0.000001 0.025926 0.000000
# 6 -0.000001 0.000006 -0.000002 0.049194 0.000000 -0.052416
#
#
# Mechanical properties :
#
#
# Convention : Reuss Voigt Hill
#
# Bulk Modulus (GPa) = 59.85641 66.91409 63.38525
# Shear Modulus (GPa) = 86.37121 23.20062 54.78592
#
# Velocity S-wave (km/s) = 6.62504 3.43363 5.27641
# Velocity P-wave (km/s) = 9.43074 7.05149 8.32653
#
# Compressibility (1/GPa) = 0.01670665
#
# Stress axis : x y z
#
# Youngs Moduli (GPa) = 84.87653 56.68976 71.99222
#
# Poissons Ratio (x) = 0.37153 0.23101
# Poissons Ratio (y) = 0.55625 0.25487
# Poissons Ratio (z) = 0.27235 0.20069
#
# Static dielectric constant tensor:
#      x y z
#    x 3.613410 0.000000 -0.054990 
#    y 0.000000 3.492340 0.000000 
#    z -0.054990 0.000000 3.859120 
# 
# 
# High freq. dielectric constant tensor:
#      x y z
#    x 1.780910 0.000000 -0.000090 
#    y 0.000000 1.753470 0.000000 
#    z -0.000090 0.000000 1.786310 
# 
# From -- ./inp_files/295887.got.cif
#   From: 2010.06.25/outbox.cif.g09.slc.cpg/sg12_148_cif.got.tgz:295887.got - 2010.06.28 00:19:55.
