data_PCOD8100942
_publ_section_title
;
Structure prediction by ZEFSAII (Michael W. Deem and Ramdas Pophale) SiO2 
 PCOD8100942
Probable space group: C 2/M
;
_chemical_formula_sum "Si O2"
_cell_formula_units_Z 64
_cell_length_a 18.794215
_cell_length_b 8.801546
_cell_length_c 35.398882
_cell_angle_alpha 90.000000
_cell_angle_beta 143.985648
_cell_angle_gamma 90.000000
_cell_volume 3443.032143
_symmetry_space_group_name_H-M "C 2/M"
_symmetry_group_IT_number 12
_symmetry_cell_setting 'monoclinic'
loop_
_space_group_symop_operation_xyz
x,y,z
-x,y,-z
-x,-y,-z
x,-y,z
1/2+x,1/2+y,z
1/2-x,1/2+y,-z
1/2-x,1/2-y,-z
1/2+x,1/2-y,z
loop_
_atom_site_type_symbol
_atom_site_label
_atom_site_fract_x
_atom_site_fract_y
_atom_site_fract_z
Si Si1 0.770410 0.175996 0.763881
Si Si2 0.539295 0.325307 0.632587
Si Si3 0.479546 0.178586 0.140994
Si Si4 0.710184 0.675368 0.444448
Si Si5 0.925552 0.175697 0.040068
Si Si6 0.923752 0.821960 0.502643
Si Si7 0.696687 0.672804 0.136597
Si Si8 0.276093 0.322635 0.097837
O O1 0.650327 0.216706 0.689577
O O2 0.750451 0.210837 0.799461
O O3 0.880612 0.275523 0.795566
O O4 0.803400 0.000000 0.772207
O O5 0.582193 0.500000 0.651078
O O6 0.435211 0.300981 0.620028
O O7 0.491797 0.279367 0.570655
O O8 0.420687 0.225317 0.075856
O O9 0.409306 0.266834 0.143838
O O10 0.465692 0.000000 0.140766
O O11 0.743622 0.500000 0.460274
O O12 0.750000 0.750000 0.500000
O O13 0.787921 0.750248 0.443874
O O14 0.052808 0.198861 0.073819
O O15 0.906628 0.000000 0.043137
O O16 0.821554 0.228049 0.967524
O O17 0.000000 0.756854 0.500000
O O18 0.905784 0.000000 0.490720
O O19 0.727207 0.500000 0.137988
O O20 0.759065 0.788951 0.134752
O O21 0.259903 0.500000 0.082984
#
# Coordination Sequence:
#
# PCOD8100942 Si02
#       8
#     8   8   8   8   8   8   8   8
#     4  10  21  38  58  78 102 136 178 217 258 313
#     4   9  18  33  54  78 104 139 180 217 255 304
#     4  11  22  37  56  76 104 139 175 217 264 313
#     4   9  17  30  50  77 107 138 174 213 252 297
#     4  10  20  36  56  78 106 137 172 213 261 319
#     4   9  18  33  53  80 114 146 175 212 259 306
#     4   9  20  37  54  74 102 135 171 215 264 312
#     4  12  23  34  52  79 107 134 171 217 266 317
#
# _framework density 18.588266999999998
#
# number of rings (size 3 to 8) (size 9 to 14) (size 15 to 20)
#    0.000    2.125    0.000    5.625    0.000    7.250 
#    0.000    1.250    0.000    4.500    0.000    0.000 
#    0.000    0.000    0.000    0.000    0.000    0.000 
#
# Total GULP energy -396807.936746 kJ/mol
# GULP energy per Si atom -12400.248023 kJ/mol
# Density = 1.854596 g / cm^3
# Si number density = 18.588267 Si / 1000 Ang^3
#
#
#
# Elastic Constant Matrix: (Units=GPa)
#
#
# Indices 1 2 3 4 5 6 
#
# 1 127.7278 40.5118 32.3091 0.0000 1.7425 0.0001
# 2 40.5118 71.2853 22.3418 0.0001 4.3141 0.0001
# 3 32.3091 22.3418 66.3932 0.0001 9.8613 0.0000
# 4 0.0000 0.0001 0.0001 28.1777 -0.0001 2.9531
# 5 1.7425 4.3141 9.8613 -0.0001 11.6498 0.0000
# 6 0.0001 0.0001 0.0000 2.9531 0.0000 34.4100
#
#
#
# Elastic Compliance Matrix: (Units=1/GPa)
#
#
# Indices 1 2 3 4 5 6 
#
# 1 0.010308 -0.004847 -0.003915 0.000000 0.003567 0.000000
# 2 -0.004847 0.017985 -0.003216 0.000000 -0.003213 0.000000
# 3 -0.003915 -0.003216 0.020343 0.000000 -0.015443 0.000000
# 4 0.000000 0.000000 0.000000 0.035811 0.000000 -0.003073
# 5 0.003567 -0.003213 -0.015443 0.000000 0.099567 0.000000
# 6 0.000000 0.000000 0.000000 -0.003073 0.000000 0.029325
#
#
# Mechanical properties :
#
#
# Convention : Reuss Voigt Hill
#
# Bulk Modulus (GPa) = 40.51907 50.63687 45.57797
# Shear Modulus (GPa) = 20.36472 26.19706 23.28089
#
# Velocity S-wave (km/s) = 3.31353 3.75818 3.54284
# Velocity P-wave (km/s) = 6.04027 6.79208 6.42717
#
# Compressibility (1/GPa) = 0.02467974
#
# Stress axis : x y z
#
# Youngs Moduli (GPa) = 97.01069 55.60138 49.15686
#
# Poissons Ratio (x) = 0.26950 0.19245
# Poissons Ratio (y) = 0.47021 0.15810
# Poissons Ratio (z) = 0.37980 0.17883
#
# Static dielectric constant tensor:
#      x y z
#    x 3.754370 0.000000 0.130230 
#    y 0.000000 3.447610 0.000000 
#    z 0.130230 0.000000 3.167260 
# 
# 
# High freq. dielectric constant tensor:
#      x y z
#    x 1.729180 0.000000 0.011820 
#    y 0.000000 1.728540 0.000000 
#    z 0.011820 0.000000 1.692520 
# 
# From -- ./inp_files/378440.got.cif
#   From: 2010.06.25/outbox.cif.g09.slc.cpg/sg12_190_cif.got.tgz:378440.got - 2010.06.28 00:19:55.
