data_PCOD8100268
_publ_section_title
;
Structure prediction by ZEFSAII (Michael W. Deem and Ramdas Pophale) SiO2 
 PCOD8100268
Probable space group: C 2/M
;
_chemical_formula_sum "Si O2"
_cell_formula_units_Z 56
_cell_length_a 12.950080
_cell_length_b 18.769758
_cell_length_c 12.352781
_cell_angle_alpha 90.000000
_cell_angle_beta 114.744268
_cell_angle_gamma 90.000000
_cell_volume 2726.906308
_symmetry_space_group_name_H-M "C 2/M"
_symmetry_group_IT_number 12
_symmetry_cell_setting 'monoclinic'
loop_
_space_group_symop_operation_xyz
x,y,z
-x,y,-z
-x,-y,-z
x,-y,z
1/2+x,1/2+y,z
1/2-x,1/2+y,-z
1/2-x,1/2-y,-z
1/2+x,1/2-y,z
loop_
_atom_site_type_symbol
_atom_site_label
_atom_site_fract_x
_atom_site_fract_y
_atom_site_fract_z
Si Si1 0.659227 0.688388 0.838354
Si Si2 0.035157 0.415170 0.755960
Si Si3 0.513363 0.584108 0.131974
Si Si4 0.326558 0.854220 0.533590
Si Si5 0.598086 0.182842 0.964344
Si Si6 0.258316 0.919501 0.294893
Si Si7 0.626619 0.709919 0.573596
O O1 0.580742 0.621440 0.834822
O O2 0.619139 0.756264 0.886913
O O3 0.651923 0.711639 0.711247
O O4 0.787952 0.665276 0.919926
O O5 0.019917 0.500000 0.745791
O O6 0.052169 0.388883 0.886102
O O7 0.144735 0.386408 0.738620
O O8 0.926667 0.377645 0.655916
O O9 0.502362 0.500000 0.149225
O O10 0.635814 0.617033 0.221189
O O11 0.500000 0.602388 0.000000
O O12 0.296244 0.916533 0.436259
O O13 0.361689 0.787039 0.475972
O O14 0.215572 0.842623 0.556922
O O15 0.500000 0.211116 0.000000
O O16 0.243158 0.000000 0.251022
O O17 0.500000 0.679970 0.500000
#
# Coordination Sequence:
#
# PCOD8100268 Si02
#       7
#     8   8   8   8   8   8   8
#     4  11  23  40  62  88 120 158 201 251 304 361
#     4  11  23  40  63  91 124 161 203 252 305 362
#     4  10  21  38  61  88 118 156 202 250 302 358
#     4  11  22  38  61  87 119 156 197 247 303 360
#     4  11  24  40  60  88 121 158 202 250 303 361
#     4  10  20  35  58  86 114 148 192 242 296 354
#     4  11  23  38  60  88 118 155 201 249 300 357
#
# _framework density 20.536092
#
# number of rings (size 3 to 8) (size 9 to 14) (size 15 to 20)
#    0.000    1.286    0.000    6.429    0.000    8.857 
#    0.000    2.857    0.000    3.857    0.000    0.000 
#    0.000    0.000    0.000    0.000    0.000    0.000 
#
# Total GULP energy -347264.922192 kJ/mol
# GULP energy per Si atom -12402.318650 kJ/mol
# Density = 2.048935 g / cm^3
# Si number density = 20.536092 Si / 1000 Ang^3
#
#
#
# Elastic Constant Matrix: (Units=GPa)
#
#
# Indices 1 2 3 4 5 6 
#
# 1 164.5031 41.2489 67.2306 0.0000 15.4006 0.0000
# 2 41.2489 65.3424 32.7012 0.0000 3.8406 0.0000
# 3 67.2306 32.7012 148.7960 0.0000 15.4379 0.0000
# 4 0.0000 0.0000 0.0000 29.8828 0.0000 2.5402
# 5 15.4006 3.8406 15.4379 0.0000 40.6873 0.0000
# 6 0.0000 0.0000 0.0000 2.5402 0.0000 24.5297
#
#
#
# Elastic Compliance Matrix: (Units=1/GPa)
#
#
# Indices 1 2 3 4 5 6 
#
# 1 0.008309 -0.003769 -0.002745 0.000000 -0.001748 0.000000
# 2 -0.003769 0.018906 -0.002514 0.000000 0.000596 0.000000
# 3 -0.002745 -0.002514 0.008724 0.000000 -0.002034 0.000000
# 4 0.000000 0.000000 0.000000 0.033761 0.000000 -0.003496
# 5 -0.001748 0.000596 -0.002034 0.000000 0.025955 0.000000
# 6 0.000000 0.000000 0.000000 -0.003496 0.000000 0.041129
#
#
# Mechanical properties :
#
#
# Convention : Reuss Voigt Hill
#
# Bulk Modulus (GPa) = 55.91414 73.44477 64.67945
# Shear Modulus (GPa) = 31.09407 34.85067 32.97237
#
# Velocity S-wave (km/s) = 3.89539 4.12399 4.01132
# Velocity P-wave (km/s) = 6.89336 7.64969 7.28135
#
# Compressibility (1/GPa) = 0.01788456
#
# Stress axis : x y z
#
# Youngs Moduli (GPa) = 120.34544 52.89197 114.62246
#
# Poissons Ratio (x) = 0.19936 0.31461
# Poissons Ratio (y) = 0.45360 0.28815
# Poissons Ratio (z) = 0.33032 0.13297
#
# Static dielectric constant tensor:
#      x y z
#    x 4.029490 0.000000 0.118480 
#    y 0.000000 3.522090 0.000000 
#    z 0.118480 0.000000 3.816430 
# 
# 
# High freq. dielectric constant tensor:
#      x y z
#    x 1.819990 0.000000 0.008660 
#    y 0.000000 1.789790 0.000000 
#    z 0.008660 0.000000 1.815460 
# 
# From -- ./inp_files/133866.got.cif
#   From: 2010.06.25/outbox.cif.g09.slc.cpg/sg12_67_cif.got.tgz:133866.got - 2010.06.28 00:19:55.
