data_PCOD8100236
_publ_section_title
;
Structure prediction by ZEFSAII (Michael W. Deem and Ramdas Pophale) SiO2 
 PCOD8100236
Probable space group: C 2/M
;
_chemical_formula_sum "Si O2"
_cell_formula_units_Z 64
_cell_length_a 15.397945
_cell_length_b 8.856364
_cell_length_c 33.160923
_cell_angle_alpha 90.000000
_cell_angle_beta 45.730863
_cell_angle_gamma 90.000000
_cell_volume 3238.169718
_symmetry_space_group_name_H-M "C 2/M"
_symmetry_group_IT_number 12
_symmetry_cell_setting 'monoclinic'
loop_
_space_group_symop_operation_xyz
x,y,z
-x,y,-z
-x,-y,-z
x,-y,z
1/2+x,1/2+y,z
1/2-x,1/2+y,-z
1/2-x,1/2-y,-z
1/2+x,1/2-y,z
loop_
_atom_site_type_symbol
_atom_site_label
_atom_site_fract_x
_atom_site_fract_y
_atom_site_fract_z
Si Si1 0.337695 0.322741 0.883216
Si Si2 0.463967 0.177769 0.686377
Si Si3 0.980227 0.321663 0.121149
Si Si4 0.241722 0.673391 0.606364
Si Si5 0.594030 0.820112 0.002182
Si Si6 0.078648 0.825578 0.383603
Si Si7 0.849397 0.321730 0.496475
Si Si8 0.292877 0.677500 0.805671
O O1 0.353197 0.500000 0.882584
O O2 0.461894 0.244744 0.857013
O O3 0.227980 0.262853 0.946981
O O4 0.311051 0.277548 0.846104
O O5 0.602758 0.227040 0.649057
O O6 0.409364 0.258590 0.664850
O O7 0.389124 0.228588 0.749233
O O8 0.452892 0.000000 0.683826
O O9 0.988321 0.500000 0.119459
O O10 0.841039 0.270452 0.163977
O O11 0.055102 0.257633 0.058501
O O12 0.253574 0.500000 0.588302
O O13 0.292135 0.692657 0.635536
O O14 0.322916 0.776238 0.550925
O O15 0.588725 0.000000 0.003035
O O16 0.500000 0.755054 0.000000
O O17 0.980377 0.736929 0.441495
O O18 0.040100 0.000000 0.392970
O O19 0.846303 0.500000 0.492585
O O20 0.750000 0.250000 0.500000
O O21 0.312532 0.500000 0.792090
#
# Coordination Sequence:
#
# PCOD8100236 Si02
#       8
#     8   8   8   8   8   8   8   8
#     4  10  20  35  58  86 115 149 191 240 288 345
#     4  11  24  42  63  86 116 155 199 250 296 344
#     4  10  20  35  58  85 114 151 191 236 291 351
#     4  10  23  42  63  89 122 157 195 242 299 354
#     4   9  15  30  57  84 112 150 192 230 282 349
#     4  11  23  41  65  92 123 160 197 241 296 355
#     4  12  23  37  62  94 127 162 198 241 295 351
#     4  10  22  40  59  80 111 154 199 239 287 351
#
# _framework density 19.764251000000002
#
# number of rings (size 3 to 8) (size 9 to 14) (size 15 to 20)
#    0.000    1.625    2.500    2.625    0.000    5.000 
#    0.000    3.750    0.000    0.750    0.000    0.000 
#    0.000    0.000    0.000    0.000    0.000    0.000 
#
# Total GULP energy -396905.825637 kJ/mol
# GULP energy per Si atom -12403.307051 kJ/mol
# Density = 1.971927 g / cm^3
# Si number density = 19.764251 Si / 1000 Ang^3
#
#
#
# Elastic Constant Matrix: (Units=GPa)
#
#
# Indices 1 2 3 4 5 6 
#
# 1 122.0122 30.6862 22.4124 0.0003 -1.1031 -0.0002
# 2 30.6862 69.5999 32.2527 0.0006 0.9896 0.0002
# 3 22.4124 32.2527 91.4193 0.0007 -9.1601 -0.0001
# 4 0.0003 0.0006 0.0007 30.5159 0.0003 0.6917
# 5 -1.1031 0.9896 -9.1601 0.0003 13.0829 0.0000
# 6 -0.0002 0.0002 -0.0001 0.6917 0.0000 29.6256
#
#
#
# Elastic Compliance Matrix: (Units=1/GPa)
#
#
# Indices 1 2 3 4 5 6 
#
# 1 0.009295 -0.003666 -0.000946 0.000000 0.000399 0.000000
# 2 -0.003666 0.019065 -0.006456 0.000000 -0.006271 0.000000
# 3 -0.000946 -0.006456 0.014507 0.000000 0.010565 0.000000
# 4 0.000000 0.000000 0.000000 0.032787 -0.000001 -0.000766
# 5 0.000399 -0.006271 0.010565 -0.000001 0.084341 0.000000
# 6 0.000000 0.000000 0.000000 -0.000766 0.000000 0.033772
#
#
# Mechanical properties :
#
#
# Convention : Reuss Voigt Hill
#
# Bulk Modulus (GPa) = 48.23320 50.41488 49.32404
# Shear Modulus (GPa) = 22.44044 27.82354 25.13199
#
# Velocity S-wave (km/s) = 3.37323 3.75610 3.56980
# Velocity P-wave (km/s) = 6.29514 6.66142 6.48087
#
# Compressibility (1/GPa) = 0.02073261
#
# Stress axis : x y z
#
# Youngs Moduli (GPa) = 107.58333 52.45271 68.93388
#
# Poissons Ratio (x) = 0.19227 0.06518
# Poissons Ratio (y) = 0.39436 0.44502
# Poissons Ratio (z) = 0.10173 0.33862
#
# Static dielectric constant tensor:
#      x y z
#    x 3.807390 0.000000 0.068600 
#    y 0.000000 3.413410 -0.000020 
#    z 0.068600 -0.000020 4.015350 
# 
# 
# High freq. dielectric constant tensor:
#      x y z
#    x 1.786740 0.000000 0.001990 
#    y 0.000000 1.754150 0.000000 
#    z 0.001990 0.000000 1.767440 
# 
# From -- ./inp_files/375390.got.cif
#   From: 2010.06.25/outbox.cif.g09.slc.cpg/sg12_188_cif.got.tgz:375390.got - 2010.06.28 00:19:55.
