data_PCOD8100694
_publ_section_title
;
Structure prediction by ZEFSAII (Michael W. Deem and Ramdas Pophale) SiO2 
 PCOD8100694
Probable space group: C 2/M
;
_chemical_formula_sum "Si O2"
_cell_formula_units_Z 60
_cell_length_a 13.762873
_cell_length_b 19.268996
_cell_length_c 11.696931
_cell_angle_alpha 90.000000
_cell_angle_beta 107.998543
_cell_angle_gamma 90.000000
_cell_volume 2950.190300
_symmetry_space_group_name_H-M "C 2/M"
_symmetry_group_IT_number 12
_symmetry_cell_setting 'monoclinic'
loop_
_space_group_symop_operation_xyz
x,y,z
-x,y,-z
-x,-y,-z
x,-y,z
1/2+x,1/2+y,z
1/2-x,1/2+y,-z
1/2-x,1/2-y,-z
1/2+x,1/2-y,z
loop_
_atom_site_type_symbol
_atom_site_label
_atom_site_fract_x
_atom_site_fract_y
_atom_site_fract_z
Si Si1 0.800799 0.661138 0.593135
Si Si2 0.604995 0.420901 0.604924
Si Si3 0.063805 0.581071 0.194713
Si Si4 0.148245 0.580900 0.984318
Si Si5 0.033357 0.078521 0.247158
Si Si6 0.500000 0.362580 0.000000
Si Si7 0.715428 0.686175 0.331489
Si Si8 0.283104 0.689293 0.927548
O O1 0.692494 0.632369 0.599880
O O2 0.894941 0.616387 0.675181
O O3 0.801150 0.660258 0.454156
O O4 0.822381 0.738423 0.644345
O O5 0.500000 0.407681 0.500000
O O6 0.644835 0.500000 0.601600
O O7 0.572304 0.406616 0.723753
O O8 0.059672 0.500000 0.216257
O O9 0.951350 0.608136 0.120551
O O10 0.138859 0.597947 0.115636
O O11 0.162169 0.500000 0.969942
O O12 0.246859 0.617296 0.968660
O O13 0.122508 0.132277 0.309861
O O14 0.002290 0.085067 0.105478
O O15 0.072167 0.000000 0.288044
O O16 0.405046 0.310007 0.966484
O O17 0.759778 0.692899 0.218550
O O18 0.250000 0.750000 0.000000
#
# Coordination Sequence:
#
# PCOD8100694 Si02
#       8
#     8   8   8   8   8   4   8   8
#     4  11  21  39  59  86 124 157 208 254 298 371
#     4  10  20  35  61  91 120 162 206 252 307 364
#     4   9  19  37  65  92 115 154 207 258 299 354
#     4   9  20  39  61  89 121 154 198 255 310 351
#     4  10  21  39  60  88 125 159 199 250 308 370
#     4  10  25  40  60  96 119 154 204 250 309 368
#     4  10  24  39  55  87 121 161 197 248 314 358
#     4  11  24  42  63  87 121 163 201 247 308 375
#
# _framework density 20.337669999999999
#
# number of rings (size 3 to 8) (size 9 to 14) (size 15 to 20)
#    0.000    2.000    1.333    2.200    3.733    6.400 
#    0.000    0.667    0.000    1.600    0.000    0.000 
#    0.000    0.000    0.000    0.000    0.000    0.000 
#
# Total GULP energy -371883.577440 kJ/mol
# GULP energy per Si atom -12396.119248 kJ/mol
# Density = 2.029138 g / cm^3
# Si number density = 20.337670 Si / 1000 Ang^3
#
#
#
# Elastic Constant Matrix: (Units=GPa)
#
#
# Indices 1 2 3 4 5 6 
#
# 1 68.2991 38.6081 38.1049 0.0000 -10.4385 0.0000
# 2 38.6081 91.7518 53.3685 0.0000 -4.4121 0.0000
# 3 38.1049 53.3685 135.3228 0.0000 -6.8446 0.0000
# 4 0.0000 0.0000 0.0000 36.3519 0.0000 -0.4395
# 5 -10.4385 -4.4121 -6.8446 0.0000 27.6603 0.0000
# 6 0.0000 0.0000 0.0000 -0.4395 0.0000 21.9315
#
#
#
# Elastic Compliance Matrix: (Units=1/GPa)
#
#
# Indices 1 2 3 4 5 6 
#
# 1 0.021100 -0.006888 -0.002914 0.000000 0.006143 0.000000
# 2 -0.006888 0.016414 -0.004590 0.000000 -0.001117 0.000000
# 3 -0.002914 -0.004590 0.010054 0.000000 0.000656 0.000000
# 4 0.000000 0.000000 0.000000 0.027516 0.000000 0.000551
# 5 0.006143 -0.001117 0.000656 0.000000 0.038455 0.000000
# 6 0.000000 0.000000 0.000000 0.000551 0.000000 0.045608
#
#
# Mechanical properties :
#
#
# Convention : Reuss Voigt Hill
#
# Bulk Modulus (GPa) = 53.24129 61.72632 57.48380
# Shear Modulus (GPa) = 25.74782 28.20822 26.97802
#
# Velocity S-wave (km/s) = 3.56197 3.72828 3.64607
# Velocity P-wave (km/s) = 6.56904 6.99643 6.78610
#
# Compressibility (1/GPa) = 0.01878242
#
# Stress axis : x y z
#
# Youngs Moduli (GPa) = 47.39356 60.92517 99.46556
#
# Poissons Ratio (x) = 0.41966 0.28986
# Poissons Ratio (y) = 0.32645 0.45655
# Poissons Ratio (z) = 0.13811 0.27965
#
# Static dielectric constant tensor:
#      x y z
#    x 3.672440 0.000000 -0.103930 
#    y 0.000000 3.591810 0.000000 
#    z -0.103930 0.000000 4.160150 
# 
# 
# High freq. dielectric constant tensor:
#      x y z
#    x 1.770220 0.000000 0.000030 
#    y 0.000000 1.795520 0.000000 
#    z 0.000030 0.000000 1.813730 
# 
# From -- ./inp_files/146204.got.cif
#   From: 2010.06.25/outbox.cif.g09.slc.cpg/sg12_74_cif.got.tgz:146204.got - 2010.06.28 00:19:55.
