data_PCOD8100242
_publ_section_title
;
Structure prediction by ZEFSAII (Michael W. Deem and Ramdas Pophale) SiO2 
 PCOD8100242
Probable space group: C 2/M
;
_chemical_formula_sum "Si O2"
_cell_formula_units_Z 48
_cell_length_a 18.031169
_cell_length_b 8.782640
_cell_length_c 20.251940
_cell_angle_alpha 90.000000
_cell_angle_beta 131.340553
_cell_angle_gamma 90.000000
_cell_volume 2407.897603
_symmetry_space_group_name_H-M "C 2/M"
_symmetry_group_IT_number 12
_symmetry_cell_setting 'monoclinic'
loop_
_space_group_symop_operation_xyz
x,y,z
-x,y,-z
-x,-y,-z
x,-y,z
1/2+x,1/2+y,z
1/2-x,1/2+y,-z
1/2-x,1/2-y,-z
1/2+x,1/2-y,z
loop_
_atom_site_type_symbol
_atom_site_label
_atom_site_fract_x
_atom_site_fract_y
_atom_site_fract_z
Si Si1 0.889974 0.324060 0.740503
Si Si2 0.514713 0.822683 0.584625
Si Si3 0.397147 0.824580 0.084067
Si Si4 0.217699 0.823404 0.741228
Si Si5 0.263182 0.675587 0.902573
Si Si6 0.852659 0.178093 0.580633
O O1 0.892528 0.500000 0.720222
O O2 0.798253 0.287512 0.733181
O O3 0.882800 0.221805 0.671932
O O4 0.989521 0.280496 0.837684
O O5 0.500000 0.779477 0.500000
O O6 0.624010 0.780710 0.671640
O O7 0.436725 0.727683 0.579873
O O8 0.496716 0.000000 0.587361
O O9 0.336884 0.792104 0.115669
O O10 0.384563 0.000000 0.055503
O O11 0.357941 0.719451 0.002061
O O12 0.263148 0.780749 0.838380
O O13 0.187164 0.000000 0.722888
O O14 0.271461 0.500000 0.886534
O O15 0.750000 0.250000 0.500000
O O16 0.839610 0.000000 0.568232
#
# Coordination Sequence:
#
# PCOD8100242 Si02
#       6
#     8   8   8   8   8   8
#     4  10  22  40  61  86 119 158 199 244 294 350
#     4  11  24  42  64  89 119 155 195 241 293 349
#     4   9  19  37  59  82 112 152 196 243 297 354
#     4  11  23  38  59  87 119 156 198 244 294 350
#     4  10  20  35  58  85 115 153 197 247 298 352
#     4  12  25  41  64  91 121 156 195 241 291 347
#
# _framework density 19.934401000000001
#
# number of rings (size 3 to 8) (size 9 to 14) (size 15 to 20)
#    0.000    1.500    0.000    5.000    0.000    8.667 
#    0.000    3.333    0.000    0.000    0.000    0.000 
#    0.000    0.000    0.000    0.000    0.000    0.000 
#
# Total GULP energy -297772.552034 kJ/mol
# GULP energy per Si atom -12407.189668 kJ/mol
# Density = 1.988903 g / cm^3
# Si number density = 19.934401 Si / 1000 Ang^3
#
#
#
# Elastic Constant Matrix: (Units=GPa)
#
#
# Indices 1 2 3 4 5 6 
#
# 1 114.4142 52.8322 56.3718 0.0000 10.3156 0.0000
# 2 52.8322 92.4967 49.4380 0.0000 -5.3970 0.0000
# 3 56.3718 49.4380 102.9553 0.0000 -0.6201 0.0000
# 4 0.0000 0.0000 0.0000 27.8360 0.0000 11.3634
# 5 10.3156 -5.3970 -0.6201 0.0000 38.2342 0.0000
# 6 0.0000 0.0000 0.0000 11.3634 0.0000 23.1851
#
#
#
# Elastic Compliance Matrix: (Units=1/GPa)
#
#
# Indices 1 2 3 4 5 6 
#
# 1 0.014342 -0.005727 -0.005132 0.000000 -0.004761 0.000000
# 2 -0.005727 0.016976 -0.004993 0.000000 0.003860 0.000000
# 3 -0.005132 -0.004993 0.014926 0.000000 0.000922 0.000000
# 4 0.000000 0.000000 0.000000 0.044910 0.000000 -0.022011
# 5 -0.004761 0.003860 0.000922 0.000000 0.027999 0.000000
# 6 0.000000 0.000000 0.000000 -0.022011 0.000000 0.053919
#
#
# Mechanical properties :
#
#
# Convention : Reuss Voigt Hill
#
# Bulk Modulus (GPa) = 68.76899 69.68333 69.22616
# Shear Modulus (GPa) = 23.85235 27.93266 25.89251
#
# Velocity S-wave (km/s) = 3.46286 3.74736 3.60792
# Velocity P-wave (km/s) = 7.11063 7.33184 7.22208
#
# Compressibility (1/GPa) = 0.01454144
#
# Stress axis : x y z
#
# Youngs Moduli (GPa) = 69.72377 58.90606 66.99882
#
# Poissons Ratio (x) = 0.33736 0.34381
# Poissons Ratio (y) = 0.39932 0.33451
# Poissons Ratio (z) = 0.35779 0.29410
#
# Static dielectric constant tensor:
#      x y z
#    x 3.682150 0.000000 0.021140 
#    y 0.000000 3.707960 0.000000 
#    z 0.021140 0.000000 3.694670 
# 
# 
# High freq. dielectric constant tensor:
#      x y z
#    x 1.785040 0.000000 0.002470 
#    y 0.000000 1.783540 0.000000 
#    z 0.002470 0.000000 1.790850 
# 
# From -- ./inp_files/274571.got.cif
#   From: 2010.06.25/outbox.cif.g09.slc.cpg/sg12_138_cif.got.tgz:274571.got - 2010.06.28 00:19:55.
