data_PCOD8100472
_publ_section_title
;
Structure prediction by ZEFSAII (Michael W. Deem and Ramdas Pophale) SiO2 
 PCOD8100472
Probable space group: C 2/M
;
_chemical_formula_sum "Si O2"
_cell_formula_units_Z 48
_cell_length_a 21.079503
_cell_length_b 16.054501
_cell_length_c 15.913770
_cell_angle_alpha 90.000000
_cell_angle_beta 25.951548
_cell_angle_gamma 90.000000
_cell_volume 2356.776581
_symmetry_space_group_name_H-M "C 2/M"
_symmetry_group_IT_number 12
_symmetry_cell_setting 'monoclinic'
loop_
_space_group_symop_operation_xyz
x,y,z
-x,y,-z
-x,-y,-z
x,-y,z
1/2+x,1/2+y,z
1/2-x,1/2+y,-z
1/2-x,1/2-y,-z
1/2+x,1/2-y,z
loop_
_atom_site_type_symbol
_atom_site_label
_atom_site_fract_x
_atom_site_fract_y
_atom_site_fract_z
Si Si1 0.783457 0.596318 0.499413
Si Si2 0.383615 0.153143 0.076061
Si Si3 0.376643 0.402017 0.889745
Si Si4 0.499762 0.337509 0.908275
Si Si5 0.167229 0.904431 0.458968
Si Si6 0.898608 0.595747 0.874902
O O1 0.755610 0.500000 0.560918
O O2 0.665856 0.658216 0.679541
O O3 0.777699 0.600751 0.405572
O O4 0.941877 0.631939 0.336923
O O5 0.229310 0.151956 0.308931
O O6 0.500000 0.108951 0.000000
O O7 0.440964 0.244562 0.985987
O O8 0.360849 0.103356 0.017721
O O9 0.374543 0.500000 0.880358
O O10 0.395075 0.383238 0.966624
O O11 0.511746 0.367540 0.674162
O O12 0.227205 0.361598 0.032204
O O13 0.500000 0.380850 0.000000
O O14 0.152777 0.000000 0.445387
O O15 0.905423 0.500000 0.842839
#
# Coordination Sequence:
#
# PCOD8100472 Si02
#       6
#     8   8   8   8   8   8
#     4   9  18  35  60  85 107 143 189 232 278 325
#     4  11  21  33  53  85 120 149 183 220 271 336
#     4   9  20  39  61  84 110 144 188 235 280 325
#     4  10  22  38  56  81 110 149 193 229 275 328
#     4   9  17  33  58  85 113 146 184 226 271 329
#     4  10  20  35  59  87 114 145 182 231 284 329
#
# _framework density 20.366800000000001
#
# number of rings (size 3 to 8) (size 9 to 14) (size 15 to 20)
#    0.000    2.333    1.667    2.000    0.000    4.000 
#    3.000    3.333    7.333    3.000    0.000    0.000 
#    0.000    0.000    0.000    0.000    0.000    0.000 
#
# Total GULP energy -297415.906557 kJ/mol
# GULP energy per Si atom -12392.329440 kJ/mol
# Density = 2.032044 g / cm^3
# Si number density = 20.366800 Si / 1000 Ang^3
#
#
#
# Elastic Constant Matrix: (Units=GPa)
#
#
# Indices 1 2 3 4 5 6 
#
# 1 146.6221 7.7545 73.2651 -0.0003 -21.5335 0.0003
# 2 7.7545 37.2558 42.7878 -0.0003 -4.0042 0.0002
# 3 73.2651 42.7878 136.8096 -0.0003 -9.2416 0.0003
# 4 -0.0003 -0.0003 -0.0003 29.5824 0.0003 4.6395
# 5 -21.5335 -4.0042 -9.2416 0.0003 40.2309 -0.0002
# 6 0.0003 0.0002 0.0003 4.6395 -0.0002 17.6245
#
#
#
# Elastic Compliance Matrix: (Units=1/GPa)
#
#
# Indices 1 2 3 4 5 6 
#
# 1 0.011086 0.007266 -0.007882 0.000000 0.004846 0.000000
# 2 0.007266 0.046704 -0.018204 0.000000 0.004356 -0.000001
# 3 -0.007882 -0.018204 0.017081 0.000000 -0.002107 0.000000
# 4 0.000000 0.000000 0.000000 0.035260 0.000000 -0.009282
# 5 0.004846 0.004356 -0.002107 0.000000 0.027400 0.000000
# 6 0.000000 -0.000001 0.000000 -0.009282 0.000000 0.059182
#
#
# Mechanical properties :
#
#
# Convention : Reuss Voigt Hill
#
# Bulk Modulus (GPa) = 26.85870 63.14470 45.00170
# Shear Modulus (GPa) = 20.26226 30.61291 25.43759
#
# Velocity S-wave (km/s) = 3.15757 3.88116 3.53792
# Velocity P-wave (km/s) = 5.14877 7.15232 6.23159
#
# Compressibility (1/GPa) = 0.03723188
#
# Stress axis : x y z
#
# Youngs Moduli (GPa) = 90.20156 21.41144 58.54317
#
# Poissons Ratio (x) = -0.15557 0.46144
# Poissons Ratio (y) = -0.65538 1.06570
# Poissons Ratio (z) = 0.71097 0.38977
#
# Static dielectric constant tensor:
#      x y z
#    x 4.151360 0.000000 -0.235070 
#    y 0.000000 3.303640 0.000000 
#    z -0.235070 0.000000 3.879410 
# 
# 
# High freq. dielectric constant tensor:
#      x y z
#    x 1.789220 0.000000 -0.006040 
#    y 0.000000 1.765290 0.000000 
#    z -0.006040 0.000000 1.798930 
# 
# From -- ./inp_files/74625.got.cif
#   From: 2010.06.25/outbox.cif.g09.slc.cpg/sg12_38_cif.got.tgz:74625.got - 2010.06.28 00:19:55.
