data_PCOD8100501
_publ_section_title
;
Structure prediction by ZEFSAII (Michael W. Deem and Ramdas Pophale) SiO2 
 PCOD8100501
Probable space group: C 2/M
;
_chemical_formula_sum "Si O2"
_cell_formula_units_Z 64
_cell_length_a 24.674819
_cell_length_b 17.982241
_cell_length_c 19.069909
_cell_angle_alpha 90.000000
_cell_angle_beta 157.542821
_cell_angle_gamma 90.000000
_cell_volume 3232.225423
_symmetry_space_group_name_H-M "C 2/M"
_symmetry_group_IT_number 12
_symmetry_cell_setting 'monoclinic'
loop_
_space_group_symop_operation_xyz
x,y,z
-x,y,-z
-x,-y,-z
x,-y,z
1/2+x,1/2+y,z
1/2-x,1/2+y,-z
1/2-x,1/2-y,-z
1/2+x,1/2-y,z
loop_
_atom_site_type_symbol
_atom_site_label
_atom_site_fract_x
_atom_site_fract_y
_atom_site_fract_z
Si Si1 0.408870 0.587531 0.063059
Si Si2 0.412684 0.912361 0.959882
Si Si3 0.103151 0.682128 0.446379
Si Si4 0.922143 0.812538 0.836029
Si Si5 0.612546 0.165881 0.293880
Si Si6 0.423609 0.086582 0.336845
Si Si7 0.394032 0.413692 0.428589
Si Si8 0.578075 0.350248 0.392391
O O1 0.439627 0.500000 0.105466
O O2 0.493919 0.618097 0.097259
O O3 0.459622 0.628754 0.194197
O O4 0.242678 0.604614 0.855182
O O5 0.490176 0.890456 0.123810
O O6 0.403167 0.000000 0.942315
O O7 0.500000 0.877675 0.000000
O O8 0.257832 0.875634 0.768254
O O9 0.261304 0.665792 0.664572
O O10 0.103156 0.662685 0.365108
O O11 0.058161 0.767880 0.399515
O O12 0.989985 0.632708 0.352285
O O13 0.918034 0.747820 0.772599
O O14 0.000000 0.786278 0.000000
O O15 0.766668 0.137439 0.454912
O O16 0.500000 0.110675 0.500000
O O17 0.449531 0.000000 0.351843
O O18 0.500000 0.375159 0.500000
O O19 0.382656 0.500000 0.397519
O O20 0.443148 0.404397 0.567079
#
# Coordination Sequence:
#
# PCOD8100501 Si02
#       8
#     8   8   8   8   8   8   8   8
#     4  11  23  41  65  90 120 163 202 248 318 369
#     4  10  20  35  59  88 117 165 209 239 300 368
#     4  11  23  41  64  92 124 159 206 252 302 367
#     4  11  22  39  64  92 122 159 202 253 307 362
#     4  11  21  39  61  91 130 158 197 261 304 354
#     4  10  24  46  65  88 125 161 202 260 313 360
#     4  10  22  39  58  87 127 163 206 254 295 359
#     4  11  21  40  61  90 129 161 198 253 311 363
#
# _framework density 19.800598999999998
#
# number of rings (size 3 to 8) (size 9 to 14) (size 15 to 20)
#    0.000    1.375    3.750    2.250    1.750    3.750 
#    2.250    2.500    0.000    0.000    0.000    0.000 
#    0.000    0.000    0.000    0.000    0.000    0.000 
#
# Total GULP energy -396863.206693 kJ/mol
# GULP energy per Si atom -12401.975209 kJ/mol
# Density = 1.975553 g / cm^3
# Si number density = 19.800599 Si / 1000 Ang^3
#
#
#
# Elastic Constant Matrix: (Units=GPa)
#
#
# Indices 1 2 3 4 5 6 
#
# 1 104.1645 39.0791 48.5129 -0.0011 4.2974 0.0004
# 2 39.0791 54.2756 39.0466 0.0005 13.5193 0.0004
# 3 48.5129 39.0466 143.5262 -0.0005 -1.4774 0.0009
# 4 -0.0011 0.0005 -0.0005 16.2697 -0.0009 1.8461
# 5 4.2974 13.5193 -1.4774 -0.0009 37.6546 0.0007
# 6 0.0004 0.0004 0.0009 1.8461 0.0007 27.3481
#
#
#
# Elastic Compliance Matrix: (Units=1/GPa)
#
#
# Indices 1 2 3 4 5 6 
#
# 1 0.013877 -0.008688 -0.002312 0.000001 0.001445 0.000000
# 2 -0.008688 0.031411 -0.005717 -0.000002 -0.010510 0.000000
# 3 -0.002312 -0.005717 0.009332 0.000001 0.002683 0.000000
# 4 0.000001 -0.000002 0.000001 0.061938 0.000002 -0.004181
# 5 0.001445 -0.010510 0.002683 0.000002 0.030271 -0.000001
# 6 0.000000 0.000000 0.000000 -0.004181 -0.000001 0.036848
#
#
# Mechanical properties :
#
#
# Convention : Reuss Voigt Hill
#
# Bulk Modulus (GPa) = 47.20236 61.69374 54.44805
# Shear Modulus (GPa) = 22.30424 27.94299 25.12361
#
# Velocity S-wave (km/s) = 3.35989 3.76070 3.56593
# Velocity P-wave (km/s) = 6.24039 7.07688 6.67176
#
# Compressibility (1/GPa) = 0.02118538
#
# Stress axis : x y z
#
# Youngs Moduli (GPa) = 72.06240 31.83612 107.16108
#
# Poissons Ratio (x) = 0.27660 0.24775
# Poissons Ratio (y) = 0.62609 0.61263
# Poissons Ratio (z) = 0.16661 0.18200
#
# Static dielectric constant tensor:
#      x y z
#    x 2.241650 0.000030 -3.632300 
#    y 0.000030 3.506820 0.000080 
#    z -3.632300 0.000080 -6.224290 
# 
# 
# High freq. dielectric constant tensor:
#      x y z
#    x 1.771030 0.000000 -0.004580 
#    y 0.000000 1.761990 0.000000 
#    z -0.004580 0.000000 1.787690 
# 
# From -- ./inp_files/290935.got.cif
#   From: 2010.06.25/outbox.cif.g09.slc.cpg/sg12_146_cif.got.tgz:290935.got - 2010.06.28 00:19:55.
