data_PCOD8100696
_publ_section_title
;
Structure prediction by ZEFSAII (Michael W. Deem and Ramdas Pophale) SiO2 
 PCOD8100696
Probable space group: C 2/M
;
_chemical_formula_sum "Si O2"
_cell_formula_units_Z 48
_cell_length_a 9.920388
_cell_length_b 27.910163
_cell_length_c 8.750698
_cell_angle_alpha 90.000000
_cell_angle_beta 99.907993
_cell_angle_gamma 90.000000
_cell_volume 2386.753562
_symmetry_space_group_name_H-M "C 2/M"
_symmetry_group_IT_number 12
_symmetry_cell_setting 'monoclinic'
loop_
_space_group_symop_operation_xyz
x,y,z
-x,y,-z
-x,-y,-z
x,-y,z
1/2+x,1/2+y,z
1/2-x,1/2+y,-z
1/2-x,1/2-y,-z
1/2+x,1/2-y,z
loop_
_atom_site_type_symbol
_atom_site_label
_atom_site_fract_x
_atom_site_fract_y
_atom_site_fract_z
Si Si1 0.551123 0.662012 0.678889
Si Si2 0.411509 0.500000 0.709745
Si Si3 0.395629 0.749406 0.106160
Si Si4 0.299602 0.500000 0.347714
Si Si5 0.302925 0.601387 0.730269
Si Si6 0.298830 0.899282 0.631583
Si Si7 0.551933 0.142043 0.841436
O O1 0.500000 0.672700 0.500000
O O2 0.600135 0.712462 0.754388
O O3 0.432625 0.637008 0.755526
O O4 0.680892 0.627324 0.702779
O O5 0.369376 0.500000 0.526006
O O6 0.576979 0.500000 0.751776
O O7 0.352200 0.547541 0.778877
O O8 0.435899 0.801162 0.178975
O O9 0.500000 0.731148 0.000000
O O10 0.250000 0.750000 0.000000
O O11 0.202699 0.454023 0.310616
O O12 0.225968 0.604102 0.553560
O O13 0.199269 0.617683 0.842735
O O14 0.445561 0.876867 0.695394
O O15 0.500000 0.128572 0.000000
#
# Coordination Sequence:
#
# PCOD8100696 Si02
#       7
#     8   4   8   4   8   8   8
#     4  10  20  35  61  92 115 143 192 251 291 330
#     4   9  16  33  61  90 114 146 189 234 281 344
#     4  11  23  41  60  80 112 161 201 232 285 355
#     4   9  16  33  61  88 116 148 185 230 285 350
#     4  10  20  36  61  89 116 148 191 240 286 340
#     4  10  20  36  60  89 118 148 187 236 295 340
#     4  11  24  40  55  79 117 159 193 236 284 345
#
# _framework density 20.110999
#
# number of rings (size 3 to 8) (size 9 to 14) (size 15 to 20)
#    0.000    1.833    1.667    3.500    0.000    2.000 
#    0.000    8.333    0.000    1.000    0.000    0.000 
#    0.000    0.000    0.000    0.000    0.000    0.000 
#
# Total GULP energy -297668.304371 kJ/mol
# GULP energy per Si atom -12402.846015 kJ/mol
# Density = 2.006523 g / cm^3
# Si number density = 20.110999 Si / 1000 Ang^3
#
#
#
# Elastic Constant Matrix: (Units=GPa)
#
#
# Indices 1 2 3 4 5 6 
#
# 1 119.7490 49.8596 29.9104 0.0000 -14.4243 0.0000
# 2 49.8596 156.6783 46.0057 0.0000 -4.7488 0.0000
# 3 29.9104 46.0057 31.9552 0.0000 -16.1761 0.0000
# 4 0.0000 0.0000 0.0000 11.0334 0.0000 -5.2306
# 5 -14.4243 -4.7488 -16.1761 0.0000 37.6947 0.0000
# 6 0.0000 0.0000 0.0000 -5.2306 0.0000 31.3869
#
#
#
# Elastic Compliance Matrix: (Units=1/GPa)
#
#
# Indices 1 2 3 4 5 6 
#
# 1 0.010962 -0.000883 -0.008843 0.000000 0.000289 0.000000
# 2 -0.000883 0.012762 -0.021596 0.000000 -0.007998 0.000000
# 3 -0.008843 -0.021596 0.086325 0.000000 0.030940 0.000000
# 4 0.000000 0.000000 0.000000 0.098408 0.000000 0.016400
# 5 0.000289 -0.007998 0.030940 0.000000 0.038909 0.000000
# 6 0.000000 0.000000 0.000000 0.016400 0.000000 0.034593
#
#
# Mechanical properties :
#
#
# Convention : Reuss Voigt Hill
#
# Bulk Modulus (GPa) = 21.09478 62.21488 41.65483
# Shear Modulus (GPa) = 13.87327 28.19678 21.03503
#
# Velocity S-wave (km/s) = 2.62932 3.74847 3.23762
# Velocity P-wave (km/s) = 4.44181 7.05249 5.89353
#
# Compressibility (1/GPa) = 0.04740508
#
# Stress axis : x y z
#
# Youngs Moduli (GPa) = 91.22379 78.35578 11.58419
#
# Poissons Ratio (x) = 0.06919 0.10244
# Poissons Ratio (y) = 0.08056 0.25017
# Poissons Ratio (z) = 0.80670 1.69215
#
# Static dielectric constant tensor:
#      x y z
#    x 3.753470 0.000000 -0.036360 
#    y 0.000000 3.855280 0.000000 
#    z -0.036360 0.000000 3.419690 
# 
# 
# High freq. dielectric constant tensor:
#      x y z
#    x 1.795570 0.000000 -0.005840 
#    y 0.000000 1.796530 0.000000 
#    z -0.005840 0.000000 1.759930 
# 
# From -- ./inp_files/42303.got.cif
#   From: 2010.06.25/outbox.cif.g09.slc.cpg/sg12_22_cif.got.tgz:42303.got - 2010.06.28 00:19:55.
