data_PCOD8100949
_publ_section_title
;
Structure prediction by ZEFSAII (Michael W. Deem and Ramdas Pophale) SiO2 
 PCOD8100949
Probable space group: C 2/M
;
_chemical_formula_sum "Si O2"
_cell_formula_units_Z 64
_cell_length_a 14.688138
_cell_length_b 8.887851
_cell_length_c 27.213510
_cell_angle_alpha 90.000000
_cell_angle_beta 106.166030
_cell_angle_gamma 90.000000
_cell_volume 3412.140204
_symmetry_space_group_name_H-M "C 2/M"
_symmetry_group_IT_number 12
_symmetry_cell_setting 'monoclinic'
loop_
_space_group_symop_operation_xyz
x,y,z
-x,y,-z
-x,-y,-z
x,-y,z
1/2+x,1/2+y,z
1/2-x,1/2+y,-z
1/2-x,1/2-y,-z
1/2+x,1/2-y,z
loop_
_atom_site_type_symbol
_atom_site_label
_atom_site_fract_x
_atom_site_fract_y
_atom_site_fract_z
Si Si1 0.931351 0.322103 0.134480
Si Si2 0.459917 0.821648 0.421936
Si Si3 0.461054 0.175691 0.943667
Si Si4 0.349120 0.178133 0.499372
Si Si5 0.926549 0.322306 0.307908
Si Si6 0.733510 0.673050 0.226390
Si Si7 0.033522 0.826545 0.240697
Si Si8 0.258776 0.174724 0.875107
O O1 0.941424 0.500000 0.139301
O O2 0.971829 0.254936 0.190348
O O3 0.822520 0.275046 0.112972
O O4 0.986262 0.253843 0.095743
O O5 0.566704 0.768625 0.451282
O O6 0.381634 0.766292 0.449846
O O7 0.431808 0.759238 0.364167
O O8 0.458678 0.000000 0.422577
O O9 0.349717 0.206252 0.922633
O O10 0.484830 0.000000 0.947603
O O11 0.500000 0.249869 0.000000
O O12 0.250000 0.250000 0.500000
O O13 0.336112 0.000000 0.498889
O O14 0.942102 0.500000 0.308807
O O15 0.825616 0.275704 0.270162
O O16 0.010242 0.244664 0.289827
O O17 0.742289 0.500000 0.210169
O O18 0.644777 0.696349 0.248830
O O19 0.719316 0.778084 0.177281
O O20 0.004330 0.000000 0.235780
O O21 0.230519 0.000000 0.871237
#
# Coordination Sequence:
#
# PCOD8100949 Si02
#       8
#     8   8   8   8   8   8   8   8
#     4  11  21  36  58  81 107 144 182 219 270 329
#     4   8  17  34  54  77 109 148 186 220 268 330
#     4   9  20  38  58  81 110 143 179 221 271 328
#     4   9  17  33  57  81 107 143 186 229 270 323
#     4  10  20  36  56  78 108 149 187 222 270 331
#     4  10  21  35  53  77 108 143 181 222 270 325
#     4  11  22  35  53  81 112 142 180 229 273 318
#     4  11  21  35  58  83 108 140 180 224 269 319
#
# _framework density 18.756557000000001
#
# number of rings (size 3 to 8) (size 9 to 14) (size 15 to 20)
#    0.000    2.125    2.500    1.875    0.000    2.000 
#    0.000    3.750    0.000    5.250    0.000    0.000 
#    0.000    0.000    0.000    0.000    0.000    0.000 
#
# Total GULP energy -396806.209713 kJ/mol
# GULP energy per Si atom -12400.194054 kJ/mol
# Density = 1.871387 g / cm^3
# Si number density = 18.756557 Si / 1000 Ang^3
#
#
#
# Elastic Constant Matrix: (Units=GPa)
#
#
# Indices 1 2 3 4 5 6 
#
# 1 105.9062 19.9167 29.0817 0.0000 -7.8980 0.0000
# 2 19.9167 41.9663 20.6825 0.0000 -2.5763 0.0000
# 3 29.0817 20.6825 108.7939 0.0000 -6.3095 0.0000
# 4 0.0000 0.0000 0.0000 15.1726 0.0000 0.0593
# 5 -7.8980 -2.5763 -6.3095 0.0000 26.9386 0.0000
# 6 0.0000 0.0000 0.0000 0.0593 0.0000 30.8139
#
#
#
# Elastic Compliance Matrix: (Units=1/GPa)
#
#
# Indices 1 2 3 4 5 6 
#
# 1 0.010933 -0.004051 -0.002016 0.000000 0.002346 0.000000
# 2 -0.004051 0.027842 -0.004181 0.000000 0.000496 0.000000
# 3 -0.002016 -0.004181 0.010612 0.000000 0.001495 0.000000
# 4 0.000000 0.000000 0.000000 0.065909 0.000000 -0.000127
# 5 0.002346 0.000496 0.001495 0.000000 0.038207 0.000000
# 6 0.000000 0.000000 0.000000 -0.000127 0.000000 0.032453
#
#
# Mechanical properties :
#
#
# Convention : Reuss Voigt Hill
#
# Bulk Modulus (GPa) = 34.61387 44.00312 39.30850
# Shear Modulus (GPa) = 23.13926 27.05073 25.09499
#
# Velocity S-wave (km/s) = 3.51616 3.80175 3.66174
# Velocity P-wave (km/s) = 5.91429 6.54081 6.23542
#
# Compressibility (1/GPa) = 0.02889015
#
# Stress axis : x y z
#
# Youngs Moduli (GPa) = 91.46851 35.91656 94.23060
#
# Poissons Ratio (x) = 0.14549 0.19000
# Poissons Ratio (y) = 0.37052 0.39402
# Poissons Ratio (z) = 0.18443 0.15018
#
# Static dielectric constant tensor:
#      x y z
#    x 3.638040 0.000000 -0.087360 
#    y 0.000000 3.209840 0.000000 
#    z -0.087360 0.000000 3.691800 
# 
# 
# High freq. dielectric constant tensor:
#      x y z
#    x 1.741340 0.000000 -0.001740 
#    y 0.000000 1.704130 0.000000 
#    z -0.001740 0.000000 1.727910 
# 
# From -- ./inp_files/359914.got.cif
#   From: 2010.06.25/outbox.cif.g09.slc.cpg/sg12_180_cif.got.tgz:359914.got - 2010.06.28 00:19:55.
