data_PCOD8100853
_publ_section_title
;
Structure prediction by ZEFSAII (Michael W. Deem and Ramdas Pophale) SiO2 
 PCOD8100853
Probable space group: C 2/M
;
_chemical_formula_sum "Si O2"
_cell_formula_units_Z 64
_cell_length_a 9.818087
_cell_length_b 19.654324
_cell_length_c 25.760017
_cell_angle_alpha 90.000000
_cell_angle_beta 47.100742
_cell_angle_gamma 90.000000
_cell_volume 3641.408667
_symmetry_space_group_name_H-M "C 2/M"
_symmetry_group_IT_number 12
_symmetry_cell_setting 'monoclinic'
loop_
_space_group_symop_operation_xyz
x,y,z
-x,y,-z
-x,-y,-z
x,-y,z
1/2+x,1/2+y,z
1/2-x,1/2+y,-z
1/2-x,1/2-y,-z
1/2+x,1/2-y,z
loop_
_atom_site_type_symbol
_atom_site_label
_atom_site_fract_x
_atom_site_fract_y
_atom_site_fract_z
Si Si1 0.789667 0.422202 0.065204
Si Si2 0.268580 0.685640 0.180128
Si Si3 0.706560 0.579529 0.463724
Si Si4 0.086023 0.191580 0.176857
Si Si5 0.718828 0.075709 0.441332
Si Si6 0.021013 0.077915 0.936202
Si Si7 0.478712 0.815709 0.344060
Si Si8 0.697885 0.310245 0.660050
O O1 0.779005 0.500000 0.087878
O O2 0.706395 0.374673 0.131706
O O3 0.676165 0.413140 0.041296
O O4 0.000000 0.399742 0.000000
O O5 0.219799 0.744525 0.151898
O O6 0.444667 0.711275 0.167622
O O7 0.317485 0.618489 0.135165
O O8 0.096947 0.666467 0.262026
O O9 0.500000 0.596332 0.500000
O O10 0.757197 0.500000 0.445794
O O11 0.712944 0.604647 0.521343
O O12 0.855483 0.619087 0.390064
O O13 0.975638 0.175074 0.257841
O O14 0.500000 0.073920 0.500000
O O15 0.788433 0.122230 0.377084
O O16 0.799129 0.000000 0.410647
O O17 0.087002 0.000000 0.919609
O O18 0.000000 0.105995 0.000000
O O19 0.341079 0.753177 0.367712
O O20 0.614188 0.795885 0.356480
#
# Coordination Sequence:
#
# PCOD8100853 Si02
#       8
#     8   8   8   8   8   8   8   8
#     4   9  18  33  53  76 103 134 169 208 250 298
#     4   9  19  35  53  75 103 135 170 208 252 299
#     4  10  22  38  55  76 104 136 170 211 259 308
#     4   9  19  35  52  75 104 135 170 208 251 300
#     4  10  20  36  55  77 103 132 171 214 255 303
#     4   9  18  33  53  77 103 132 169 210 250 296
#     4  10  21  36  54  77 104 136 172 212 256 305
#     4  10  21  35  54  78 104 135 172 213 257 303
#
# _framework density 17.575616
#
# number of rings (size 3 to 8) (size 9 to 14) (size 15 to 20)
#    0.000    2.500    1.250    0.000    1.750    3.500 
#    0.000    5.000    0.000    0.000    0.000    0.000 
#    0.000    0.000    0.000    0.000    0.000    0.000 
#
# Total GULP energy -396844.848820 kJ/mol
# GULP energy per Si atom -12401.401526 kJ/mol
# Density = 1.753561 g / cm^3
# Si number density = 17.575616 Si / 1000 Ang^3
#
#
#
# Elastic Constant Matrix: (Units=GPa)
#
#
# Indices 1 2 3 4 5 6 
#
# 1 99.4383 51.6939 50.1360 -0.0011 4.0163 -0.0001
# 2 51.6939 97.7326 64.4584 -0.0003 2.3738 -0.0005
# 3 50.1360 64.4584 83.7109 -0.0117 3.2563 0.0037
# 4 -0.0011 -0.0003 -0.0117 38.7522 0.0037 -0.3370
# 5 4.0163 2.3738 3.2563 0.0037 28.9851 -0.0004
# 6 -0.0001 -0.0005 0.0037 -0.3370 -0.0004 31.3571
#
#
#
# Elastic Compliance Matrix: (Units=1/GPa)
#
#
# Indices 1 2 3 4 5 6 
#
# 1 0.015222 -0.004145 -0.005882 -0.000001 -0.001109 0.000001
# 2 -0.004145 0.021920 -0.014411 -0.000004 0.000398 0.000002
# 3 -0.005882 -0.014411 0.026604 0.000008 -0.000994 -0.000003
# 4 -0.000001 -0.000004 0.000008 0.025807 -0.000004 0.000277
# 5 -0.001109 0.000398 -0.000994 -0.000004 0.034733 0.000001
# 6 0.000001 0.000002 -0.000003 0.000277 0.000001 0.031894
#
#
# Mechanical properties :
#
#
# Convention : Reuss Voigt Hill
#
# Bulk Modulus (GPa) = 67.25290 68.16206 67.70748
# Shear Modulus (GPa) = 23.80818 27.45844 25.63331
#
# Velocity S-wave (km/s) = 3.68450 3.95689 3.82312
# Velocity P-wave (km/s) = 7.51323 7.72931 7.62204
#
# Compressibility (1/GPa) = 0.01486925
#
# Stress axis : x y z
#
# Youngs Moduli (GPa) = 65.69607 45.62118 37.58839
#
# Poissons Ratio (x) = 0.18911 0.22108
# Poissons Ratio (y) = 0.27232 0.54170
# Poissons Ratio (z) = 0.38639 0.65746
#
# Static dielectric constant tensor:
#      x y z
#    x 3.469440 0.000000 0.040850 
#    y 0.000000 3.294240 0.000010 
#    z 0.040850 0.000010 3.168070 
# 
# 
# High freq. dielectric constant tensor:
#      x y z
#    x 1.690990 0.000000 0.002920 
#    y 0.000000 1.676770 0.000000 
#    z 0.002920 0.000000 1.673620 
# 
# From -- ./inp_files/333709.got.cif
#   From: 2010.06.25/outbox.cif.g09.slc.cpg/sg12_167_cif.got.tgz:333709.got - 2010.06.28 00:19:55.
