data_PCOD8100792
_publ_section_title
;
Structure prediction by ZEFSAII (Michael W. Deem and Ramdas Pophale) SiO2 
 PCOD8100792
Probable space group: C 2/M
;
_chemical_formula_sum "Si O2"
_cell_formula_units_Z 48
_cell_length_a 19.611709
_cell_length_b 9.487932
_cell_length_c 26.432622
_cell_angle_alpha 90.000000
_cell_angle_beta 147.574496
_cell_angle_gamma 90.000000
_cell_volume 2637.279420
_symmetry_space_group_name_H-M "C 2/M"
_symmetry_group_IT_number 12
_symmetry_cell_setting 'monoclinic'
loop_
_space_group_symop_operation_xyz
x,y,z
-x,y,-z
-x,-y,-z
x,-y,z
1/2+x,1/2+y,z
1/2-x,1/2+y,-z
1/2-x,1/2-y,-z
1/2+x,1/2-y,z
loop_
_atom_site_type_symbol
_atom_site_label
_atom_site_fract_x
_atom_site_fract_y
_atom_site_fract_z
Si Si1 0.116964 0.161829 0.540103
Si Si2 0.690725 0.333261 0.089298
Si Si3 0.124890 0.838768 0.429918
Si Si4 0.425833 0.333490 0.879968
Si Si5 0.563186 0.337505 0.774280
Si Si6 0.353476 0.663833 0.725086
O O1 0.075244 0.178161 0.455821
O O2 0.240689 0.253323 0.627823
O O3 0.000000 0.218987 0.500000
O O4 0.148212 0.000000 0.573200
O O5 0.710610 0.500000 0.096435
O O6 0.670637 0.289989 0.135597
O O7 0.811490 0.255374 0.141920
O O8 0.568114 0.279745 0.981104
O O9 0.250000 0.750000 0.500000
O O10 0.015175 0.784581 0.323736
O O11 0.158877 0.000000 0.437944
O O12 0.433805 0.500000 0.881561
O O13 0.376356 0.272956 0.795578
O O14 0.602695 0.500000 0.792811
O O15 0.481543 0.313460 0.773579
O O16 0.315148 0.500000 0.702651
#
# Coordination Sequence:
#
# PCOD8100792 Si02
#       6
#     8   8   8   8   8   8
#     4  10  22  37  53  76 106 138 172 213 259 303
#     4   9  18  35  57  78 101 134 174 210 254 308
#     4  10  20  36  54  74 105 140 171 208 254 304
#     4   8  17  35  56  77 103 134 170 215 256 299
#     4  10  21  34  51  78 108 135 167 211 259 302
#     4  10  20  36  55  76 104 137 173 212 255 303
#
# _framework density 18.200575000000001
#
# number of rings (size 3 to 8) (size 9 to 14) (size 15 to 20)
#    0.000    2.500    1.667    1.000    2.333    2.333 
#    0.000    2.500    0.000    0.000    0.000    0.000 
#    0.000    0.000    0.000    0.000    0.000    0.000 
#
# Total GULP energy -297612.673626 kJ/mol
# GULP energy per Si atom -12400.528068 kJ/mol
# Density = 1.815915 g / cm^3
# Si number density = 18.200575 Si / 1000 Ang^3
#
#
#
# Elastic Constant Matrix: (Units=GPa)
#
#
# Indices 1 2 3 4 5 6 
#
# 1 71.8876 18.7860 11.4845 0.0000 -1.0729 0.0000
# 2 18.7860 39.8800 16.7882 0.0000 10.2010 0.0002
# 3 11.4845 16.7882 51.1948 0.0000 -3.6339 0.0000
# 4 0.0000 0.0000 0.0000 26.0734 0.0000 4.6717
# 5 -1.0729 10.2010 -3.6339 0.0000 39.6463 0.0000
# 6 0.0000 0.0002 0.0000 4.6717 0.0000 23.7569
#
#
#
# Elastic Compliance Matrix: (Units=1/GPa)
#
#
# Indices 1 2 3 4 5 6 
#
# 1 0.016135 -0.007836 -0.000881 0.000000 0.002372 0.000000
# 2 -0.007836 0.035981 -0.010784 0.000000 -0.010459 0.000000
# 3 -0.000881 -0.010784 0.023616 0.000000 0.004915 0.000000
# 4 0.000000 0.000000 0.000000 0.039754 0.000000 -0.007818
# 5 0.002372 -0.010459 0.004915 0.000000 0.028429 0.000000
# 6 0.000000 0.000000 0.000000 -0.007818 0.000000 0.043630
#
#
# Mechanical properties :
#
#
# Convention : Reuss Voigt Hill
#
# Bulk Modulus (GPa) = 27.22606 28.56441 27.89524
# Shear Modulus (GPa) = 20.93881 25.62224 23.28052
#
# Velocity S-wave (km/s) = 3.39550 3.75610 3.58034
# Velocity P-wave (km/s) = 5.51035 5.87702 5.69664
#
# Compressibility (1/GPa) = 0.03672952
#
# Stress axis : x y z
#
# Youngs Moduli (GPa) = 61.97866 27.79214 42.34382
#
# Poissons Ratio (x) = 0.21778 0.03732
# Poissons Ratio (y) = 0.48567 0.45663
# Poissons Ratio (z) = 0.05463 0.29970
#
# Static dielectric constant tensor:
#      x y z
#    x 3.593010 0.000000 -0.319750 
#    y 0.000000 3.128100 0.000000 
#    z -0.319750 0.000000 3.514380 
# 
# 
# High freq. dielectric constant tensor:
#      x y z
#    x 1.715710 0.000000 -0.008200 
#    y 0.000000 1.681590 0.000000 
#    z -0.008200 0.000000 1.706350 
# 
# From -- ./inp_files/229298.got.cif
#   From: 2010.06.25/outbox.cif.g09.slc.cpg/sg12_115_cif.got.tgz:229298.got - 2010.06.28 00:19:55.
