data_PCOD8100549
_publ_section_title
;
Structure prediction by ZEFSAII (Michael W. Deem and Ramdas Pophale) SiO2 
 PCOD8100549
Probable space group: C 2/M
;
_chemical_formula_sum "Si O2"
_cell_formula_units_Z 64
_cell_length_a 15.286629
_cell_length_b 8.916504
_cell_length_c 23.824641
_cell_angle_alpha 90.000000
_cell_angle_beta 90.470737
_cell_angle_gamma 90.000000
_cell_volume 3247.267318
_symmetry_space_group_name_H-M "C 2/M"
_symmetry_group_IT_number 12
_symmetry_cell_setting 'monoclinic'
loop_
_space_group_symop_operation_xyz
x,y,z
-x,y,-z
-x,-y,-z
x,-y,z
1/2+x,1/2+y,z
1/2-x,1/2+y,-z
1/2-x,1/2-y,-z
1/2+x,1/2-y,z
loop_
_atom_site_type_symbol
_atom_site_label
_atom_site_fract_x
_atom_site_fract_y
_atom_site_fract_z
Si Si1 0.854757 0.172484 0.758844
Si Si2 0.155492 0.175793 0.637873
Si Si3 0.850031 0.672948 0.246297
Si Si4 0.987336 0.325240 0.435900
Si Si5 0.592860 0.677501 0.864195
Si Si6 0.855628 0.325946 0.644382
Si Si7 0.746046 0.823078 0.060224
Si Si8 0.418982 0.176934 0.868812
O O1 0.751902 0.195533 0.765668
O O2 0.884574 0.229010 0.698084
O O3 0.902167 0.272123 0.805290
O O4 0.882575 0.000000 0.766263
O O5 0.123362 0.257639 0.694050
O O6 0.256826 0.215511 0.624669
O O7 0.095192 0.232641 0.587119
O O8 0.142850 0.000000 0.646257
O O9 0.877904 0.500000 0.246185
O O10 0.902422 0.758691 0.198527
O O11 0.964838 0.500000 0.429805
O O12 0.077569 0.284917 0.404796
O O13 0.000000 0.277224 0.500000
O O14 0.589739 0.500000 0.861023
O O15 0.673330 0.734843 0.902035
O O16 0.505680 0.742378 0.892577
O O17 0.860693 0.500000 0.661215
O O18 0.658513 0.770180 0.090935
O O19 0.749302 0.000000 0.053068
O O20 0.750000 0.750000 0.000000
O O21 0.431512 0.000000 0.869946
#
# Coordination Sequence:
#
# PCOD8100549 Si02
#       8
#     8   8   8   8   8   8   8   8
#     4  10  20  35  59  90 121 155 198 247 298 358
#     4  10  21  37  58  85 117 154 195 245 299 355
#     4  10  20  36  60  89 121 158 197 243 301 362
#     4  10  22  40  60  83 115 157 203 247 297 361
#     4  11  23  40  61  91 123 158 201 248 299 355
#     4   9  20  38  58  82 116 157 195 240 301 360
#     4  10  24  44  66  88 121 163 205 250 300 353
#     4  11  23  40  61  90 123 161 201 245 302 360
#
# _framework density 19.708879
#
# number of rings (size 3 to 8) (size 9 to 14) (size 15 to 20)
#    0.000    1.875    1.250    1.875    1.750    5.250 
#    0.000    2.500    0.000    0.000    0.000    0.000 
#    0.000    0.000    0.000    0.000    0.000    0.000 
#
# Total GULP energy -396962.009990 kJ/mol
# GULP energy per Si atom -12405.062812 kJ/mol
# Density = 1.966402 g / cm^3
# Si number density = 19.708879 Si / 1000 Ang^3
#
#
#
# Elastic Constant Matrix: (Units=GPa)
#
#
# Indices 1 2 3 4 5 6 
#
# 1 114.6004 43.3500 64.7278 0.0000 -13.1689 0.0000
# 2 43.3500 77.0751 43.4889 0.0000 -2.7176 0.0000
# 3 64.7278 43.4889 128.0658 0.0000 -10.5946 0.0000
# 4 0.0000 0.0000 0.0000 35.4604 0.0000 3.2313
# 5 -13.1689 -2.7176 -10.5946 0.0000 20.9132 0.0000
# 6 0.0000 0.0000 0.0000 3.2313 0.0000 33.9198
#
#
#
# Elastic Compliance Matrix: (Units=1/GPa)
#
#
# Indices 1 2 3 4 5 6 
#
# 1 0.014032 -0.004893 -0.004960 0.000000 0.005687 0.000000
# 2 -0.004893 0.017766 -0.003782 0.000000 -0.002689 0.000000
# 3 -0.004960 -0.003782 0.011795 0.000000 0.002361 0.000000
# 4 0.000000 0.000000 0.000000 0.028447 0.000000 -0.002710
# 5 0.005687 -0.002689 0.002361 0.000000 0.052244 0.000000
# 6 0.000000 0.000000 0.000000 -0.002710 0.000000 0.029740
#
#
# Mechanical properties :
#
#
# Convention : Reuss Voigt Hill
#
# Bulk Modulus (GPa) = 61.26657 69.20830 65.23744
# Shear Modulus (GPa) = 26.77589 29.27031 28.02310
#
# Velocity S-wave (km/s) = 3.68988 3.85792 3.77484
# Velocity P-wave (km/s) = 7.02188 7.41864 7.22299
#
# Compressibility (1/GPa) = 0.01632211
#
# Stress axis : x y z
#
# Youngs Moduli (GPa) = 71.26652 56.28843 84.78086
#
# Poissons Ratio (x) = 0.27541 0.42052
# Poissons Ratio (y) = 0.34870 0.32067
# Poissons Ratio (z) = 0.35348 0.21290
#
# Static dielectric constant tensor:
#      x y z
#    x 3.943450 0.000000 -0.008960 
#    y 0.000000 3.592820 0.000000 
#    z -0.008960 0.000000 3.497040 
# 
# 
# High freq. dielectric constant tensor:
#      x y z
#    x 1.780690 0.000000 -0.000750 
#    y 0.000000 1.770900 0.000000 
#    z -0.000750 0.000000 1.761060 
# 
# From -- ./inp_files/338851.got.cif
#   From: 2010.06.25/outbox.cif.g09.slc.cpg/sg12_170_cif.got.tgz:338851.got - 2010.06.28 00:19:55.
