data_PCOD8100818
_publ_section_title
;
Structure prediction by ZEFSAII (Michael W. Deem and Ramdas Pophale) SiO2 
 PCOD8100818
Probable space group: C 2/M
;
_chemical_formula_sum "Si O2"
_cell_formula_units_Z 56
_cell_length_a 22.529555
_cell_length_b 13.308820
_cell_length_c 22.701909
_cell_angle_alpha 90.000000
_cell_angle_beta 25.627613
_cell_angle_gamma 90.000000
_cell_volume 2944.157674
_symmetry_space_group_name_H-M "C 2/M"
_symmetry_group_IT_number 12
_symmetry_cell_setting 'monoclinic'
loop_
_space_group_symop_operation_xyz
x,y,z
-x,y,-z
-x,-y,-z
x,-y,z
1/2+x,1/2+y,z
1/2-x,1/2+y,-z
1/2-x,1/2-y,-z
1/2+x,1/2-y,z
loop_
_atom_site_type_symbol
_atom_site_label
_atom_site_fract_x
_atom_site_fract_y
_atom_site_fract_z
Si Si1 0.187557 0.113632 0.693443
Si Si2 0.585775 0.701747 0.101372
Si Si3 0.906507 0.880800 0.662044
Si Si4 0.196392 0.192161 0.362473
Si Si5 0.867767 0.762474 0.809717
Si Si6 0.111545 0.386071 0.589489
Si Si7 0.589632 0.888998 0.740807
O O1 0.253377 0.191160 0.681451
O O2 0.256758 0.137911 0.568515
O O3 0.024350 0.127922 0.830415
O O4 0.215357 0.000000 0.690402
O O5 0.601514 0.678603 0.156834
O O6 0.538459 0.816565 0.135419
O O7 0.731443 0.693616 0.938206
O O8 0.796148 0.848715 0.710999
O O9 0.848863 0.847025 0.776734
O O10 0.045059 0.820373 0.524020
O O11 0.932561 0.000000 0.637364
O O12 0.295718 0.124955 0.312873
O O13 0.988188 0.687425 0.682849
O O14 0.061114 0.500000 0.623651
O O15 0.158375 0.370245 0.615182
O O16 0.527845 0.000000 0.800689
#
# Coordination Sequence:
#
# PCOD8100818 Si02
#       7
#     8   8   8   8   8   8   8
#     4  10  20  36  58  84 108 142 189 237 281 331
#     4   9  21  34  55  81 115 146 180 228 282 333
#     4  11  22  35  56  83 114 150 188 226 275 336
#     4  10  20  36  54  81 116 146 182 236 280 322
#     4  10  20  37  53  81 115 150 181 225 280 332
#     4   9  18  32  55  81 105 139 186 231 281 331
#     4   9  17  31  53  76 106 144 183 229 277 326
#
# _framework density 19.020721000000002
#
# number of rings (size 3 to 8) (size 9 to 14) (size 15 to 20)
#    0.000    2.286    1.429    1.714    2.000    3.429 
#    0.000    7.857    0.000    5.143    0.000    0.000 
#    0.000    0.000    0.000    0.000    0.000    0.000 
#
# Total GULP energy -347157.728326 kJ/mol
# GULP energy per Si atom -12398.490297 kJ/mol
# Density = 1.897743 g / cm^3
# Si number density = 19.020721 Si / 1000 Ang^3
#
#
#
# Elastic Constant Matrix: (Units=GPa)
#
#
# Indices 1 2 3 4 5 6 
#
# 1 116.0599 40.7304 31.8365 -0.0004 -3.7193 0.0002
# 2 40.7304 98.6299 17.9604 0.0071 -1.0582 -0.0025
# 3 31.8365 17.9604 66.5511 0.0126 -7.6374 -0.0047
# 4 -0.0004 0.0071 0.0126 16.1932 -0.0015 2.3919
# 5 -3.7193 -1.0582 -7.6374 -0.0015 21.7952 0.0002
# 6 0.0002 -0.0025 -0.0047 2.3919 0.0002 25.8095
#
#
#
# Elastic Compliance Matrix: (Units=1/GPa)
#
#
# Indices 1 2 3 4 5 6 
#
# 1 0.011135 -0.003818 -0.004271 0.000006 0.000218 -0.000002
# 2 -0.003818 0.011978 -0.001473 -0.000004 -0.000586 0.000001
# 3 -0.004271 -0.001473 0.018103 -0.000014 0.005543 0.000004
# 4 0.000006 -0.000004 -0.000014 0.062611 0.000000 -0.005802
# 5 0.000218 -0.000586 0.005543 0.000000 0.047833 0.000001
# 6 -0.000002 0.000001 0.000004 -0.005802 0.000001 0.039283
#
#
# Mechanical properties :
#
#
# Convention : Reuss Voigt Hill
#
# Bulk Modulus (GPa) = 45.26862 51.36616 48.31739
# Shear Modulus (GPa) = 22.99575 25.47382 24.23479
#
# Velocity S-wave (km/s) = 3.48082 3.66357 3.57336
# Velocity P-wave (km/s) = 6.32504 6.70520 6.51789
#
# Compressibility (1/GPa) = 0.02209036
#
# Stress axis : x y z
#
# Youngs Moduli (GPa) = 89.80852 83.48894 55.23940
#
# Poissons Ratio (x) = 0.31877 0.23594
# Poissons Ratio (y) = 0.34290 0.08138
# Poissons Ratio (z) = 0.38359 0.12300
#
# Static dielectric constant tensor:
#      x y z
#    x 3.595550 0.000000 -0.075970 
#    y 0.000000 3.454080 0.000000 
#    z -0.075970 0.000000 3.306680 
# 
# 
# High freq. dielectric constant tensor:
#      x y z
#    x 1.732060 0.000000 -0.008600 
#    y 0.000000 1.739110 0.000000 
#    z -0.008600 0.000000 1.722460 
# 
# From -- ./inp_files/349710.got.cif
#   From: 2010.06.25/outbox.cif.g09.slc.cpg/sg12_175_cif.got.tgz:349710.got - 2010.06.28 00:19:55.
