data_PCOD8100067
_publ_section_title
;
Structure prediction by ZEFSAII (Michael W. Deem and Ramdas Pophale) SiO2 
 PCOD8100067
Probable space group: C 2/M
;
_chemical_formula_sum "Si O2"
_cell_formula_units_Z 52
_cell_length_a 18.924166
_cell_length_b 21.898032
_cell_length_c 11.665703
_cell_angle_alpha 90.000000
_cell_angle_beta 144.203807
_cell_angle_gamma 90.000000
_cell_volume 2827.594841
_symmetry_space_group_name_H-M "C 2/M"
_symmetry_group_IT_number 12
_symmetry_cell_setting 'monoclinic'
loop_
_space_group_symop_operation_xyz
x,y,z
-x,y,-z
-x,-y,-z
x,-y,z
1/2+x,1/2+y,z
1/2-x,1/2+y,-z
1/2-x,1/2-y,-z
1/2+x,1/2-y,z
loop_
_atom_site_type_symbol
_atom_site_label
_atom_site_fract_x
_atom_site_fract_y
_atom_site_fract_z
Si Si1 0.561645 0.569519 0.280288
Si Si2 0.000000 0.750000 0.000000
Si Si3 0.718643 0.069519 0.280288
Si Si4 0.582149 0.151354 0.274392
Si Si5 0.625061 0.929346 0.912412
Si Si6 0.307757 0.348646 0.725608
Si Si7 0.712649 0.429346 0.087588
O O1 0.579918 0.500000 0.263904
O O2 0.644973 0.584384 0.500000
O O3 0.596977 0.610768 0.219285
O O4 0.424195 0.582486 0.134552
O O5 0.016275 0.710804 0.137294
O O6 0.121018 0.789196 0.137294
O O7 0.622308 0.110768 0.219285
O O8 0.683986 0.000000 0.263904
O O9 0.710358 0.082486 0.134552
O O10 0.493375 0.112373 0.237843
O O11 0.695780 0.172038 0.500000
O O12 0.699926 0.909517 0.899853
O O13 0.585227 0.000000 0.852887
O O14 0.255531 0.387627 0.762157
O O15 0.732340 0.500000 0.147113
#
# Coordination Sequence:
#
# PCOD8100067 Si02
#       7
#     8   4   8   8   8   8   8
#     4   9  17  32  57  85 111 144 186 231 278 324
#     4  12  22  40  60  82 104 148 192 238 268 310
#     4   9  17  32  57  85 111 144 186 231 278 324
#     4  11  22  37  59  83 109 143 188 234 274 322
#     4  10  20  35  57  86 119 148 175 220 284 342
#     4  11  22  37  59  83 109 143 188 234 274 322
#     4  10  20  35  57  86 119 148 175 220 284 342
#
# _framework density 18.390187999999998
#
# number of rings (size 3 to 8) (size 9 to 14) (size 15 to 20)
#    0.000    1.846    3.077    1.385    0.000    5.538 
#    0.000    5.385    0.000    0.000    0.000    0.000 
#    0.000    0.000    0.000    0.000    0.000    0.000 
#
# Total GULP energy -322476.541548 kJ/mol
# GULP energy per Si atom -12402.943906 kJ/mol
# Density = 1.834833 g / cm^3
# Si number density = 18.390188 Si / 1000 Ang^3
#
#
#
# Elastic Constant Matrix: (Units=GPa)
#
#
# Indices 1 2 3 4 5 6 
#
# 1 118.4628 50.5515 42.8010 0.0000 0.3880 0.0000
# 2 50.5515 84.7428 53.8210 0.0000 -0.0443 0.0000
# 3 42.8010 53.8210 105.3972 0.0000 -0.2109 0.0000
# 4 0.0000 0.0000 0.0000 30.6747 0.0000 -0.2485
# 5 0.3880 -0.0443 -0.2109 0.0000 23.5292 0.0000
# 6 0.0000 0.0000 0.0000 -0.2485 0.0000 12.3438
#
#
#
# Elastic Compliance Matrix: (Units=1/GPa)
#
#
# Indices 1 2 3 4 5 6 
#
# 1 0.011535 -0.005780 -0.001733 0.000000 -0.000217 0.000000
# 2 -0.005780 0.020361 -0.008050 0.000000 0.000062 0.000000
# 3 -0.001733 -0.008050 0.014303 0.000000 0.000142 0.000000
# 4 0.000000 0.000000 0.000000 0.032605 0.000000 0.000656
# 5 -0.000217 0.000062 0.000142 0.000000 0.042505 0.000000
# 6 0.000000 0.000000 0.000000 0.000656 0.000000 0.081025
#
#
# Mechanical properties :
#
#
# Convention : Reuss Voigt Hill
#
# Bulk Modulus (GPa) = 66.34718 66.99440 66.67079
# Shear Modulus (GPa) = 20.96562 24.07150 22.51856
#
# Velocity S-wave (km/s) = 3.38012 3.62184 3.50306
# Velocity P-wave (km/s) = 7.16864 7.34839 7.25907
#
# Compressibility (1/GPa) = 0.01507223
#
# Stress axis : x y z
#
# Youngs Moduli (GPa) = 86.69280 49.11285 69.91728
#
# Poissons Ratio (x) = 0.28390 0.12116
# Poissons Ratio (y) = 0.50113 0.56283
# Poissons Ratio (z) = 0.15023 0.39536
#
# Static dielectric constant tensor:
#      x y z
#    x 3.204100 0.000000 -0.004360 
#    y 0.000000 3.345190 0.000000 
#    z -0.004360 0.000000 3.525470 
# 
# 
# High freq. dielectric constant tensor:
#      x y z
#    x 1.690840 0.000000 -0.000540 
#    y 0.000000 1.701400 0.000000 
#    z -0.000540 0.000000 1.730420 
# 
# From -- ./inp_files/159616.got.cif
#   From: 2010.06.25/outbox.cif.g09.slc.cpg/sg12_80_cif.got.tgz:159616.got - 2010.06.28 00:19:55.
