data_PCOD8100825
_publ_section_title
;
Structure prediction by ZEFSAII (Michael W. Deem and Ramdas Pophale) SiO2 
 PCOD8100825
Probable space group: C 2/M
;
_chemical_formula_sum "Si O2"
_cell_formula_units_Z 64
_cell_length_a 25.521593
_cell_length_b 23.085311
_cell_length_c 16.632288
_cell_angle_alpha 90.000000
_cell_angle_beta 20.787174
_cell_angle_gamma 90.000000
_cell_volume 3477.752519
_symmetry_space_group_name_H-M "C 2/M"
_symmetry_group_IT_number 12
_symmetry_cell_setting 'monoclinic'
loop_
_space_group_symop_operation_xyz
x,y,z
-x,y,-z
-x,-y,-z
x,-y,z
1/2+x,1/2+y,z
1/2-x,1/2+y,-z
1/2-x,1/2-y,-z
1/2+x,1/2-y,z
loop_
_atom_site_type_symbol
_atom_site_label
_atom_site_fract_x
_atom_site_fract_y
_atom_site_fract_z
Si Si1 0.635113 0.232637 0.248664
Si Si2 0.363984 0.936481 0.135823
Si Si3 0.140688 0.160200 0.481326
Si Si4 0.214876 0.770926 0.810984
Si Si5 0.387501 0.067460 0.915898
Si Si6 0.608843 0.359045 0.269447
Si Si7 0.911151 0.758563 0.304903
Si Si8 0.453261 0.831478 0.379636
O O1 0.500000 0.246266 0.500000
O O2 0.765662 0.212891 0.121790
O O3 0.680950 0.295381 0.145746
O O4 0.582295 0.187393 0.256999
O O5 0.406807 0.920781 0.982911
O O6 0.287814 0.000000 0.244484
O O7 0.500000 0.937748 0.000000
O O8 0.260429 0.888691 0.322221
O O9 0.201155 0.211345 0.335274
O O10 0.100421 0.183954 0.625951
O O11 0.994983 0.127887 0.657506
O O12 0.288831 0.822424 0.652440
O O13 0.036938 0.766670 0.054606
O O14 0.519883 0.101239 0.680368
O O15 0.397581 0.000000 0.879179
O O16 0.232654 0.092713 0.105702
O O17 0.500000 0.359353 0.500000
O O18 0.750000 0.750000 0.500000
O O19 0.965292 0.704361 0.280015
#
# Coordination Sequence:
#
# PCOD8100825 Si02
#       8
#     8   8   8   8   8   8   8   8
#     4   9  15  31  54  83 108 139 178 218 278 344
#     4  10  22  38  56  77 108 151 191 232 279 334
#     4  11  21  34  56  82 114 151 185 229 290 339
#     4  10  20  36  54  84 116 149 183 228 288 345
#     4  11  24  37  56  85 115 151 195 236 282 339
#     4  11  17  33  53  84 114 140 179 230 288 346
#     4  11  24  34  54  88 117 150 185 233 293 344
#     4  10  21  36  58  82 113 153 186 234 282 347
#
# _framework density 18.402688999999999
#
# number of rings (size 3 to 8) (size 9 to 14) (size 15 to 20)
#    0.000    1.625    6.250    1.500    5.250    3.250 
#    0.000    0.000    0.000    4.125    0.000    0.875 
#    0.000    0.000    0.000    0.000    0.000    0.000 
#
# Total GULP energy -396492.274750 kJ/mol
# GULP energy per Si atom -12390.383586 kJ/mol
# Density = 1.836080 g / cm^3
# Si number density = 18.402689 Si / 1000 Ang^3
#
#
#
# Elastic Constant Matrix: (Units=GPa)
#
#
# Indices 1 2 3 4 5 6 
#
# 1 70.7186 29.6504 33.0880 0.0065 -8.6085 -0.0080
# 2 29.6504 118.4155 41.2594 0.0034 2.8342 -0.0024
# 3 33.0880 41.2594 108.4000 0.0058 -6.2073 -0.0051
# 4 0.0065 0.0034 0.0058 34.6429 -0.0028 11.4270
# 5 -8.6085 2.8342 -6.2073 -0.0028 21.0942 0.0070
# 6 -0.0080 -0.0024 -0.0051 11.4270 0.0070 53.1393
#
#
#
# Elastic Compliance Matrix: (Units=1/GPa)
#
#
# Indices 1 2 3 4 5 6 
#
# 1 0.018188 -0.003361 -0.003887 -0.000003 0.006730 0.000002
# 2 -0.003361 0.010482 -0.003177 0.000000 -0.003715 0.000000
# 3 -0.003887 -0.003177 0.011752 -0.000001 0.002299 0.000000
# 4 -0.000003 0.000000 -0.000001 0.031070 0.000005 -0.006681
# 5 0.006730 -0.003715 0.002299 0.000005 0.051328 -0.000007
# 6 0.000002 0.000000 0.000000 -0.006681 -0.000007 0.020255
#
#
# Mechanical properties :
#
#
# Convention : Reuss Voigt Hill
#
# Bulk Modulus (GPa) = 51.09026 56.16994 53.63010
# Shear Modulus (GPa) = 29.33441 34.67770 32.00606
#
# Velocity S-wave (km/s) = 3.99686 4.34566 4.17490
# Velocity P-wave (km/s) = 7.00875 7.46784 7.24193
#
# Compressibility (1/GPa) = 0.01957320
#
# Stress axis : x y z
#
# Youngs Moduli (GPa) = 54.98273 95.40099 85.08993
#
# Poissons Ratio (x) = 0.32062 0.33074
# Poissons Ratio (y) = 0.18478 0.27029
# Poissons Ratio (z) = 0.21372 0.30305
#
# Static dielectric constant tensor:
#      x y z
#    x 4.316920 -0.000030 -0.069090 
#    y -0.000030 3.281670 0.000030 
#    z -0.069090 0.000030 3.504540 
# 
# 
# High freq. dielectric constant tensor:
#      x y z
#    x 1.717870 0.000000 -0.006000 
#    y 0.000000 1.679470 0.000000 
#    z -0.006000 0.000000 1.714720 
# 
# From -- ./inp_files/294275.got.cif
#   From: 2010.06.25/outbox.cif.g09.slc.cpg/sg12_148_cif.got.tgz:294275.got - 2010.06.28 00:19:55.
