data_PCOD8100525
_publ_section_title
;
Structure prediction by ZEFSAII (Michael W. Deem and Ramdas Pophale) SiO2 
 PCOD8100525
Probable space group: C 2/M
;
_chemical_formula_sum "Si O2"
_cell_formula_units_Z 64
_cell_length_a 15.548638
_cell_length_b 8.815476
_cell_length_c 33.232248
_cell_angle_alpha 90.000000
_cell_angle_beta 45.358629
_cell_angle_gamma 90.000000
_cell_volume 3241.039012
_symmetry_space_group_name_H-M "C 2/M"
_symmetry_group_IT_number 12
_symmetry_cell_setting 'monoclinic'
loop_
_space_group_symop_operation_xyz
x,y,z
-x,y,-z
-x,-y,-z
x,-y,z
1/2+x,1/2+y,z
1/2-x,1/2+y,-z
1/2-x,1/2-y,-z
1/2+x,1/2-y,z
loop_
_atom_site_type_symbol
_atom_site_label
_atom_site_fract_x
_atom_site_fract_y
_atom_site_fract_z
Si Si1 0.658256 0.178591 0.170920
Si Si2 0.615474 0.177928 0.756482
Si Si3 0.739792 0.176671 0.940036
Si Si4 0.797925 0.320098 0.634590
Si Si5 0.565404 0.676960 0.056421
Si Si6 0.435160 0.820816 0.435418
Si Si7 0.741551 0.320823 0.564461
Si Si8 0.834886 0.678873 0.168658
O O1 0.520943 0.228505 0.208031
O O2 0.741483 0.228857 0.106496
O O3 0.704251 0.264313 0.196011
O O4 0.669477 0.000000 0.173498
O O5 0.701743 0.266632 0.698394
O O6 0.649350 0.227946 0.790389
O O7 0.633602 0.000000 0.744266
O O8 0.852255 0.211548 0.932038
O O9 0.728684 0.000000 0.933222
O O10 0.616629 0.233480 0.001131
O O11 0.801387 0.500000 0.632317
O O12 0.761973 0.256867 0.602523
O O13 0.930047 0.256826 0.602757
O O14 0.561944 0.500000 0.047249
O O15 0.432601 0.737623 0.108852
O O16 0.381678 0.750005 0.412233
O O17 0.355340 0.769735 0.499930
O O18 0.434886 0.000000 0.430769
O O19 0.727298 0.500000 0.569112
O O20 0.849666 0.500000 0.158711
#
# Coordination Sequence:
#
# PCOD8100525 Si02
#       8
#     8   8   8   8   8   8   8   8
#     4  11  23  41  62  85 113 149 192 238 290 343
#     4  10  24  43  60  80 114 152 190 240 289 336
#     4  10  20  35  59  89 119 151 186 230 285 344
#     4  10  21  36  58  83 111 150 193 234 278 336
#     4  10  20  35  59  89 119 151 186 230 285 344
#     4   9  18  34  56  84 117 151 187 230 280 333
#     4   9  18  34  56  84 117 151 187 230 280 333
#     4  11  23  41  62  85 113 149 192 238 290 343
#
# _framework density 19.746753999999999
#
# number of rings (size 3 to 8) (size 9 to 14) (size 15 to 20)
#    0.000    2.000    1.250    1.875    0.000    7.000 
#    0.000    7.500    0.000    3.750    0.000    0.000 
#    0.000    0.000    0.000    0.000    0.000    0.000 
#
# Total GULP energy -396940.703393 kJ/mol
# GULP energy per Si atom -12404.396981 kJ/mol
# Density = 1.970181 g / cm^3
# Si number density = 19.746754 Si / 1000 Ang^3
#
#
#
# Elastic Constant Matrix: (Units=GPa)
#
#
# Indices 1 2 3 4 5 6 
#
# 1 155.5481 30.3183 68.6951 0.0004 9.1366 0.0009
# 2 30.3183 35.0766 20.1339 0.0005 2.0458 0.0006
# 3 68.6951 20.1339 105.2342 0.0001 3.1770 0.0003
# 4 0.0004 0.0005 0.0001 34.3830 0.0002 0.1573
# 5 9.1366 2.0458 3.1770 0.0002 11.1349 0.0003
# 6 0.0009 0.0006 0.0003 0.1573 0.0003 34.2086
#
#
#
# Elastic Compliance Matrix: (Units=1/GPa)
#
#
# Indices 1 2 3 4 5 6 
#
# 1 0.010238 -0.005362 -0.005481 0.000000 -0.005852 0.000000
# 2 -0.005362 0.035028 -0.003167 0.000000 -0.001132 0.000000
# 3 -0.005481 -0.003167 0.013651 0.000000 0.001184 0.000000
# 4 0.000000 0.000000 0.000000 0.029085 0.000000 -0.000134
# 5 -0.005852 -0.001132 0.001184 0.000000 0.094480 -0.000001
# 6 0.000000 0.000000 0.000000 -0.000134 -0.000001 0.029233
#
#
# Mechanical properties :
#
#
# Convention : Reuss Voigt Hill
#
# Bulk Modulus (GPa) = 32.36622 59.35038 45.85830
# Shear Modulus (GPa) = 19.99735 27.72608 23.86171
#
# Velocity S-wave (km/s) = 3.18573 3.75117 3.47996
# Velocity P-wave (km/s) = 5.47340 6.99162 6.27857
#
# Compressibility (1/GPa) = 0.03089641
#
# Stress axis : x y z
#
# Youngs Moduli (GPa) = 97.67298 28.54878 73.25697
#
# Poissons Ratio (x) = 0.15308 0.40151
# Poissons Ratio (y) = 0.52373 0.23202
# Poissons Ratio (z) = 0.53532 0.09042
#
# Static dielectric constant tensor:
#      x y z
#    x 3.872270 0.000000 0.019560 
#    y 0.000000 3.460900 0.000000 
#    z 0.019560 0.000000 3.511490 
# 
# 
# High freq. dielectric constant tensor:
#      x y z
#    x 1.782850 0.000000 0.001680 
#    y 0.000000 1.764710 0.000000 
#    z 0.001680 0.000000 1.763150 
# 
# From -- ./inp_files/359722.got.cif
#   From: 2010.06.25/outbox.cif.g09.slc.cpg/sg12_180_cif.got.tgz:359722.got - 2010.06.28 00:19:55.
