data_PCOD8100083
_publ_section_title
;
Structure prediction by ZEFSAII (Michael W. Deem and Ramdas Pophale) SiO2 
 PCOD8100083
Probable space group: C 2/M
;
_chemical_formula_sum "Si O2"
_cell_formula_units_Z 48
_cell_length_a 14.346994
_cell_length_b 28.727157
_cell_length_c 10.500661
_cell_angle_alpha 90.000000
_cell_angle_beta 32.127445
_cell_angle_gamma 90.000000
_cell_volume 2301.558632
_symmetry_space_group_name_H-M "C 2/M"
_symmetry_group_IT_number 12
_symmetry_cell_setting 'monoclinic'
loop_
_space_group_symop_operation_xyz
x,y,z
-x,y,-z
-x,-y,-z
x,-y,z
1/2+x,1/2+y,z
1/2-x,1/2+y,-z
1/2-x,1/2-y,-z
1/2+x,1/2-y,z
loop_
_atom_site_type_symbol
_atom_site_label
_atom_site_fract_x
_atom_site_fract_y
_atom_site_fract_z
Si Si1 0.618107 0.097528 0.055126
Si Si2 0.370635 0.500000 0.483590
Si Si3 0.813566 0.317751 0.864177
Si Si4 0.746410 0.399994 0.377886
Si Si5 0.071543 0.192818 0.638810
Si Si6 0.318902 0.216234 0.575565
Si Si7 0.755967 0.500000 0.080878
O O1 0.687246 0.128226 0.092547
O O2 0.425722 0.114685 0.238238
O O3 0.743113 0.100646 0.787150
O O4 0.622905 0.043963 0.094293
O O5 0.299284 0.450978 0.510945
O O6 0.575631 0.500000 0.211751
O O7 0.307542 0.500000 0.701077
O O8 0.805911 0.312092 0.720870
O O9 0.994101 0.295799 0.709534
O O10 0.636027 0.295131 0.125589
O O11 0.599446 0.361567 0.578174
O O12 0.151076 0.203184 0.686316
O O13 0.169694 0.227066 0.423569
#
# Coordination Sequence:
#
# PCOD8100083 Si02
#       7
#     8   4   8   8   8   8   4
#     4  10  20  35  57  86 122 156 193 243 295 350
#     4   9  17  31  53  86 121 148 191 242 291 352
#     4  11  22  40  62  85 116 156 196 243 293 344
#     4  10  20  35  57  88 121 155 193 241 297 354
#     4  11  22  40  61  86 115 157 195 243 295 351
#     4  10  24  41  58  86 118 151 202 245 290 346
#     4   9  17  31  53  85 116 155 194 234 293 354
#
# _framework density 20.855432
#
# number of rings (size 3 to 8) (size 9 to 14) (size 15 to 20)
#    0.000    1.833    1.667    2.500    0.000    8.000 
#    3.000    0.000    0.000    3.000    0.000    3.500 
#    0.000    0.000    0.000    0.000    0.000    0.000 
#
# Total GULP energy -297364.317950 kJ/mol
# GULP energy per Si atom -12390.179915 kJ/mol
# Density = 2.080796 g / cm^3
# Si number density = 20.855432 Si / 1000 Ang^3
#
#
#
# Elastic Constant Matrix: (Units=GPa)
#
#
# Indices 1 2 3 4 5 6 
#
# 1 74.6275 34.3870 14.1474 0.0000 0.9051 0.0000
# 2 34.3870 142.8177 26.9260 0.0000 10.4834 0.0000
# 3 14.1474 26.9260 66.7251 -0.0001 -12.6318 0.0000
# 4 0.0000 0.0000 -0.0001 23.0138 0.0000 -3.9274
# 5 0.9051 10.4834 -12.6318 0.0000 23.8047 0.0000
# 6 0.0000 0.0000 0.0000 -3.9274 0.0000 33.7477
#
#
#
# Elastic Compliance Matrix: (Units=1/GPa)
#
#
# Indices 1 2 3 4 5 6 
#
# 1 0.015292 -0.003305 -0.001938 0.000000 -0.000154 0.000000
# 2 -0.003305 0.009005 -0.004069 0.000000 -0.005999 0.000000
# 3 -0.001938 -0.004069 0.019335 0.000000 0.012126 0.000000
# 4 0.000000 0.000000 0.000000 0.044333 0.000000 0.005159
# 5 -0.000154 -0.005999 0.012126 0.000000 0.051091 0.000000
# 6 0.000000 0.000000 0.000000 0.005159 0.000000 0.030232
#
#
# Mechanical properties :
#
#
# Convention : Reuss Voigt Hill
#
# Bulk Modulus (GPa) = 39.98586 48.34345 44.16465
# Shear Modulus (GPa) = 25.47796 30.02723 27.75259
#
# Velocity S-wave (km/s) = 3.49900 3.79856 3.65185
# Velocity P-wave (km/s) = 5.96142 6.51685 6.24531
#
# Compressibility (1/GPa) = 0.02500884
#
# Stress axis : x y z
#
# Youngs Moduli (GPa) = 65.39318 111.04605 51.71923
#
# Poissons Ratio (x) = 0.36705 0.10021
# Poissons Ratio (y) = 0.21615 0.21044
# Poissons Ratio (z) = 0.12671 0.45183
#
# Static dielectric constant tensor:
#      x y z
#    x 3.516160 0.000000 -0.388110 
#    y 0.000000 4.009260 0.000000 
#    z -0.388110 0.000000 3.724680 
# 
# 
# High freq. dielectric constant tensor:
#      x y z
#    x 1.788960 0.000000 -0.039780 
#    y 0.000000 1.831440 0.000000 
#    z -0.039780 0.000000 1.800220 
# 
# From -- ./inp_files/149670.got.cif
#   From: 2010.06.25/outbox.cif.g09.slc.cpg/sg12_75_cif.got.tgz:149670.got - 2010.06.28 00:19:55.
