data_PCOD8100007
_publ_section_title
;
Structure prediction by ZEFSAII (Michael W. Deem and Ramdas Pophale) SiO2 
 PCOD8100007
Probable space group: C 2/M
;
_chemical_formula_sum "Si O2"
_cell_formula_units_Z 48
_cell_length_a 8.571576
_cell_length_b 28.022569
_cell_length_c 18.104150
_cell_angle_alpha 90.000000
_cell_angle_beta 32.369375
_cell_angle_gamma 90.000000
_cell_volume 2328.119101
_symmetry_space_group_name_H-M "C 2/M"
_symmetry_group_IT_number 12
_symmetry_cell_setting 'monoclinic'
loop_
_space_group_symop_operation_xyz
x,y,z
-x,y,-z
-x,-y,-z
x,-y,z
1/2+x,1/2+y,z
1/2-x,1/2+y,-z
1/2-x,1/2-y,-z
1/2+x,1/2-y,z
loop_
_atom_site_type_symbol
_atom_site_label
_atom_site_fract_x
_atom_site_fract_y
_atom_site_fract_z
Si Si1 0.806375 0.551535 0.412181
Si Si2 0.907261 0.795568 0.725638
Si Si3 0.159813 0.552554 0.128299
Si Si4 0.159767 0.805081 0.785704
Si Si5 0.905161 0.362779 0.954633
Si Si6 0.267326 0.652131 0.527615
O O1 0.500000 0.540133 0.500000
O O2 0.913311 0.500000 0.404675
O O3 0.764749 0.596199 0.486133
O O4 0.024168 0.569471 0.260436
O O5 0.736948 0.745816 0.789630
O O6 0.658039 0.834042 0.813714
O O7 0.078704 0.798012 0.733227
O O8 0.147267 0.808704 0.567933
O O9 0.032245 0.500000 0.159798
O O10 0.095986 0.587287 0.086270
O O11 0.500000 0.549514 0.000000
O O12 0.446316 0.835903 0.683836
O O13 0.894969 0.832545 0.932550
O O14 0.000000 0.372905 0.000000
O O15 0.500000 0.655777 0.500000
#
# Coordination Sequence:
#
# PCOD8100007 Si02
#       6
#     8   8   8   8   8   8
#     4   9  18  33  55  83 111 141 181 227 272 322
#     4  11  23  39  57  81 110 146 189 232 280 332
#     4  10  20  35  57  85 114 146 187 230 273 328
#     4  11  23  39  57  80 112 146 187 233 278 332
#     4  10  22  38  57  82 113 148 185 230 281 332
#     4  11  21  36  59  84 111 146 184 228 280 331
#
# _framework density 20.617501000000001
#
# number of rings (size 3 to 8) (size 9 to 14) (size 15 to 20)
#    0.000    1.667    0.000    5.500    0.000    1.667 
#    0.000    0.000    0.000    4.000    0.000    0.000 
#    0.000    0.000    0.000    0.000    0.000    0.000 
#
# Total GULP energy -297339.638641 kJ/mol
# GULP energy per Si atom -12389.151610 kJ/mol
# Density = 2.057057 g / cm^3
# Si number density = 20.617501 Si / 1000 Ang^3
#
#
#
# Elastic Constant Matrix: (Units=GPa)
#
#
# Indices 1 2 3 4 5 6 
#
# 1 60.7933 37.0223 15.5560 0.0002 -18.5210 -0.0001
# 2 37.0223 135.3071 4.9466 0.0001 -8.2615 -0.0003
# 3 15.5560 4.9466 74.0039 0.0005 -19.7671 -0.0015
# 4 0.0002 0.0001 0.0005 9.1940 -0.0001 0.2444
# 5 -18.5210 -8.2615 -19.7671 -0.0001 22.4300 0.0003
# 6 -0.0001 -0.0003 -0.0015 0.2444 0.0003 78.0500
#
#
#
# Elastic Compliance Matrix: (Units=1/GPa)
#
#
# Indices 1 2 3 4 5 6 
#
# 1 0.025905 -0.005913 0.000107 0.000000 0.019306 0.000000
# 2 -0.005913 0.008916 0.000288 0.000000 -0.001345 0.000000
# 3 0.000107 0.000288 0.017686 -0.000001 0.015781 0.000000
# 4 0.000000 0.000000 -0.000001 0.108775 0.000000 -0.000341
# 5 0.019306 -0.001345 0.015781 0.000000 0.073937 0.000000
# 6 0.000000 0.000000 0.000000 -0.000341 0.000000 0.012813
#
#
# Mechanical properties :
#
#
# Convention : Reuss Voigt Hill
#
# Bulk Modulus (GPa) = 24.11392 42.79489 33.45441
# Shear Modulus (GPa) = 18.32225 36.10676 27.21451
#
# Velocity S-wave (km/s) = 2.98430 4.18936 3.63708
# Velocity P-wave (km/s) = 4.85757 6.64850 5.82231
#
# Compressibility (1/GPa) = 0.04146981
#
# Stress axis : x y z
#
# Youngs Moduli (GPa) = 38.60320 112.15974 56.54095
#
# Poissons Ratio (x) = 0.66320 -0.00604
# Poissons Ratio (y) = 0.22826 -0.01627
# Poissons Ratio (z) = -0.00412 -0.03227
#
# Static dielectric constant tensor:
#      x y z
#    x 3.414340 0.000000 -0.246570 
#    y 0.000000 4.415770 0.000000 
#    z -0.246570 0.000000 3.922720 
# 
# 
# High freq. dielectric constant tensor:
#      x y z
#    x 1.773510 0.000000 -0.021150 
#    y 0.000000 1.831600 0.000000 
#    z -0.021150 0.000000 1.822300 
# 
# From -- ./inp_files/123527.got.cif
#   From: 2010.06.25/outbox.cif.g09.slc.cpg/sg12_62_cif.got.tgz:123527.got - 2010.06.28 00:19:55.
