data_PCOD8100048
_publ_section_title
;
Structure prediction by ZEFSAII (Michael W. Deem and Ramdas Pophale) SiO2 
 PCOD8100048
Probable space group: C 2/M
;
_chemical_formula_sum "Si O2"
_cell_formula_units_Z 56
_cell_length_a 23.652493
_cell_length_b 8.996606
_cell_length_c 14.257102
_cell_angle_alpha 90.000000
_cell_angle_beta 97.912378
_cell_angle_gamma 90.000000
_cell_volume 3004.916997
_symmetry_space_group_name_H-M "C 2/M"
_symmetry_group_IT_number 12
_symmetry_cell_setting 'monoclinic'
loop_
_space_group_symop_operation_xyz
x,y,z
-x,y,-z
-x,-y,-z
x,-y,z
1/2+x,1/2+y,z
1/2-x,1/2+y,-z
1/2-x,1/2-y,-z
1/2+x,1/2-y,z
loop_
_atom_site_type_symbol
_atom_site_label
_atom_site_fract_x
_atom_site_fract_y
_atom_site_fract_z
Si Si1 0.372511 0.829034 0.172018
Si Si2 0.306579 0.827033 0.977445
Si Si3 0.955040 0.826559 0.320996
Si Si4 0.087738 0.174181 0.343139
Si Si5 0.280593 0.830378 0.304098
Si Si6 0.170009 0.324652 0.226726
Si Si7 0.382806 0.826611 0.461096
O O1 0.424179 0.725937 0.218471
O O2 0.315553 0.793608 0.217862
O O3 0.390498 0.000000 0.192579
O O4 0.359018 0.794275 0.060425
O O5 0.324849 0.769276 0.879431
O O6 0.292414 0.000000 0.970908
O O7 0.250000 0.750000 0.000000
O O8 0.931593 0.740307 0.405745
O O9 0.021148 0.788573 0.326372
O O10 0.943928 0.000000 0.334072
O O11 0.114737 0.244619 0.256223
O O12 0.117562 0.246657 0.439685
O O13 0.099656 0.000000 0.347997
O O14 0.226369 0.722583 0.297163
O O15 0.320533 0.799540 0.402648
O O16 0.258924 0.000000 0.298111
O O17 0.161888 0.500000 0.232738
O O18 0.395848 0.000000 0.476525
#
# Coordination Sequence:
#
# PCOD8100048 Si02
#       7
#     8   8   8   8   8   8   8
#     4   9  18  34  57  84 113 144 181 228 278 325
#     4  10  20  35  57  86 114 143 183 227 274 329
#     4  10  21  37  58  84 111 143 188 232 273 325
#     4  11  24  40  56  77 111 152 188 229 277 326
#     4   9  18  34  55  81 113 145 177 222 278 330
#     4  11  23  36  55  83 113 147 187 227 274 331
#     4  10  21  37  60  86 111 143 184 229 277 329
#
# _framework density 18.636122
#
# number of rings (size 3 to 8) (size 9 to 14) (size 15 to 20)
#    0.000    2.000    1.429    3.000    0.000    8.571 
#    0.000    0.714    0.000    4.286    0.000    0.000 
#    0.000    0.000    0.000    0.000    0.000    0.000 
#
# Total GULP energy -347303.917467 kJ/mol
# GULP energy per Si atom -12403.711338 kJ/mol
# Density = 1.859371 g / cm^3
# Si number density = 18.636122 Si / 1000 Ang^3
#
#
#
# Elastic Constant Matrix: (Units=GPa)
#
#
# Indices 1 2 3 4 5 6 
#
# 1 60.6716 30.9991 40.7327 0.0000 -10.3787 0.0000
# 2 30.9991 69.4172 35.9182 0.0000 -6.4155 0.0000
# 3 40.7327 35.9182 108.9499 0.0000 -12.5123 0.0000
# 4 0.0000 0.0000 0.0000 27.4165 0.0000 0.9197
# 5 -10.3787 -6.4155 -12.5123 0.0000 22.7975 0.0000
# 6 0.0000 0.0000 0.0000 0.9197 0.0000 34.0307
#
#
#
# Elastic Compliance Matrix: (Units=1/GPa)
#
#
# Indices 1 2 3 4 5 6 
#
# 1 0.025704 -0.007604 -0.006409 0.000000 0.006045 0.000000
# 2 -0.007604 0.019692 -0.003640 0.000000 0.000082 0.000000
# 3 -0.006409 -0.003640 0.013151 0.000000 0.003276 0.000000
# 4 0.000000 0.000000 0.000000 0.036507 0.000000 -0.000987
# 5 0.006045 0.000082 0.003276 0.000000 0.048437 0.000000
# 6 0.000000 0.000000 0.000000 -0.000987 0.000000 0.029412
#
#
# Mechanical properties :
#
#
# Convention : Reuss Voigt Hill
#
# Bulk Modulus (GPa) = 43.02549 50.48208 46.75378
# Shear Modulus (GPa) = 23.15295 25.60820 24.38058
#
# Velocity S-wave (km/s) = 3.52855 3.71093 3.62089
# Velocity P-wave (km/s) = 6.30382 6.74599 6.52865
#
# Compressibility (1/GPa) = 0.02324204
#
# Stress axis : x y z
#
# Youngs Moduli (GPa) = 38.90476 50.78179 76.04128
#
# Poissons Ratio (x) = 0.38612 0.48734
# Poissons Ratio (y) = 0.29582 0.27678
# Poissons Ratio (z) = 0.24934 0.18484
#
# Static dielectric constant tensor:
#      x y z
#    x 3.256980 0.000000 0.031730 
#    y 0.000000 3.452570 0.000000 
#    z 0.031730 0.000000 3.642710 
# 
# 
# High freq. dielectric constant tensor:
#      x y z
#    x 1.709830 0.000000 0.006160 
#    y 0.000000 1.730040 0.000000 
#    z 0.006160 0.000000 1.728950 
# 
# From -- ./inp_files/237896.got.cif
#   From: 2010.06.25/outbox.cif.g09.slc.cpg/sg12_119_cif.got.tgz:237896.got - 2010.06.28 00:19:55.
