data_PCOD8100040
_publ_section_title
;
Structure prediction by ZEFSAII (Michael W. Deem and Ramdas Pophale) SiO2 
 PCOD8100040
Probable space group: C 2/M
;
_chemical_formula_sum "Si O2"
_cell_formula_units_Z 64
_cell_length_a 15.366591
_cell_length_b 8.853904
_cell_length_c 33.194007
_cell_angle_alpha 90.000000
_cell_angle_beta 46.236261
_cell_angle_gamma 90.000000
_cell_volume 3261.582569
_symmetry_space_group_name_H-M "C 2/M"
_symmetry_group_IT_number 12
_symmetry_cell_setting 'monoclinic'
loop_
_space_group_symop_operation_xyz
x,y,z
-x,y,-z
-x,-y,-z
x,-y,z
1/2+x,1/2+y,z
1/2-x,1/2+y,-z
1/2-x,1/2-y,-z
1/2+x,1/2-y,z
loop_
_atom_site_type_symbol
_atom_site_label
_atom_site_fract_x
_atom_site_fract_y
_atom_site_fract_z
Si Si1 0.118396 0.822151 0.438331
Si Si2 0.080948 0.321381 0.365057
Si Si3 0.549513 0.824535 0.940334
Si Si4 0.309843 0.822049 0.442214
Si Si5 0.365092 0.322065 0.942421
Si Si6 0.728911 0.172734 0.162204
Si Si7 0.226090 0.821763 0.761505
Si Si8 0.971464 0.326953 0.833136
O O1 0.124779 0.744317 0.393221
O O2 0.236989 0.773491 0.425489
O O3 0.000000 0.765829 0.500000
O O4 0.112633 0.000000 0.433227
O O5 0.083099 0.500000 0.367898
O O6 0.171334 0.263607 0.301654
O O7 0.947548 0.265009 0.395286
O O8 0.483680 0.719172 0.929253
O O9 0.689126 0.780078 0.892167
O O10 0.529066 0.000000 0.936727
O O11 0.500000 0.784894 0.000000
O O12 0.250000 0.750000 0.500000
O O13 0.302536 0.000000 0.450161
O O14 0.346434 0.500000 0.946064
O O15 0.382700 0.257757 0.892276
O O16 0.250000 0.250000 0.000000
O O17 0.734268 0.228504 0.206529
O O18 0.591748 0.186142 0.190366
O O19 0.774259 0.000000 0.143898
O O20 0.101660 0.746480 0.788553
O O21 0.208791 0.000000 0.764432
O O22 0.985147 0.500000 0.842560
#
# Coordination Sequence:
#
# PCOD8100040 Si02
#       8
#     8   8   8   8   8   8   8   8
#     4  10  20  35  57  87 121 156 196 246 305 357
#     4  10  22  38  59  87 119 159 205 246 294 358
#     4  11  23  38  59  90 124 156 198 250 304 363
#     4  10  20  35  57  85 119 158 197 244 300 359
#     4  12  24  39  60  88 124 162 201 251 308 364
#     4  10  22  40  63  88 118 159 201 247 304 365
#     4  10  22  42  62  85 120 162 204 248 302 359
#     4  11  23  40  64  93 120 157 207 252 305 365
#
# _framework density 19.622375000000002
#
# number of rings (size 3 to 8) (size 9 to 14) (size 15 to 20)
#    0.000    1.500    2.500    2.625    0.000    6.250 
#    0.000    2.500    0.000    0.000    0.000    0.000 
#    0.000    0.000    0.000    0.000    0.000    0.000 
#
# Total GULP energy -396906.427130 kJ/mol
# GULP energy per Si atom -12403.325848 kJ/mol
# Density = 1.957771 g / cm^3
# Si number density = 19.622375 Si / 1000 Ang^3
#
#
#
# Elastic Constant Matrix: (Units=GPa)
#
#
# Indices 1 2 3 4 5 6 
#
# 1 152.0797 30.4695 77.3465 -0.0001 -3.5424 0.0004
# 2 30.4695 51.0254 46.7427 0.0006 -2.7996 0.0012
# 3 77.3465 46.7427 164.6584 0.0004 -4.9806 0.0007
# 4 -0.0001 0.0006 0.0004 26.7899 0.0000 -0.8168
# 5 -3.5424 -2.7996 -4.9806 0.0000 32.6249 0.0002
# 6 0.0004 0.0012 0.0007 -0.8168 0.0002 32.1589
#
#
#
# Elastic Compliance Matrix: (Units=1/GPa)
#
#
# Indices 1 2 3 4 5 6 
#
# 1 0.008787 -0.001972 -0.003560 0.000000 0.000241 0.000000
# 2 -0.001972 0.026970 -0.006697 -0.000001 0.001078 -0.000001
# 3 -0.003560 -0.006697 0.009662 0.000000 0.000514 0.000000
# 4 0.000000 -0.000001 0.000000 0.037356 0.000000 0.000949
# 5 0.000241 0.001078 0.000514 0.000000 0.030849 0.000000
# 6 0.000000 -0.000001 0.000000 0.000949 0.000000 0.031120
#
#
# Mechanical properties :
#
#
# Convention : Reuss Voigt Hill
#
# Bulk Modulus (GPa) = 47.71059 75.20898 61.45979
# Shear Modulus (GPa) = 28.37843 32.52841 30.45342
#
# Velocity S-wave (km/s) = 3.80706 4.07593 3.94378
# Velocity P-wave (km/s) = 6.61000 7.78218 7.21992
#
# Compressibility (1/GPa) = 0.02095971
#
# Stress axis : x y z
#
# Youngs Moduli (GPa) = 113.80337 37.07839 103.49469
#
# Poissons Ratio (x) = 0.07313 0.36849
# Poissons Ratio (y) = 0.22446 0.69311
# Poissons Ratio (z) = 0.40519 0.24832
#
# Static dielectric constant tensor:
#      x y z
#    x 3.884780 0.000000 -0.042930 
#    y 0.000000 3.515560 0.000000 
#    z -0.042930 0.000000 3.615590 
# 
# 
# High freq. dielectric constant tensor:
#      x y z
#    x 1.781180 0.000000 -0.000430 
#    y 0.000000 1.759820 0.000000 
#    z -0.000430 0.000000 1.761130 
# 
# From -- ./inp_files/375503.got.cif
#   From: 2010.06.25/outbox.cif.g09.slc.cpg/sg12_188_cif.got.tgz:375503.got - 2010.06.28 00:19:55.
