data_PCOD8100349
_publ_section_title
;
Structure prediction by ZEFSAII (Michael W. Deem and Ramdas Pophale) SiO2 
 PCOD8100349
Probable space group: C 2/M
;
_chemical_formula_sum "Si O2"
_cell_formula_units_Z 40
_cell_length_a 10.798428
_cell_length_b 19.017087
_cell_length_c 9.489296
_cell_angle_alpha 90.000000
_cell_angle_beta 105.281294
_cell_angle_gamma 90.000000
_cell_volume 1879.772855
_symmetry_space_group_name_H-M "C 2/M"
_symmetry_group_IT_number 12
_symmetry_cell_setting 'monoclinic'
loop_
_space_group_symop_operation_xyz
x,y,z
-x,y,-z
-x,-y,-z
x,-y,z
1/2+x,1/2+y,z
1/2-x,1/2+y,-z
1/2-x,1/2-y,-z
1/2+x,1/2-y,z
loop_
_atom_site_type_symbol
_atom_site_label
_atom_site_fract_x
_atom_site_fract_y
_atom_site_fract_z
Si Si1 0.150196 0.867543 0.208055
Si Si2 0.516473 0.500000 0.278357
Si Si3 0.922823 0.291604 0.779150
Si Si4 0.211309 0.000000 0.593835
Si Si5 0.139492 0.621578 0.487662
Si Si6 0.187910 0.675592 0.975649
O O1 0.080916 0.791938 0.193847
O O2 0.263357 0.868281 0.355899
O O3 0.213698 0.878573 0.071279
O O4 0.046716 0.929469 0.197930
O O5 0.607736 0.500000 0.439465
O O6 0.367113 0.500000 0.281656
O O7 0.873905 0.306332 0.606098
O O8 0.067408 0.318377 0.834700
O O9 0.846693 0.339900 0.871989
O O10 0.304008 0.933355 0.607976
O O11 0.000000 0.596177 0.500000
O O12 0.250000 0.750000 0.000000
#
# Coordination Sequence:
#
# PCOD8100349 Si02
#       6
#     8   4   8   4   8   8
#     4  10  20  37  60  86 116 152 192 238 285 347
#     4   9  20  38  57  81 116 159 195 228 289 350
#     4  10  20  35  58  88 117 148 190 239 292 339
#     4   9  21  38  55  83 120 159 182 237 298 345
#     4  11  20  36  59  90 116 146 195 239 289 340
#     4   9  19  36  56  80 117 153 183 231 293 338
#
# _framework density 21.279167999999999
#
# number of rings (size 3 to 8) (size 9 to 14) (size 15 to 20)
#    0.000    2.200    2.000    0.900    0.000    3.200 
#    7.200    1.000    0.000   13.200    0.000    0.000 
#    0.000    0.000    0.000    0.000    0.000    0.000 
#
# Total GULP energy -247766.756295 kJ/mol
# GULP energy per Si atom -12388.337815 kJ/mol
# Density = 2.123074 g / cm^3
# Si number density = 21.279168 Si / 1000 Ang^3
#
#
#
# Elastic Constant Matrix: (Units=GPa)
#
#
# Indices 1 2 3 4 5 6 
#
# 1 130.1858 44.1358 34.6788 0.0000 -45.9349 0.0000
# 2 44.1358 90.4278 26.4478 0.0000 -38.7876 0.0000
# 3 34.6788 26.4478 73.9840 0.0000 -22.3076 0.0000
# 4 0.0000 0.0000 0.0000 26.5153 0.0000 -14.3597
# 5 -45.9349 -38.7876 -22.3076 0.0000 33.6927 0.0000
# 6 0.0000 0.0000 0.0000 -14.3597 0.0000 25.2930
#
#
#
# Elastic Compliance Matrix: (Units=1/GPa)
#
#
# Indices 1 2 3 4 5 6 
#
# 1 0.015253 0.002933 -0.001137 0.000000 0.023419 0.000000
# 2 0.002933 0.022415 -0.000502 0.000000 0.029471 0.000000
# 3 -0.001137 -0.000502 0.016976 0.000000 0.009113 0.000000
# 4 0.000000 0.000000 0.000000 0.054458 0.000000 0.030918
# 5 0.023419 0.029471 0.009113 0.000000 0.101569 0.000000
# 6 0.000000 0.000000 0.000000 0.030918 0.000000 0.057090
#
#
# Mechanical properties :
#
#
# Convention : Reuss Voigt Hill
#
# Bulk Modulus (GPa) = 17.47231 56.12472 36.79851
# Shear Modulus (GPa) = 17.59021 29.72256 23.65638
#
# Velocity S-wave (km/s) = 2.87825 3.74142 3.33786
# Velocity P-wave (km/s) = 4.39029 6.71543 5.67325
#
# Compressibility (1/GPa) = 0.05723342
#
# Stress axis : x y z
#
# Youngs Moduli (GPa) = 65.56103 44.61333 58.90601
#
# Poissons Ratio (x) = -0.13085 0.06696
# Poissons Ratio (y) = -0.19230 0.02955
# Poissons Ratio (z) = 0.07453 0.02238
#
# Static dielectric constant tensor:
#      x y z
#    x 4.172450 0.000000 -0.629810 
#    y 0.000000 3.616440 0.000000 
#    z -0.629810 0.000000 4.263000 
# 
# 
# High freq. dielectric constant tensor:
#      x y z
#    x 1.850800 0.000000 -0.014040 
#    y 0.000000 1.803300 0.000000 
#    z -0.014040 0.000000 1.833300 
# 
# From -- ./inp_files/48821.got.cif
#   From: 2010.06.25/outbox.cif.g09.slc.cpg/sg12_25_cif.got.tgz:48821.got - 2010.06.28 00:19:55.
