data_PCOD8100848
_publ_section_title
;
Structure prediction by ZEFSAII (Michael W. Deem and Ramdas Pophale) SiO2 
 PCOD8100848
Probable space group: C 2/M
;
_chemical_formula_sum "Si O2"
_cell_formula_units_Z 56
_cell_length_a 18.972224
_cell_length_b 8.872827
_cell_length_c 18.860667
_cell_angle_alpha 90.000000
_cell_angle_beta 114.865266
_cell_angle_gamma 90.000000
_cell_volume 2880.631992
_symmetry_space_group_name_H-M "C 2/M"
_symmetry_group_IT_number 12
_symmetry_cell_setting 'monoclinic'
loop_
_space_group_symop_operation_xyz
x,y,z
-x,y,-z
-x,-y,-z
x,-y,z
1/2+x,1/2+y,z
1/2-x,1/2+y,-z
1/2-x,1/2-y,-z
1/2+x,1/2-y,z
loop_
_atom_site_type_symbol
_atom_site_label
_atom_site_fract_x
_atom_site_fract_y
_atom_site_fract_z
Si Si1 0.661624 0.321398 0.743996
Si Si2 0.062878 0.330820 0.814433
Si Si3 0.674733 0.321094 0.219871
Si Si4 0.604286 0.829762 0.322511
Si Si5 0.830601 0.829469 0.524562
Si Si6 0.527864 0.823089 0.089806
Si Si7 0.425753 0.671362 0.429890
O O1 0.672543 0.500000 0.741890
O O2 0.624825 0.280742 0.804799
O O3 0.744695 0.243046 0.775007
O O4 0.604339 0.257973 0.657161
O O5 0.097456 0.500000 0.828779
O O6 0.984046 0.324942 0.737318
O O7 0.042043 0.278626 0.885766
O O8 0.678248 0.500000 0.222486
O O9 0.659820 0.260853 0.292599
O O10 0.605961 0.268289 0.138679
O O11 0.605832 0.753676 0.400207
O O12 0.636236 0.000000 0.339724
O O13 0.750000 0.750000 0.500000
O O14 0.853301 0.819090 0.452188
O O15 0.824310 0.000000 0.547946
O O16 0.546974 0.000000 0.107050
O O17 0.500000 0.780687 0.000000
O O18 0.500000 0.752245 0.500000
O O19 0.451223 0.500000 0.424450
#
# Coordination Sequence:
#
# PCOD8100848 Si02
#       7
#     8   8   8   8   8   8   8
#     4  11  21  35  56  80 111 150 190 230 278 336
#     4   9  19  35  56  82 110 140 177 223 273 327
#     4  11  22  36  57  84 114 147 186 231 277 328
#     4  10  20  36  55  76 106 143 186 233 281 335
#     4  11  21  33  51  74 102 138 183 236 289 335
#     4   9  19  39  65  89 115 146 179 220 274 334
#     4   9  19  34  51  73 102 139 184 232 278 325
#
# _framework density 19.440178
#
# number of rings (size 3 to 8) (size 9 to 14) (size 15 to 20)
#    0.000    2.000    0.000    5.143    0.000    5.429 
#    0.000    2.857    0.000    5.143    0.000    0.000 
#    0.000    0.000    0.000    0.000    0.000    0.000 
#
# Total GULP energy -347176.287085 kJ/mol
# GULP energy per Si atom -12399.153110 kJ/mol
# Density = 1.939593 g / cm^3
# Si number density = 19.440178 Si / 1000 Ang^3
#
#
#
# Elastic Constant Matrix: (Units=GPa)
#
#
# Indices 1 2 3 4 5 6 
#
# 1 104.7552 46.4247 31.3866 0.0000 -9.5936 0.0000
# 2 46.4247 109.7556 37.2506 0.0000 -3.5489 0.0000
# 3 31.3866 37.2506 100.4448 0.0000 -15.9764 0.0000
# 4 0.0000 0.0000 0.0000 25.7773 0.0000 -2.0236
# 5 -9.5936 -3.5489 -15.9764 0.0000 21.7781 0.0000
# 6 0.0000 0.0000 0.0000 -2.0236 0.0000 30.5755
#
#
#
# Elastic Compliance Matrix: (Units=1/GPa)
#
#
# Indices 1 2 3 4 5 6 
#
# 1 0.012379 -0.004576 -0.001610 0.000000 0.003526 0.000000
# 2 -0.004576 0.012146 -0.003487 0.000000 -0.002595 0.000000
# 3 -0.001610 -0.003487 0.013075 0.000000 0.008314 0.000000
# 4 0.000000 0.000000 0.000000 0.038996 0.000000 0.002581
# 5 0.003526 -0.002595 0.008314 0.000000 0.053147 0.000000
# 6 0.000000 0.000000 0.000000 0.002581 0.000000 0.032877
#
#
# Mechanical properties :
#
#
# Convention : Reuss Voigt Hill
#
# Bulk Modulus (GPa) = 54.78507 60.56438 57.67473
# Shear Modulus (GPa) = 26.58838 28.95242 27.77040
#
# Velocity S-wave (km/s) = 3.70226 3.86334 3.78366
# Velocity P-wave (km/s) = 6.82042 7.14999 6.98715
#
# Compressibility (1/GPa) = 0.01825315
#
# Stress axis : x y z
#
# Youngs Moduli (GPa) = 80.77983 82.32960 76.48384
#
# Poissons Ratio (x) = 0.37671 0.12318
# Poissons Ratio (y) = 0.36962 0.26673
# Poissons Ratio (z) = 0.13009 0.28712
#
# Static dielectric constant tensor:
#      x y z
#    x 3.525390 0.000000 -0.143820 
#    y 0.000000 3.574480 0.000000 
#    z -0.143820 0.000000 3.742980 
# 
# 
# High freq. dielectric constant tensor:
#      x y z
#    x 1.759570 0.000000 -0.007320 
#    y 0.000000 1.745980 0.000000 
#    z -0.007320 0.000000 1.749780 
# 
# From -- ./inp_files/275649.got.cif
#   From: 2010.06.25/outbox.cif.g09.slc.cpg/sg12_138_cif.got.tgz:275649.got - 2010.06.28 00:19:55.
