data_PCOD8100584
_publ_section_title
;
Structure prediction by ZEFSAII (Michael W. Deem and Ramdas Pophale) SiO2 
 PCOD8100584
Probable space group: C 2/M
;
_chemical_formula_sum "Si O2"
_cell_formula_units_Z 52
_cell_length_a 20.901171
_cell_length_b 23.946737
_cell_length_c 9.261388
_cell_angle_alpha 90.000000
_cell_angle_beta 37.127194
_cell_angle_gamma 90.000000
_cell_volume 2797.902267
_symmetry_space_group_name_H-M "C 2/M"
_symmetry_group_IT_number 12
_symmetry_cell_setting 'monoclinic'
loop_
_space_group_symop_operation_xyz
x,y,z
-x,y,-z
-x,-y,-z
x,-y,z
1/2+x,1/2+y,z
1/2-x,1/2+y,-z
1/2-x,1/2-y,-z
1/2+x,1/2-y,z
loop_
_atom_site_type_symbol
_atom_site_label
_atom_site_fract_x
_atom_site_fract_y
_atom_site_fract_z
Si Si1 0.412387 0.500000 0.455628
Si Si2 0.000000 0.344851 0.500000
Si Si3 0.412755 0.618936 0.340054
Si Si4 0.179819 0.182580 0.236839
Si Si5 0.110790 0.742886 0.111338
Si Si6 0.870947 0.839858 0.114232
Si Si7 0.278903 0.109797 0.832625
Si Si8 0.841632 0.000000 0.908467
O O1 0.374322 0.555249 0.436711
O O2 0.351815 0.500000 0.717260
O O3 0.539742 0.500000 0.241978
O O4 0.033206 0.307595 0.299261
O O5 0.093641 0.385091 0.389327
O O6 0.397035 0.659198 0.503808
O O7 0.350988 0.650316 0.320253
O O8 0.538716 0.615105 0.088915
O O9 0.108315 0.216072 0.252896
O O10 0.270817 0.222103 0.136791
O O11 0.234747 0.129949 0.064439
O O12 0.082121 0.778247 0.017042
O O13 0.762372 0.850932 0.223673
O O14 0.231282 0.049035 0.897130
#
# Coordination Sequence:
#
# PCOD8100584 Si02
#       8
#     4   4   8   8   8   8   8   4
#     4  11  22  34  59  87 110 149 170 229 291 335
#     4  10  20  35  60  78 110 145 194 232 272 302
#     4  11  21  35  52  83 113 146 173 220 278 343
#     4   9  18  33  56  78 111 140 187 224 272 325
#     4   9  18  34  54  79 104 150 182 227 271 314
#     4  10  22  33  52  81 117 139 178 220 272 338
#     4  10  20  36  55  84 107 145 185 237 265 319
#     4  11  20  34  60  88 107 139 188 231 277 329
#
# _framework density 18.585352
#
# number of rings (size 3 to 8) (size 9 to 14) (size 15 to 20)
#    0.000    2.000    3.077    1.846    0.000    4.615 
#    0.000    1.538    0.000    2.769    0.000    1.077 
#    0.000    0.000    0.000    0.000    0.000    0.000 
#
# Total GULP energy -322128.296702 kJ/mol
# GULP energy per Si atom -12389.549873 kJ/mol
# Density = 1.854305 g / cm^3
# Si number density = 18.585352 Si / 1000 Ang^3
#
#
#
# Elastic Constant Matrix: (Units=GPa)
#
#
# Indices 1 2 3 4 5 6 
#
# 1 84.8439 21.5074 31.4238 -0.0001 -0.2833 0.0000
# 2 21.5074 85.0716 19.1589 0.0000 5.0044 0.0000
# 3 31.4238 19.1589 52.6923 -0.0001 -2.6556 0.0001
# 4 -0.0001 0.0000 -0.0001 21.0054 0.0001 -0.5504
# 5 -0.2833 5.0044 -2.6556 0.0001 29.1059 -0.0001
# 6 0.0000 0.0000 0.0001 -0.5504 -0.0001 24.7937
#
#
#
# Elastic Compliance Matrix: (Units=1/GPa)
#
#
# Indices 1 2 3 4 5 6 
#
# 1 0.015434 -0.001970 -0.008502 0.000000 -0.000287 0.000000
# 2 -0.001970 0.013260 -0.003779 0.000000 -0.002644 0.000000
# 3 -0.008502 -0.003779 0.025569 0.000000 0.002900 0.000000
# 4 0.000000 0.000000 0.000000 0.047634 0.000000 0.001057
# 5 -0.000287 -0.002644 0.002900 0.000000 0.035074 0.000000
# 6 0.000000 0.000000 0.000000 0.001057 0.000000 0.040356
#
#
# Mechanical properties :
#
#
# Convention : Reuss Voigt Hill
#
# Bulk Modulus (GPa) = 38.82223 40.75422 39.78823
# Shear Modulus (GPa) = 23.31908 25.01554 24.16731
#
# Velocity S-wave (km/s) = 3.54602 3.67274 3.60994
# Velocity P-wave (km/s) = 6.14000 6.32148 6.23140
#
# Compressibility (1/GPa) = 0.02575844
#
# Stress axis : x y z
#
# Youngs Moduli (GPa) = 64.79276 75.41705 39.11004
#
# Poissons Ratio (x) = 0.14859 0.33252
# Poissons Ratio (y) = 0.12766 0.14781
# Poissons Ratio (z) = 0.55088 0.28503
#
# Static dielectric constant tensor:
#      x y z
#    x 3.256240 0.000000 0.035340 
#    y 0.000000 3.489770 0.000000 
#    z 0.035340 0.000000 3.335940 
# 
# 
# High freq. dielectric constant tensor:
#      x y z
#    x 1.696340 0.000000 0.000490 
#    y 0.000000 1.720650 0.000000 
#    z 0.000490 0.000000 1.708510 
# 
# From -- ./inp_files/52685.got.cif
#   From: 2010.06.25/outbox.cif.g09.slc.cpg/sg12_27_cif.got.tgz:52685.got - 2010.06.28 00:19:55.
