data_PCOD8100222
_publ_section_title
;
Structure prediction by ZEFSAII (Michael W. Deem and Ramdas Pophale) SiO2 
 PCOD8100222
Probable space group: C 2/M
;
_chemical_formula_sum "Si O2"
_cell_formula_units_Z 48
_cell_length_a 15.038860
_cell_length_b 10.023480
_cell_length_c 30.438576
_cell_angle_alpha 90.000000
_cell_angle_beta 31.214447
_cell_angle_gamma 90.000000
_cell_volume 2377.885533
_symmetry_space_group_name_H-M "C 2/M"
_symmetry_group_IT_number 12
_symmetry_cell_setting 'monoclinic'
loop_
_space_group_symop_operation_xyz
x,y,z
-x,y,-z
-x,-y,-z
x,-y,z
1/2+x,1/2+y,z
1/2-x,1/2+y,-z
1/2-x,1/2-y,-z
1/2+x,1/2-y,z
loop_
_atom_site_type_symbol
_atom_site_label
_atom_site_fract_x
_atom_site_fract_y
_atom_site_fract_z
Si Si1 0.410582 0.350271 0.686661
Si Si2 0.134737 0.000000 0.754880
Si Si3 0.227927 0.652341 0.430511
Si Si4 0.264369 0.500000 0.877431
Si Si5 0.123988 0.719324 0.383508
Si Si6 0.870968 0.283182 0.130940
Si Si7 0.495338 0.500000 0.091071
Si Si8 0.863888 0.500000 0.969421
O O1 0.383236 0.500000 0.715012
O O2 0.602587 0.299588 0.616241
O O3 0.387373 0.347627 0.643511
O O4 0.276250 0.261568 0.770319
O O5 0.250740 0.873318 0.696968
O O6 0.074448 0.000000 0.830229
O O7 0.970273 0.000000 0.792024
O O8 0.243411 0.500000 0.406404
O O9 0.200114 0.748149 0.399767
O O10 0.066818 0.658889 0.531262
O O11 0.201685 0.364430 0.880096
O O12 0.182988 0.500000 0.959632
O O13 0.933213 0.133681 0.091664
O O14 0.026684 0.366601 0.087049
O O15 0.701997 0.500000 0.005502
#
# Coordination Sequence:
#
# PCOD8100222 Si02
#       8
#     8   4   8   4   8   8   4   4
#     4  11  22  36  59  84 119 159 199 241 301 358
#     4  11  19  35  60  86 108 155 196 239 286 348
#     4  10  20  35  58  85 112 159 202 246 291 357
#     4  10  22  39  65  85 116 156 199 231 292 365
#     4  11  19  35  59  86 117 146 208 249 285 338
#     4  11  20  38  61  89 117 150 194 242 291 351
#     4  11  23  36  61  91 120 144 190 250 297 338
#     4  10  22  41  63  86 116 159 195 230 290 372
#
# _framework density 20.186
#
# number of rings (size 3 to 8) (size 9 to 14) (size 15 to 20)
#    0.000    1.333    5.000    3.500    0.000    0.000 
#    0.000    3.333    9.167    4.000    0.000    0.000 
#    0.000    0.000    0.000    0.000    0.000    0.000 
#
# Total GULP energy -297504.127485 kJ/mol
# GULP energy per Si atom -12396.005312 kJ/mol
# Density = 2.014006 g / cm^3
# Si number density = 20.186000 Si / 1000 Ang^3
#
#
#
# Elastic Constant Matrix: (Units=GPa)
#
#
# Indices 1 2 3 4 5 6 
#
# 1 98.4422 37.0463 37.6156 -0.0002 -10.6330 0.0000
# 2 37.0463 99.8737 23.1517 -0.0011 -15.2338 0.0000
# 3 37.6156 23.1517 100.5215 0.0022 -29.1764 -0.0003
# 4 -0.0002 -0.0011 0.0022 -47.3242 -0.0012 21.6244
# 5 -10.6330 -15.2338 -29.1764 -0.0012 25.0212 0.0003
# 6 0.0000 0.0000 -0.0003 21.6244 0.0003 20.7845
#
#
#
# Elastic Compliance Matrix: (Units=1/GPa)
#
#
# Indices 1 2 3 4 5 6 
#
# 1 0.013274 -0.004200 -0.004693 0.000000 -0.002389 0.000000
# 2 -0.004200 0.012420 0.000586 0.000000 0.006461 0.000000
# 3 -0.004693 0.000586 0.016770 0.000000 0.017917 0.000000
# 4 0.000000 0.000000 0.000000 -0.014322 -0.000001 0.014901
# 5 -0.002389 0.006461 0.017917 -0.000001 0.063777 0.000000
# 6 0.000000 0.000000 0.000000 0.014901 0.000000 0.032610
#
#
# Mechanical properties :
#
#
# Convention : Reuss Voigt Hill
#
# Bulk Modulus (GPa) = 38.68483 54.94049 46.81266
# Shear Modulus (GPa) = 33.38683 13.09790 23.24236
#
# Velocity S-wave (km/s) = 4.07130 2.55004 3.39692
# Velocity P-wave (km/s) = 6.42701 5.99554 6.21502
#
# Compressibility (1/GPa) = 0.02584993
#
# Stress axis : x y z
#
# Youngs Moduli (GPa) = 75.33406 80.51414 59.63118
#
# Poissons Ratio (x) = 0.33818 0.27986
# Poissons Ratio (y) = 0.31642 -0.03497
# Poissons Ratio (z) = 0.35356 -0.04721
#
# Static dielectric constant tensor:
#      x y z
#    x 3.607510 0.000000 -0.237090 
#    y 0.000000 3.412700 0.000000 
#    z -0.237090 0.000000 3.885020 
# 
# 
# High freq. dielectric constant tensor:
#      x y z
#    x 1.779230 0.000000 -0.010260 
#    y 0.000000 1.755850 0.000000 
#    z -0.010260 0.000000 1.811800 
# 
# From -- ./inp_files/376064.got.cif
#   From: 2010.06.25/outbox.cif.g09.slc.cpg/sg12_189_cif.got.tgz:376064.got - 2010.06.28 00:19:55.
