data_PCOD8100712
_publ_section_title
;
Structure prediction by ZEFSAII (Michael W. Deem and Ramdas Pophale) SiO2 
 PCOD8100712
Probable space group: C 2/M
;
_chemical_formula_sum "Si O2"
_cell_formula_units_Z 48
_cell_length_a 9.352764
_cell_length_b 16.913342
_cell_length_c 15.373778
_cell_angle_alpha 90.000000
_cell_angle_beta 115.312793
_cell_angle_gamma 90.000000
_cell_volume 2198.428008
_symmetry_space_group_name_H-M "C 2/M"
_symmetry_group_IT_number 12
_symmetry_cell_setting 'monoclinic'
loop_
_space_group_symop_operation_xyz
x,y,z
-x,y,-z
-x,-y,-z
x,-y,z
1/2+x,1/2+y,z
1/2-x,1/2+y,-z
1/2-x,1/2-y,-z
1/2+x,1/2-y,z
loop_
_atom_site_type_symbol
_atom_site_label
_atom_site_fract_x
_atom_site_fract_y
_atom_site_fract_z
Si Si1 0.464009 0.819388 0.085198
Si Si2 0.315427 0.088254 0.302467
Si Si3 0.463694 0.585613 0.392368
Si Si4 0.380471 0.873616 0.712477
Si Si5 0.863717 0.841632 0.906944
Si Si6 0.310781 0.712976 0.606835
O O1 0.550535 0.878641 0.173222
O O2 0.279039 0.814920 0.065626
O O3 0.545645 0.733715 0.109130
O O4 0.500000 0.856866 0.000000
O O5 0.497680 0.087302 0.322178
O O6 0.200361 0.108200 0.191152
O O7 0.312438 0.152563 0.379961
O O8 0.271203 0.000000 0.323816
O O9 0.500000 0.606785 0.500000
O O10 0.538378 0.500000 0.385946
O O11 0.278076 0.576626 0.330788
O O12 0.531419 0.659618 0.357503
O O13 0.349532 0.782344 0.682305
O O14 0.000000 0.887218 0.000000
O O15 0.250000 0.750000 0.500000
#
# Coordination Sequence:
#
# PCOD8100712 Si02
#       6
#     8   8   8   8   8   8
#     4  10  20  35  61  98 125 160 214 266 310 371
#     4  11  25  43  64  97 133 168 211 265 326 382
#     4  11  24  42  63  91 126 164 206 259 321 378
#     4  11  23  41  69  92 128 169 213 263 317 375
#     4  10  20  36  61  92 130 167 207 261 317 378
#     4  12  24  43  65  93 124 167 219 267 312 378
#
# _framework density 21.833784000000001
#
# number of rings (size 3 to 8) (size 9 to 14) (size 15 to 20)
#    0.000    1.167    3.333    4.000    2.333    1.667 
#    0.000    0.833    0.000   12.500    0.000    0.000 
#    0.000    0.667    0.000    0.000    0.000    0.000 
#
# Total GULP energy -297382.279620 kJ/mol
# GULP energy per Si atom -12390.928317 kJ/mol
# Density = 2.178409 g / cm^3
# Si number density = 21.833784 Si / 1000 Ang^3
#
#
#
# Elastic Constant Matrix: (Units=GPa)
#
#
# Indices 1 2 3 4 5 6 
#
# 1 121.8621 25.0336 36.0987 0.0000 3.1109 0.0000
# 2 25.0336 98.9581 20.7170 0.0000 -16.5126 0.0000
# 3 36.0987 20.7170 86.0350 0.0000 -6.6793 0.0000
# 4 0.0000 0.0000 0.0000 21.7556 0.0000 11.1312
# 5 3.1109 -16.5126 -6.6793 0.0000 37.8528 0.0000
# 6 0.0000 0.0000 0.0000 11.1312 0.0000 11.1755
#
#
#
# Elastic Compliance Matrix: (Units=1/GPa)
#
#
# Indices 1 2 3 4 5 6 
#
# 1 0.009823 -0.002087 -0.003804 0.000000 -0.002389 0.000000
# 2 -0.002087 0.011805 -0.001575 0.000000 0.005043 0.000000
# 3 -0.003804 -0.001575 0.013758 0.000000 0.002053 0.000000
# 4 0.000000 0.000000 0.000000 0.093735 0.000000 -0.093364
# 5 -0.002389 0.005043 0.002053 0.000000 0.029177 0.000000
# 6 0.000000 0.000000 0.000000 -0.093364 0.000000 0.182476
#
#
# Mechanical properties :
#
#
# Convention : Reuss Voigt Hill
#
# Bulk Modulus (GPa) = 48.89499 52.28375 50.58937
# Shear Modulus (GPa) = 13.79222 29.15717 21.47470
#
# Velocity S-wave (km/s) = 2.51607 3.65830 3.13957
# Velocity P-wave (km/s) = 5.55731 6.46857 6.03018
#
# Compressibility (1/GPa) = 0.02045199
#
# Stress axis : x y z
#
# Youngs Moduli (GPa) = 101.80550 84.71307 72.68438
#
# Poissons Ratio (x) = 0.17680 0.27651
# Poissons Ratio (y) = 0.21247 0.11450
# Poissons Ratio (z) = 0.38730 0.13345
#
# Static dielectric constant tensor:
#      x y z
#    x 3.486660 0.000000 -0.284370 
#    y 0.000000 3.590910 0.000000 
#    z -0.284370 0.000000 4.058200 
# 
# 
# High freq. dielectric constant tensor:
#      x y z
#    x 1.868210 0.000000 0.001980 
#    y 0.000000 1.846590 0.000000 
#    z 0.001980 0.000000 1.861470 
# 
# From -- ./inp_files/256727.got.cif
#   From: 2010.06.25/outbox.cif.g09.slc.cpg/sg12_129_cif.got.tgz:256727.got - 2010.06.28 00:19:55.
