data_PCOD8100535
_publ_section_title
;
Structure prediction by ZEFSAII (Michael W. Deem and Ramdas Pophale) SiO2 
 PCOD8100535
Probable space group: C 2/M
;
_chemical_formula_sum "Si O2"
_cell_formula_units_Z 48
_cell_length_a 11.715146
_cell_length_b 14.950675
_cell_length_c 19.723417
_cell_angle_alpha 90.000000
_cell_angle_beta 41.680650
_cell_angle_gamma 90.000000
_cell_volume 2297.195970
_symmetry_space_group_name_H-M "C 2/M"
_symmetry_group_IT_number 12
_symmetry_cell_setting 'monoclinic'
loop_
_space_group_symop_operation_xyz
x,y,z
-x,y,-z
-x,-y,-z
x,-y,z
1/2+x,1/2+y,z
1/2-x,1/2+y,-z
1/2-x,1/2-y,-z
1/2+x,1/2-y,z
loop_
_atom_site_type_symbol
_atom_site_label
_atom_site_fract_x
_atom_site_fract_y
_atom_site_fract_z
Si Si1 0.900771 0.653164 0.852846
Si Si2 0.907882 0.097869 0.927474
Si Si3 0.727844 0.395964 0.286323
Si Si4 0.969291 0.158217 0.760439
Si Si5 0.714644 0.099606 0.232293
Si Si6 0.656920 0.214916 0.382070
O O1 0.898987 0.749237 0.819616
O O2 0.880118 0.588246 0.797430
O O3 0.071299 0.623067 0.817700
O O4 0.746259 0.656729 0.975122
O O5 0.914218 0.088780 0.843091
O O6 0.092953 0.137587 0.867808
O O7 0.880707 0.000000 0.971171
O O8 0.698898 0.500000 0.321850
O O9 0.615040 0.375857 0.270668
O O10 0.673320 0.323273 0.367886
O O11 0.174842 0.168722 0.659825
O O12 0.620892 0.169253 0.324575
O O13 0.723209 0.000000 0.261560
O O14 0.500000 0.191723 0.500000
#
# Coordination Sequence:
#
# PCOD8100535 Si02
#       6
#     8   8   8   8   8   8
#     4  11  21  38  60  89 125 166 201 242 299 364
#     4  10  20  35  59  89 121 162 204 246 294 353
#     4  11  23  41  63  90 127 162 198 251 306 363
#     4  10  22  40  60  87 125 159 201 250 300 357
#     4  10  20  38  62  90 123 158 205 258 299 351
#     4  10  23  43  67  89 117 158 207 255 309 363
#
# _framework density 20.895039000000001
#
# number of rings (size 3 to 8) (size 9 to 14) (size 15 to 20)
#    0.000    1.667    1.667    3.000    0.000    4.000 
#    3.000    1.667    0.000    0.000    0.000    0.000 
#    0.000    0.000    0.000    0.000    0.000    0.000 
#
# Total GULP energy -297413.821636 kJ/mol
# GULP energy per Si atom -12392.242568 kJ/mol
# Density = 2.084748 g / cm^3
# Si number density = 20.895039 Si / 1000 Ang^3
#
#
#
# Elastic Constant Matrix: (Units=GPa)
#
#
# Indices 1 2 3 4 5 6 
#
# 1 120.8179 12.7919 43.4187 0.0000 -4.1977 0.0001
# 2 12.7919 95.8168 35.9337 0.0002 -2.3096 0.0000
# 3 43.4187 35.9337 161.8043 0.0009 -13.8009 -0.0002
# 4 0.0000 0.0002 0.0009 15.9812 -0.0001 1.6668
# 5 -4.1977 -2.3096 -13.8009 -0.0001 12.2145 -0.0001
# 6 0.0001 0.0000 -0.0002 1.6668 -0.0001 27.1073
#
#
#
# Elastic Compliance Matrix: (Units=1/GPa)
#
#
# Indices 1 2 3 4 5 6 
#
# 1 0.009172 -0.000333 -0.002350 0.000000 0.000434 0.000000
# 2 -0.000333 0.011404 -0.002511 0.000000 -0.000795 0.000000
# 3 -0.002350 -0.002511 0.008033 0.000000 0.007794 0.000000
# 4 0.000000 0.000000 0.000000 0.062978 0.000000 -0.003872
# 5 0.000434 -0.000795 0.007794 0.000000 0.090675 0.000000
# 6 0.000000 0.000000 0.000000 -0.003872 0.000000 0.037129
#
#
# Mechanical properties :
#
#
# Convention : Reuss Voigt Hill
#
# Bulk Modulus (GPa) = 54.88231 62.52527 58.70379
# Shear Modulus (GPa) = 21.19974 30.14690 25.67332
#
# Velocity S-wave (km/s) = 3.18871 3.80251 3.50906
# Velocity P-wave (km/s) = 6.31505 7.01906 6.67634
#
# Compressibility (1/GPa) = 0.01822081
#
# Stress axis : x y z
#
# Youngs Moduli (GPa) = 109.02930 87.69207 124.47915
#
# Poissons Ratio (x) = 0.02917 0.29257
# Poissons Ratio (y) = 0.03626 0.31258
# Poissons Ratio (z) = 0.25626 0.22020
#
# Static dielectric constant tensor:
#      x y z
#    x 3.975210 0.000000 -0.029820 
#    y 0.000000 4.001740 0.000000 
#    z -0.029820 0.000000 3.517950 
# 
# 
# High freq. dielectric constant tensor:
#      x y z
#    x 1.818020 0.000000 -0.008510 
#    y 0.000000 1.831720 0.000000 
#    z -0.008510 0.000000 1.792720 
# 
# From -- ./inp_files/131781.got.cif
#   From: 2010.06.25/outbox.cif.g09.slc.cpg/sg12_66_cif.got.tgz:131781.got - 2010.06.28 00:19:55.
