data_PCOD8100282
_publ_section_title
;
Structure prediction by ZEFSAII (Michael W. Deem and Ramdas Pophale) SiO2 
 PCOD8100282
Probable space group: C 2/M
;
_chemical_formula_sum "Si O2"
_cell_formula_units_Z 64
_cell_length_a 30.486451
_cell_length_b 14.906296
_cell_length_c 11.893776
_cell_angle_alpha 90.000000
_cell_angle_beta 143.248430
_cell_angle_gamma 90.000000
_cell_volume 3234.068108
_symmetry_space_group_name_H-M "C 2/M"
_symmetry_group_IT_number 12
_symmetry_cell_setting 'monoclinic'
loop_
_space_group_symop_operation_xyz
x,y,z
-x,y,-z
-x,-y,-z
x,-y,z
1/2+x,1/2+y,z
1/2-x,1/2+y,-z
1/2-x,1/2-y,-z
1/2+x,1/2-y,z
loop_
_atom_site_type_symbol
_atom_site_label
_atom_site_fract_x
_atom_site_fract_y
_atom_site_fract_z
Si Si1 0.792682 0.188932 0.927970
Si Si2 0.658373 0.724240 0.740583
Si Si3 0.470684 0.291890 0.059257
Si Si4 0.246086 0.103124 0.601601
Si Si5 0.900529 0.105394 0.561481
Si Si6 0.415498 0.099996 0.308100
Si Si7 0.821638 0.101885 0.766544
Si Si8 0.114860 0.330039 0.982240
O O1 0.721882 0.253274 0.780774
O O2 0.785196 0.112446 0.816502
O O3 0.807356 0.161702 0.088745
O O4 0.866491 0.241725 0.050603
O O5 0.600886 0.661257 0.558272
O O6 0.628816 0.821669 0.719717
O O7 0.526570 0.362418 0.227276
O O8 0.459263 0.197302 0.102558
O O9 0.500000 0.261461 0.000000
O O10 0.391908 0.337827 0.889165
O O11 0.170712 0.127262 0.510349
O O12 0.237628 0.127132 0.451788
O O13 0.264746 0.000000 0.657564
O O14 0.316576 0.154370 0.793981
O O15 0.907086 0.000000 0.548504
O O16 0.500000 0.121545 0.500000
O O17 0.400022 0.094038 0.141418
O O18 0.394999 0.000000 0.313044
O O19 0.846757 0.000000 0.801926
#
# Coordination Sequence:
#
# PCOD8100282 Si02
#       8
#     8   8   8   8   8   8   8   8
#     4   9  20  35  55  82 114 150 194 242 300 354
#     4  10  20  38  57  85 120 150 199 256 297 363
#     4  11  22  36  57  85 119 163 205 247 301 369
#     4  10  20  35  58  86 116 154 201 253 304 359
#     4  11  22  36  59  90 124 161 202 248 304 367
#     4  10  21  38  61  84 113 158 203 249 304 364
#     4  10  21  36  55  81 120 158 197 250 302 362
#     4  10  20  37  58  85 117 152 199 254 301 360
#
# _framework density 19.789318000000002
#
# number of rings (size 3 to 8) (size 9 to 14) (size 15 to 20)
#    0.000    1.875    2.500    1.500    0.000    4.500 
#    0.000    0.000    0.000   10.875    0.000    0.000 
#    0.000    0.000    0.000    0.000    0.000    0.000 
#
# Total GULP energy -396444.479294 kJ/mol
# GULP energy per Si atom -12388.889978 kJ/mol
# Density = 1.974428 g / cm^3
# Si number density = 19.789318 Si / 1000 Ang^3
#
#
#
# Elastic Constant Matrix: (Units=GPa)
#
#
# Indices 1 2 3 4 5 6 
#
# 1 101.0449 38.5938 34.2838 0.0000 -8.3835 0.0000
# 2 38.5938 71.2260 26.7731 0.0000 -8.5693 0.0000
# 3 34.2838 26.7731 95.8372 0.0000 -8.2119 0.0000
# 4 0.0000 0.0000 0.0000 19.6315 0.0000 -7.1072
# 5 -8.3835 -8.5693 -8.2119 0.0000 26.8448 0.0000
# 6 0.0000 0.0000 0.0000 -7.1072 0.0000 27.2065
#
#
#
# Elastic Compliance Matrix: (Units=1/GPa)
#
#
# Indices 1 2 3 4 5 6 
#
# 1 0.013278 -0.005911 -0.002983 0.000000 0.001347 0.000000
# 2 -0.005911 0.018699 -0.002830 0.000000 0.003257 0.000000
# 3 -0.002983 -0.002830 0.012461 0.000000 0.001977 0.000000
# 4 0.000000 0.000000 0.000000 0.056259 0.000000 0.014697
# 5 0.001347 0.003257 0.001977 0.000000 0.039316 0.000000
# 6 0.000000 0.000000 0.000000 0.014697 0.000000 0.040595
#
#
# Mechanical properties :
#
#
# Convention : Reuss Voigt Hill
#
# Bulk Modulus (GPa) = 47.64308 51.93438 49.78873
# Shear Modulus (GPa) = 23.69055 25.96706 24.82880
#
# Velocity S-wave (km/s) = 3.46372 3.62633 3.54596
# Velocity P-wave (km/s) = 6.33434 6.62075 6.47913
#
# Compressibility (1/GPa) = 0.02098941
#
# Stress axis : x y z
#
# Youngs Moduli (GPa) = 75.31018 53.48013 80.24718
#
# Poissons Ratio (x) = 0.31615 0.23939
# Poissons Ratio (y) = 0.44519 0.22709
# Poissons Ratio (z) = 0.22467 0.15134
#
# Static dielectric constant tensor:
#      x y z
#    x 3.866690 0.000000 -0.225290 
#    y 0.000000 3.505010 0.000000 
#    z -0.225290 0.000000 3.685020 
# 
# 
# High freq. dielectric constant tensor:
#      x y z
#    x 1.765980 0.000000 -0.012830 
#    y 0.000000 1.755600 0.000000 
#    z -0.012830 0.000000 1.780850 
# 
# From -- ./inp_files/189463.got.cif
#   From: 2010.06.25/outbox.cif.g09.slc.cpg/sg12_95_cif.got.tgz:189463.got - 2010.06.28 00:19:55.
