data_PCOD8100939
_publ_section_title
;
Structure prediction by ZEFSAII (Michael W. Deem and Ramdas Pophale) SiO2 
 PCOD8100939
Probable space group: C 2/M
;
_chemical_formula_sum "Si O2"
_cell_formula_units_Z 40
_cell_length_a 24.184288
_cell_length_b 9.534918
_cell_length_c 16.918170
_cell_angle_alpha 90.000000
_cell_angle_beta 146.714937
_cell_angle_gamma 90.000000
_cell_volume 2141.024500
_symmetry_space_group_name_H-M "C 2/M"
_symmetry_group_IT_number 12
_symmetry_cell_setting 'monoclinic'
loop_
_space_group_symop_operation_xyz
x,y,z
-x,y,-z
-x,-y,-z
x,-y,z
1/2+x,1/2+y,z
1/2-x,1/2+y,-z
1/2-x,1/2-y,-z
1/2+x,1/2-y,z
loop_
_atom_site_type_symbol
_atom_site_label
_atom_site_fract_x
_atom_site_fract_y
_atom_site_fract_z
Si Si1 0.838300 0.840420 0.139151
Si Si2 0.468686 0.664244 0.730961
Si Si3 0.390397 0.663019 0.376281
Si Si4 0.285706 0.333976 0.405009
Si Si5 0.441653 0.834326 0.849861
O O1 0.832673 0.815044 0.225801
O O2 0.946895 0.798786 0.233457
O O3 0.815075 0.000000 0.089821
O O4 0.750000 0.750000 0.000000
O O5 0.469347 0.500000 0.753015
O O6 0.360350 0.710025 0.565388
O O7 0.493198 0.753301 0.838629
O O8 0.500000 0.735175 0.500000
O O9 0.406575 0.500000 0.416309
O O10 0.326800 0.731437 0.371708
O O11 0.280519 0.500000 0.391419
O O12 0.173018 0.277245 0.283362
O O13 0.447796 0.000000 0.840919
O O14 0.500000 0.795499 0.000000
#
# Coordination Sequence:
#
# PCOD8100939 Si02
#       5
#     8   8   8   8   8
#     4  10  21  34  54  82 109 139 174 215 264 314
#     4  10  20  36  56  78 105 140 180 217 258 313
#     4   9  15  29  54  80 102 132 177 219 253 302
#     4   9  17  32  54  78 105 137 178 219 253 306
#     4  10  22  36  53  80 108 137 176 221 266 310
#
# _framework density 18.682645000000001
#
# number of rings (size 3 to 8) (size 9 to 14) (size 15 to 20)
#    0.000    2.400    2.000    0.600    2.800    1.200 
#    0.000    0.000    0.000    1.800    0.000    0.000 
#    0.000    0.000    0.000    0.000    0.000    0.000 
#
# Total GULP energy -247955.113109 kJ/mol
# GULP energy per Si atom -12397.755655 kJ/mol
# Density = 1.864012 g / cm^3
# Si number density = 18.682645 Si / 1000 Ang^3
#
#
#
# Elastic Constant Matrix: (Units=GPa)
#
#
# Indices 1 2 3 4 5 6 
#
# 1 92.9079 30.0906 26.9361 0.0000 -18.3402 0.0000
# 2 30.0906 32.9074 34.0974 0.0000 -6.0544 0.0000
# 3 26.9361 34.0974 103.3848 0.0000 2.3410 0.0000
# 4 0.0000 0.0000 0.0000 24.3542 0.0000 -1.4224
# 5 -18.3402 -6.0544 2.3410 0.0000 28.7185 0.0000
# 6 0.0000 0.0000 0.0000 -1.4224 0.0000 24.2578
#
#
#
# Elastic Compliance Matrix: (Units=1/GPa)
#
#
# Indices 1 2 3 4 5 6 
#
# 1 0.016820 -0.014014 0.000064 0.000000 0.007782 0.000000
# 2 -0.014014 0.061587 -0.016783 0.000000 0.005402 0.000000
# 3 0.000064 -0.016783 0.015299 0.000000 -0.004745 0.000000
# 4 0.000000 0.000000 0.000000 0.041202 0.000000 0.002416
# 5 0.007782 0.005402 -0.004745 0.000000 0.041316 0.000000
# 6 0.000000 0.000000 0.000000 0.002416 0.000000 0.041365
#
#
# Mechanical properties :
#
#
# Convention : Reuss Voigt Hill
#
# Bulk Modulus (GPa) = 31.01937 45.71649 38.36793
# Shear Modulus (GPa) = 17.25316 24.67119 20.96217
#
# Velocity S-wave (km/s) = 3.04219 3.63787 3.35328
# Velocity P-wave (km/s) = 5.38324 6.49373 5.96439
#
# Compressibility (1/GPa) = 0.03223792
#
# Stress axis : x y z
#
# Youngs Moduli (GPa) = 59.45305 16.23727 65.36513
#
# Poissons Ratio (x) = 0.22755 -0.00415
# Poissons Ratio (y) = 0.83319 1.09702
# Poissons Ratio (z) = -0.00378 0.27251
#
# Static dielectric constant tensor:
#      x y z
#    x 5.897970 0.000000 -0.458560 
#    y 0.000000 2.926900 0.000000 
#    z -0.458560 0.000000 3.698100 
# 
# 
# High freq. dielectric constant tensor:
#      x y z
#    x 1.741170 0.000000 -0.000850 
#    y 0.000000 1.669720 0.000000 
#    z -0.000850 0.000000 1.733890 
# 
# From -- ./inp_files/153297.got.cif
#   From: 2010.06.25/outbox.cif.g09.slc.cpg/sg12_77_cif.got.tgz:153297.got - 2010.06.28 00:19:55.
