data_PCOD8100885
_publ_section_title
;
Structure prediction by ZEFSAII (Michael W. Deem and Ramdas Pophale) SiO2 
 PCOD8100885
Probable space group: C 2/M
;
_chemical_formula_sum "Si O2"
_cell_formula_units_Z 64
_cell_length_a 27.743803
_cell_length_b 16.924640
_cell_length_c 17.174010
_cell_angle_alpha 90.000000
_cell_angle_beta 22.147308
_cell_angle_gamma 90.000000
_cell_volume 3040.086884
_symmetry_space_group_name_H-M "C 2/M"
_symmetry_group_IT_number 12
_symmetry_cell_setting 'monoclinic'
loop_
_space_group_symop_operation_xyz
x,y,z
-x,y,-z
-x,-y,-z
x,-y,z
1/2+x,1/2+y,z
1/2-x,1/2+y,-z
1/2-x,1/2-y,-z
1/2+x,1/2-y,z
loop_
_atom_site_type_symbol
_atom_site_label
_atom_site_fract_x
_atom_site_fract_y
_atom_site_fract_z
Si Si1 0.124039 0.906537 0.091313
Si Si2 0.880965 0.592339 0.622948
Si Si3 0.380015 0.406140 0.727965
Si Si4 0.372444 0.339679 0.217915
Si Si5 0.606378 0.147756 0.566136
Si Si6 0.612898 0.677860 0.623184
Si Si7 0.140311 0.409909 0.987029
Si Si8 0.131797 0.331948 0.836292
O O1 0.116634 0.871064 0.189709
O O2 0.004005 0.879047 0.220627
O O3 0.122205 0.000000 0.097769
O O4 0.253921 0.877438 0.856455
O O5 0.872417 0.500000 0.613626
O O6 0.899065 0.643749 0.518595
O O7 0.000000 0.609565 0.500000
O O8 0.500000 0.371864 0.500000
O O9 0.387721 0.500000 0.720134
O O10 0.248876 0.379184 0.883566
O O11 0.242503 0.387243 0.393595
O O12 0.375667 0.311510 0.301796
O O13 0.372468 0.262564 0.162592
O O14 0.500000 0.388381 0.000000
O O15 0.589270 0.237698 0.619183
O O16 0.495658 0.093956 0.767212
O O17 0.743890 0.637071 0.396632
O O18 0.166618 0.500000 0.921919
O O19 0.145444 0.353706 0.905459
O O20 0.000000 0.369704 0.000000
#
# Coordination Sequence:
#
# PCOD8100885 Si02
#       8
#     8   8   8   8   8   8   8   8
#     4  10  21  39  62  87 115 149 191 237 286 340
#     4  10  21  39  61  83 113 155 198 238 281 332
#     4   9  18  35  58  83 114 152 189 228 281 341
#     4  10  20  38  61  82 111 151 192 233 283 340
#     4  11  21  37  59  85 115 151 194 235 284 340
#     4  11  22  38  61  87 115 150 189 236 288 340
#     4  11  22  36  58  87 118 151 189 235 284 339
#     4  10  20  36  55  80 112 150 190 227 275 336
#
# _framework density 21.052029000000001
#
# number of rings (size 3 to 8) (size 9 to 14) (size 15 to 20)
#    0.000    1.750    0.000    6.375    0.000    4.750 
#    0.000    8.125    0.000    3.375    0.000    0.000 
#    0.000    0.000    0.000    0.000    0.000    0.000 
#
# Total GULP energy -396828.519074 kJ/mol
# GULP energy per Si atom -12400.891221 kJ/mol
# Density = 2.100411 g / cm^3
# Si number density = 21.052029 Si / 1000 Ang^3
#
#
#
# Elastic Constant Matrix: (Units=GPa)
#
#
# Indices 1 2 3 4 5 6 
#
# 1 140.3142 32.4444 58.2268 0.0002 4.9913 -0.0001
# 2 32.4444 20.5206 19.5381 0.0007 5.0042 -0.0006
# 3 58.2268 19.5381 177.8112 0.0005 -12.9829 -0.0004
# 4 0.0002 0.0007 0.0005 18.8443 -0.0001 -2.5493
# 5 4.9913 5.0042 -12.9829 -0.0001 49.8182 0.0000
# 6 -0.0001 -0.0006 -0.0004 -2.5493 0.0000 23.3272
#
#
#
# Elastic Compliance Matrix: (Units=1/GPa)
#
#
# Indices 1 2 3 4 5 6 
#
# 1 0.011859 -0.016800 -0.002040 0.000000 -0.000032 0.000000
# 2 -0.016800 0.080852 -0.003928 -0.000002 -0.007462 0.000002
# 3 -0.002040 -0.003928 0.006898 0.000000 0.002397 0.000000
# 4 0.000000 -0.000002 0.000000 0.053863 0.000000 0.005886
# 5 -0.000032 -0.007462 0.002397 0.000000 0.021450 0.000000
# 6 0.000000 0.000002 0.000000 0.005886 0.000000 0.043512
#
#
# Mechanical properties :
#
#
# Convention : Reuss Voigt Hill
#
# Bulk Modulus (GPa) = 18.49274 62.11831 40.30553
# Shear Modulus (GPa) = 17.73084 33.62705 25.67894
#
# Velocity S-wave (km/s) = 2.90528 4.00100 3.49633
# Velocity P-wave (km/s) = 4.47857 7.13548 5.95704
#
# Compressibility (1/GPa) = 0.05407527
#
# Stress axis : x y z
#
# Youngs Moduli (GPa) = 84.32372 12.36821 144.95993
#
# Poissons Ratio (x) = 0.20779 0.29568
# Poissons Ratio (y) = 1.41664 0.56935
# Poissons Ratio (z) = 0.17200 0.04858
#
# Static dielectric constant tensor:
#      x y z
#    x 3.950190 0.000000 -0.183440 
#    y 0.000000 3.263000 0.000000 
#    z -0.183440 0.000000 4.469480 
# 
# 
# High freq. dielectric constant tensor:
#      x y z
#    x 1.838940 0.000000 -0.003720 
#    y 0.000000 1.775180 0.000000 
#    z -0.003720 0.000000 1.855150 
# 
# From -- ./inp_files/241459.got.cif
#   From: 2010.06.25/outbox.cif.g09.slc.cpg/sg12_121_cif.got.tgz:241459.got - 2010.06.28 00:19:55.
