data_PCOD8100651
_publ_section_title
;
Structure prediction by ZEFSAII (Michael W. Deem and Ramdas Pophale) SiO2 
 PCOD8100651
Probable space group: C 2/M
;
_chemical_formula_sum "Si O2"
_cell_formula_units_Z 56
_cell_length_a 23.315058
_cell_length_b 14.573582
_cell_length_c 9.765094
_cell_angle_alpha 90.000000
_cell_angle_beta 54.934990
_cell_angle_gamma 90.000000
_cell_volume 2715.803230
_symmetry_space_group_name_H-M "C 2/M"
_symmetry_group_IT_number 12
_symmetry_cell_setting 'monoclinic'
loop_
_space_group_symop_operation_xyz
x,y,z
-x,y,-z
-x,-y,-z
x,-y,z
1/2+x,1/2+y,z
1/2-x,1/2+y,-z
1/2-x,1/2-y,-z
1/2+x,1/2-y,z
loop_
_atom_site_type_symbol
_atom_site_label
_atom_site_fract_x
_atom_site_fract_y
_atom_site_fract_z
Si Si1 0.782492 0.394140 0.282296
Si Si2 0.822572 0.728776 0.973867
Si Si3 0.181364 0.898568 0.859696
Si Si4 0.673629 0.891901 0.475410
Si Si5 0.380503 0.606355 0.531661
Si Si6 0.918361 0.715058 0.602337
Si Si7 0.058138 0.102525 0.827516
O O1 0.800191 0.500000 0.231520
O O2 0.816387 0.361590 0.380000
O O3 0.699520 0.378673 0.402252
O O4 0.815809 0.337694 0.112816
O O5 0.878143 0.681442 0.794607
O O6 0.750000 0.750000 0.000000
O O7 0.850162 0.827788 0.987593
O O8 0.257675 0.865857 0.705854
O O9 0.133750 0.900254 0.791791
O O10 0.184748 0.000000 0.922592
O O11 0.610018 0.836013 0.494574
O O12 0.658428 0.000000 0.487500
O O13 0.394050 0.500000 0.553850
O O14 0.402115 0.675282 0.622808
O O15 0.430371 0.642422 0.339372
O O16 0.000000 0.692654 0.500000
O O17 0.028733 0.000000 0.845961
O O18 0.000000 0.156584 0.000000
#
# Coordination Sequence:
#
# PCOD8100651 Si02
#       7
#     8   8   8   8   8   8   8
#     4  10  21  40  69  98 120 151 209 273 319 365
#     4  12  24  40  60  95 126 162 206 254 312 374
#     4  10  20  35  60  91 124 159 205 251 298 367
#     4  10  21  42  69  92 117 162 216 267 317 363
#     4  10  20  37  62  92 128 164 201 249 309 377
#     4  12  28  44  58  90 131 172 212 255 316 378
#     4   9  18  32  53  88 127 164 200 240 298 367
#
# _framework density 20.620051
#
# number of rings (size 3 to 8) (size 9 to 14) (size 15 to 20)
#    0.000    1.571    4.286    0.000    4.000    3.429 
#    0.000    0.714    0.000    1.714    0.000    0.000 
#    0.000    0.000    0.000    0.000    0.000    0.000 
#
# Total GULP energy -347081.597653 kJ/mol
# GULP energy per Si atom -12395.771345 kJ/mol
# Density = 2.057312 g / cm^3
# Si number density = 20.620051 Si / 1000 Ang^3
#
#
#
# Elastic Constant Matrix: (Units=GPa)
#
#
# Indices 1 2 3 4 5 6 
#
# 1 96.0276 27.2703 42.3074 0.0000 -8.0432 0.0000
# 2 27.2703 65.9655 40.5880 0.0000 5.5297 0.0000
# 3 42.3074 40.5880 126.4532 0.0000 0.7129 0.0000
# 4 0.0000 0.0000 0.0000 24.4056 0.0000 7.6295
# 5 -8.0432 5.5297 0.7129 0.0000 31.2041 0.0000
# 6 0.0000 0.0000 0.0000 7.6295 0.0000 21.0008
#
#
#
# Elastic Compliance Matrix: (Units=1/GPa)
#
#
# Indices 1 2 3 4 5 6 
#
# 1 0.013281 -0.003853 -0.003230 0.000000 0.004180 0.000000
# 2 -0.003853 0.020335 -0.005213 0.000000 -0.004478 0.000000
# 3 -0.003230 -0.005213 0.010663 0.000000 -0.000153 0.000000
# 4 0.000000 0.000000 0.000000 0.046224 0.000000 -0.016793
# 5 0.004180 -0.004478 -0.000153 0.000000 0.033921 0.000000
# 6 0.000000 0.000000 0.000000 -0.016793 0.000000 0.053718
#
#
# Mechanical properties :
#
#
# Convention : Reuss Voigt Hill
#
# Bulk Modulus (GPa) = 50.79557 56.53085 53.66321
# Shear Modulus (GPa) = 23.88952 27.20747 25.54850
#
# Velocity S-wave (km/s) = 3.40745 3.63639 3.52378
# Velocity P-wave (km/s) = 6.33786 6.71611 6.52972
#
# Compressibility (1/GPa) = 0.01968676
#
# Stress axis : x y z
#
# Youngs Moduli (GPa) = 75.29419 49.17629 93.78450
#
# Poissons Ratio (x) = 0.18949 0.30295
# Poissons Ratio (y) = 0.29013 0.48885
# Poissons Ratio (z) = 0.24322 0.25633
#
# Static dielectric constant tensor:
#      x y z
#    x 3.575970 0.000000 0.100080 
#    y 0.000000 3.798240 0.000000 
#    z 0.100080 0.000000 3.994800 
# 
# 
# High freq. dielectric constant tensor:
#      x y z
#    x 1.789790 0.000000 0.008500 
#    y 0.000000 1.796100 0.000000 
#    z 0.008500 0.000000 1.810270 
# 
# From -- ./inp_files/96796.got.cif
#   From: 2010.06.25/outbox.cif.g09.slc.cpg/sg12_49_cif.got.tgz:96796.got - 2010.06.28 00:19:55.
