data_PCOD8100304
_publ_section_title
;
Structure prediction by ZEFSAII (Michael W. Deem and Ramdas Pophale) SiO2 
 PCOD8100304
Probable space group: C 2/M
;
_chemical_formula_sum "Si O2"
_cell_formula_units_Z 64
_cell_length_a 27.747739
_cell_length_b 13.751386
_cell_length_c 17.120014
_cell_angle_alpha 90.000000
_cell_angle_beta 31.159146
_cell_angle_gamma 90.000000
_cell_volume 3380.016799
_symmetry_space_group_name_H-M "C 2/M"
_symmetry_group_IT_number 12
_symmetry_cell_setting 'monoclinic'
loop_
_space_group_symop_operation_xyz
x,y,z
-x,y,-z
-x,-y,-z
x,-y,z
1/2+x,1/2+y,z
1/2-x,1/2+y,-z
1/2-x,1/2-y,-z
1/2+x,1/2-y,z
loop_
_atom_site_type_symbol
_atom_site_label
_atom_site_fract_x
_atom_site_fract_y
_atom_site_fract_z
Si Si1 0.005656 0.224555 0.841900
Si Si2 0.107605 0.788523 0.151548
Si Si3 0.634099 0.111164 0.687070
Si Si4 0.234288 0.108118 0.233871
Si Si5 0.325796 0.388793 0.333393
Si Si6 0.729077 0.110740 0.994208
Si Si7 0.361468 0.228231 0.165152
Si Si8 0.475313 0.389997 0.448054
O O1 0.060554 0.323189 0.740579
O O2 0.081505 0.138839 0.746389
O O3 0.926821 0.196623 0.889197
O O4 0.959859 0.242340 0.990291
O O5 0.136972 0.677158 0.127746
O O6 0.020907 0.814653 0.325874
O O7 0.195576 0.858737 0.044967
O O8 0.737687 0.128806 0.511441
O O9 0.629288 0.142488 0.784329
O O10 0.602931 0.000000 0.722172
O O11 0.298174 0.190705 0.181993
O O12 0.134585 0.114361 0.413243
O O13 0.276756 0.000000 0.188614
O O14 0.223533 0.126445 0.156139
O O15 0.332234 0.500000 0.297272
O O16 0.316394 0.322671 0.269066
O O17 0.698416 0.000000 0.051297
O O18 0.500000 0.354835 0.500000
O O19 0.513271 0.500000 0.381427
#
# Coordination Sequence:
#
# PCOD8100304 Si02
#       8
#     8   8   8   8   8   8   8   8
#     4  11  23  36  58  89 113 150 193 236 284 345
#     4  11  22  36  60  90 118 156 189 237 295 339
#     4  10  22  39  59  85 115 149 188 239 294 342
#     4  10  20  35  59  88 115 145 186 242 295 337
#     4  10  23  41  58  79 116 158 193 236 285 337
#     4  10  21  40  60  86 123 154 188 234 292 346
#     4  11  21  37  59  84 114 148 194 235 287 344
#     4  10  20  35  58  87 115 148 192 243 289 334
#
# _framework density 18.934816000000001
#
# number of rings (size 3 to 8) (size 9 to 14) (size 15 to 20)
#    0.000    1.625    2.500    3.750    3.500    4.000 
#    0.000    0.000    0.000    0.375    0.000    0.000 
#    0.000    0.000    0.000    0.000    0.000    0.000 
#
# Total GULP energy -396799.724300 kJ/mol
# GULP energy per Si atom -12399.991384 kJ/mol
# Density = 1.889172 g / cm^3
# Si number density = 18.934816 Si / 1000 Ang^3
#
#
#
# Elastic Constant Matrix: (Units=GPa)
#
#
# Indices 1 2 3 4 5 6 
#
# 1 106.8816 37.3232 23.3398 0.0000 0.0777 0.0000
# 2 37.3232 120.0299 42.9171 0.0000 9.2804 0.0000
# 3 23.3398 42.9171 100.6618 0.0000 7.3388 0.0000
# 4 0.0000 0.0000 0.0000 30.7475 0.0000 3.3294
# 5 0.0777 9.2804 7.3388 0.0000 17.7475 0.0000
# 6 0.0000 0.0000 0.0000 3.3294 0.0000 21.7182
#
#
#
# Elastic Compliance Matrix: (Units=1/GPa)
#
#
# Indices 1 2 3 4 5 6 
#
# 1 0.010699 -0.003005 -0.001352 0.000000 0.002083 0.000000
# 2 -0.003005 0.010891 -0.003642 0.000000 -0.004176 0.000000
# 3 -0.001352 -0.003642 0.012024 0.000000 -0.003061 0.000000
# 4 0.000000 0.000000 0.000000 0.033072 0.000000 -0.005070
# 5 0.002083 -0.004176 -0.003061 0.000000 0.059786 0.000000
# 6 0.000000 0.000000 0.000000 -0.005070 0.000000 0.046821
#
#
# Mechanical properties :
#
#
# Convention : Reuss Voigt Hill
#
# Bulk Modulus (GPa) = 56.76454 59.41484 58.08969
# Shear Modulus (GPa) = 25.61977 28.97552 27.29764
#
# Velocity S-wave (km/s) = 3.68237 3.91612 3.80104
# Velocity P-wave (km/s) = 6.93714 7.20380 7.07172
#
# Compressibility (1/GPa) = 0.01761663
#
# Stress axis : x y z
#
# Youngs Moduli (GPa) = 93.46656 91.82173 83.16940
#
# Poissons Ratio (x) = 0.27589 0.11241
# Poissons Ratio (y) = 0.28084 0.30291
# Poissons Ratio (z) = 0.12632 0.33443
#
# Static dielectric constant tensor:
#      x y z
#    x 3.359220 0.000000 -0.041430 
#    y 0.000000 3.536540 0.000000 
#    z -0.041430 0.000000 3.523110 
# 
# 
# High freq. dielectric constant tensor:
#      x y z
#    x 1.731230 0.000000 -0.006480 
#    y 0.000000 1.732160 0.000000 
#    z -0.006480 0.000000 1.738140 
# 
# From -- ./inp_files/296667.got.cif
#   From: 2010.06.25/outbox.cif.g09.slc.cpg/sg12_149_cif.got.tgz:296667.got - 2010.06.28 00:19:55.
