data_PCOD8100408
_publ_section_title
;
Structure prediction by ZEFSAII (Michael W. Deem and Ramdas Pophale) SiO2 
 PCOD8100408
Probable space group: C 2/M
;
_chemical_formula_sum "Si O2"
_cell_formula_units_Z 60
_cell_length_a 21.782423
_cell_length_b 14.373054
_cell_length_c 12.175498
_cell_angle_alpha 90.000000
_cell_angle_beta 131.113652
_cell_angle_gamma 90.000000
_cell_volume 2871.914309
_symmetry_space_group_name_H-M "C 2/M"
_symmetry_group_IT_number 12
_symmetry_cell_setting 'monoclinic'
loop_
_space_group_symop_operation_xyz
x,y,z
-x,y,-z
-x,-y,-z
x,-y,z
1/2+x,1/2+y,z
1/2-x,1/2+y,-z
1/2-x,1/2-y,-z
1/2+x,1/2-y,z
loop_
_atom_site_type_symbol
_atom_site_label
_atom_site_fract_x
_atom_site_fract_y
_atom_site_fract_z
Si Si1 0.161794 0.782764 0.850774
Si Si2 0.425807 0.104369 0.750185
Si Si3 0.143758 0.779209 0.589580
Si Si4 0.995103 0.326073 0.373307
Si Si5 0.392857 0.394890 0.015373
Si Si6 0.757125 0.602246 0.310468
Si Si7 0.734491 0.603458 0.518359
Si Si8 0.000000 0.246388 0.000000
O O1 0.167628 0.826259 0.734317
O O2 0.098587 0.696398 0.768693
O O3 0.250000 0.750000 0.000000
O O4 0.119823 0.861875 0.875081
O O5 0.469041 0.112270 0.682759
O O6 0.330403 0.119157 0.624740
O O7 0.444931 0.000000 0.817953
O O8 0.450714 0.185049 0.863068
O O9 0.047481 0.771462 0.448728
O O10 0.170187 0.671754 0.627253
O O11 0.191633 0.827370 0.549349
O O12 0.000000 0.375780 0.500000
O O13 0.430763 0.500000 0.057196
O O14 0.302921 0.395616 0.861665
O O15 0.445899 0.320416 0.011724
O O16 0.796821 0.500000 0.372106
O O17 0.704221 0.624624 0.358772
O O18 0.711159 0.500000 0.529705
#
# Coordination Sequence:
#
# PCOD8100408 Si02
#       8
#     8   8   8   8   8   8   8   4
#     4  11  23  43  63  87 126 171 211 262 316 379
#     4  11  23  40  64  96 132 167 207 261 319 380
#     4  11  21  38  67  88 129 168 210 255 323 373
#     4  10  23  40  62  95 125 168 214 262 319 376
#     4  11  24  41  66  95 122 166 219 266 316 378
#     4  10  20  35  58  92 124 154 202 259 309 369
#     4  10  22  37  61  97 128 162 209 258 317 384
#     4  12  24  42  64  88 132 166 210 264 322 380
#
# _framework density 20.891988000000001
#
# number of rings (size 3 to 8) (size 9 to 14) (size 15 to 20)
#    0.000    1.333    4.000    1.600    1.867    0.800 
#    0.000    3.333    0.000    2.400    0.000    0.000 
#    0.000    0.000    0.000    0.000    0.000    0.000 
#
# Total GULP energy -371749.697258 kJ/mol
# GULP energy per Si atom -12391.656575 kJ/mol
# Density = 2.084444 g / cm^3
# Si number density = 20.891988 Si / 1000 Ang^3
#
#
#
# Elastic Constant Matrix: (Units=GPa)
#
#
# Indices 1 2 3 4 5 6 
#
# 1 105.0724 42.1528 28.3265 0.0000 -15.7333 0.0000
# 2 42.1528 109.2963 33.0678 0.0000 -13.7940 0.0000
# 3 28.3265 33.0678 90.5028 0.0000 -10.3425 0.0000
# 4 0.0000 0.0000 0.0000 25.7806 0.0000 -3.8568
# 5 -15.7333 -13.7940 -10.3425 0.0000 43.4037 0.0000
# 6 0.0000 0.0000 0.0000 -3.8568 0.0000 3.0814
#
#
#
# Elastic Compliance Matrix: (Units=1/GPa)
#
#
# Indices 1 2 3 4 5 6 
#
# 1 0.011942 -0.003631 -0.002105 0.000000 0.002673 0.000000
# 2 -0.003631 0.011648 -0.002927 0.000000 0.001688 0.000000
# 3 -0.002105 -0.002927 0.012936 0.000000 0.001389 0.000000
# 4 0.000000 0.000000 0.000000 0.047725 0.000000 0.059734
# 5 0.002673 0.001688 0.001389 0.000000 0.024876 0.000000
# 6 0.000000 0.000000 0.000000 0.059734 0.000000 0.399291
#
#
# Mechanical properties :
#
#
# Convention : Reuss Voigt Hill
#
# Bulk Modulus (GPa) = 52.08299 56.88508 54.48404
# Shear Modulus (GPa) = 9.39591 27.87476 18.63533
#
# Velocity S-wave (km/s) = 2.12300 3.65668 2.98985
# Velocity P-wave (km/s) = 5.56716 6.71682 6.16883
#
# Compressibility (1/GPa) = 0.01920013
#
# Stress axis : x y z
#
# Youngs Moduli (GPa) = 83.73864 85.84807 77.30098
#
# Poissons Ratio (x) = 0.31174 0.16275
# Poissons Ratio (y) = 0.30408 0.22623
# Poissons Ratio (z) = 0.17630 0.25124
#
# Static dielectric constant tensor:
#      x y z
#    x 3.902070 0.000000 -0.223280 
#    y 0.000000 3.854330 0.000000 
#    z -0.223280 0.000000 4.060120 
# 
# 
# High freq. dielectric constant tensor:
#      x y z
#    x 1.826940 0.000000 -0.012010 
#    y 0.000000 1.799830 0.000000 
#    z -0.012010 0.000000 1.829050 
# 
# From -- ./inp_files/176471.got.cif
#   From: 2010.06.25/outbox.cif.g09.slc.cpg/sg12_89_cif.got.tgz:176471.got - 2010.06.28 00:19:55.
