data_PCOD8100233
_publ_section_title
;
Structure prediction by ZEFSAII (Michael W. Deem and Ramdas Pophale) SiO2 
 PCOD8100233
Probable space group: C 2/M
;
_chemical_formula_sum "Si O2"
_cell_formula_units_Z 40
_cell_length_a 22.492049
_cell_length_b 8.952661
_cell_length_c 14.365217
_cell_angle_alpha 90.000000
_cell_angle_beta 135.560610
_cell_angle_gamma 90.000000
_cell_volume 2025.289691
_symmetry_space_group_name_H-M "C 2/M"
_symmetry_group_IT_number 12
_symmetry_cell_setting 'monoclinic'
loop_
_space_group_symop_operation_xyz
x,y,z
-x,y,-z
-x,-y,-z
x,-y,z
1/2+x,1/2+y,z
1/2-x,1/2+y,-z
1/2-x,1/2-y,-z
1/2+x,1/2-y,z
loop_
_atom_site_type_symbol
_atom_site_label
_atom_site_fract_x
_atom_site_fract_y
_atom_site_fract_z
Si Si1 0.780450 0.828359 0.817796
Si Si2 0.029501 0.823480 0.342014
Si Si3 0.877860 0.668403 0.244251
Si Si4 0.087002 0.667552 0.917616
Si Si5 0.206621 0.672733 0.538332
O O1 0.697820 0.762606 0.778816
O O2 0.770146 0.809983 0.696166
O O3 0.792035 0.000000 0.860642
O O4 0.864509 0.739871 0.941344
O O5 0.119483 0.752903 0.467345
O O6 0.962822 0.770808 0.347833
O O7 0.997379 0.762342 0.204847
O O8 0.037342 0.000000 0.347545
O O9 0.899150 0.500000 0.302517
O O10 0.851538 0.665638 0.105058
O O11 0.059378 0.500000 0.914567
O O12 0.188831 0.500000 0.496016
O O13 0.250000 0.750000 0.500000
#
# Coordination Sequence:
#
# PCOD8100233 Si02
#       5
#     8   8   8   8   8
#     4  10  20  35  58  85 114 149 186 224 274 332
#     4  10  20  36  58  82 114 150 184 226 275 328
#     4   8  17  33  55  85 118 148 178 220 275 331
#     4   9  18  33  56  86 119 148 179 222 273 330
#     4  11  24  42  60  79 108 147 190 236 280 326
#
# _framework density 19.750263
#
# number of rings (size 3 to 8) (size 9 to 14) (size 15 to 20)
#    1.200    1.200    0.000    3.000    0.000    3.200 
#    0.000    5.000    0.000    6.000    0.000    0.000 
#    0.000    0.000    0.000    0.000    0.000    0.000 
#
# Total GULP energy -247866.469546 kJ/mol
# GULP energy per Si atom -12393.323477 kJ/mol
# Density = 1.970531 g / cm^3
# Si number density = 19.750263 Si / 1000 Ang^3
#
#
#
# Elastic Constant Matrix: (Units=GPa)
#
#
# Indices 1 2 3 4 5 6 
#
# 1 13.3222 5.1432 2.2554 0.0000 -8.3584 0.0000
# 2 5.1432 127.5778 34.9881 0.0000 0.4937 0.0000
# 3 2.2554 34.9881 62.0024 0.0000 -2.6877 0.0000
# 4 0.0000 0.0000 0.0000 34.7391 0.0000 3.7851
# 5 -8.3584 0.4937 -2.6877 0.0000 21.0531 0.0000
# 6 0.0000 0.0000 0.0000 3.7851 0.0000 27.1103
#
#
#
# Elastic Compliance Matrix: (Units=1/GPa)
#
#
# Indices 1 2 3 4 5 6 
#
# 1 0.102262 -0.004431 0.000548 0.000000 0.040773 0.000000
# 2 -0.004431 0.009482 -0.005305 0.000000 -0.002659 0.000000
# 3 0.000548 -0.005305 0.019223 0.000000 0.002796 0.000000
# 4 0.000000 0.000000 0.000000 0.029231 0.000000 -0.004081
# 5 0.040773 -0.002659 0.002796 0.000000 0.064106 0.000000
# 6 0.000000 0.000000 0.000000 -0.004081 0.000000 0.037456
#
#
# Mechanical properties :
#
#
# Convention : Reuss Voigt Hill
#
# Bulk Modulus (GPa) = 8.88162 31.96400 20.42281
# Shear Modulus (GPa) = 15.73979 27.28154 21.51067
#
# Velocity S-wave (km/s) = 2.82608 3.72065 3.30378
# Velocity P-wave (km/s) = 3.89303 5.88871 4.99162
#
# Compressibility (1/GPa) = 0.11259206
#
# Stress axis : x y z
#
# Youngs Moduli (GPa) = 9.77879 105.46169 52.02041
#
# Poissons Ratio (x) = 0.46726 -0.02850
# Poissons Ratio (y) = 0.04333 0.27596
# Poissons Ratio (z) = -0.00536 0.55946
#
# Static dielectric constant tensor:
#      x y z
#    x 3.292380 0.000000 0.031270 
#    y 0.000000 3.531970 0.000000 
#    z 0.031270 0.000000 3.398440 
# 
# 
# High freq. dielectric constant tensor:
#      x y z
#    x 1.737170 0.000000 0.003510 
#    y 0.000000 1.772270 0.000000 
#    z 0.003510 0.000000 1.760640 
# 
# From -- ./inp_files/236924.got.cif
#   From: 2010.06.25/outbox.cif.g09.slc.cpg/sg12_119_cif.got.tgz:236924.got - 2010.06.28 00:19:55.
