data_PCOD8100924
_publ_section_title
;
Structure prediction by ZEFSAII (Michael W. Deem and Ramdas Pophale) SiO2 
 PCOD8100924
Probable space group: C 2/M
;
_chemical_formula_sum "Si O2"
_cell_formula_units_Z 64
_cell_length_a 22.649275
_cell_length_b 14.332376
_cell_length_c 9.642003
_cell_angle_alpha 90.000000
_cell_angle_beta 89.129226
_cell_angle_gamma 90.000000
_cell_volume 3129.605545
_symmetry_space_group_name_H-M "C 2/M"
_symmetry_group_IT_number 12
_symmetry_cell_setting 'monoclinic'
loop_
_space_group_symop_operation_xyz
x,y,z
-x,y,-z
-x,-y,-z
x,-y,z
1/2+x,1/2+y,z
1/2-x,1/2+y,-z
1/2-x,1/2-y,-z
1/2+x,1/2-y,z
loop_
_atom_site_type_symbol
_atom_site_label
_atom_site_fract_x
_atom_site_fract_y
_atom_site_fract_z
Si Si1 0.278991 0.392246 0.064665
Si Si2 0.245450 0.389698 0.366099
Si Si3 0.146237 0.892234 0.470703
Si Si4 0.118473 0.602930 0.313805
Si Si5 0.395695 0.292683 0.025939
Si Si6 0.551782 0.608511 0.712884
Si Si7 0.564830 0.288193 0.280007
Si Si8 0.151331 0.398352 0.992013
O O1 0.298277 0.500000 0.074227
O O2 0.267372 0.348793 0.217930
O O3 0.221365 0.380958 0.969114
O O4 0.331879 0.335284 0.992215
O O5 0.252649 0.500000 0.352543
O O6 0.288620 0.354249 0.488173
O O7 0.176633 0.366533 0.401026
O O8 0.103254 0.875207 0.602061
O O9 0.123341 0.837298 0.337982
O O10 0.148444 0.000000 0.428846
O O11 0.095145 0.500000 0.360194
O O12 0.066833 0.679834 0.330829
O O13 0.140675 0.599201 0.156117
O O14 0.435026 0.295490 0.886172
O O15 0.386892 0.184526 0.075592
O O16 0.428912 0.350918 0.140649
O O17 0.535740 0.500000 0.730525
O O18 0.493848 0.662634 0.660351
O O19 0.133426 0.500000 0.928948
#
# Coordination Sequence:
#
# PCOD8100924 Si02
#       8
#     8   8   8   8   8   8   8   8
#     4   9  15  27  49  77 106 137 172 206 254 316
#     4   8  14  29  54  79 100 134 177 209 247 312
#     4  10  20  36  56  77 103 138 176 210 254 314
#     4   8  16  33  55  77 105 136 173 215 258 311
#     4  11  20  32  52  79 105 135 175 217 261 307
#     4  11  23  39  55  73 105 147 178 205 251 319
#     4  11  23  34  51  81 108 135 174 220 263 296
#     4   8  16  30  50  76 106 137 171 215 257 305
#
# _framework density 20.449860000000001
#
# number of rings (size 3 to 8) (size 9 to 14) (size 15 to 20)
#    0.000    2.500    1.250    3.375    0.000    4.000 
#    0.000    0.625    0.000    5.250    0.000    0.000 
#    0.000    0.000    0.000    0.000    0.000    0.000 
#
# Total GULP energy -396632.455541 kJ/mol
# GULP energy per Si atom -12394.764236 kJ/mol
# Density = 2.040332 g / cm^3
# Si number density = 20.449860 Si / 1000 Ang^3
#
#
#
# Elastic Constant Matrix: (Units=GPa)
#
#
# Indices 1 2 3 4 5 6 
#
# 1 69.6608 49.1553 7.3573 0.0000 13.2739 0.0000
# 2 49.1553 114.7021 17.6488 0.0000 8.1850 0.0000
# 3 7.3573 17.6488 34.2357 0.0000 12.2830 0.0000
# 4 0.0000 0.0000 0.0000 14.6950 0.0000 4.6528
# 5 13.2739 8.1850 12.2830 0.0000 15.0623 0.0000
# 6 0.0000 0.0000 0.0000 4.6528 0.0000 32.6654
#
#
#
# Elastic Compliance Matrix: (Units=1/GPa)
#
#
# Indices 1 2 3 4 5 6 
#
# 1 0.025328 -0.010468 0.008369 0.000000 -0.023457 0.000000
# 2 -0.010468 0.013825 -0.007763 0.000000 0.008043 0.000000
# 3 0.008369 -0.007763 0.046006 0.000000 -0.040674 0.000000
# 4 0.000000 0.000000 0.000000 0.071264 0.000000 -0.010151
# 5 -0.023457 0.008043 -0.040674 0.000000 0.115862 0.000000
# 6 0.000000 0.000000 0.000000 -0.010151 0.000000 0.032059
#
#
# Mechanical properties :
#
#
# Convention : Reuss Voigt Hill
#
# Bulk Modulus (GPa) = 15.28235 40.76904 28.02569
# Shear Modulus (GPa) = 14.45595 22.11367 18.28481
#
# Velocity S-wave (km/s) = 2.66164 3.29197 2.99344
# Velocity P-wave (km/s) = 4.11522 5.86761 5.06774
#
# Compressibility (1/GPa) = 0.06543498
#
# Stress axis : x y z
#
# Youngs Moduli (GPa) = 39.48230 72.33373 21.73649
#
# Poissons Ratio (x) = 0.75719 -0.18192
# Poissons Ratio (y) = 0.41330 0.16874
# Poissons Ratio (z) = -0.33044 0.56152
#
# Static dielectric constant tensor:
#      x y z
#    x 3.725750 0.000000 0.209340 
#    y 0.000000 3.999320 0.000000 
#    z 0.209340 0.000000 3.284270 
# 
# 
# High freq. dielectric constant tensor:
#      x y z
#    x 1.789330 0.000000 0.013800 
#    y 0.000000 1.802190 0.000000 
#    z 0.013800 0.000000 1.757470 
# 
# From -- ./inp_files/96920.got.cif
#   From: 2010.06.25/outbox.cif.g09.slc.cpg/sg12_49_cif.got.tgz:96920.got - 2010.06.28 00:19:55.
