data_PCOD8100394
_publ_section_title
;
Structure prediction by ZEFSAII (Michael W. Deem and Ramdas Pophale) SiO2 
 PCOD8100394
Probable space group: C 2/M
;
_chemical_formula_sum "Si O2"
_cell_formula_units_Z 64
_cell_length_a 24.263630
_cell_length_b 17.122082
_cell_length_c 21.507620
_cell_angle_alpha 90.000000
_cell_angle_beta 159.555664
_cell_angle_gamma 90.000000
_cell_volume 3121.043571
_symmetry_space_group_name_H-M "C 2/M"
_symmetry_group_IT_number 12
_symmetry_cell_setting 'monoclinic'
loop_
_space_group_symop_operation_xyz
x,y,z
-x,y,-z
-x,-y,-z
x,-y,z
1/2+x,1/2+y,z
1/2-x,1/2+y,-z
1/2-x,1/2-y,-z
1/2+x,1/2-y,z
loop_
_atom_site_type_symbol
_atom_site_label
_atom_site_fract_x
_atom_site_fract_y
_atom_site_fract_z
Si Si1 0.036679 0.699204 0.375275
Si Si2 0.602129 0.913677 0.669719
Si Si3 0.357572 0.301173 0.925339
Si Si4 0.182165 0.745772 0.245424
Si Si5 0.985126 0.591241 0.757616
Si Si6 0.816812 0.413956 0.708978
Si Si7 0.023920 0.087475 0.595222
Si Si8 0.762472 0.807283 0.100308
O O1 0.182159 0.745964 0.559402
O O2 0.095474 0.641095 0.383106
O O3 0.968980 0.647404 0.358403
O O4 0.901467 0.761243 0.208778
O O5 0.500000 0.912645 0.500000
O O6 0.782615 0.887598 0.848225
O O7 0.604898 0.000000 0.701888
O O8 0.266338 0.256678 0.771773
O O9 0.341037 0.256458 0.973158
O O10 0.544439 0.309006 0.111673
O O11 0.106620 0.658188 0.172453
O O12 0.014562 0.500000 0.770897
O O13 0.863936 0.596357 0.686675
O O14 0.153721 0.634817 0.944870
O O15 0.876545 0.500000 0.795018
O O16 0.629602 0.407804 0.522979
O O17 0.159955 0.139954 0.765610
O O18 0.000000 0.118375 0.500000
O O19 0.089988 0.000000 0.662449
#
# Coordination Sequence:
#
# PCOD8100394 Si02
#       8
#     8   8   8   8   8   8   8   8
#     4  11  23  38  66  90 117 169 215 260 317 373
#     4  10  20  39  63  92 123 156 204 260 323 383
#     4  10  22  36  61  93 124 160 200 256 322 368
#     4  11  20  40  59  91 126 158 209 263 305 379
#     4  11  24  43  59  86 126 167 214 263 313 377
#     4  10  21  39  58  84 124 169 205 251 310 370
#     4  10  20  35  58  90 122 159 206 256 311 371
#     4  11  21  37  61  88 121 160 211 253 318 366
#
# _framework density 20.505960999999999
#
# number of rings (size 3 to 8) (size 9 to 14) (size 15 to 20)
#    0.000    1.500    3.750    1.875    0.000    0.500 
#    0.000    4.375    0.000    1.500    0.000    0.000 
#    0.000    0.000    0.000    0.000    0.000    0.000 
#
# Total GULP energy -396492.319275 kJ/mol
# GULP energy per Si atom -12390.384977 kJ/mol
# Density = 2.045929 g / cm^3
# Si number density = 20.505961 Si / 1000 Ang^3
#
#
#
# Elastic Constant Matrix: (Units=GPa)
#
#
# Indices 1 2 3 4 5 6 
#
# 1 69.4732 21.9009 14.5345 0.0232 1.5728 -0.0114
# 2 21.9009 105.9914 28.5164 0.0029 -3.1130 -0.0069
# 3 14.5345 28.5164 62.1541 -0.0188 11.6356 0.0055
# 4 0.0232 0.0029 -0.0188 50.7656 -0.0063 -16.0855
# 5 1.5728 -3.1130 11.6356 -0.0063 23.1646 0.0010
# 6 -0.0114 -0.0069 0.0055 -16.0855 0.0010 34.7351
#
#
#
# Elastic Compliance Matrix: (Units=1/GPa)
#
#
# Indices 1 2 3 4 5 6 
#
# 1 0.015730 -0.002596 -0.002453 -0.000007 -0.000185 0.000002
# 2 -0.002596 0.011601 -0.005564 0.000000 0.004530 0.000002
# 3 -0.002453 -0.005564 0.021330 0.000007 -0.011295 -0.000001
# 4 -0.000007 0.000000 0.000007 0.023086 0.000002 0.010691
# 5 -0.000185 0.004530 -0.011295 0.000002 0.049464 0.000002
# 6 0.000002 0.000002 -0.000001 0.010691 0.000002 0.033740
#
#
# Mechanical properties :
#
#
# Convention : Reuss Voigt Hill
#
# Bulk Modulus (GPa) = 36.44826 40.83580 38.64203
# Shear Modulus (GPa) = 26.98038 33.24420 30.11229
#
# Velocity S-wave (km/s) = 3.63124 4.03078 3.83621
# Velocity P-wave (km/s) = 5.94931 6.45137 6.20542
#
# Compressibility (1/GPa) = 0.02743615
#
# Stress axis : x y z
#
# Youngs Moduli (GPa) = 63.57415 86.19982 46.88305
#
# Poissons Ratio (x) = 0.22375 0.11500
# Poissons Ratio (y) = 0.16502 0.26084
# Poissons Ratio (z) = 0.15594 0.47958
#
# Static dielectric constant tensor:
#      x y z
#    x 3.707720 -0.000020 0.085320 
#    y -0.000020 4.121290 -0.000030 
#    z 0.085320 -0.000030 3.540960 
# 
# 
# High freq. dielectric constant tensor:
#      x y z
#    x 1.799190 0.000000 0.007480 
#    y 0.000000 1.812810 0.000000 
#    z 0.007480 0.000000 1.780030 
# 
# From -- ./inp_files/326167.got.cif
#   From: 2010.06.25/outbox.cif.g09.slc.cpg/sg12_164_cif.got.tgz:326167.got - 2010.06.28 00:19:55.
