data_PCOD8100911
_publ_section_title
;
Structure prediction by ZEFSAII (Michael W. Deem and Ramdas Pophale) SiO2 
 PCOD8100911
Probable space group: C 2/M
;
_chemical_formula_sum "Si O2"
_cell_formula_units_Z 56
_cell_length_a 15.434672
_cell_length_b 20.946075
_cell_length_c 16.934394
_cell_angle_alpha 90.000000
_cell_angle_beta 147.278788
_cell_angle_gamma 90.000000
_cell_volume 2959.423094
_symmetry_space_group_name_H-M "C 2/M"
_symmetry_group_IT_number 12
_symmetry_cell_setting 'monoclinic'
loop_
_space_group_symop_operation_xyz
x,y,z
-x,y,-z
-x,-y,-z
x,-y,z
1/2+x,1/2+y,z
1/2-x,1/2+y,-z
1/2-x,1/2-y,-z
1/2+x,1/2-y,z
loop_
_atom_site_type_symbol
_atom_site_label
_atom_site_fract_x
_atom_site_fract_y
_atom_site_fract_z
Si Si1 0.061999 0.573411 0.634743
Si Si2 0.631736 0.926633 0.358611
Si Si3 0.757880 0.681473 0.815650
Si Si4 0.853783 0.772062 0.691583
Si Si5 0.897059 0.174690 0.559053
Si Si6 0.672798 0.674584 0.163475
Si Si7 0.007757 0.345058 0.875060
O O1 0.120651 0.500000 0.682561
O O2 0.206856 0.619179 0.770482
O O3 0.000000 0.591109 0.500000
O O4 0.924060 0.585147 0.594116
O O5 0.795035 0.888887 0.467255
O O6 0.498842 0.902528 0.193303
O O7 0.666186 0.000000 0.368382
O O8 0.573619 0.663454 0.659537
O O9 0.778234 0.757783 0.836834
O O10 0.856323 0.652125 0.818499
O O11 0.825746 0.651492 0.949271
O O12 0.914152 0.812857 0.664782
O O13 0.686240 0.735372 0.546463
O O14 0.825619 0.821114 0.740748
O O15 0.995299 0.721968 0.819105
O O16 0.500000 0.653729 0.000000
#
# Coordination Sequence:
#
# PCOD8100911 Si02
#       7
#     8   8   8   8   8   8   8
#     4  10  23  40  60  82 113 156 196 234 278 338
#     4  10  22  41  58  80 112 153 197 236 279 338
#     4  10  20  36  55  88 118 146 182 239 294 334
#     4   9  19  34  50  85 113 144 186 231 293 331
#     4  10  21  33  56  83 111 147 187 245 280 334
#     4  11  21  35  56  85 119 152 184 231 285 344
#     4   9  19  38  55  80 119 148 182 229 287 349
#
# _framework density 18.922608
#
# number of rings (size 3 to 8) (size 9 to 14) (size 15 to 20)
#    0.000    2.143    2.857    0.857    8.000    6.571 
#    0.000    3.571    0.000    3.429    0.000    0.000 
#    0.000    0.000    0.000    0.000    0.000    0.000 
#
# Total GULP energy -347219.519153 kJ/mol
# GULP energy per Si atom -12400.697113 kJ/mol
# Density = 1.887954 g / cm^3
# Si number density = 18.922608 Si / 1000 Ang^3
#
#
#
# Elastic Constant Matrix: (Units=GPa)
#
#
# Indices 1 2 3 4 5 6 
#
# 1 54.3550 27.5016 35.4091 -0.0024 -11.0236 -0.0004
# 2 27.5016 70.2518 29.7063 -0.0006 2.5941 -0.0002
# 3 35.4091 29.7063 92.0827 -0.0072 -0.2338 -0.0036
# 4 -0.0024 -0.0006 -0.0072 19.6073 -0.0031 -1.5330
# 5 -11.0236 2.5941 -0.2338 -0.0031 35.8024 -0.0011
# 6 -0.0004 -0.0002 -0.0036 -1.5330 -0.0011 28.4310
#
#
#
# Elastic Compliance Matrix: (Units=1/GPa)
#
#
# Indices 1 2 3 4 5 6 
#
# 1 0.030600 -0.008549 -0.008983 0.000002 0.009982 0.000000
# 2 -0.008549 0.018926 -0.002828 -0.000002 -0.004022 -0.000001
# 3 -0.008983 -0.002828 0.015220 0.000004 -0.002462 0.000002
# 4 0.000002 -0.000002 0.000004 0.051217 0.000005 0.002762
# 5 0.009982 -0.004022 -0.002462 0.000005 0.031280 0.000001
# 6 0.000000 -0.000001 0.000002 0.002762 0.000001 0.035322
#
#
# Mechanical properties :
#
#
# Convention : Reuss Voigt Hill
#
# Bulk Modulus (GPa) = 41.62420 44.65816 43.14118
# Shear Modulus (GPa) = 21.61748 25.03965 23.32857
#
# Velocity S-wave (km/s) = 3.38363 3.64162 3.51499
# Velocity P-wave (km/s) = 6.10820 6.42911 6.27071
#
# Compressibility (1/GPa) = 0.02402449
#
# Stress axis : x y z
#
# Youngs Moduli (GPa) = 32.68007 52.83841 65.70102
#
# Poissons Ratio (x) = 0.45171 0.59022
# Poissons Ratio (y) = 0.27938 0.18583
# Poissons Ratio (z) = 0.29358 0.14945
#
# Static dielectric constant tensor:
#      x y z
#    x 3.508150 0.000000 -0.251940 
#    y 0.000000 3.248720 0.000000 
#    z -0.251940 0.000000 3.532100 
# 
# 
# High freq. dielectric constant tensor:
#      x y z
#    x 1.738170 0.000000 -0.019280 
#    y 0.000000 1.709820 0.000000 
#    z -0.019280 0.000000 1.735190 
# 
# From -- ./inp_files/272390.got.cif
#   From: 2010.06.25/outbox.cif.g09.slc.cpg/sg12_137_cif.got.tgz:272390.got - 2010.06.28 00:19:55.
