data_PCOD8100441
_publ_section_title
;
Structure prediction by ZEFSAII (Michael W. Deem and Ramdas Pophale) SiO2 
 PCOD8100441
Probable space group: C 2/M
;
_chemical_formula_sum "Si O2"
_cell_formula_units_Z 52
_cell_length_a 12.508332
_cell_length_b 24.758112
_cell_length_c 12.386843
_cell_angle_alpha 90.000000
_cell_angle_beta 136.263413
_cell_angle_gamma 90.000000
_cell_volume 2651.988954
_symmetry_space_group_name_H-M "C 2/M"
_symmetry_group_IT_number 12
_symmetry_cell_setting 'monoclinic'
loop_
_space_group_symop_operation_xyz
x,y,z
-x,y,-z
-x,-y,-z
x,-y,z
1/2+x,1/2+y,z
1/2-x,1/2+y,-z
1/2-x,1/2-y,-z
1/2+x,1/2-y,z
loop_
_atom_site_type_symbol
_atom_site_label
_atom_site_fract_x
_atom_site_fract_y
_atom_site_fract_z
Si Si1 0.789814 0.900892 0.065891
Si Si2 0.604273 0.704415 0.973764
Si Si3 0.500000 0.715446 0.500000
Si Si4 0.363540 0.500000 0.983584
Si Si5 0.163359 0.887878 0.653941
Si Si6 0.471873 0.000000 0.354315
Si Si7 0.046322 0.279480 0.742114
Si Si8 0.958993 0.601939 0.729371
O O1 0.869712 0.846162 0.085134
O O2 0.807664 0.907362 0.205028
O O3 0.879032 0.948191 0.070487
O O4 0.607090 0.904493 0.913523
O O5 0.519899 0.750401 0.839314
O O6 0.500000 0.689407 0.000000
O O7 0.769170 0.722030 0.142449
O O8 0.350713 0.677436 0.367219
O O9 0.465207 0.750344 0.581563
O O10 0.208843 0.500000 0.801222
O O11 0.500000 0.500000 0.000000
O O12 0.303968 0.907190 0.683448
O O13 0.000000 0.915017 0.500000
O O14 0.500000 0.000000 0.500000
O O15 0.547175 0.054887 0.363887
O O16 0.970471 0.338805 0.684718
#
# Coordination Sequence:
#
# PCOD8100441 Si02
#       8
#     8   8   4   4   8   4   8   8
#     4  10  20  41  59  89 117 159 203 245 298 363
#     4  10  20  35  59  85 118 156 202 246 295 359
#     4  10  22  40  52  88 132 146 204 242 302 364
#     4  10  22  39  66  89 117 156 204 252 301 354
#     4  10  22  39  60  88 124 155 196 254 297 359
#     4  10  24  45  62  91 123 154 206 254 297 364
#     4  10  22  37  57  88 119 160 199 241 307 363
#     4  10  23  40  65  85 118 166 201 244 305 357
#
# _framework density 19.607925000000002
#
# number of rings (size 3 to 8) (size 9 to 14) (size 15 to 20)
#    0.462    1.538    1.538    0.923    3.231    2.462 
#    2.769    3.077    0.000    0.000    0.000    0.000 
#    0.000    0.000    0.000    0.000    0.000    0.000 
#
# Total GULP energy -322340.052634 kJ/mol
# GULP energy per Si atom -12397.694332 kJ/mol
# Density = 1.956330 g / cm^3
# Si number density = 19.607925 Si / 1000 Ang^3
#
#
#
# Elastic Constant Matrix: (Units=GPa)
#
#
# Indices 1 2 3 4 5 6 
#
# 1 165.8907 55.6661 65.9597 0.0000 -9.1964 0.0000
# 2 55.6661 124.5064 45.7517 0.0000 -10.7732 0.0000
# 3 65.9597 45.7517 97.2372 0.0000 -27.7729 0.0000
# 4 0.0000 0.0000 0.0000 6.7423 0.0000 -10.4836
# 5 -9.1964 -10.7732 -27.7729 0.0000 27.6756 0.0000
# 6 0.0000 0.0000 0.0000 -10.4836 0.0000 15.4933
#
#
#
# Elastic Compliance Matrix: (Units=1/GPa)
#
#
# Indices 1 2 3 4 5 6 
#
# 1 0.009004 -0.002061 -0.006326 0.000000 -0.004158 0.000000
# 2 -0.002061 0.010208 -0.003456 0.000000 -0.000180 0.000000
# 3 -0.006326 -0.003456 0.021331 0.000000 0.017958 0.000000
# 4 0.000000 0.000000 0.000000 -2.845036 0.000000 -1.925112
# 5 -0.004158 -0.000180 0.017958 0.000000 0.052703 0.000000
# 6 0.000000 0.000000 0.000000 -1.925112 0.000000 -1.238095
#
#
# Mechanical properties :
#
#
# Convention : Reuss Voigt Hill
#
# Bulk Modulus (GPa) = 59.32443 80.26547 69.79495
# Shear Modulus (GPa) = -1.26244 24.66603 11.70179
#
# Velocity S-wave (km/s) = -0.80327 3.55062 2.44558
# Velocity P-wave (km/s) = 5.42777 7.60482 6.60659
#
# Compressibility (1/GPa) = 0.01685646
#
# Stress axis : x y z
#
# Youngs Moduli (GPa) = 111.05655 97.96580 46.88087
#
# Poissons Ratio (x) = 0.20191 0.29657
# Poissons Ratio (y) = 0.22889 0.16202
# Poissons Ratio (z) = 0.70254 0.33858
#
# Static dielectric constant tensor:
#      x y z
#    x 3.477490 0.000000 0.077350 
#    y 0.000000 3.692110 0.000000 
#    z 0.077350 0.000000 3.490770 
# 
# 
# High freq. dielectric constant tensor:
#      x y z
#    x 1.762440 0.000000 -0.006220 
#    y 0.000000 1.767640 0.000000 
#    z -0.006220 0.000000 1.760090 
# 
# From -- ./inp_files/136044.got.cif
#   From: 2010.06.25/outbox.cif.g09.slc.cpg/sg12_69_cif.got.tgz:136044.got - 2010.06.28 00:19:55.
