data_PCOD8100793
_publ_section_title
;
Structure prediction by ZEFSAII (Michael W. Deem and Ramdas Pophale) SiO2 
 PCOD8100793
Probable space group: C 2/M
;
_chemical_formula_sum "Si O2"
_cell_formula_units_Z 48
_cell_length_a 14.581865
_cell_length_b 9.228128
_cell_length_c 29.059427
_cell_angle_alpha 90.000000
_cell_angle_beta 137.394339
_cell_angle_gamma 90.000000
_cell_volume 2647.094739
_symmetry_space_group_name_H-M "C 2/M"
_symmetry_group_IT_number 12
_symmetry_cell_setting 'monoclinic'
loop_
_space_group_symop_operation_xyz
x,y,z
-x,y,-z
-x,-y,-z
x,-y,z
1/2+x,1/2+y,z
1/2-x,1/2+y,-z
1/2-x,1/2-y,-z
1/2+x,1/2-y,z
loop_
_atom_site_type_symbol
_atom_site_label
_atom_site_fract_x
_atom_site_fract_y
_atom_site_fract_z
Si Si1 0.618117 0.331140 0.508589
Si Si2 0.132586 0.833334 0.162671
Si Si3 0.539891 0.837506 0.206264
Si Si4 0.607894 0.330905 0.398608
Si Si5 0.118123 0.337125 0.937756
Si Si6 0.063798 0.332647 0.734845
O O1 0.500000 0.278968 0.500000
O O2 0.649084 0.500000 0.528039
O O3 0.575821 0.299666 0.440304
O O4 0.755366 0.244190 0.569400
O O5 0.142359 0.773983 0.219185
O O6 0.278955 0.808920 0.194721
O O7 0.017537 0.742652 0.092206
O O8 0.088564 0.000000 0.146694
O O9 0.399223 0.839148 0.124417
O O10 0.516055 0.784349 0.249112
O O11 0.602032 0.000000 0.229316
O O12 0.622400 0.500000 0.394302
O O13 0.481671 0.267003 0.324061
O O14 0.127153 0.500000 0.961109
O O15 0.250000 0.250000 0.000000
O O16 0.036659 0.500000 0.712061
#
# Coordination Sequence:
#
# PCOD8100793 Si02
#       6
#     8   8   8   8   8   8
#     4   9  19  38  58  76 103 140 176 208 252 312
#     4   9  18  32  52  76 102 133 172 216 257 302
#     4   8  18  34  51  71 100 137 173 208 252 310
#     4  10  21  34  53  81 107 133 171 219 259 296
#     4   9  17  32  54  75 102 137 174 214 261 309
#     4  10  20  36  54  74 105 143 175 206 257 316
#
# _framework density 18.133087
#
# number of rings (size 3 to 8) (size 9 to 14) (size 15 to 20)
#    1.000    1.833    0.000    1.000    0.000    4.333 
#    0.000    5.833    0.000    5.000    0.000    0.000 
#    0.000    0.000    0.000    0.000    0.000    0.000 
#
# Total GULP energy -297371.387260 kJ/mol
# GULP energy per Si atom -12390.474469 kJ/mol
# Density = 1.809182 g / cm^3
# Si number density = 18.133087 Si / 1000 Ang^3
#
#
#
# Elastic Constant Matrix: (Units=GPa)
#
#
# Indices 1 2 3 4 5 6 
#
# 1 71.3219 26.3115 2.9252 0.0000 5.3624 0.0000
# 2 26.3115 90.5239 23.9952 0.0000 8.7587 0.0000
# 3 2.9252 23.9952 48.9828 0.0000 6.4550 0.0000
# 4 0.0000 0.0000 0.0000 35.3880 0.0000 3.8405
# 5 5.3624 8.7587 6.4550 0.0000 21.4491 0.0000
# 6 0.0000 0.0000 0.0000 3.8405 0.0000 24.4106
#
#
#
# Elastic Compliance Matrix: (Units=1/GPa)
#
#
# Indices 1 2 3 4 5 6 
#
# 1 0.015929 -0.004851 0.001759 0.000000 -0.002531 0.000000
# 2 -0.004851 0.014423 -0.006414 0.000000 -0.002747 0.000000
# 3 0.001759 -0.006414 0.024122 0.000000 -0.005080 0.000000
# 4 0.000000 0.000000 0.000000 0.028749 0.000000 -0.004523
# 5 -0.002531 -0.002747 -0.005080 0.000000 0.049905 0.000000
# 6 0.000000 0.000000 0.000000 -0.004523 0.000000 0.041677
#
#
# Mechanical properties :
#
#
# Convention : Reuss Voigt Hill
#
# Bulk Modulus (GPa) = 28.20015 35.25471 31.72743
# Shear Modulus (GPa) = 24.31474 26.75599 25.53536
#
# Velocity S-wave (km/s) = 3.66581 3.84544 3.75670
# Velocity P-wave (km/s) = 5.78818 6.26106 6.02926
#
# Compressibility (1/GPa) = 0.03546080
#
# Stress axis : x y z
#
# Youngs Moduli (GPa) = 62.77969 69.33557 41.45673
#
# Poissons Ratio (x) = 0.33636 -0.07291
# Poissons Ratio (y) = 0.30455 0.26588
# Poissons Ratio (z) = -0.11041 0.44469
#
# Static dielectric constant tensor:
#      x y z
#    x 3.187850 0.000000 -0.026240 
#    y 0.000000 3.404920 0.000000 
#    z -0.026240 0.000000 3.130590 
# 
# 
# High freq. dielectric constant tensor:
#      x y z
#    x 1.683790 0.000000 0.004440 
#    y 0.000000 1.709710 0.000000 
#    z 0.004440 0.000000 1.688150 
# 
# From -- ./inp_files/375162.got.cif
#   From: 2010.06.25/outbox.cif.g09.slc.cpg/sg12_188_cif.got.tgz:375162.got - 2010.06.28 00:19:55.
