data_PCOD8100229
_publ_section_title
;
Structure prediction by ZEFSAII (Michael W. Deem and Ramdas Pophale) SiO2 
 PCOD8100229
Probable space group: C 2/M
;
_chemical_formula_sum "Si O2"
_cell_formula_units_Z 64
_cell_length_a 23.508164
_cell_length_b 17.001086
_cell_length_c 14.283820
_cell_angle_alpha 90.000000
_cell_angle_beta 145.867527
_cell_angle_gamma 90.000000
_cell_volume 3203.217092
_symmetry_space_group_name_H-M "C 2/M"
_symmetry_group_IT_number 12
_symmetry_cell_setting 'monoclinic'
loop_
_space_group_symop_operation_xyz
x,y,z
-x,y,-z
-x,-y,-z
x,-y,z
1/2+x,1/2+y,z
1/2-x,1/2+y,-z
1/2-x,1/2-y,-z
1/2+x,1/2-y,z
loop_
_atom_site_type_symbol
_atom_site_label
_atom_site_fract_x
_atom_site_fract_y
_atom_site_fract_z
Si Si1 0.646569 0.088764 0.841615
Si Si2 0.044285 0.668618 0.157956
Si Si3 0.034186 0.701964 0.444446
Si Si4 0.760303 0.590579 0.639363
Si Si5 0.554819 0.408576 0.979117
Si Si6 0.155357 0.590169 0.055977
Si Si7 0.924511 0.807910 0.669917
Si Si8 0.716662 0.909488 0.737959
O O1 0.550964 0.144777 0.709859
O O2 0.705034 0.102206 0.020528
O O3 0.721957 0.103699 0.857769
O O4 0.603954 0.000000 0.779330
O O5 0.129109 0.602265 0.255877
O O6 0.097537 0.737074 0.289186
O O7 0.951889 0.634296 0.091638
O O8 0.000000 0.702009 0.000000
O O9 0.044950 0.776890 0.391370
O O10 0.137718 0.651428 0.586062
O O11 0.000000 0.732953 0.500000
O O12 0.728313 0.500000 0.586548
O O13 0.677264 0.641560 0.473473
O O14 0.767459 0.619369 0.758151
O O15 0.536727 0.500000 0.933175
O O16 0.514456 0.360840 0.834728
O O17 0.500000 0.382481 0.000000
O O18 0.673553 0.389775 0.154231
O O19 0.131019 0.500000 0.045872
O O20 0.685552 0.000000 0.672793
#
# Coordination Sequence:
#
# PCOD8100229 Si02
#       8
#     8   8   8   8   8   8   8   8
#     4   9  16  33  61  90 118 148 192 246 296 344
#     4  10  20  35  58  85 113 148 190 239 295 346
#     4  10  21  38  57  90 124 152 186 240 305 354
#     4  10  22  38  56  81 116 155 195 237 284 344
#     4  10  23  44  64  83 113 156 204 242 276 334
#     4   9  17  33  56  82 114 150 191 238 288 343
#     4  12  23  38  57  83 120 155 192 235 288 346
#     4   9  19  37  63  89 115 153 198 244 288 337
#
# _framework density 19.979914000000001
#
# number of rings (size 3 to 8) (size 9 to 14) (size 15 to 20)
#    0.000    2.125    1.250    1.875    0.000    7.000 
#    2.250    2.500    0.000    0.750    0.000    0.000 
#    0.000    0.000    0.000    0.000    0.000    0.000 
#
# Total GULP energy -396716.311946 kJ/mol
# GULP energy per Si atom -12397.384748 kJ/mol
# Density = 1.993444 g / cm^3
# Si number density = 19.979914 Si / 1000 Ang^3
#
#
#
# Elastic Constant Matrix: (Units=GPa)
#
#
# Indices 1 2 3 4 5 6 
#
# 1 102.0080 33.6994 39.5342 0.0000 -5.6386 0.0000
# 2 33.6994 72.9413 41.6180 0.0000 -5.1490 0.0000
# 3 39.5342 41.6180 88.9727 0.0000 -3.6949 0.0000
# 4 0.0000 0.0000 0.0000 36.0984 0.0000 -11.9375
# 5 -5.6386 -5.1490 -3.6949 0.0000 30.6406 0.0000
# 6 0.0000 0.0000 0.0000 -11.9375 0.0000 8.8710
#
#
#
# Elastic Compliance Matrix: (Units=1/GPa)
#
#
# Indices 1 2 3 4 5 6 
#
# 1 0.012529 -0.003483 -0.003886 0.000000 0.001252 0.000000
# 2 -0.003483 0.019804 -0.007643 0.000000 0.001765 0.000000
# 3 -0.003886 -0.007643 0.016541 0.000000 -0.000005 0.000000
# 4 0.000000 0.000000 0.000000 0.049914 0.000000 0.067169
# 5 0.001252 0.001765 -0.000005 0.000000 0.033163 0.000000
# 6 0.000000 0.000000 0.000000 0.067169 0.000000 0.203115
#
#
# Mechanical properties :
#
#
# Convention : Reuss Voigt Hill
#
# Bulk Modulus (GPa) = 53.04815 54.84723 53.94769
# Shear Modulus (GPa) = 13.46354 25.06002 19.26178
#
# Velocity S-wave (km/s) = 2.59869 3.54540 3.10830
# Velocity P-wave (km/s) = 5.96763 6.65361 6.31994
#
# Compressibility (1/GPa) = 0.01885080
#
# Stress axis : x y z
#
# Youngs Moduli (GPa) = 79.81477 50.49461 60.45627
#
# Poissons Ratio (x) = 0.17587 0.23493
# Poissons Ratio (y) = 0.27799 0.46205
# Poissons Ratio (z) = 0.31016 0.38591
#
# Static dielectric constant tensor:
#      x y z
#    x 3.717570 0.000000 -0.242830 
#    y 0.000000 3.545380 0.000000 
#    z -0.242830 0.000000 3.555960 
# 
# 
# High freq. dielectric constant tensor:
#      x y z
#    x 1.779550 0.000000 -0.017610 
#    y 0.000000 1.774700 0.000000 
#    z -0.017610 0.000000 1.770680 
# 
# From -- ./inp_files/241525.got.cif
#   From: 2010.06.25/outbox.cif.g09.slc.cpg/sg12_121_cif.got.tgz:241525.got - 2010.06.28 00:19:55.
