data_PCOD8100175
_publ_section_title
;
Structure prediction by ZEFSAII (Michael W. Deem and Ramdas Pophale) SiO2 
 PCOD8100175
Probable space group: C 2/M
;
_chemical_formula_sum "Si O2"
_cell_formula_units_Z 56
_cell_length_a 19.554350
_cell_length_b 8.967038
_cell_length_c 18.576111
_cell_angle_alpha 90.000000
_cell_angle_beta 115.677442
_cell_angle_gamma 90.000000
_cell_volume 2935.562665
_symmetry_space_group_name_H-M "C 2/M"
_symmetry_group_IT_number 12
_symmetry_cell_setting 'monoclinic'
loop_
_space_group_symop_operation_xyz
x,y,z
-x,y,-z
-x,-y,-z
x,-y,z
1/2+x,1/2+y,z
1/2-x,1/2+y,-z
1/2-x,1/2-y,-z
1/2+x,1/2-y,z
loop_
_atom_site_type_symbol
_atom_site_label
_atom_site_fract_x
_atom_site_fract_y
_atom_site_fract_z
Si Si1 0.544222 0.323256 0.853788
Si Si2 0.598119 0.825005 0.737127
Si Si3 0.478452 0.823417 0.567365
Si Si4 0.190035 0.326160 0.522733
Si Si5 0.238887 0.326611 0.703030
Si Si6 0.887281 0.675803 0.822131
Si Si7 0.088413 0.163444 0.026378
O O1 0.532097 0.500000 0.843586
O O2 0.591845 0.263851 0.808380
O O3 0.461395 0.248664 0.820213
O O4 0.595912 0.281297 0.947209
O O5 0.532853 0.760980 0.654500
O O6 0.680132 0.791939 0.740327
O O7 0.586757 0.000000 0.746502
O O8 0.500000 0.753524 0.500000
O O9 0.392173 0.777503 0.544300
O O10 0.489795 0.000000 0.568493
O O11 0.201517 0.500000 0.519811
O O12 0.250000 0.250000 0.500000
O O13 0.199105 0.280262 0.610148
O O14 0.261886 0.500000 0.713719
O O15 0.313898 0.227920 0.744892
O O16 0.895965 0.500000 0.820582
O O17 0.875513 0.721640 0.900533
O O18 0.126756 0.000000 0.054613
O O19 0.000000 0.147516 0.000000
#
# Coordination Sequence:
#
# PCOD8100175 Si02
#       7
#     8   8   8   8   8   8   8
#     4  10  21  37  58  84 115 146 179 224 278 336
#     4  10  20  35  58  84 110 145 189 231 273 326
#     4   9  16  33  58  80 104 140 185 227 270 321
#     4  10  21  36  56  81 111 144 183 229 275 327
#     4  10  21  38  56  78 114 154 186 224 279 336
#     4  11  22  35  57  85 112 144 186 234 274 321
#     4   8  16  34  57  80 109 145 179 219 277 335
#
# _framework density 19.076412000000001
#
# number of rings (size 3 to 8) (size 9 to 14) (size 15 to 20)
#    0.000    2.286    1.429    2.571    2.000    4.286 
#    0.000    0.714    0.000    0.857    0.000    0.000 
#    0.000    0.000    0.000    0.000    0.000    0.000 
#
# Total GULP energy -347151.558119 kJ/mol
# GULP energy per Si atom -12398.269933 kJ/mol
# Density = 1.903299 g / cm^3
# Si number density = 19.076412 Si / 1000 Ang^3
#
#
#
# Elastic Constant Matrix: (Units=GPa)
#
#
# Indices 1 2 3 4 5 6 
#
# 1 80.0426 31.3602 17.5791 0.0000 -15.7258 0.0000
# 2 31.3602 70.5381 23.9887 0.0000 -3.9671 0.0000
# 3 17.5791 23.9887 52.1616 0.0000 -16.4235 0.0000
# 4 0.0000 0.0000 0.0000 22.5944 0.0000 -3.5870
# 5 -15.7258 -3.9671 -16.4235 0.0000 36.5483 0.0000
# 6 0.0000 0.0000 0.0000 -3.5870 0.0000 29.3398
#
#
#
# Elastic Compliance Matrix: (Units=1/GPa)
#
#
# Indices 1 2 3 4 5 6 
#
# 1 0.016474 -0.006813 -0.000489 0.000000 0.006129 0.000000
# 2 -0.006813 0.019739 -0.008189 0.000000 -0.004469 0.000000
# 3 -0.000489 -0.008189 0.026506 0.000000 0.010812 0.000000
# 4 0.000000 0.000000 0.000000 0.045135 0.000000 0.005518
# 5 0.006129 -0.004469 0.010812 0.000000 0.034372 0.000000
# 6 0.000000 0.000000 0.000000 0.005518 0.000000 0.034758
#
#
# Mechanical properties :
#
#
# Convention : Reuss Voigt Hill
#
# Bulk Modulus (GPa) = 31.50810 38.73315 35.12063
# Shear Modulus (GPa) = 22.87852 26.35078 24.61465
#
# Velocity S-wave (km/s) = 3.46686 3.72065 3.59600
# Velocity P-wave (km/s) = 5.70773 6.22944 5.97428
#
# Compressibility (1/GPa) = 0.03173787
#
# Stress axis : x y z
#
# Youngs Moduli (GPa) = 60.70049 50.66015 37.72716
#
# Poissons Ratio (x) = 0.34516 0.01844
# Poissons Ratio (y) = 0.41357 0.30894
# Poissons Ratio (z) = 0.02967 0.41485
#
# Static dielectric constant tensor:
#      x y z
#    x 3.338450 0.000000 -0.132970 
#    y 0.000000 3.250800 0.000000 
#    z -0.132970 0.000000 3.915540 
# 
# 
# High freq. dielectric constant tensor:
#      x y z
#    x 1.731550 0.000000 -0.006170 
#    y 0.000000 1.718240 0.000000 
#    z -0.006170 0.000000 1.752400 
# 
# From -- ./inp_files/281652.got.cif
#   From: 2010.06.25/outbox.cif.g09.slc.cpg/sg12_141_cif.got.tgz:281652.got - 2010.06.28 00:19:55.
