data_PCOD8100941
_publ_section_title
;
Structure prediction by ZEFSAII (Michael W. Deem and Ramdas Pophale) SiO2 
 PCOD8100941
Probable space group: C 2/M
;
_chemical_formula_sum "Si O2"
_cell_formula_units_Z 56
_cell_length_a 18.486676
_cell_length_b 9.544552
_cell_length_c 27.033512
_cell_angle_alpha 90.000000
_cell_angle_beta 38.783904
_cell_angle_gamma 90.000000
_cell_volume 2987.845195
_symmetry_space_group_name_H-M "C 2/M"
_symmetry_group_IT_number 12
_symmetry_cell_setting 'monoclinic'
loop_
_space_group_symop_operation_xyz
x,y,z
-x,y,-z
-x,-y,-z
x,-y,z
1/2+x,1/2+y,z
1/2-x,1/2+y,-z
1/2-x,1/2-y,-z
1/2+x,1/2-y,z
loop_
_atom_site_type_symbol
_atom_site_label
_atom_site_fract_x
_atom_site_fract_y
_atom_site_fract_z
Si Si1 0.901815 0.834214 0.155645
Si Si2 0.382383 0.342082 0.542559
Si Si3 0.320220 0.338743 0.304755
Si Si4 0.161803 0.836700 0.013267
Si Si5 0.245442 0.837536 0.858664
Si Si6 0.475121 0.661251 0.731490
Si Si7 0.360580 0.344086 0.441554
O O1 0.830014 0.788450 0.242635
O O2 0.836720 0.777527 0.141377
O O3 0.911566 0.000000 0.146811
O O4 0.032547 0.776882 0.090592
O O5 0.500000 0.274404 0.500000
O O6 0.362479 0.500000 0.573329
O O7 0.273173 0.250784 0.615972
O O8 0.408112 0.345338 0.471029
O O9 0.281360 0.500000 0.328533
O O10 0.444790 0.317684 0.263293
O O11 0.183928 0.814268 0.943555
O O12 0.173438 0.000000 0.021860
O O13 0.250000 0.750000 0.000000
O O14 0.364077 0.755252 0.796673
O O15 0.273235 0.000000 0.834234
O O16 0.436935 0.500000 0.746216
O O17 0.542235 0.715290 0.646983
O O18 0.326061 0.500000 0.441633
O O19 0.250000 0.250000 0.500000
#
# Coordination Sequence:
#
# PCOD8100941 Si02
#       7
#     8   8   8   8   8   8   8
#     4   9  19  36  57  81 111 144 178 221 269 317
#     4  10  22  37  54  77 108 143 180 225 276 323
#     4  10  20  36  56  78 105 142 184 222 266 323
#     4  10  20  37  61  84 111 145 180 219 265 319
#     4  10  21  36  57  85 110 140 183 223 264 318
#     4  10  21  36  55  80 111 144 179 222 277 326
#     4  10  20  36  56  78 106 143 184 226 273 324
#
# _framework density 18.742604
#
# number of rings (size 3 to 8) (size 9 to 14) (size 15 to 20)
#    0.000    2.143    1.429    1.286    2.000    4.857 
#    0.000    1.429    0.000    1.714    0.000    0.000 
#    0.000    0.000    0.000    0.000    0.000    0.000 
#
# Total GULP energy -347183.111470 kJ/mol
# GULP energy per Si atom -12399.396838 kJ/mol
# Density = 1.869995 g / cm^3
# Si number density = 18.742604 Si / 1000 Ang^3
#
#
#
# Elastic Constant Matrix: (Units=GPa)
#
#
# Indices 1 2 3 4 5 6 
#
# 1 101.2497 26.1728 22.2421 0.0000 7.0814 -0.0001
# 2 26.1728 48.1573 28.1424 0.0000 -3.5832 -0.0004
# 3 22.2421 28.1424 76.0379 0.0000 6.6292 0.0000
# 4 0.0000 0.0000 0.0000 28.5320 0.0000 -1.1965
# 5 7.0814 -3.5832 6.6292 0.0000 35.4328 0.0000
# 6 -0.0001 -0.0004 0.0000 -1.1965 0.0000 23.4519
#
#
#
# Elastic Compliance Matrix: (Units=1/GPa)
#
#
# Indices 1 2 3 4 5 6 
#
# 1 0.011859 -0.006086 -0.000972 0.000000 -0.002804 0.000000
# 2 -0.006086 0.030374 -0.009998 0.000000 0.006159 0.000001
# 3 -0.000972 -0.009998 0.017493 0.000000 -0.004090 0.000000
# 4 0.000000 0.000000 0.000000 0.035124 0.000000 0.001792
# 5 -0.002804 0.006159 -0.004090 0.000000 0.030171 0.000000
# 6 0.000000 0.000001 0.000000 0.001792 0.000000 0.042732
#
#
# Mechanical properties :
#
#
# Convention : Reuss Voigt Hill
#
# Bulk Modulus (GPa) = 39.04237 42.06218 40.55227
# Shear Modulus (GPa) = 23.76388 27.40916 25.58652
#
# Velocity S-wave (km/s) = 3.56463 3.82828 3.69881
# Velocity P-wave (km/s) = 6.14965 6.48319 6.31862
#
# Compressibility (1/GPa) = 0.02561320
#
# Stress axis : x y z
#
# Youngs Moduli (GPa) = 84.32110 32.92277 57.16643
#
# Poissons Ratio (x) = 0.20037 0.05557
# Poissons Ratio (y) = 0.51317 0.57158
# Poissons Ratio (z) = 0.08197 0.32918
#
# Static dielectric constant tensor:
#      x y z
#    x 3.243780 0.000000 -0.547390 
#    y 0.000000 3.301260 0.000000 
#    z -0.547390 0.000000 2.288750 
# 
# 
# High freq. dielectric constant tensor:
#      x y z
#    x 1.740800 0.000000 0.009550 
#    y 0.000000 1.703610 0.000000 
#    z 0.009550 0.000000 1.737750 
# 
# From -- ./inp_files/275066.got.cif
#   From: 2010.06.25/outbox.cif.g09.slc.cpg/sg12_138_cif.got.tgz:275066.got - 2010.06.28 00:19:55.
