data_PCOD8100159
_publ_section_title
;
Structure prediction by ZEFSAII (Michael W. Deem and Ramdas Pophale) SiO2 
 PCOD8100159
Probable space group: C 2/M
;
_chemical_formula_sum "Si O2"
_cell_formula_units_Z 48
_cell_length_a 16.813548
_cell_length_b 14.843598
_cell_length_c 9.758782
_cell_angle_alpha 90.000000
_cell_angle_beta 88.546584
_cell_angle_gamma 90.000000
_cell_volume 2434.750277
_symmetry_space_group_name_H-M "C 2/M"
_symmetry_group_IT_number 12
_symmetry_cell_setting 'monoclinic'
loop_
_space_group_symop_operation_xyz
x,y,z
-x,y,-z
-x,-y,-z
x,-y,z
1/2+x,1/2+y,z
1/2-x,1/2+y,-z
1/2-x,1/2-y,-z
1/2+x,1/2-y,z
loop_
_atom_site_type_symbol
_atom_site_label
_atom_site_fract_x
_atom_site_fract_y
_atom_site_fract_z
Si Si1 0.677982 0.000000 0.169216
Si Si2 0.335498 0.500000 0.978334
Si Si3 0.151934 0.303350 0.199373
Si Si4 0.672015 0.689196 0.691319
Si Si5 0.085485 0.191553 0.430364
Si Si6 0.708247 0.500000 0.612805
Si Si7 0.908440 0.189458 0.034313
Si Si8 0.352780 0.500000 0.662973
O O1 0.629895 0.093494 0.156057
O O2 0.704001 0.000000 0.327660
O O3 0.752264 0.000000 0.061823
O O4 0.316594 0.500000 0.816439
O O5 0.388353 0.585087 0.016092
O O6 0.238326 0.290026 0.265114
O O7 0.087700 0.264444 0.308395
O O8 0.149316 0.246079 0.061288
O O9 0.649612 0.727021 0.541705
O O10 0.658018 0.582847 0.673487
O O11 0.610547 0.721860 0.810263
O O12 0.000000 0.193181 0.500000
O O13 0.097711 0.091577 0.366131
O O14 0.718015 0.500000 0.447187
O O15 0.000000 0.209577 0.000000
#
# Coordination Sequence:
#
# PCOD8100159 Si02
#       8
#     4   4   8   8   8   4   8   4
#     4  10  22  41  64  85 118 164 211 250 297 350
#     4  12  21  38  60  94 128 160 193 239 309 380
#     4  11  22  41  61  85 118 163 210 257 295 357
#     4  10  20  35  58  83 118 164 202 242 299 357
#     4  11  22  38  59  90 125 160 200 252 308 363
#     4   8  16  34  52  81 116 156 192 233 292 350
#     4  12  23  37  60  93 127 159 199 250 309 369
#     4  10  21  33  57  90 131 156 184 236 306 378
#
# _framework density 19.714547
#
# number of rings (size 3 to 8) (size 9 to 14) (size 15 to 20)
#    0.000    1.333    5.000    2.500    0.000    0.000 
#    0.000    0.833    0.000    0.000    0.000    0.000 
#    0.000    0.000    0.000    0.000    0.000    0.000 
#
# Total GULP energy -297393.942435 kJ/mol
# GULP energy per Si atom -12391.414268 kJ/mol
# Density = 1.966968 g / cm^3
# Si number density = 19.714547 Si / 1000 Ang^3
#
#
#
# Elastic Constant Matrix: (Units=GPa)
#
#
# Indices 1 2 3 4 5 6 
#
# 1 50.3462 32.3797 17.9633 0.0000 -6.1952 0.0000
# 2 32.3797 98.0941 24.5538 0.0000 -6.7161 0.0000
# 3 17.9633 24.5538 107.2484 0.0000 -6.6701 0.0000
# 4 0.0000 0.0000 0.0000 17.7848 0.0000 1.3646
# 5 -6.1952 -6.7161 -6.6701 0.0000 29.7937 0.0000
# 6 0.0000 0.0000 0.0000 1.3646 0.0000 18.5731
#
#
#
# Elastic Compliance Matrix: (Units=1/GPa)
#
#
# Indices 1 2 3 4 5 6 
#
# 1 0.026125 -0.007810 -0.002393 0.000000 0.003136 0.000000
# 2 -0.007810 0.013257 -0.001665 0.000000 0.000992 0.000000
# 3 -0.002393 -0.001665 0.010194 0.000000 0.001409 0.000000
# 4 0.000000 0.000000 0.000000 0.056547 0.000000 -0.004154
# 5 0.003136 0.000992 0.001409 0.000000 0.034755 0.000000
# 6 0.000000 0.000000 0.000000 -0.004154 0.000000 0.054146
#
#
# Mechanical properties :
#
#
# Convention : Reuss Voigt Hill
#
# Bulk Modulus (GPa) = 38.69975 45.05357 41.87666
# Shear Modulus (GPa) = 21.99028 25.28312 23.63670
#
# Velocity S-wave (km/s) = 3.34344 3.58503 3.46634
# Velocity P-wave (km/s) = 5.88026 6.32765 6.10805
#
# Compressibility (1/GPa) = 0.02583996
#
# Stress axis : x y z
#
# Youngs Moduli (GPa) = 38.27763 75.43192 98.09875
#
# Poissons Ratio (x) = 0.58912 0.23472
# Poissons Ratio (y) = 0.29894 0.16337
# Poissons Ratio (z) = 0.09159 0.12562
#
# Static dielectric constant tensor:
#      x y z
#    x 3.245780 0.000000 0.175360 
#    y 0.000000 3.723410 0.000000 
#    z 0.175360 0.000000 4.097600 
# 
# 
# High freq. dielectric constant tensor:
#      x y z
#    x 1.729950 0.000000 0.004190 
#    y 0.000000 1.759640 0.000000 
#    z 0.004190 0.000000 1.795540 
# 
# From -- ./inp_files/73686.got.cif
#   From: 2010.06.25/outbox.cif.g09.slc.cpg/sg12_37_cif.got.tgz:73686.got - 2010.06.28 00:19:55.
