data_PCOD8100855
_publ_section_title
;
Structure prediction by ZEFSAII (Michael W. Deem and Ramdas Pophale) SiO2 
 PCOD8100855
Probable space group: C 2/M
;
_chemical_formula_sum "Si O2"
_cell_formula_units_Z 56
_cell_length_a 15.031672
_cell_length_b 8.553983
_cell_length_c 23.148052
_cell_angle_alpha 90.000000
_cell_angle_beta 108.933085
_cell_angle_gamma 90.000000
_cell_volume 2815.363671
_symmetry_space_group_name_H-M "C 2/M"
_symmetry_group_IT_number 12
_symmetry_cell_setting 'monoclinic'
loop_
_space_group_symop_operation_xyz
x,y,z
-x,y,-z
-x,-y,-z
x,-y,z
1/2+x,1/2+y,z
1/2-x,1/2+y,-z
1/2-x,1/2-y,-z
1/2+x,1/2-y,z
loop_
_atom_site_type_symbol
_atom_site_label
_atom_site_fract_x
_atom_site_fract_y
_atom_site_fract_z
Si Si1 0.613145 0.314230 0.726229
Si Si2 0.179597 0.684201 0.061773
Si Si3 0.956325 0.186848 0.412588
Si Si4 0.117808 0.184204 0.938308
Si Si5 0.852219 0.686848 0.500003
Si Si6 0.686987 0.185472 0.192010
Si Si7 0.995126 0.185461 0.808072
O O1 0.613513 0.500000 0.727048
O O2 0.578457 0.254261 0.657013
O O3 0.716040 0.248047 0.762379
O O4 0.546600 0.247934 0.762522
O O5 0.172658 0.500000 0.060463
O O6 0.282098 0.742673 0.064140
O O7 0.164229 0.750940 0.122937
O O8 0.102462 0.749963 0.000052
O O9 0.879643 0.253285 0.441734
O O10 0.062133 0.253291 0.441724
O O11 0.959762 0.000000 0.419471
O O12 0.041249 0.250918 0.877161
O O13 0.112182 0.000000 0.939669
O O14 0.848410 0.500000 0.500002
O O15 0.750000 0.750000 0.500000
O O16 0.609518 0.250120 0.219163
O O17 0.689285 0.000000 0.191262
O O18 0.998349 0.000000 0.808831
#
# Coordination Sequence:
#
# PCOD8100855 Si02
#       7
#     8   8   8   8   8   8   8
#     4   9  19  38  60  79 111 152 185 220 271 331
#     4   9  17  31  52  73  98 134 176 223 276 333
#     4  10  20  37  62  91 119 154 193 232 282 335
#     4   9  17  31  52  73  98 134 176 223 276 333
#     4  11  22  39  62  90 124 157 190 233 276 326
#     4  10  20  36  55  77 105 142 183 225 276 331
#     4  10  20  36  55  77 105 142 183 225 276 331
#
# _framework density 19.890858999999999
#
# number of rings (size 3 to 8) (size 9 to 14) (size 15 to 20)
#    0.000    2.286    1.429    2.571    0.000    2.857 
#    0.000    9.286    0.000    0.000    0.000    0.000 
#    0.000    0.000    0.000    0.000    0.000    0.000 
#
# Total GULP energy -347053.380383 kJ/mol
# GULP energy per Si atom -12394.763585 kJ/mol
# Density = 1.984559 g / cm^3
# Si number density = 19.890859 Si / 1000 Ang^3
#
#
#
# Elastic Constant Matrix: (Units=GPa)
#
#
# Indices 1 2 3 4 5 6 
#
# 1 168.3844 34.5463 88.9153 0.0000 1.6209 0.0000
# 2 34.5463 55.8840 32.4092 0.0000 0.1001 0.0000
# 3 88.9153 32.4092 191.8534 0.0000 -1.2835 0.0000
# 4 0.0000 0.0000 0.0000 22.5773 0.0000 0.1573
# 5 1.6209 0.1001 -1.2835 0.0000 1.3186 0.0000
# 6 0.0000 0.0000 0.0000 0.1573 0.0000 31.2924
#
#
#
# Elastic Compliance Matrix: (Units=1/GPa)
#
#
# Indices 1 2 3 4 5 6 
#
# 1 0.008601 -0.003245 -0.003530 0.000000 -0.013763 0.000000
# 2 -0.003245 0.021092 -0.002056 0.000000 0.000386 0.000000
# 3 -0.003530 -0.002056 0.007273 0.000000 0.011575 0.000000
# 4 0.000000 0.000000 0.000000 0.044294 0.000000 -0.000223
# 5 -0.013763 0.000386 0.011575 0.000000 0.786532 0.000000
# 6 0.000000 0.000000 0.000000 -0.000223 0.000000 0.031958
#
#
# Mechanical properties :
#
#
# Convention : Reuss Voigt Hill
#
# Bulk Modulus (GPa) = 51.80521 80.87371 66.33946
# Shear Modulus (GPa) = 5.41214 28.38771 16.89993
#
# Velocity S-wave (km/s) = 1.65131 3.78189 2.91801
# Velocity P-wave (km/s) = 5.45317 7.73416 6.69157
#
# Compressibility (1/GPa) = 0.01930308
#
# Stress axis : x y z
#
# Youngs Moduli (GPa) = 116.26368 47.41079 137.49114
#
# Poissons Ratio (x) = 0.15385 0.48536
# Poissons Ratio (y) = 0.37729 0.28275
# Poissons Ratio (z) = 0.41042 0.09750
#
# Static dielectric constant tensor:
#      x y z
#    x 3.838020 0.000000 -0.001500 
#    y 0.000000 3.305590 0.000000 
#    z -0.001500 0.000000 3.950130 
# 
# 
# High freq. dielectric constant tensor:
#      x y z
#    x 1.778600 0.000000 -0.000030 
#    y 0.000000 1.751980 0.000000 
#    z -0.000030 0.000000 1.782200 
# 
# From -- ./inp_files/338201.got.cif
#   From: 2010.06.25/outbox.cif.g09.slc.cpg/sg12_170_cif.got.tgz:338201.got - 2010.06.28 00:19:55.
