data_PCOD8100443
_publ_section_title
;
Structure prediction by ZEFSAII (Michael W. Deem and Ramdas Pophale) SiO2 
 PCOD8100443
Probable space group: C 2/M
;
_chemical_formula_sum "Si O2"
_cell_formula_units_Z 48
_cell_length_a 23.847995
_cell_length_b 8.996133
_cell_length_c 11.764046
_cell_angle_alpha 90.000000
_cell_angle_beta 79.971229
_cell_angle_gamma 90.000000
_cell_volume 2485.291889
_symmetry_space_group_name_H-M "C 2/M"
_symmetry_group_IT_number 12
_symmetry_cell_setting 'monoclinic'
loop_
_space_group_symop_operation_xyz
x,y,z
-x,y,-z
-x,-y,-z
x,-y,z
1/2+x,1/2+y,z
1/2-x,1/2+y,-z
1/2-x,1/2-y,-z
1/2+x,1/2-y,z
loop_
_atom_site_type_symbol
_atom_site_label
_atom_site_fract_x
_atom_site_fract_y
_atom_site_fract_z
Si Si1 0.543801 0.673555 0.257101
Si Si2 0.924738 0.670965 0.323000
Si Si3 0.638009 0.827240 0.088190
Si Si4 0.716891 0.827525 0.269718
Si Si5 0.122843 0.826331 0.440289
Si Si6 0.829544 0.329955 0.173814
O O1 0.532072 0.500000 0.245048
O O2 0.485323 0.760787 0.272637
O O3 0.583208 0.730839 0.140957
O O4 0.573491 0.707804 0.366860
O O5 0.932196 0.500000 0.356007
O O6 0.894912 0.757227 0.434976
O O7 0.887114 0.688236 0.223968
O O8 0.689371 0.795164 0.156731
O O9 0.620369 0.000000 0.094754
O O10 0.658431 0.773603 0.957805
O O11 0.682244 0.744253 0.380228
O O12 0.781103 0.769773 0.247701
O O13 0.716577 0.000000 0.300364
O O14 0.132457 0.000000 0.452949
O O15 0.808279 0.500000 0.179797
#
# Coordination Sequence:
#
# PCOD8100443 Si02
#       6
#     8   8   8   8   8   8
#     4  10  21  37  58  83 109 140 180 226 274 319
#     4  11  23  37  55  80 111 147 183 220 267 323
#     4   9  19  37  59  82 109 142 181 223 268 320
#     4  10  20  35  59  86 108 138 182 227 269 317
#     4  10  21  38  59  81 108 142 180 225 274 321
#     4  10  22  38  55  79 113 149 180 217 270 324
#
# _framework density 19.313625999999999
#
# number of rings (size 3 to 8) (size 9 to 14) (size 15 to 20)
#    0.000    2.000    0.000    3.000    0.000    8.000 
#    0.000    3.333    0.000    0.000    0.000    0.000 
#    0.000    0.000    0.000    0.000    0.000    0.000 
#
# Total GULP energy -297747.577149 kJ/mol
# GULP energy per Si atom -12406.149048 kJ/mol
# Density = 1.926967 g / cm^3
# Si number density = 19.313626 Si / 1000 Ang^3
#
#
#
# Elastic Constant Matrix: (Units=GPa)
#
#
# Indices 1 2 3 4 5 6 
#
# 1 -12.8961 33.8219 96.2853 0.0000 2.4013 0.0000
# 2 33.8219 93.2987 39.9068 0.0000 -8.8417 0.0000
# 3 96.2853 39.9068 10.4718 0.0000 -30.2390 0.0000
# 4 0.0000 0.0000 0.0000 32.5444 0.0000 -7.2159
# 5 2.4013 -8.8417 -30.2390 0.0000 18.0485 0.0000
# 6 0.0000 0.0000 0.0000 -7.2159 0.0000 34.9488
#
#
#
# Elastic Compliance Matrix: (Units=1/GPa)
#
#
# Indices 1 2 3 4 5 6 
#
# 1 0.006847 -0.006389 0.013100 0.000000 0.017908 0.000000
# 2 -0.006389 0.015518 -0.006256 0.000000 -0.002029 0.000000
# 3 0.013100 -0.006256 0.003909 0.000000 0.001741 0.000000
# 4 0.000000 0.000000 0.000000 0.032201 0.000000 0.006649
# 5 0.017908 -0.002029 0.001741 0.000000 0.054946 0.000000
# 6 0.000000 0.000000 0.000000 0.006649 0.000000 0.029986
#
#
# Mechanical properties :
#
#
# Convention : Reuss Voigt Hill
#
# Bulk Modulus (GPa) = 36.78443 47.87803 42.33123
# Shear Modulus (GPa) = 32.99082 11.83238 22.41160
#
# Velocity S-wave (km/s) = 4.13748 2.47785 3.41016
# Velocity P-wave (km/s) = 6.47396 5.74716 6.12136
#
# Compressibility (1/GPa) = 0.02718542
#
# Stress axis : x y z
#
# Youngs Moduli (GPa) = 146.04558 64.44252 255.84039
#
# Poissons Ratio (x) = 0.41169 -3.35160
# Poissons Ratio (y) = 0.93301 1.60051
# Poissons Ratio (z) = -1.91325 0.40315
#
# Static dielectric constant tensor:
#      x y z
#    x 3.523460 0.000000 -0.049420 
#    y 0.000000 3.625240 0.000000 
#    z -0.049420 0.000000 3.581030 
# 
# 
# High freq. dielectric constant tensor:
#      x y z
#    x 1.751530 0.000000 -0.008170 
#    y 0.000000 1.761050 0.000000 
#    z -0.008170 0.000000 1.755750 
# 
# From -- ./inp_files/172072.got.cif
#   From: 2010.06.25/outbox.cif.g09.slc.cpg/sg12_87_cif.got.tgz:172072.got - 2010.06.28 00:19:55.
