data_PCOD8100782
_publ_section_title
;
Structure prediction by ZEFSAII (Michael W. Deem and Ramdas Pophale) SiO2 
 PCOD8100782
Probable space group: C 2/M
;
_chemical_formula_sum "Si O2"
_cell_formula_units_Z 56
_cell_length_a 29.900882
_cell_length_b 9.040311
_cell_length_c 11.822375
_cell_angle_alpha 90.000000
_cell_angle_beta 71.179071
_cell_angle_gamma 90.000000
_cell_volume 3024.873125
_symmetry_space_group_name_H-M "C 2/M"
_symmetry_group_IT_number 12
_symmetry_cell_setting 'monoclinic'
loop_
_space_group_symop_operation_xyz
x,y,z
-x,y,-z
-x,-y,-z
x,-y,z
1/2+x,1/2+y,z
1/2-x,1/2+y,-z
1/2-x,1/2-y,-z
1/2+x,1/2-y,z
loop_
_atom_site_type_symbol
_atom_site_label
_atom_site_fract_x
_atom_site_fract_y
_atom_site_fract_z
Si Si1 0.643433 0.170453 0.637346
Si Si2 0.064074 0.175145 0.845943
Si Si3 0.771746 0.669942 0.272980
Si Si4 0.164177 0.175293 0.393964
Si Si5 0.460551 0.675007 0.884687
Si Si6 0.377443 0.674887 0.805536
Si Si7 0.292080 0.325517 0.031370
O O1 0.606803 0.239955 0.754286
O O2 0.696476 0.190131 0.641594
O O3 0.639241 0.251449 0.521278
O O4 0.630626 0.000000 0.630693
O O5 0.015103 0.220520 0.822690
O O6 0.073175 0.000000 0.830790
O O7 0.060026 0.231076 0.978591
O O8 0.770951 0.500000 0.232166
O O9 0.718839 0.724268 0.342791
O O10 0.794542 0.770193 0.157429
O O11 0.136919 0.238141 0.305494
O O12 0.159747 0.000000 0.409435
O O13 0.457088 0.500000 0.892561
O O14 0.428474 0.735682 0.806752
O O15 0.378165 0.500000 0.793700
O O16 0.339944 0.723117 0.930640
O O17 0.284683 0.500000 0.035296
O O18 0.250000 0.250000 0.000000
#
# Coordination Sequence:
#
# PCOD8100782 Si02
#       7
#     8   8   8   8   8   8   8
#     4  11  23  36  52  75 106 139 176 220 264 315
#     4   9  17  33  57  82 106 131 168 216 260 312
#     4  10  21  37  53  75 105 138 178 222 264 307
#     4  10  20  36  54  71 101 140 180 221 257 306
#     4   8  15  30  56  85 105 127 168 217 260 306
#     4   9  17  31  52  78 106 136 170 214 261 303
#     4  11  20  32  53  80 111 141 171 211 259 313
#
# _framework density 18.513172999999998
#
# number of rings (size 3 to 8) (size 9 to 14) (size 15 to 20)
#    0.000    2.286    1.429    3.000    0.000    2.857 
#    0.000    2.143    0.000    7.714    0.000    0.000 
#    0.000    0.000    0.000    0.000    0.000    0.000 
#
# Total GULP energy -347149.606749 kJ/mol
# GULP energy per Si atom -12398.200241 kJ/mol
# Density = 1.847104 g / cm^3
# Si number density = 18.513173 Si / 1000 Ang^3
#
#
#
# Elastic Constant Matrix: (Units=GPa)
#
#
# Indices 1 2 3 4 5 6 
#
# 1 125.7952 21.7238 36.2800 0.0000 11.3465 0.0000
# 2 21.7238 44.2636 26.8712 0.0000 3.4747 0.0000
# 3 36.2800 26.8712 87.7599 0.0000 8.9986 0.0000
# 4 0.0000 0.0000 0.0000 26.7020 0.0000 -1.9154
# 5 11.3465 3.4747 8.9986 0.0000 23.7683 0.0000
# 6 0.0000 0.0000 0.0000 -1.9154 0.0000 19.5902
#
#
#
# Elastic Compliance Matrix: (Units=1/GPa)
#
#
# Indices 1 2 3 4 5 6 
#
# 1 0.009500 -0.002737 -0.002773 0.000000 -0.003085 0.000000
# 2 -0.002737 0.028556 -0.007614 0.000000 0.000014 0.000000
# 3 -0.002773 -0.007614 0.015213 0.000000 -0.003323 0.000000
# 4 0.000000 0.000000 0.000000 0.037715 0.000000 0.003688
# 5 -0.003085 0.000014 -0.003323 0.000000 0.044802 0.000000
# 6 0.000000 0.000000 0.000000 0.003688 0.000000 0.051407
#
#
# Mechanical properties :
#
#
# Convention : Reuss Voigt Hill
#
# Bulk Modulus (GPa) = 37.00668 47.50763 42.25716
# Shear Modulus (GPa) = 22.47732 25.54168 24.00950
#
# Velocity S-wave (km/s) = 3.48821 3.71839 3.60514
# Velocity P-wave (km/s) = 6.02132 6.64473 6.34069
#
# Compressibility (1/GPa) = 0.02702215
#
# Stress axis : x y z
#
# Youngs Moduli (GPa) = 105.26215 35.01888 65.73331
#
# Poissons Ratio (x) = 0.09584 0.18228
# Poissons Ratio (y) = 0.28809 0.50047
# Poissons Ratio (z) = 0.29189 0.26662
#
# Static dielectric constant tensor:
#      x y z
#    x 3.803760 0.000000 0.200990 
#    y 0.000000 3.171640 0.000000 
#    z 0.200990 0.000000 3.319330 
# 
# 
# High freq. dielectric constant tensor:
#      x y z
#    x 1.728630 0.000000 0.007790 
#    y 0.000000 1.686510 0.000000 
#    z 0.007790 0.000000 1.712260 
# 
# From -- ./inp_files/186452.got.cif
#   From: 2010.06.25/outbox.cif.g09.slc.cpg/sg12_94_cif.got.tgz:186452.got - 2010.06.28 00:19:55.
