data_PCOD8100111
_publ_section_title
;
Structure prediction by ZEFSAII (Michael W. Deem and Ramdas Pophale) SiO2 
 PCOD8100111
Probable space group: C 2/M
;
_chemical_formula_sum "Si O2"
_cell_formula_units_Z 60
_cell_length_a 8.670951
_cell_length_b 29.865989
_cell_length_c 18.091617
_cell_angle_alpha 90.000000
_cell_angle_beta 40.329251
_cell_angle_gamma 90.000000
_cell_volume 3032.113633
_symmetry_space_group_name_H-M "C 2/M"
_symmetry_group_IT_number 12
_symmetry_cell_setting 'monoclinic'
loop_
_space_group_symop_operation_xyz
x,y,z
-x,y,-z
-x,-y,-z
x,-y,z
1/2+x,1/2+y,z
1/2-x,1/2+y,-z
1/2-x,1/2-y,-z
1/2+x,1/2-y,z
loop_
_atom_site_type_symbol
_atom_site_label
_atom_site_fract_x
_atom_site_fract_y
_atom_site_fract_z
Si Si1 0.000000 0.615505 0.000000
Si Si2 0.734022 0.789548 0.614504
Si Si3 0.751652 0.052412 0.800577
Si Si4 0.249553 0.449281 0.627496
Si Si5 0.755895 0.747738 0.235601
Si Si6 0.139839 0.880884 0.660864
Si Si7 0.102654 0.621999 0.583074
Si Si8 0.135185 0.187702 0.157678
O O1 0.954468 0.582201 0.085710
O O2 0.782028 0.649463 0.059621
O O3 0.522795 0.761271 0.653041
O O4 0.687862 0.786995 0.719191
O O5 0.710282 0.839780 0.595294
O O6 0.000000 0.770423 0.500000
O O7 0.729543 0.059582 0.721441
O O8 0.005401 0.073120 0.733787
O O9 0.735790 0.000000 0.828686
O O10 0.500000 0.434842 0.500000
O O11 0.191432 0.500000 0.629700
O O12 0.058253 0.420275 0.652646
O O13 0.799946 0.725101 0.138739
O O14 0.938117 0.790020 0.175678
O O15 0.211197 0.887340 0.550275
O O16 0.350540 0.868383 0.639318
O O17 0.976932 0.837116 0.729490
#
# Coordination Sequence:
#
# PCOD8100111 Si02
#       8
#     4   8   8   8   8   8   8   8
#     4  10  23  38  68  88 118 152 208 260 307 350
#     4  11  21  33  54  84 118 166 203 239 291 364
#     4  10  21  40  64  89 118 156 199 247 301 365
#     4  10  20  35  57  88 121 152 193 240 297 368
#     4  10  22  37  57  79 122 158 205 251 304 351
#     4  10  21  35  53  84 126 157 198 242 290 361
#     4  11  21  33  54  85 123 166 194 235 297 354
#     4  10  21  41  56  87 115 156 204 260 301 350
#
# _framework density 19.788177999999998
#
# number of rings (size 3 to 8) (size 9 to 14) (size 15 to 20)
#    0.000    1.733    2.667    1.800    3.733    2.133 
#    0.000    1.333    0.000    6.400    0.000    8.400 
#    0.000    0.000    0.000    0.000    0.000    0.000 
#
# Total GULP energy -371726.096188 kJ/mol
# GULP energy per Si atom -12390.869873 kJ/mol
# Density = 1.974314 g / cm^3
# Si number density = 19.788178 Si / 1000 Ang^3
#
#
#
# Elastic Constant Matrix: (Units=GPa)
#
#
# Indices 1 2 3 4 5 6 
#
# 1 82.3319 55.0481 34.4965 0.0000 -3.5752 0.0000
# 2 55.0481 122.2207 55.3178 0.0000 -1.1678 0.0000
# 3 34.4965 55.3178 88.2154 0.0000 0.5678 0.0000
# 4 0.0000 0.0000 0.0000 33.6781 0.0000 2.1755
# 5 -3.5752 -1.1678 0.5678 0.0000 20.0501 0.0000
# 6 0.0000 0.0000 0.0000 2.1755 0.0000 33.7693
#
#
#
# Elastic Compliance Matrix: (Units=1/GPa)
#
#
# Indices 1 2 3 4 5 6 
#
# 1 0.017996 -0.006820 -0.002779 0.000000 0.002890 0.000000
# 2 -0.006820 0.014024 -0.006126 0.000000 -0.000226 0.000000
# 3 -0.002779 -0.006126 0.016273 0.000000 -0.001313 0.000000
# 4 0.000000 0.000000 0.000000 0.029817 0.000000 -0.001921
# 5 0.002890 -0.000226 -0.001313 0.000000 0.050414 0.000000
# 6 0.000000 0.000000 0.000000 -0.001921 0.000000 0.029736
#
#
# Mechanical properties :
#
#
# Convention : Reuss Voigt Hill
#
# Bulk Modulus (GPa) = 59.37344 64.72142 62.04743
# Shear Modulus (GPa) = 25.59852 27.35989 26.47921
#
# Velocity S-wave (km/s) = 3.60060 3.72242 3.66202
# Velocity P-wave (km/s) = 6.88153 7.15914 7.02171
#
# Compressibility (1/GPa) = 0.01684255
#
# Stress axis : x y z
#
# Youngs Moduli (GPa) = 55.56881 71.30676 61.45322
#
# Poissons Ratio (x) = 0.48629 0.17080
# Poissons Ratio (y) = 0.37896 0.37645
# Poissons Ratio (z) = 0.15444 0.43681
#
# Static dielectric constant tensor:
#      x y z
#    x 3.534200 0.000000 -0.053180 
#    y 0.000000 3.716830 0.000000 
#    z -0.053180 0.000000 3.576820 
# 
# 
# High freq. dielectric constant tensor:
#      x y z
#    x 1.763010 0.000000 0.000970 
#    y 0.000000 1.780720 0.000000 
#    z 0.000970 0.000000 1.755310 
# 
# From -- ./inp_files/302759.got.cif
#   From: 2010.06.25/outbox.cif.g09.slc.cpg/sg12_152_cif.got.tgz:302759.got - 2010.06.28 00:19:55.
