data_PCOD8100024
_publ_section_title
;
Structure prediction by ZEFSAII (Michael W. Deem and Ramdas Pophale) SiO2 
 PCOD8100024
Probable space group: C 2/M
;
_chemical_formula_sum "Si O2"
_cell_formula_units_Z 56
_cell_length_a 28.948469
_cell_length_b 9.037290
_cell_length_c 11.592399
_cell_angle_alpha 90.000000
_cell_angle_beta 69.033750
_cell_angle_gamma 90.000000
_cell_volume 2831.959193
_symmetry_space_group_name_H-M "C 2/M"
_symmetry_group_IT_number 12
_symmetry_cell_setting 'monoclinic'
loop_
_space_group_symop_operation_xyz
x,y,z
-x,y,-z
-x,-y,-z
x,-y,z
1/2+x,1/2+y,z
1/2-x,1/2+y,-z
1/2-x,1/2-y,-z
1/2+x,1/2-y,z
loop_
_atom_site_type_symbol
_atom_site_label
_atom_site_fract_x
_atom_site_fract_y
_atom_site_fract_z
Si Si1 0.266215 0.324613 0.603300
Si Si2 0.829466 0.329932 0.170710
Si Si3 0.478123 0.675603 0.844363
Si Si4 0.548794 0.326610 0.383311
Si Si5 0.351331 0.824004 0.664241
Si Si6 0.574610 0.325332 0.880091
Si Si7 0.198186 0.671771 0.055161
O O1 0.273280 0.500000 0.581224
O O2 0.250000 0.250000 0.500000
O O3 0.224481 0.285265 0.734906
O O4 0.317371 0.251676 0.597958
O O5 0.839722 0.500000 0.187160
O O6 0.872130 0.241061 0.199421
O O7 0.832838 0.291982 0.032085
O O8 0.478077 0.500000 0.841330
O O9 0.460344 0.737538 0.737328
O O10 0.534284 0.728218 0.821938
O O11 0.442091 0.731804 0.978189
O O12 0.500000 0.295694 0.500000
O O13 0.562213 0.500000 0.369893
O O14 0.593320 0.236363 0.401632
O O15 0.332767 0.772887 0.807298
O O16 0.350203 0.000000 0.649298
O O17 0.579309 0.500000 0.875187
O O18 0.210007 0.500000 0.054679
O O19 0.250000 0.750000 0.000000
#
# Coordination Sequence:
#
# PCOD8100024 Si02
#       7
#     8   8   8   8   8   8   8
#     4  11  24  42  61  81 114 155 194 238 286 345
#     4  10  21  36  54  83 118 148 182 232 288 339
#     4   8  16  33  53  78 109 141 186 237 282 329
#     4  10  21  37  58  82 111 151 196 240 289 346
#     4  11  23  39  61  89 119 152 193 243 297 353
#     4   9  17  31  55  80 106 144 186 231 278 334
#     4  10  20  35  57  85 117 150 189 236 288 348
#
# _framework density 19.774296
#
# number of rings (size 3 to 8) (size 9 to 14) (size 15 to 20)
#    0.000    2.143    1.429    2.571    0.000    3.714 
#    0.000    3.571    0.000    0.000    0.000    0.000 
#    0.000    0.000    0.000    0.000    0.000    0.000 
#
# Total GULP energy -347211.483354 kJ/mol
# GULP energy per Si atom -12400.410120 kJ/mol
# Density = 1.972929 g / cm^3
# Si number density = 19.774296 Si / 1000 Ang^3
#
#
#
# Elastic Constant Matrix: (Units=GPa)
#
#
# Indices 1 2 3 4 5 6 
#
# 1 164.8814 59.0806 48.5493 0.0000 -2.3726 0.0000
# 2 59.0806 63.4786 35.6554 0.0000 -2.5886 0.0000
# 3 48.5493 35.6554 74.8551 0.0000 10.4276 0.0000
# 4 0.0000 0.0000 0.0000 23.1037 0.0000 -1.8547
# 5 -2.3726 -2.5886 10.4276 0.0000 33.5749 0.0000
# 6 0.0000 0.0000 0.0000 -1.8547 0.0000 36.3254
#
#
#
# Elastic Compliance Matrix: (Units=1/GPa)
#
#
# Indices 1 2 3 4 5 6 
#
# 1 0.009502 -0.007184 -0.002882 0.000000 0.001013 0.000000
# 2 -0.007184 0.027793 -0.009206 0.000000 0.004494 0.000000
# 3 -0.002882 -0.009206 0.020633 0.000000 -0.007322 0.000000
# 4 0.000000 0.000000 0.000000 0.043461 0.000000 0.002219
# 5 0.001013 0.004494 -0.007322 0.000000 0.032476 0.000000
# 6 0.000000 0.000000 0.000000 0.002219 0.000000 0.027642
#
#
# Mechanical properties :
#
#
# Convention : Reuss Voigt Hill
#
# Bulk Modulus (GPa) = 51.58402 65.53174 58.55788
# Shear Modulus (GPa) = 24.21151 29.26281 26.73716
#
# Velocity S-wave (km/s) = 3.50293 3.85104 3.68110
# Velocity P-wave (km/s) = 6.51949 7.27914 6.90976
#
# Compressibility (1/GPa) = 0.01938585
#
# Stress axis : x y z
#
# Youngs Moduli (GPa) = 105.23768 35.97991 48.46539
#
# Poissons Ratio (x) = 0.25847 0.13969
# Poissons Ratio (y) = 0.75600 0.44615
# Poissons Ratio (z) = 0.30332 0.33121
#
# Static dielectric constant tensor:
#      x y z
#    x 3.624120 0.000000 0.054810 
#    y 0.000000 3.371820 0.000000 
#    z 0.054810 0.000000 3.785150 
# 
# 
# High freq. dielectric constant tensor:
#      x y z
#    x 1.785080 0.000000 0.001450 
#    y 0.000000 1.750060 0.000000 
#    z 0.001450 0.000000 1.765100 
# 
# From -- ./inp_files/187266.got.cif
#   From: 2010.06.25/outbox.cif.g09.slc.cpg/sg12_94_cif.got.tgz:187266.got - 2010.06.28 00:19:55.
