data_PCOD8100296
_publ_section_title
;
Structure prediction by ZEFSAII (Michael W. Deem and Ramdas Pophale) SiO2 
 PCOD8100296
Probable space group: C 2/M
;
_chemical_formula_sum "Si O2"
_cell_formula_units_Z 64
_cell_length_a 19.292390
_cell_length_b 13.549288
_cell_length_c 25.931994
_cell_angle_alpha 90.000000
_cell_angle_beta 26.807650
_cell_angle_gamma 90.000000
_cell_volume 3057.115138
_symmetry_space_group_name_H-M "C 2/M"
_symmetry_group_IT_number 12
_symmetry_cell_setting 'monoclinic'
loop_
_space_group_symop_operation_xyz
x,y,z
-x,y,-z
-x,-y,-z
x,-y,z
1/2+x,1/2+y,z
1/2-x,1/2+y,-z
1/2-x,1/2-y,-z
1/2+x,1/2-y,z
loop_
_atom_site_type_symbol
_atom_site_label
_atom_site_fract_x
_atom_site_fract_y
_atom_site_fract_z
Si Si1 0.216012 0.721362 0.442476
Si Si2 0.578931 0.886123 0.328204
Si Si3 0.194100 0.111167 0.078355
Si Si4 0.507595 0.613456 0.577334
Si Si5 0.342659 0.385908 0.074319
Si Si6 0.443137 0.737625 0.913111
Si Si7 0.505692 0.610167 0.694996
Si Si8 0.712797 0.230048 0.325884
O O1 0.180973 0.839820 0.464072
O O2 0.372637 0.693221 0.367281
O O3 0.212653 0.690440 0.384610
O O4 0.080091 0.673404 0.567036
O O5 0.693334 0.852549 0.206284
O O6 0.662329 0.865218 0.327031
O O7 0.539615 0.000000 0.349802
O O8 0.065024 0.170432 0.132386
O O9 0.146975 0.117024 0.169399
O O10 0.201369 0.000000 0.052991
O O11 0.361538 0.157671 0.958560
O O12 0.514217 0.500000 0.554283
O O13 0.444695 0.624517 0.677391
O O14 0.400344 0.676551 0.609481
O O15 0.327299 0.500000 0.068458
O O16 0.500000 0.368332 0.000000
O O17 0.349546 0.318918 0.019493
O O18 0.620085 0.761725 0.805684
O O19 0.580352 0.500000 0.651409
#
# Coordination Sequence:
#
# PCOD8100296 Si02
#       8
#     8   8   8   8   8   8   8   8
#     4  11  22  39  63  90 121 163 213 251 305 365
#     4  10  21  35  55  90 125 155 198 257 311 365
#     4  10  23  40  61  89 120 161 208 252 308 371
#     4  10  23  41  61  89 126 165 203 251 309 365
#     4  10  20  35  58  86 119 159 200 245 309 369
#     4  11  22  39  63  86 124 161 203 256 307 364
#     4  10  21  40  64  90 124 163 204 256 312 368
#     4  11  23  38  61  92 121 163 205 255 307 366
#
# _framework density 20.934768999999999
#
# number of rings (size 3 to 8) (size 9 to 14) (size 15 to 20)
#    0.000    1.625    2.500    2.625    3.500    3.500 
#    0.000    0.000    0.000    2.625    0.000    0.000 
#    0.000    0.000    0.000    0.000    0.000    0.000 
#
# Total GULP energy -396666.739710 kJ/mol
# GULP energy per Si atom -12395.835616 kJ/mol
# Density = 2.088712 g / cm^3
# Si number density = 20.934769 Si / 1000 Ang^3
#
#
#
# Elastic Constant Matrix: (Units=GPa)
#
#
# Indices 1 2 3 4 5 6 
#
# 1 48.0497 -2.4530 8.7523 -0.0071 2.0855 0.0023
# 2 -2.4530 68.7546 28.4366 -0.0099 -10.9251 0.0051
# 3 8.7523 28.4366 95.5399 -0.0137 1.2684 0.0124
# 4 -0.0071 -0.0099 -0.0137 23.1844 0.0047 8.3262
# 5 2.0855 -10.9251 1.2684 0.0047 35.4699 -0.0025
# 6 0.0023 0.0051 0.0124 8.3262 -0.0025 18.1974
#
#
#
# Elastic Compliance Matrix: (Units=1/GPa)
#
#
# Indices 1 2 3 4 5 6 
#
# 1 0.021371 0.001670 -0.002446 0.000008 -0.000655 -0.000005
# 2 0.001670 0.017771 -0.005516 0.000005 0.005573 -0.000003
# 3 -0.002446 -0.005516 0.012359 0.000008 -0.001997 -0.000011
# 4 0.000008 0.000005 0.000008 0.051613 -0.000008 -0.023616
# 5 -0.000655 0.005573 -0.001997 -0.000008 0.030019 0.000008
# 6 -0.000005 -0.000003 -0.000011 -0.023616 0.000008 0.065758
#
#
# Mechanical properties :
#
#
# Convention : Reuss Voigt Hill
#
# Bulk Modulus (GPa) = 25.69595 31.31291 28.50443
# Shear Modulus (GPa) = 22.27674 27.21091 24.74382
#
# Velocity S-wave (km/s) = 3.26560 3.60918 3.44168
# Velocity P-wave (km/s) = 5.14973 5.68842 5.42576
#
# Compressibility (1/GPa) = 0.03891665
#
# Stress axis : x y z
#
# Youngs Moduli (GPa) = 46.79231 56.27100 80.91032
#
# Poissons Ratio (x) = -0.09398 0.19792
# Poissons Ratio (y) = -0.07815 0.44634
# Poissons Ratio (z) = 0.11446 0.31041
#
# Static dielectric constant tensor:
#      x y z
#    x 3.682350 0.000000 0.203770 
#    y 0.000000 3.833390 0.000020 
#    z 0.203770 0.000020 3.809200 
# 
# 
# High freq. dielectric constant tensor:
#      x y z
#    x 1.814870 0.000000 0.017160 
#    y 0.000000 1.815530 0.000000 
#    z 0.017160 0.000000 1.822880 
# 
# From -- ./inp_files/344001.got.cif
#   From: 2010.06.25/outbox.cif.g09.slc.cpg/sg12_173_cif.got.tgz:344001.got - 2010.06.28 00:19:55.
