data_PCOD8100403
_publ_section_title
;
Structure prediction by ZEFSAII (Michael W. Deem and Ramdas Pophale) SiO2 
 PCOD8100403
Probable space group: C 2/M
;
_chemical_formula_sum "Si O2"
_cell_formula_units_Z 56
_cell_length_a 13.648266
_cell_length_b 23.490114
_cell_length_c 14.094917
_cell_angle_alpha 90.000000
_cell_angle_beta 141.396823
_cell_angle_gamma 90.000000
_cell_volume 2819.395956
_symmetry_space_group_name_H-M "C 2/M"
_symmetry_group_IT_number 12
_symmetry_cell_setting 'monoclinic'
loop_
_space_group_symop_operation_xyz
x,y,z
-x,y,-z
-x,-y,-z
x,-y,z
1/2+x,1/2+y,z
1/2-x,1/2+y,-z
1/2-x,1/2-y,-z
1/2+x,1/2-y,z
loop_
_atom_site_type_symbol
_atom_site_label
_atom_site_fract_x
_atom_site_fract_y
_atom_site_fract_z
Si Si1 0.088248 0.434887 0.665305
Si Si2 0.136994 0.265722 0.829735
Si Si3 0.485972 0.562913 0.331298
Si Si4 0.890044 0.830172 0.659673
Si Si5 0.249215 0.937138 0.691366
Si Si6 0.090240 0.364172 0.322319
Si Si7 0.673027 0.665639 0.171637
O O1 0.140375 0.500000 0.724971
O O2 0.240434 0.394489 0.779021
O O3 0.000000 0.429494 0.500000
O O4 0.962379 0.415213 0.648331
O O5 0.234108 0.282508 0.808816
O O6 0.013272 0.215953 0.712964
O O7 0.048747 0.321002 0.800629
O O8 0.250000 0.250000 0.000000
O O9 0.470930 0.500000 0.273586
O O10 0.523467 0.608234 0.277539
O O11 0.325428 0.580035 0.264064
O O12 0.621571 0.562426 0.511554
O O13 0.738849 0.829941 0.477361
O O14 0.835815 0.817020 0.725066
O O15 0.377385 0.890812 0.757166
O O16 0.324332 0.000000 0.757028
O O17 0.500000 0.659186 0.000000
#
# Coordination Sequence:
#
# PCOD8100403 Si02
#       7
#     8   8   8   8   8   8   8
#     4  10  20  35  58  91 123 154 193 237 291 354
#     4  11  24  40  57  79 113 156 199 243 294 350
#     4   8  16  30  53  85 119 146 181 231 286 346
#     4  11  21  38  60  89 112 151 196 242 297 350
#     4   8  14  29  53  84 118 148 179 229 286 338
#     4  10  20  35  60  89 117 150 196 242 292 343
#     4  11  23  41  61  80 119 157 201 248 296 353
#
# _framework density 19.862411000000002
#
# number of rings (size 3 to 8) (size 9 to 14) (size 15 to 20)
#    0.000    2.143    2.857    1.714    0.000    2.571 
#    0.000    2.857    0.000    0.000    0.000    2.000 
#    0.000    0.000    0.000    0.000    0.000    0.000 
#
# Total GULP energy -347132.988400 kJ/mol
# GULP energy per Si atom -12397.606729 kJ/mol
# Density = 1.981720 g / cm^3
# Si number density = 19.862411 Si / 1000 Ang^3
#
#
#
# Elastic Constant Matrix: (Units=GPa)
#
#
# Indices 1 2 3 4 5 6 
#
# 1 132.3380 72.3635 36.5430 0.0000 2.8709 0.0000
# 2 72.3635 116.7116 32.0765 0.0000 2.3348 0.0000
# 3 36.5430 32.0765 55.8975 0.0000 8.9681 0.0000
# 4 0.0000 0.0000 0.0000 18.1379 0.0000 -0.9397
# 5 2.8709 2.3348 8.9681 0.0000 27.0439 0.0000
# 6 0.0000 0.0000 0.0000 -0.9397 0.0000 37.2841
#
#
#
# Elastic Compliance Matrix: (Units=1/GPa)
#
#
# Indices 1 2 3 4 5 6 
#
# 1 0.012272 -0.006395 -0.004470 0.000000 0.000732 0.000000
# 2 -0.006395 0.013537 -0.003706 0.000000 0.000739 0.000000
# 3 -0.004470 -0.003706 0.024094 0.000000 -0.007195 0.000000
# 4 0.000000 0.000000 0.000000 0.055205 0.000000 0.001391
# 5 0.000732 0.000739 -0.007195 0.000000 0.039221 0.000000
# 6 0.000000 0.000000 0.000000 0.001391 0.000000 0.026856
#
#
# Mechanical properties :
#
#
# Convention : Reuss Voigt Hill
#
# Bulk Modulus (GPa) = 48.17059 65.21256 56.69157
# Shear Modulus (GPa) = 24.12582 27.42412 25.77497
#
# Velocity S-wave (km/s) = 3.48896 3.71981 3.60623
# Velocity P-wave (km/s) = 6.36673 7.16609 6.77820
#
# Compressibility (1/GPa) = 0.02075956
#
# Stress axis : x y z
#
# Youngs Moduli (GPa) = 81.48887 73.87321 41.50490
#
# Poissons Ratio (x) = 0.47239 0.18555
# Poissons Ratio (y) = 0.52109 0.15382
# Poissons Ratio (z) = 0.36429 0.27378
#
# Static dielectric constant tensor:
#      x y z
#    x 4.046760 0.000000 0.106880 
#    y 0.000000 3.919950 0.000000 
#    z 0.106880 0.000000 3.180680 
# 
# 
# High freq. dielectric constant tensor:
#      x y z
#    x 1.791230 0.000000 0.008050 
#    y 0.000000 1.781380 0.000000 
#    z 0.008050 0.000000 1.735020 
# 
# From -- ./inp_files/137025.got.cif
#   From: 2010.06.25/outbox.cif.g09.slc.cpg/sg12_69_cif.got.tgz:137025.got - 2010.06.28 00:19:55.
