data_PCOD8100758
_publ_section_title
;
Structure prediction by ZEFSAII (Michael W. Deem and Ramdas Pophale) SiO2 
 PCOD8100758
Probable space group: C 2/M
;
_chemical_formula_sum "Si O2"
_cell_formula_units_Z 52
_cell_length_a 13.529852
_cell_length_b 22.867104
_cell_length_c 11.930741
_cell_angle_alpha 90.000000
_cell_angle_beta 42.544202
_cell_angle_gamma 90.000000
_cell_volume 2495.860637
_symmetry_space_group_name_H-M "C 2/M"
_symmetry_group_IT_number 12
_symmetry_cell_setting 'monoclinic'
loop_
_space_group_symop_operation_xyz
x,y,z
-x,y,-z
-x,-y,-z
x,-y,z
1/2+x,1/2+y,z
1/2-x,1/2+y,-z
1/2-x,1/2-y,-z
1/2+x,1/2-y,z
loop_
_atom_site_type_symbol
_atom_site_label
_atom_site_fract_x
_atom_site_fract_y
_atom_site_fract_z
Si Si1 0.834456 0.873032 0.685701
Si Si2 0.644450 0.066822 0.451923
Si Si3 0.357751 0.500000 0.938635
Si Si4 0.120111 0.000000 0.309017
Si Si5 0.784322 0.316920 0.991410
Si Si6 0.651253 0.611594 0.908269
Si Si7 0.915137 0.376928 0.273293
Si Si8 0.033951 0.500000 0.101101
O O1 0.788672 0.940176 0.750615
O O2 0.721411 0.852718 0.684623
O O3 0.000000 0.865271 0.500000
O O4 0.810176 0.837743 0.821922
O O5 0.500000 0.064574 0.500000
O O6 0.771853 0.090842 0.268013
O O7 0.631149 0.116788 0.558468
O O8 0.678263 0.000000 0.465802
O O9 0.464519 0.500000 0.741078
O O10 0.388096 0.555306 0.986816
O O11 0.202875 0.500000 0.999439
O O12 0.000000 0.000000 0.500000
O O13 0.745423 0.346499 0.906225
O O14 0.956108 0.330835 0.862711
O O15 0.750000 0.250000 0.000000
O O16 0.500000 0.643050 0.000000
O O17 0.962839 0.442567 0.209686
O O18 0.000000 0.500000 0.000000
#
# Coordination Sequence:
#
# PCOD8100758 Si02
#       8
#     8   8   4   4   8   8   8   4
#     4  11  25  45  71 107 140 173 220 282 347 418
#     4  11  22  40  65 105 144 175 221 267 342 431
#     4  12  19  39  60  95 139 179 221 264 344 422
#     4  10  20  35  66 100 143 171 206 267 351 417
#     4  12  27  50  71  94 129 184 241 291 337 397
#     4  12  26  42  67  97 141 186 224 282 344 415
#     4  12  23  42  72 102 140 179 217 282 347 411
#     4  12  20  34  67 107 133 174 216 267 343 426
#
# _framework density 20.834496999999999
#
# number of rings (size 3 to 8) (size 9 to 14) (size 15 to 20)
#    0.000    0.462    6.154    3.000    2.154    1.231 
#    2.769    0.769    0.000    0.000    0.000    0.000 
#    0.000    0.000    0.000    0.000    0.000    0.000 
#
# Total GULP energy -322189.652797 kJ/mol
# GULP energy per Si atom -12391.909723 kJ/mol
# Density = 2.078708 g / cm^3
# Si number density = 20.834497 Si / 1000 Ang^3
#
#
#
# Elastic Constant Matrix: (Units=GPa)
#
#
# Indices 1 2 3 4 5 6 
#
# 1 111.4507 25.1508 46.6424 -0.0003 -9.3644 0.0001
# 2 25.1508 108.6481 38.1768 0.0000 -2.0102 0.0000
# 3 46.6424 38.1768 146.8549 -0.0002 10.2561 0.0001
# 4 -0.0003 0.0000 -0.0002 7.0736 0.0003 9.5535
# 5 -9.3644 -2.0102 10.2561 0.0003 43.3527 -0.0001
# 6 0.0001 0.0000 0.0001 9.5535 -0.0001 -4.1682
#
#
#
# Elastic Compliance Matrix: (Units=1/GPa)
#
#
# Indices 1 2 3 4 5 6 
#
# 1 0.010927 -0.001295 -0.003350 0.000000 0.003093 0.000000
# 2 -0.001295 0.010336 -0.002328 0.000000 0.000750 0.000000
# 3 -0.003350 -0.002328 0.008680 0.000000 -0.002885 0.000000
# 4 0.000000 0.000000 0.000000 0.034518 0.000000 0.079116
# 5 0.003093 0.000750 -0.002885 0.000000 0.024452 -0.000001
# 6 0.000000 0.000000 0.000000 0.079116 -0.000001 -0.058579
#
#
# Mechanical properties :
#
#
# Convention : Reuss Voigt Hill
#
# Bulk Modulus (GPa) = 62.51272 65.21038 63.86155
# Shear Modulus (GPa) = 100.78511 26.38389 63.58450
#
# Velocity S-wave (km/s) = 6.96270 3.56245 5.53038
# Velocity P-wave (km/s) = 9.73183 6.94900 8.45568
#
# Compressibility (1/GPa) = 0.01599674
#
# Stress axis : x y z
#
# Youngs Moduli (GPa) = 91.52037 96.75193 115.20765
#
# Poissons Ratio (x) = 0.12531 0.38591
# Poissons Ratio (y) = 0.11853 0.26820
# Poissons Ratio (z) = 0.30656 0.22523
#
# Static dielectric constant tensor:
#      x y z
#    x 4.136780 0.000000 0.282830 
#    y 0.000000 3.012820 0.000000 
#    z 0.282830 0.000000 4.041100 
# 
# 
# High freq. dielectric constant tensor:
#      x y z
#    x 1.830240 0.000000 0.012080 
#    y 0.000000 1.779370 0.000000 
#    z 0.012080 0.000000 1.835950 
# 
# From -- ./inp_files/135890.got.cif
#   From: 2010.06.25/outbox.cif.g09.slc.cpg/sg12_68_cif.got.tgz:135890.got - 2010.06.28 00:19:55.
