data_PCOD8100544
_publ_section_title
;
Structure prediction by ZEFSAII (Michael W. Deem and Ramdas Pophale) SiO2 
 PCOD8100544
Probable space group: C 2/M
;
_chemical_formula_sum "Si O2"
_cell_formula_units_Z 64
_cell_length_a 20.527988
_cell_length_b 17.777313
_cell_length_c 22.150131
_cell_angle_alpha 90.000000
_cell_angle_beta 157.311106
_cell_angle_gamma 90.000000
_cell_volume 3117.949547
_symmetry_space_group_name_H-M "C 2/M"
_symmetry_group_IT_number 12
_symmetry_cell_setting 'monoclinic'
loop_
_space_group_symop_operation_xyz
x,y,z
-x,y,-z
-x,-y,-z
x,-y,z
1/2+x,1/2+y,z
1/2-x,1/2+y,-z
1/2-x,1/2-y,-z
1/2+x,1/2-y,z
loop_
_atom_site_type_symbol
_atom_site_label
_atom_site_fract_x
_atom_site_fract_y
_atom_site_fract_z
Si Si1 0.124328 0.348116 0.155917
Si Si2 0.021306 0.232112 0.893836
Si Si3 0.301674 0.353124 0.106759
Si Si4 0.899608 0.912580 0.315013
Si Si5 0.912314 0.586107 0.623630
Si Si6 0.285713 0.414445 0.964729
Si Si7 0.784682 0.588495 0.642486
Si Si8 0.164649 0.199536 0.377783
O O1 0.312638 0.360002 0.291847
O O2 0.105298 0.384713 0.205982
O O3 0.061371 0.261520 0.113759
O O4 0.000000 0.385896 0.000000
O O5 0.872182 0.241960 0.716625
O O6 0.186242 0.279595 0.016240
O O7 0.077061 0.144340 0.944468
O O8 0.303178 0.402367 0.168948
O O9 0.490735 0.328042 0.256564
O O10 0.244363 0.402655 0.000460
O O11 0.091152 0.883053 0.477333
O O12 0.886909 0.000000 0.323580
O O13 0.857367 0.500000 0.571458
O O14 0.872967 0.617889 0.657227
O O15 0.794877 0.630906 0.475947
O O16 0.110128 0.597262 0.778615
O O17 0.352128 0.500000 0.012276
O O18 0.784166 0.500000 0.643484
O O19 0.250000 0.250000 0.500000
#
# Coordination Sequence:
#
# PCOD8100544 Si02
#       8
#     8   8   8   8   8   8   8   8
#     4  12  24  40  56  78 114 161 212 249 279 332
#     4  11  24  39  55  84 121 159 204 246 293 353
#     4  11  20  36  57  87 122 159 191 239 299 363
#     4  11  23  38  58  84 119 163 202 241 287 349
#     4  10  20  35  59  90 119 149 184 236 302 366
#     4  10  21  38  60  87 121 152 192 245 305 366
#     4  10  21  38  56  83 125 160 197 236 286 351
#     4  11  20  33  57  82 116 152 193 236 294 351
#
# _framework density 20.526311
#
# number of rings (size 3 to 8) (size 9 to 14) (size 15 to 20)
#    0.000    1.250    2.500    5.625    0.000    4.000 
#    0.000    0.000    0.000    0.375    0.000    0.000 
#    0.000    4.000    0.000    0.000    0.000    0.000 
#
# Total GULP energy -396677.444622 kJ/mol
# GULP energy per Si atom -12396.170144 kJ/mol
# Density = 2.047959 g / cm^3
# Si number density = 20.526311 Si / 1000 Ang^3
#
#
#
# Elastic Constant Matrix: (Units=GPa)
#
#
# Indices 1 2 3 4 5 6 
#
# 1 48.7857 15.2828 0.5888 0.0206 1.4846 0.0015
# 2 15.2828 75.4974 38.6406 0.0335 10.2333 0.0119
# 3 0.5888 38.6406 102.6649 -0.0293 -6.6083 -0.0218
# 4 0.0206 0.0335 -0.0293 35.0377 0.0037 0.6232
# 5 1.4846 10.2333 -6.6083 0.0037 25.7808 -0.0012
# 6 0.0015 0.0119 -0.0218 0.6232 -0.0012 30.5425
#
#
#
# Elastic Compliance Matrix: (Units=1/GPa)
#
#
# Indices 1 2 3 4 5 6 
#
# 1 0.022249 -0.005829 0.002169 -0.000006 0.001588 0.000003
# 2 -0.005829 0.019851 -0.008057 -0.000021 -0.009609 -0.000013
# 3 0.002169 -0.008057 0.013176 0.000017 0.006450 0.000012
# 4 -0.000006 -0.000021 0.000017 0.028551 0.000009 -0.000582
# 5 0.001588 -0.009609 0.006450 0.000009 0.044165 0.000010
# 6 0.000003 -0.000013 0.000012 -0.000582 0.000010 0.032753
#
#
# Mechanical properties :
#
#
# Convention : Reuss Voigt Hill
#
# Bulk Modulus (GPa) = 31.40515 37.33026 34.36771
# Shear Modulus (GPa) = 25.66816 29.76792 27.71804
#
# Velocity S-wave (km/s) = 3.54008 3.81232 3.67872
# Velocity P-wave (km/s) = 5.66063 6.13225 5.90115
#
# Compressibility (1/GPa) = 0.03184191
#
# Stress axis : x y z
#
# Youngs Moduli (GPa) = 44.94510 50.37404 75.89818
#
# Poissons Ratio (x) = 0.29363 -0.16459
# Poissons Ratio (y) = 0.26199 0.61149
# Poissons Ratio (z) = -0.09747 0.40585
#
# Static dielectric constant tensor:
#      x y z
#    x 3.575650 -0.000070 -0.060350 
#    y -0.000070 3.842110 -0.000200 
#    z -0.060350 -0.000200 3.600730 
# 
# 
# High freq. dielectric constant tensor:
#      x y z
#    x 1.760070 -0.000010 0.002350 
#    y -0.000010 1.796500 -0.000010 
#    z 0.002350 -0.000010 1.824760 
# 
# From -- ./inp_files/350041.got.cif
#   From: 2010.06.25/outbox.cif.g09.slc.cpg/sg12_176_cif.got.tgz:350041.got - 2010.06.28 00:19:55.
