data_PCOD8100188
_publ_section_title
;
Structure prediction by ZEFSAII (Michael W. Deem and Ramdas Pophale) SiO2 
 PCOD8100188
Probable space group: C 2/M
;
_chemical_formula_sum "Si O2"
_cell_formula_units_Z 56
_cell_length_a 19.140948
_cell_length_b 9.041943
_cell_length_c 18.634392
_cell_angle_alpha 90.000000
_cell_angle_beta 115.798706
_cell_angle_gamma 90.000000
_cell_volume 2903.631386
_symmetry_space_group_name_H-M "C 2/M"
_symmetry_group_IT_number 12
_symmetry_cell_setting 'monoclinic'
loop_
_space_group_symop_operation_xyz
x,y,z
-x,y,-z
-x,-y,-z
x,-y,z
1/2+x,1/2+y,z
1/2-x,1/2+y,-z
1/2-x,1/2-y,-z
1/2+x,1/2-y,z
loop_
_atom_site_type_symbol
_atom_site_label
_atom_site_fract_x
_atom_site_fract_y
_atom_site_fract_z
Si Si1 0.410460 0.671888 0.274443
Si Si2 0.195413 0.331037 0.530903
Si Si3 0.089869 0.666281 0.021393
Si Si4 0.624531 0.326723 0.176253
Si Si5 0.019411 0.332529 0.431227
Si Si6 0.447894 0.327592 0.133011
Si Si7 0.232464 0.826046 0.692507
O O1 0.429206 0.500000 0.285615
O O2 0.478129 0.746497 0.349613
O O3 0.415401 0.727986 0.194804
O O4 0.325369 0.707447 0.267251
O O5 0.222687 0.500000 0.554917
O O6 0.250000 0.250000 0.500000
O O7 0.110724 0.325792 0.458041
O O8 0.194680 0.246333 0.605779
O O9 0.123714 0.500000 0.035629
O O10 0.135269 0.760856 0.101258
O O11 0.101042 0.739598 0.948605
O O12 0.000000 0.665988 0.000000
O O13 0.642176 0.500000 0.181306
O O14 0.539379 0.292587 0.169164
O O15 0.684621 0.247144 0.255808
O O16 0.987558 0.500000 0.416308
O O17 0.000000 0.260582 0.500000
O O18 0.432708 0.500000 0.113057
O O19 0.243637 0.000000 0.684703
#
# Coordination Sequence:
#
# PCOD8100188 Si02
#       7
#     8   8   8   8   8   8   8
#     4  10  22  38  58  83 113 150 189 232 279 333
#     4  11  24  41  60  84 114 148 187 234 284 335
#     4   9  17  32  55  84 114 145 182 228 280 333
#     4  10  20  35  58  84 113 150 187 231 282 334
#     4  10  21  39  60  82 110 147 189 232 278 332
#     4   9  19  36  57  84 112 143 186 231 277 333
#     4  11  23  39  57  82 116 151 188 232 281 335
#
# _framework density 19.286193999999998
#
# number of rings (size 3 to 8) (size 9 to 14) (size 15 to 20)
#    0.000    2.000    1.429    1.714    2.000    4.857 
#    0.000    0.714    0.000    0.000    0.000    0.000 
#    0.000    0.000    0.000    0.000    0.000    0.000 
#
# Total GULP energy -347290.821868 kJ/mol
# GULP energy per Si atom -12403.243638 kJ/mol
# Density = 1.924230 g / cm^3
# Si number density = 19.286194 Si / 1000 Ang^3
#
#
#
# Elastic Constant Matrix: (Units=GPa)
#
#
# Indices 1 2 3 4 5 6 
#
# 1 64.0349 32.5970 17.5486 0.0000 -17.7822 0.0000
# 2 32.5970 97.4875 36.2120 0.0000 -7.7898 0.0000
# 3 17.5486 36.2120 72.8867 0.0000 -20.8092 0.0000
# 4 0.0000 0.0000 0.0000 41.3336 0.0000 1.4413
# 5 -17.7822 -7.7898 -20.8092 0.0000 36.5525 0.0000
# 6 0.0000 0.0000 0.0000 1.4413 0.0000 25.0216
#
#
#
# Elastic Compliance Matrix: (Units=1/GPa)
#
#
# Indices 1 2 3 4 5 6 
#
# 1 0.021443 -0.006746 0.000903 0.000000 0.009509 0.000000
# 2 -0.006746 0.014735 -0.006850 0.000000 -0.004041 0.000000
# 3 0.000903 -0.006850 0.019839 0.000000 0.010274 0.000000
# 4 0.000000 0.000000 0.000000 0.024242 0.000000 -0.001396
# 5 0.009509 -0.004041 0.010274 0.000000 0.036971 0.000000
# 6 0.000000 0.000000 0.000000 -0.001396 0.000000 0.040046
#
#
# Mechanical properties :
#
#
# Convention : Reuss Voigt Hill
#
# Bulk Modulus (GPa) = 32.64589 45.23602 38.94096
# Shear Modulus (GPa) = 25.92381 30.45164 28.18772
#
# Velocity S-wave (km/s) = 3.67026 3.97789 3.82717
# Velocity P-wave (km/s) = 5.90973 6.67864 6.30592
#
# Compressibility (1/GPa) = 0.03063173
#
# Stress axis : x y z
#
# Youngs Moduli (GPa) = 46.63452 67.86564 50.40555
#
# Poissons Ratio (x) = 0.45781 -0.04553
# Poissons Ratio (y) = 0.31459 0.34530
# Poissons Ratio (z) = -0.04213 0.46491
#
# Static dielectric constant tensor:
#      x y z
#    x 3.279090 0.000000 0.119240 
#    y 0.000000 3.632340 0.000000 
#    z 0.119240 0.000000 3.092150 
# 
# 
# High freq. dielectric constant tensor:
#      x y z
#    x 1.736910 0.000000 -0.005990 
#    y 0.000000 1.756450 0.000000 
#    z -0.005990 0.000000 1.756250 
# 
# From -- ./inp_files/275071.got.cif
#   From: 2010.06.25/outbox.cif.g09.slc.cpg/sg12_138_cif.got.tgz:275071.got - 2010.06.28 00:19:55.
