data_PCOD8100055
_publ_section_title
;
Structure prediction by ZEFSAII (Michael W. Deem and Ramdas Pophale) SiO2 
 PCOD8100055
Probable space group: C 2/M
;
_chemical_formula_sum "Si O2"
_cell_formula_units_Z 64
_cell_length_a 18.481873
_cell_length_b 8.924907
_cell_length_c 31.583171
_cell_angle_alpha 90.000000
_cell_angle_beta 140.265420
_cell_angle_gamma 90.000000
_cell_volume 3330.151270
_symmetry_space_group_name_H-M "C 2/M"
_symmetry_group_IT_number 12
_symmetry_cell_setting 'monoclinic'
loop_
_space_group_symop_operation_xyz
x,y,z
-x,y,-z
-x,-y,-z
x,-y,z
1/2+x,1/2+y,z
1/2-x,1/2+y,-z
1/2-x,1/2-y,-z
1/2+x,1/2-y,z
loop_
_atom_site_type_symbol
_atom_site_label
_atom_site_fract_x
_atom_site_fract_y
_atom_site_fract_z
Si Si1 0.157600 0.824653 0.429073
Si Si2 0.005920 0.324378 0.132570
Si Si3 0.545295 0.326527 0.975516
Si Si4 0.418123 0.176667 0.319416
Si Si5 0.805073 0.326264 0.102052
Si Si6 0.607945 0.671358 0.778367
Si Si7 0.728092 0.174401 0.284753
Si Si8 0.344678 0.668690 0.668161
O O1 0.250000 0.750000 0.500000
O O2 0.193908 0.796156 0.396942
O O3 0.037078 0.751564 0.384170
O O4 0.147868 0.000000 0.434465
O O5 0.998118 0.500000 0.122225
O O6 0.115083 0.278409 0.208866
O O7 0.018107 0.251620 0.091924
O O8 0.893564 0.266758 0.106646
O O9 0.513290 0.500000 0.959191
O O10 0.500000 0.260595 0.000000
O O11 0.678585 0.299359 0.028804
O O12 0.366882 0.233212 0.252082
O O13 0.331282 0.223754 0.316471
O O14 0.434316 0.000000 0.325443
O O15 0.829300 0.500000 0.123182
O O16 0.815194 0.233077 0.149548
O O17 0.640749 0.500000 0.783464
O O18 0.478421 0.687498 0.733177
O O19 0.713228 0.210238 0.327622
O O20 0.756176 0.000000 0.291421
O O21 0.309086 0.500000 0.664977
#
# Coordination Sequence:
#
# PCOD8100055 Si02
#       8
#     8   8   8   8   8   8   8   8
#     4  10  21  40  65  94 126 160 201 240 282 341
#     4  10  22  38  57  81 110 149 195 242 294 355
#     4  10  23  39  55  79 111 147 193 246 299 359
#     4  11  23  38  59  86 121 160 196 240 293 342
#     4  10  20  37  57  80 111 149 195 239 293 359
#     4  10  20  35  57  86 115 148 193 241 291 349
#     4  11  22  37  58  87 121 152 193 247 298 350
#     4   9  19  36  58  87 120 153 191 234 282 343
#
# _framework density 19.218346
#
# number of rings (size 3 to 8) (size 9 to 14) (size 15 to 20)
#    0.000    1.875    1.250    3.375    1.750    4.750 
#    0.000    0.625    0.000    3.750    0.000    0.000 
#    0.000    0.000    0.000    0.000    0.000    0.000 
#
# Total GULP energy -396923.023973 kJ/mol
# GULP energy per Si atom -12403.844499 kJ/mol
# Density = 1.917460 g / cm^3
# Si number density = 19.218346 Si / 1000 Ang^3
#
#
#
# Elastic Constant Matrix: (Units=GPa)
#
#
# Indices 1 2 3 4 5 6 
#
# 1 105.2986 45.4597 40.6793 0.0000 -4.4303 0.0001
# 2 45.4597 99.3112 48.8939 -0.0001 -4.3699 0.0001
# 3 40.6793 48.8939 91.5360 0.0000 -14.5754 0.0000
# 4 0.0000 -0.0001 0.0000 32.3591 0.0000 -5.5771
# 5 -4.4303 -4.3699 -14.5754 0.0000 21.8457 0.0000
# 6 0.0001 0.0001 0.0000 -5.5771 0.0000 32.5331
#
#
#
# Elastic Compliance Matrix: (Units=1/GPa)
#
#
# Indices 1 2 3 4 5 6 
#
# 1 0.012582 -0.004051 -0.003525 0.000000 -0.000611 0.000000
# 2 -0.004051 0.015079 -0.006607 0.000000 -0.002213 0.000000
# 3 -0.003525 -0.006607 0.017562 0.000000 0.009681 0.000000
# 4 0.000000 0.000000 0.000000 0.031844 0.000000 0.005459
# 5 -0.000611 -0.002213 0.009681 0.000000 0.051668 0.000000
# 6 0.000000 0.000000 0.000000 0.005459 0.000000 0.031674
#
#
# Mechanical properties :
#
#
# Convention : Reuss Voigt Hill
#
# Bulk Modulus (GPa) = 59.32042 62.91241 61.11641
# Shear Modulus (GPa) = 25.72131 28.08843 26.90487
#
# Velocity S-wave (km/s) = 3.66235 3.82716 3.74566
# Velocity P-wave (km/s) = 6.98694 7.23438 7.11173
#
# Compressibility (1/GPa) = 0.01685760
#
# Stress axis : x y z
#
# Youngs Moduli (GPa) = 79.48081 66.31827 56.94266
#
# Poissons Ratio (x) = 0.26863 0.20072
# Poissons Ratio (y) = 0.32195 0.37620
# Poissons Ratio (z) = 0.28016 0.43814
#
# Static dielectric constant tensor:
#      x y z
#    x 3.547320 0.000000 -0.035370 
#    y 0.000000 3.497140 0.000000 
#    z -0.035370 0.000000 3.374770 
# 
# 
# High freq. dielectric constant tensor:
#      x y z
#    x 1.751740 0.000000 -0.005620 
#    y 0.000000 1.749220 0.000000 
#    z -0.005620 0.000000 1.739270 
# 
# From -- ./inp_files/378071.got.cif
#   From: 2010.06.25/outbox.cif.g09.slc.cpg/sg12_190_cif.got.tgz:378071.got - 2010.06.28 00:19:55.
