data_PCOD8100220
_publ_section_title
;
Structure prediction by ZEFSAII (Michael W. Deem and Ramdas Pophale) SiO2 
 PCOD8100220
Probable space group: C 2/M
;
_chemical_formula_sum "Si O2"
_cell_formula_units_Z 64
_cell_length_a 8.541787
_cell_length_b 20.305145
_cell_length_c 23.260897
_cell_angle_alpha 90.000000
_cell_angle_beta 55.269976
_cell_angle_gamma 90.000000
_cell_volume 3315.671785
_symmetry_space_group_name_H-M "C 2/M"
_symmetry_group_IT_number 12
_symmetry_cell_setting 'monoclinic'
loop_
_space_group_symop_operation_xyz
x,y,z
-x,y,-z
-x,-y,-z
x,-y,z
1/2+x,1/2+y,z
1/2-x,1/2+y,-z
1/2-x,1/2-y,-z
1/2+x,1/2-y,z
loop_
_atom_site_type_symbol
_atom_site_label
_atom_site_fract_x
_atom_site_fract_y
_atom_site_fract_z
Si Si1 0.320072 0.426262 0.074205
Si Si2 0.180147 0.577370 0.302425
Si Si3 0.446098 0.820089 0.285183
Si Si4 0.435432 0.807562 0.869321
Si Si5 0.030674 0.777366 0.366630
Si Si6 0.357621 0.160927 0.577705
Si Si7 0.680499 0.813823 0.921480
Si Si8 0.015462 0.073886 0.152031
O O1 0.258553 0.500000 0.069208
O O2 0.148693 0.378085 0.095108
O O3 0.365419 0.421623 0.131790
O O4 0.500000 0.402860 0.000000
O O5 0.135894 0.500000 0.311720
O O6 0.173705 0.605010 0.368125
O O7 0.392828 0.592648 0.234182
O O8 0.022091 0.611112 0.294564
O O9 0.522308 0.804045 0.206397
O O10 0.216769 0.823623 0.331231
O O11 0.524627 0.760405 0.307278
O O12 0.625052 0.799960 0.867053
O O13 0.294639 0.749737 0.918979
O O14 0.042427 0.725416 0.416256
O O15 0.842734 0.822087 0.411285
O O16 0.500000 0.132157 0.500000
O O17 0.810505 0.878213 0.895641
O O18 0.500000 0.825788 0.000000
O O19 0.098526 0.000000 0.139743
#
# Coordination Sequence:
#
# PCOD8100220 Si02
#       8
#     8   8   8   8   8   8   8   8
#     4  10  20  37  60  82 109 149 195 240 290 350
#     4  10  22  40  60  84 117 155 196 239 290 347
#     4  10  20  35  58  85 112 151 189 242 284 344
#     4  12  23  35  59  82 116 149 195 241 297 350
#     4   9  20  35  58  91 122 147 191 234 288 337
#     4  10  20  36  63  91 124 157 191 235 285 345
#     4  12  26  39  56  84 119 153 193 248 303 354
#     4  10  22  41  60  80 113 154 196 243 295 353
#
# _framework density 19.302273
#
# number of rings (size 3 to 8) (size 9 to 14) (size 15 to 20)
#    0.000    1.625    1.250    3.375    7.000    1.000 
#    0.000    0.625    0.000    0.750    0.000    0.000 
#    0.000    0.000    0.000    0.000    0.000    0.000 
#
# Total GULP energy -396877.032311 kJ/mol
# GULP energy per Si atom -12402.407260 kJ/mol
# Density = 1.925834 g / cm^3
# Si number density = 19.302273 Si / 1000 Ang^3
#
#
#
# Elastic Constant Matrix: (Units=GPa)
#
#
# Indices 1 2 3 4 5 6 
#
# 1 87.9853 39.4286 17.3521 0.0001 -12.2957 0.0000
# 2 39.4286 96.5905 39.6528 0.0000 -19.0514 0.0000
# 3 17.3521 39.6528 111.4463 0.0002 -4.7081 -0.0001
# 4 0.0001 0.0000 0.0002 111.5583 -0.0001 -44.4557
# 5 -12.2957 -19.0514 -4.7081 -0.0001 27.3205 0.0001
# 6 0.0000 0.0000 -0.0001 -44.4557 0.0001 44.7386
#
#
#
# Elastic Compliance Matrix: (Units=1/GPa)
#
#
# Indices 1 2 3 4 5 6 
#
# 1 0.014086 -0.005103 -0.000262 0.000000 0.002736 0.000000
# 2 -0.005103 0.015864 -0.004512 0.000000 0.007988 0.000000
# 3 -0.000262 -0.004512 0.010558 0.000000 -0.001445 0.000000
# 4 0.000000 0.000000 0.000000 0.014840 0.000000 0.014747
# 5 0.002736 0.007988 -0.001445 0.000000 0.043155 0.000000
# 6 0.000000 0.000000 0.000000 0.014747 0.000000 0.037005
#
#
# Mechanical properties :
#
#
# Convention : Reuss Voigt Hill
#
# Bulk Modulus (GPa) = 48.18379 54.32101 51.25240
# Shear Modulus (GPa) = 30.82947 50.02937 40.42942
#
# Velocity S-wave (km/s) = 4.00083 5.09658 4.58158
# Velocity P-wave (km/s) = 6.80875 7.92698 7.38905
#
# Compressibility (1/GPa) = 0.02075387
#
# Stress axis : x y z
#
# Youngs Moduli (GPa) = 70.99092 63.03541 94.71285
#
# Poissons Ratio (x) = 0.32166 0.02482
# Poissons Ratio (y) = 0.36226 0.42739
# Poissons Ratio (z) = 0.01860 0.28445
#
# Static dielectric constant tensor:
#      x y z
#    x 3.613710 0.000000 0.041170 
#    y 0.000000 3.472200 0.000000 
#    z 0.041170 0.000000 3.501660 
# 
# 
# High freq. dielectric constant tensor:
#      x y z
#    x 1.750300 0.000000 0.005520 
#    y 0.000000 1.743850 0.000000 
#    z 0.005520 0.000000 1.755200 
# 
# From -- ./inp_files/301694.got.cif
#   From: 2010.06.25/outbox.cif.g09.slc.cpg/sg12_151_cif.got.tgz:301694.got - 2010.06.28 00:19:55.
