data_PCOD8100797
_publ_section_title
;
Structure prediction by ZEFSAII (Michael W. Deem and Ramdas Pophale) SiO2 
 PCOD8100797
Probable space group: C 2/M
;
_chemical_formula_sum "Si O2"
_cell_formula_units_Z 56
_cell_length_a 24.281255
_cell_length_b 21.217921
_cell_length_c 18.512265
_cell_angle_alpha 90.000000
_cell_angle_beta 19.152176
_cell_angle_gamma 90.000000
_cell_volume 3129.039088
_symmetry_space_group_name_H-M "C 2/M"
_symmetry_group_IT_number 12
_symmetry_cell_setting 'monoclinic'
loop_
_space_group_symop_operation_xyz
x,y,z
-x,y,-z
-x,-y,-z
x,-y,z
1/2+x,1/2+y,z
1/2-x,1/2+y,-z
1/2-x,1/2-y,-z
1/2+x,1/2-y,z
loop_
_atom_site_type_symbol
_atom_site_label
_atom_site_fract_x
_atom_site_fract_y
_atom_site_fract_z
Si Si1 0.702654 0.000000 0.829733
Si Si2 0.485821 0.784884 0.934694
Si Si3 0.168894 0.500000 0.701292
Si Si4 0.665749 0.430842 0.746818
Si Si5 0.987688 0.152119 0.861008
Si Si6 0.689480 0.367505 0.476582
Si Si7 0.816916 0.426002 0.703287
Si Si8 0.339184 0.632616 0.655924
O O1 0.664389 0.000000 0.792842
O O2 0.807803 0.938647 0.721676
O O3 0.521311 0.000000 0.093740
O O4 0.462624 0.723432 0.915707
O O5 0.650665 0.823107 0.707527
O O6 0.500000 0.763766 0.000000
O O7 0.324131 0.827689 0.121335
O O8 0.264361 0.438103 0.555991
O O9 0.703985 0.500000 0.665383
O O10 0.643921 0.379211 0.711300
O O11 0.808850 0.411006 0.627185
O O12 0.500000 0.434916 0.000000
O O13 0.034771 0.153791 0.718283
O O14 0.818085 0.112784 0.082993
O O15 0.627030 0.364159 0.471561
O O16 0.784624 0.500000 0.758072
O O17 0.000000 0.403873 0.500000
O O18 0.500000 0.659210 0.500000
#
# Coordination Sequence:
#
# PCOD8100797 Si02
#       8
#     4   8   4   8   8   8   8   8
#     4   9  15  32  58  78 100 130 175 213 254 314
#     4  10  20  36  54  75 104 141 177 212 253 312
#     4   9  16  30  56  82 100 130 166 218 268 306
#     4   8  15  29  49  73  95 127 175 214 246 297
#     4  11  20  32  54  79 106 134 176 217 265 302
#     4  10  21  34  54  80 108 131 172 222 271 302
#     4   9  18  33  52  73 104 142 178 214 254 308
#     4  10  20  36  56  78 103 139 178 214 253 318
#
# _framework density 17.896868000000001
#
# number of rings (size 3 to 8) (size 9 to 14) (size 15 to 20)
#    0.000    2.429    1.429    3.214    2.000    0.571 
#    0.000    2.143    0.000    0.000    0.000    0.000 
#    0.000    0.000    0.000    0.000    0.000    0.000 
#
# Total GULP energy -347140.411517 kJ/mol
# GULP energy per Si atom -12397.871840 kJ/mol
# Density = 1.785613 g / cm^3
# Si number density = 17.896868 Si / 1000 Ang^3
#
#
#
# Elastic Constant Matrix: (Units=GPa)
#
#
# Indices 1 2 3 4 5 6 
#
# 1 81.3229 39.7732 55.3497 -0.0107 -13.1582 0.0343
# 2 39.7732 110.2466 50.0918 0.0984 7.8808 -0.1587
# 3 55.3497 50.0918 97.7911 0.0188 -3.7205 -0.1186
# 4 -0.0107 0.0984 0.0188 4.3945 0.0408 9.0066
# 5 -13.1582 7.8808 -3.7205 0.0408 31.9132 -0.0062
# 6 0.0343 -0.1587 -0.1186 9.0066 -0.0062 8.9223
#
#
#
# Elastic Compliance Matrix: (Units=1/GPa)
#
#
# Indices 1 2 3 4 5 6 
#
# 1 0.023011 -0.004181 -0.010528 -0.000670 0.009294 0.000380
# 2 -0.004181 0.013018 -0.004510 0.000569 -0.005465 -0.000391
# 3 -0.010528 -0.004510 0.018454 0.000387 -0.001076 -0.000186
# 4 -0.000670 0.000569 0.000387 -0.212847 -0.000058 0.214875
# 5 0.009294 -0.005465 -0.001076 -0.000058 0.036391 -0.000064
# 6 0.000380 -0.000391 -0.000186 0.214875 -0.000064 -0.104837
#
#
# Mechanical properties :
#
#
# Convention : Reuss Voigt Hill
#
# Bulk Modulus (GPa) = 62.33063 64.42110 63.37586
# Shear Modulus (GPa) = -27.31884 18.65573 -4.33156
#
# Velocity S-wave (km/s) = -3.91123 3.23213 -1.55742
# Velocity P-wave (km/s) = 3.80871 7.07126 5.67931
#
# Compressibility (1/GPa) = 0.01604348
#
# Stress axis : x y z
#
# Youngs Moduli (GPa) = 43.45811 76.81792 54.18921
#
# Poissons Ratio (x) = 0.32118 0.57051
# Poissons Ratio (y) = 0.18170 0.24440
# Poissons Ratio (z) = 0.45754 0.34646
#
# Static dielectric constant tensor:
#      x y z
#    x 3.392060 -0.000040 -0.146930 
#    y -0.000040 3.382810 0.000130 
#    z -0.146930 0.000130 3.121540 
# 
# 
# High freq. dielectric constant tensor:
#      x y z
#    x 1.674320 -0.000010 -0.004990 
#    y -0.000010 1.699290 0.000020 
#    z -0.004990 0.000020 1.674940 
# 
# From -- ./inp_files/290823.got.cif
#   From: 2010.06.25/outbox.cif.g09.slc.cpg/sg12_146_cif.got.tgz:290823.got - 2010.06.28 00:19:55.
