data_PCOD8100177
_publ_section_title
;
Structure prediction by ZEFSAII (Michael W. Deem and Ramdas Pophale) SiO2 
 PCOD8100177
Probable space group: C 2/M
;
_chemical_formula_sum "Si O2"
_cell_formula_units_Z 40
_cell_length_a 13.909489
_cell_length_b 16.787051
_cell_length_c 12.304053
_cell_angle_alpha 90.000000
_cell_angle_beta 140.003144
_cell_angle_gamma 90.000000
_cell_volume 1846.600177
_symmetry_space_group_name_H-M "C 2/M"
_symmetry_group_IT_number 12
_symmetry_cell_setting 'monoclinic'
loop_
_space_group_symop_operation_xyz
x,y,z
-x,y,-z
-x,-y,-z
x,-y,z
1/2+x,1/2+y,z
1/2-x,1/2+y,-z
1/2-x,1/2-y,-z
1/2+x,1/2-y,z
loop_
_atom_site_type_symbol
_atom_site_label
_atom_site_fract_x
_atom_site_fract_y
_atom_site_fract_z
Si Si1 0.195493 0.855860 0.614749
Si Si2 0.114140 0.677645 0.504045
Si Si3 0.890582 0.087902 0.683306
Si Si4 0.995400 0.404321 0.807703
Si Si5 0.181617 0.906087 0.836410
O O1 0.147113 0.770886 0.524729
O O2 0.155989 0.917724 0.484744
O O3 0.373382 0.872069 0.788703
O O4 0.122593 0.868081 0.670709
O O5 0.280034 0.639791 0.662302
O O6 0.000000 0.654843 0.500000
O O7 0.037303 0.642208 0.331495
O O8 0.063362 0.118690 0.829011
O O9 0.883619 0.000000 0.727461
O O10 0.990200 0.500000 0.787458
O O11 0.156841 0.374878 0.988393
O O12 0.184112 0.000000 0.820760
#
# Coordination Sequence:
#
# PCOD8100177 Si02
#       5
#     8   8   8   8   8
#     4  11  20  35  57  86 117 148 185 226 284 346
#     4  11  23  39  56  79 113 156 197 229 271 331
#     4  10  20  35  58  84 111 147 191 236 277 329
#     4  10  21  38  61  86 114 148 187 233 280 332
#     4  10  20  36  60  90 117 141 179 236 294 336
#
# _framework density 21.661429999999999
#
# number of rings (size 3 to 8) (size 9 to 14) (size 15 to 20)
#    0.000    1.600    0.000    8.400    0.000    4.800 
#    0.000   12.000    0.000    3.600    0.000    0.000 
#    0.000    0.000    0.000    0.000    0.000    0.000 
#
# Total GULP energy -247828.049007 kJ/mol
# GULP energy per Si atom -12391.402450 kJ/mol
# Density = 2.161213 g / cm^3
# Si number density = 21.661430 Si / 1000 Ang^3
#
#
#
# Elastic Constant Matrix: (Units=GPa)
#
#
# Indices 1 2 3 4 5 6 
#
# 1 114.7401 34.5558 5.4749 0.0000 16.0704 0.0000
# 2 34.5558 84.0057 23.0287 0.0000 -1.3923 0.0000
# 3 5.4749 23.0287 49.0327 0.0000 9.0616 0.0000
# 4 0.0000 0.0000 0.0000 12.8697 0.0000 0.8192
# 5 16.0704 -1.3923 9.0616 0.0000 27.1871 0.0000
# 6 0.0000 0.0000 0.0000 0.8192 0.0000 35.7823
#
#
#
# Elastic Compliance Matrix: (Units=1/GPa)
#
#
# Indices 1 2 3 4 5 6 
#
# 1 0.011376 -0.005585 0.002822 0.000000 -0.007951 0.000000
# 2 -0.005585 0.016643 -0.008483 0.000000 0.006981 0.000000
# 3 0.002822 -0.008483 0.026057 0.000000 -0.010788 0.000000
# 4 0.000000 0.000000 0.000000 0.077815 0.000000 -0.001781
# 5 -0.007951 0.006981 -0.010788 0.000000 0.045435 0.000000
# 6 0.000000 0.000000 0.000000 -0.001781 0.000000 0.027988
#
#
# Mechanical properties :
#
#
# Convention : Reuss Voigt Hill
#
# Bulk Modulus (GPa) = 31.66091 41.54413 36.60252
# Shear Modulus (GPa) = 20.97899 27.48242 24.23071
#
# Velocity S-wave (km/s) = 3.11544 3.56578 3.34819
# Velocity P-wave (km/s) = 5.25255 6.01445 5.64636
#
# Compressibility (1/GPa) = 0.03158468
#
# Stress axis : x y z
#
# Youngs Moduli (GPa) = 87.90121 60.08691 38.37719
#
# Poissons Ratio (x) = 0.33560 -0.10831
# Poissons Ratio (y) = 0.49094 0.32555
# Poissons Ratio (z) = -0.24809 0.50971
#
# Static dielectric constant tensor:
#      x y z
#    x 4.457430 0.000000 0.651400 
#    y 0.000000 3.684730 0.000000 
#    z 0.651400 0.000000 3.896140 
# 
# 
# High freq. dielectric constant tensor:
#      x y z
#    x 1.869310 0.000000 0.037540 
#    y 0.000000 1.840540 0.000000 
#    z 0.037540 0.000000 1.831230 
# 
# From -- ./inp_files/145852.got.cif
#   From: 2010.06.25/outbox.cif.g09.slc.cpg/sg12_73_cif.got.tgz:145852.got - 2010.06.28 00:19:55.
