data_PCOD8100486
_publ_section_title
;
Structure prediction by ZEFSAII (Michael W. Deem and Ramdas Pophale) SiO2 
 PCOD8100486
Probable space group: C 2/M
;
_chemical_formula_sum "Si O2"
_cell_formula_units_Z 48
_cell_length_a 29.208682
_cell_length_b 8.871494
_cell_length_c 19.110357
_cell_angle_alpha 90.000000
_cell_angle_beta 31.850718
_cell_angle_gamma 90.000000
_cell_volume 2613.190847
_symmetry_space_group_name_H-M "C 2/M"
_symmetry_group_IT_number 12
_symmetry_cell_setting 'monoclinic'
loop_
_space_group_symop_operation_xyz
x,y,z
-x,y,-z
-x,-y,-z
x,-y,z
1/2+x,1/2+y,z
1/2-x,1/2+y,-z
1/2-x,1/2-y,-z
1/2+x,1/2-y,z
loop_
_atom_site_type_symbol
_atom_site_label
_atom_site_fract_x
_atom_site_fract_y
_atom_site_fract_z
Si Si1 0.723326 0.671964 0.830003
Si Si2 0.478018 0.323161 0.606940
Si Si3 0.281892 0.676316 0.888327
Si Si4 0.599849 0.322553 0.866999
Si Si5 0.135735 0.674179 0.466897
Si Si6 0.262325 0.821257 0.408624
O O1 0.712913 0.500000 0.867453
O O2 0.722733 0.772892 0.899996
O O3 0.643098 0.720929 0.885001
O O4 0.812633 0.696995 0.672395
O O5 0.500000 0.273888 0.500000
O O6 0.493442 0.500000 0.598142
O O7 0.380453 0.272912 0.748722
O O8 0.538409 0.232955 0.582598
O O9 0.272989 0.500000 0.907262
O O10 0.250000 0.750000 0.000000
O O11 0.610922 0.500000 0.838251
O O12 0.647632 0.236050 0.742174
O O13 0.500000 0.272666 0.000000
O O14 0.135610 0.500000 0.490180
O O15 0.180211 0.771762 0.469352
O O16 0.250000 0.750000 0.500000
O O17 0.265218 0.000000 0.410717
#
# Coordination Sequence:
#
# PCOD8100486 Si02
#       6
#     8   8   8   8   8   8
#     4   9  18  34  57  83 111 146 186 228 279 335
#     4  10  20  36  58  84 112 145 188 232 277 333
#     4  11  23  38  56  79 113 151 186 230 283 334
#     4   9  19  38  62  87 115 150 190 233 283 342
#     4  10  20  35  59  88 114 145 188 235 283 336
#     4  11  22  38  60  85 118 153 189 236 288 338
#
# _framework density 18.368348999999998
#
# number of rings (size 3 to 8) (size 9 to 14) (size 15 to 20)
#    0.000    2.000    1.667    3.500    0.000    4.667 
#    3.000    0.000    0.000    0.000    0.000    0.000 
#    0.000    0.000    0.000    0.000    0.000    0.000 
#
# Total GULP energy -297676.203338 kJ/mol
# GULP energy per Si atom -12403.175139 kJ/mol
# Density = 1.832654 g / cm^3
# Si number density = 18.368349 Si / 1000 Ang^3
#
#
#
# Elastic Constant Matrix: (Units=GPa)
#
#
# Indices 1 2 3 4 5 6 
#
# 1 128.6283 62.4139 86.9705 0.0027 -0.5401 -0.0025
# 2 62.4139 96.5853 64.1650 -0.0048 4.8765 0.0038
# 3 86.9705 64.1650 127.2205 -0.0042 2.1009 0.0002
# 4 0.0027 -0.0048 -0.0042 30.9382 0.0015 1.8892
# 5 -0.5401 4.8765 2.1009 0.0015 34.3709 0.0004
# 6 -0.0025 0.0038 0.0002 1.8892 0.0004 36.5195
#
#
#
# Elastic Compliance Matrix: (Units=1/GPa)
#
#
# Indices 1 2 3 4 5 6 
#
# 1 0.015739 -0.004630 -0.008447 -0.000003 0.001421 0.000002
# 2 -0.004630 0.017036 -0.005392 0.000003 -0.002160 -0.000002
# 3 -0.008447 -0.005392 0.016361 0.000002 -0.000368 0.000000
# 4 -0.000003 0.000003 0.000002 0.032425 -0.000002 -0.001677
# 5 0.001421 -0.002160 -0.000368 -0.000002 0.029446 0.000000
# 6 0.000002 -0.000002 0.000000 -0.001677 0.000000 0.027469
#
#
# Mechanical properties :
#
#
# Convention : Reuss Voigt Hill
#
# Bulk Modulus (GPa) = 81.98518 86.61475 84.29996
# Shear Modulus (GPa) = 27.85828 29.62467 28.74148
#
# Velocity S-wave (km/s) = 3.89864 4.02034 3.95996
# Velocity P-wave (km/s) = 8.06205 8.29503 8.17937
#
# Compressibility (1/GPa) = 0.01219733
#
# Stress axis : x y z
#
# Youngs Moduli (GPa) = 63.53800 58.69758 61.12258
#
# Poissons Ratio (x) = 0.27178 0.51633
# Poissons Ratio (y) = 0.29419 0.32955
# Poissons Ratio (z) = 0.53673 0.31647
#
# Static dielectric constant tensor:
#      x y z
#    x 3.479330 0.000000 -0.131430 
#    y 0.000000 3.363770 0.000000 
#    z -0.131430 0.000000 3.360020 
# 
# 
# High freq. dielectric constant tensor:
#      x y z
#    x 1.720100 0.000000 -0.004630 
#    y 0.000000 1.715760 0.000000 
#    z -0.004630 0.000000 1.699860 
# 
# From -- ./inp_files/274126.got.cif
#   From: 2010.06.25/outbox.cif.g09.slc.cpg/sg12_138_cif.got.tgz:274126.got - 2010.06.28 00:19:55.
