data_PCOD8100217
_publ_section_title
;
Structure prediction by ZEFSAII (Michael W. Deem and Ramdas Pophale) SiO2 
 PCOD8100217
Probable space group: C 2/M
;
_chemical_formula_sum "Si O2"
_cell_formula_units_Z 56
_cell_length_a 28.980282
_cell_length_b 8.914967
_cell_length_c 11.055431
_cell_angle_alpha 90.000000
_cell_angle_beta 102.389270
_cell_angle_gamma 90.000000
_cell_volume 2789.746622
_symmetry_space_group_name_H-M "C 2/M"
_symmetry_group_IT_number 12
_symmetry_cell_setting 'monoclinic'
loop_
_space_group_symop_operation_xyz
x,y,z
-x,y,-z
-x,-y,-z
x,-y,z
1/2+x,1/2+y,z
1/2-x,1/2+y,-z
1/2-x,1/2-y,-z
1/2+x,1/2-y,z
loop_
_atom_site_type_symbol
_atom_site_label
_atom_site_fract_x
_atom_site_fract_y
_atom_site_fract_z
Si Si1 0.606564 0.173693 0.292024
Si Si2 0.484274 0.323038 0.858224
Si Si3 0.877977 0.671953 0.427485
Si Si4 0.431164 0.825239 0.217973
Si Si5 0.790996 0.174398 0.275193
Si Si6 0.807220 0.176093 0.779108
Si Si7 0.156321 0.826533 0.938004
O O1 0.568117 0.263356 0.193912
O O2 0.597633 0.198150 0.429663
O O3 0.657995 0.236565 0.290077
O O4 0.603583 0.000000 0.255021
O O5 0.483773 0.500000 0.846245
O O6 0.519651 0.257068 0.778527
O O7 0.500000 0.270446 0.000000
O O8 0.861337 0.500000 0.401945
O O9 0.916331 0.713679 0.346860
O O10 0.832356 0.777778 0.390030
O O11 0.391207 0.769427 0.102462
O O12 0.439052 0.000000 0.201840
O O13 0.745273 0.270900 0.281171
O O14 0.806838 0.211207 0.147314
O O15 0.779625 0.000000 0.286778
O O16 0.811702 0.000000 0.758015
O O17 0.818964 0.218910 0.923693
O O18 0.141191 0.000000 0.926602
#
# Coordination Sequence:
#
# PCOD8100217 Si02
#       7
#     8   8   8   8   8   8   8
#     4  11  24  41  60  82 111 147 190 235 275 327
#     4  11  24  41  60  85 118 150 180 221 277 335
#     4   9  21  41  60  82 113 147 185 232 283 328
#     4  10  20  36  61  87 112 146 186 230 279 330
#     4  10  20  35  58  85 112 147 191 233 275 332
#     4  11  22  36  55  81 116 153 187 230 285 334
#     4   9  19  35  55  83 117 149 184 230 282 334
#
# _framework density 20.073508
#
# number of rings (size 3 to 8) (size 9 to 14) (size 15 to 20)
#    0.000    1.857    0.000    3.429    0.000    9.143 
#    0.000    2.857    0.000    0.000    0.000    0.000 
#    0.000    0.000    0.000    0.000    0.000    0.000 
#
# Total GULP energy -347386.356838 kJ/mol
# GULP energy per Si atom -12406.655601 kJ/mol
# Density = 2.002782 g / cm^3
# Si number density = 20.073508 Si / 1000 Ang^3
#
#
#
# Elastic Constant Matrix: (Units=GPa)
#
#
# Indices 1 2 3 4 5 6 
#
# 1 104.5810 36.2929 26.0766 0.0000 -4.5848 0.0000
# 2 36.2929 71.6230 36.9873 0.0000 -0.7921 0.0000
# 3 26.0766 36.9873 82.1444 0.0000 -2.5791 0.0000
# 4 0.0000 0.0000 0.0000 28.3009 0.0000 3.3119
# 5 -4.5848 -0.7921 -2.5791 0.0000 18.0961 0.0000
# 6 0.0000 0.0000 0.0000 3.3119 0.0000 41.8281
#
#
#
# Elastic Compliance Matrix: (Units=1/GPa)
#
#
# Indices 1 2 3 4 5 6 
#
# 1 0.011837 -0.005304 -0.001288 0.000000 0.002583 0.000000
# 2 -0.005304 0.020572 -0.007627 0.000000 -0.001531 0.000000
# 3 -0.001288 -0.007627 0.016068 0.000000 0.001630 0.000000
# 4 0.000000 0.000000 0.000000 0.035665 0.000000 -0.002824
# 5 0.002583 -0.001531 0.001630 0.000000 0.056080 0.000000
# 6 0.000000 0.000000 0.000000 -0.002824 0.000000 0.024131
#
#
# Mechanical properties :
#
#
# Convention : Reuss Voigt Hill
#
# Bulk Modulus (GPa) = 49.90586 50.78466 50.34526
# Shear Modulus (GPa) = 25.06624 28.24446 26.65535
#
# Velocity S-wave (km/s) = 3.53756 3.75514 3.64797
# Velocity P-wave (km/s) = 6.44991 6.64497 6.54817
#
# Compressibility (1/GPa) = 0.02003773
#
# Stress axis : x y z
#
# Youngs Moduli (GPa) = 84.47942 48.61060 62.23536
#
# Poissons Ratio (x) = 0.25785 0.08017
# Poissons Ratio (y) = 0.44811 0.47467
# Poissons Ratio (z) = 0.10883 0.37075
#
# Static dielectric constant tensor:
#      x y z
#    x 3.616750 0.000000 -0.120550 
#    y 0.000000 3.661340 0.000000 
#    z -0.120550 0.000000 3.626170 
# 
# 
# High freq. dielectric constant tensor:
#      x y z
#    x 1.787660 0.000000 -0.004500 
#    y 0.000000 1.791040 0.000000 
#    z -0.004500 0.000000 1.780250 
# 
# From -- ./inp_files/181024.got.cif
#   From: 2010.06.25/outbox.cif.g09.slc.cpg/sg12_91_cif.got.tgz:181024.got - 2010.06.28 00:19:55.
