data_PCOD8100191
_publ_section_title
;
Structure prediction by ZEFSAII (Michael W. Deem and Ramdas Pophale) SiO2 
 PCOD8100191
Probable space group: C 2/M
;
_chemical_formula_sum "Si O2"
_cell_formula_units_Z 56
_cell_length_a 20.749908
_cell_length_b 9.148110
_cell_length_c 30.593322
_cell_angle_alpha 90.000000
_cell_angle_beta 151.253474
_cell_angle_gamma 90.000000
_cell_volume 2792.936912
_symmetry_space_group_name_H-M "C 2/M"
_symmetry_group_IT_number 12
_symmetry_cell_setting 'monoclinic'
loop_
_space_group_symop_operation_xyz
x,y,z
-x,y,-z
-x,-y,-z
x,-y,z
1/2+x,1/2+y,z
1/2-x,1/2+y,-z
1/2-x,1/2-y,-z
1/2+x,1/2-y,z
loop_
_atom_site_type_symbol
_atom_site_label
_atom_site_fract_x
_atom_site_fract_y
_atom_site_fract_z
Si Si1 0.361905 0.666385 0.942577
Si Si2 0.774958 0.834028 0.579400
Si Si3 0.714472 0.666172 0.784697
Si Si4 0.375928 0.326654 0.052435
Si Si5 0.146096 0.668902 0.220268
Si Si6 0.453924 0.831674 0.625125
Si Si7 0.652525 0.170330 0.599205
O O1 0.313351 0.500000 0.908930
O O2 0.254234 0.769221 0.855292
O O3 0.500000 0.691478 0.000000
O O4 0.371920 0.710870 0.998893
O O5 0.644558 0.800122 0.473336
O O6 0.895876 0.730580 0.636165
O O7 0.741233 0.801760 0.609203
O O8 0.821543 0.000000 0.600013
O O9 0.672955 0.500000 0.767577
O O10 0.832490 0.681278 0.819207
O O11 0.588465 0.752309 0.690984
O O12 0.374258 0.500000 0.060476
O O13 0.512700 0.259141 0.153662
O O14 0.250000 0.250000 0.000000
O O15 0.128524 0.500000 0.223940
O O16 0.277627 0.735402 0.321589
O O17 0.484657 0.000000 0.650631
O O18 0.500000 0.223309 0.500000
O O19 0.651341 0.000000 0.612257
#
# Coordination Sequence:
#
# PCOD8100191 Si02
#       7
#     8   8   8   8   8   8   8
#     4  10  21  40  65  90 116 151 197 246 295 351
#     4   9  19  36  56  81 115 152 194 244 296 349
#     4  11  23  37  59  89 120 153 194 245 298 355
#     4  11  24  43  67  93 125 163 203 253 309 367
#     4  11  24  40  60  89 123 159 201 249 303 364
#     4  10  20  35  58  84 113 152 195 243 295 352
#     4  10  21  38  61  87 118 159 203 247 299 359
#
# _framework density 20.050578999999999
#
# number of rings (size 3 to 8) (size 9 to 14) (size 15 to 20)
#    0.000    1.714    1.429    2.571    0.000    6.857 
#    0.000    0.000    0.000    0.000    0.000    0.000 
#    0.000    0.000    0.000    0.000    0.000    0.000 
#
# Total GULP energy -347286.065272 kJ/mol
# GULP energy per Si atom -12403.073760 kJ/mol
# Density = 2.000494 g / cm^3
# Si number density = 20.050579 Si / 1000 Ang^3
#
#
#
# Elastic Constant Matrix: (Units=GPa)
#
#
# Indices 1 2 3 4 5 6 
#
# 1 72.3736 41.1822 35.6013 0.0001 3.6353 0.0001
# 2 41.1822 119.3288 64.1520 -0.0001 8.8642 0.0007
# 3 35.6013 64.1520 97.9096 0.0003 6.1334 -0.0001
# 4 0.0001 -0.0001 0.0003 35.3947 0.0000 3.7110
# 5 3.6353 8.8642 6.1334 0.0000 33.2205 -0.0001
# 6 0.0001 0.0007 -0.0001 3.7110 -0.0001 32.4281
#
#
#
# Elastic Compliance Matrix: (Units=1/GPa)
#
#
# Indices 1 2 3 4 5 6 
#
# 1 0.018083 -0.004167 -0.003835 0.000000 -0.000159 0.000000
# 2 -0.004167 0.014019 -0.007552 0.000000 -0.001890 0.000000
# 3 -0.003835 -0.007552 0.016595 0.000000 -0.000629 0.000000
# 4 0.000000 0.000000 0.000000 0.028596 0.000000 -0.003272
# 5 -0.000159 -0.001890 -0.000629 0.000000 0.030740 0.000000
# 6 0.000000 0.000000 0.000000 -0.003272 0.000000 0.031212
#
#
# Mechanical properties :
#
#
# Convention : Reuss Voigt Hill
#
# Bulk Modulus (GPa) = 56.85214 63.49812 60.17513
# Shear Modulus (GPa) = 28.37451 30.12042 29.24747
#
# Velocity S-wave (km/s) = 3.76592 3.88006 3.82342
# Velocity P-wave (km/s) = 6.87935 7.19797 7.04047
#
# Compressibility (1/GPa) = 0.01758949
#
# Stress axis : x y z
#
# Youngs Moduli (GPa) = 55.30119 71.33403 60.25844
#
# Poissons Ratio (x) = 0.29727 0.23108
# Poissons Ratio (y) = 0.23045 0.45504
# Poissons Ratio (z) = 0.21207 0.53868
#
# Static dielectric constant tensor:
#      x y z
#    x 3.674220 0.000000 0.010050 
#    y 0.000000 3.683050 0.000000 
#    z 0.010050 0.000000 3.553190 
# 
# 
# High freq. dielectric constant tensor:
#      x y z
#    x 1.784130 0.000000 0.003250 
#    y 0.000000 1.786930 0.000000 
#    z 0.003250 0.000000 1.780530 
# 
# From -- ./inp_files/380805.got.cif
#   From: 2010.06.25/outbox.cif.g09.slc.cpg/sg12_191_cif.got.tgz:380805.got - 2010.06.28 00:19:55.
