data_PCOD8100975
_publ_section_title
;
Structure prediction by ZEFSAII (Michael W. Deem and Ramdas Pophale) SiO2 
 PCOD8100975
Probable space group: C 2/M
;
_chemical_formula_sum "Si O2"
_cell_formula_units_Z 64
_cell_length_a 20.479709
_cell_length_b 8.820899
_cell_length_c 24.373886
_cell_angle_alpha 90.000000
_cell_angle_beta 50.897649
_cell_angle_gamma 90.000000
_cell_volume 3416.918468
_symmetry_space_group_name_H-M "C 2/M"
_symmetry_group_IT_number 12
_symmetry_cell_setting 'monoclinic'
loop_
_space_group_symop_operation_xyz
x,y,z
-x,y,-z
-x,-y,-z
x,-y,z
1/2+x,1/2+y,z
1/2-x,1/2+y,-z
1/2-x,1/2-y,-z
1/2+x,1/2-y,z
loop_
_atom_site_type_symbol
_atom_site_label
_atom_site_fract_x
_atom_site_fract_y
_atom_site_fract_z
Si Si1 0.105300 0.825636 0.790163
Si Si2 0.978148 0.821748 0.950326
Si Si3 0.054125 0.822027 0.417750
Si Si4 0.548928 0.677830 0.202824
Si Si5 0.005304 0.678272 0.661511
Si Si6 0.158174 0.319964 0.052396
Si Si7 0.303633 0.178948 0.423897
Si Si8 0.257834 0.678639 0.659576
O O1 0.191556 0.732273 0.740509
O O2 0.059702 0.781325 0.870890
O O3 0.043270 0.785806 0.772712
O O4 0.130661 0.000000 0.776043
O O5 0.896876 0.734271 0.970554
O O6 0.957770 0.000000 0.957872
O O7 0.000000 0.768211 0.000000
O O8 0.149028 0.764049 0.376118
O O9 0.000000 0.782747 0.500000
O O10 0.018422 0.727184 0.386621
O O11 0.049503 0.000000 0.406681
O O12 0.569143 0.500000 0.189422
O O13 0.553069 0.736911 0.262981
O O14 0.618256 0.764980 0.130641
O O15 0.992893 0.500000 0.675502
O O16 0.100576 0.729907 0.620599
O O17 0.163720 0.500000 0.048925
O O18 0.250000 0.250000 0.000000
O O19 0.250000 0.250000 0.500000
O O20 0.268966 0.245391 0.385090
O O21 0.293476 0.000000 0.432056
O O22 0.256080 0.500000 0.658570
#
# Coordination Sequence:
#
# PCOD8100975 Si02
#       8
#     8   8   8   8   8   8   8   8
#     4   9  18  33  57  86 112 146 185 230 285 337
#     4   9  19  38  61  86 119 156 196 239 285 340
#     4  10  22  40  59  77 108 155 196 234 288 348
#     4  10  20  37  61  87 116 152 193 236 289 347
#     4  11  22  37  58  85 115 147 187 239 291 344
#     4  11  22  38  61  89 122 158 197 241 289 343
#     4  10  21  35  55  83 110 140 184 232 281 332
#     4  10  20  36  56  79 109 145 185 233 281 335
#
# _framework density 18.730326999999999
#
# number of rings (size 3 to 8) (size 9 to 14) (size 15 to 20)
#    0.000    2.000    1.250    3.375    0.000    5.500 
#    2.250    0.000    0.000    0.000    0.000    0.000 
#    0.000    0.000    0.000    0.000    0.000    0.000 
#
# Total GULP energy -396886.993874 kJ/mol
# GULP energy per Si atom -12402.718559 kJ/mol
# Density = 1.868770 g / cm^3
# Si number density = 18.730327 Si / 1000 Ang^3
#
#
#
# Elastic Constant Matrix: (Units=GPa)
#
#
# Indices 1 2 3 4 5 6 
#
# 1 108.1044 47.7467 65.9792 0.0002 1.0113 0.0013
# 2 47.7467 67.4826 47.0274 -0.0003 -5.4945 0.0023
# 3 65.9792 47.0274 127.6096 -0.0001 1.7177 0.0000
# 4 0.0002 -0.0003 -0.0001 36.3515 0.0000 -0.9915
# 5 1.0113 -5.4945 1.7177 0.0000 37.0116 0.0002
# 6 0.0013 0.0023 0.0000 -0.9915 0.0002 30.1590
#
#
#
# Elastic Compliance Matrix: (Units=1/GPa)
#
#
# Indices 1 2 3 4 5 6 
#
# 1 0.015924 -0.007600 -0.005415 0.000000 -0.001312 0.000000
# 2 -0.007600 0.023979 -0.004961 0.000000 0.003998 -0.000002
# 3 -0.005415 -0.004961 0.012480 0.000000 -0.001168 0.000001
# 4 0.000000 0.000000 0.000000 0.027534 0.000000 0.000905
# 5 -0.001312 0.003998 -0.001168 0.000000 0.027702 0.000000
# 6 0.000000 -0.000002 0.000001 0.000905 0.000000 0.033187
#
#
# Mechanical properties :
#
#
# Convention : Reuss Voigt Hill
#
# Bulk Modulus (GPa) = 60.86123 69.41146 65.13634
# Shear Modulus (GPa) = 27.43692 30.20064 28.81878
#
# Velocity S-wave (km/s) = 3.83147 4.01982 3.92677
# Velocity P-wave (km/s) = 7.22063 7.66055 7.44384
#
# Compressibility (1/GPa) = 0.01643082
#
# Stress axis : x y z
#
# Youngs Moduli (GPa) = 62.79691 41.70327 80.12771
#
# Poissons Ratio (x) = 0.31696 0.43388
# Poissons Ratio (y) = 0.47728 0.39751
# Poissons Ratio (z) = 0.34004 0.20689
#
# Static dielectric constant tensor:
#      x y z
#    x 3.463630 0.000000 0.146100 
#    y 0.000000 3.350160 0.000000 
#    z 0.146100 0.000000 3.341180 
# 
# 
# High freq. dielectric constant tensor:
#      x y z
#    x 1.721210 0.000000 -0.000270 
#    y 0.000000 1.723990 0.000000 
#    z -0.000270 0.000000 1.738690 
# 
# From -- ./inp_files/345975.got.cif
#   From: 2010.06.25/outbox.cif.g09.slc.cpg/sg12_173_cif.got.tgz:345975.got - 2010.06.28 00:19:55.
