data_PCOD8100101
_publ_section_title
;
Structure prediction by ZEFSAII (Michael W. Deem and Ramdas Pophale) SiO2 
 PCOD8100101
Probable space group: C 2/M
;
_chemical_formula_sum "Si O2"
_cell_formula_units_Z 56
_cell_length_a 23.217018
_cell_length_b 8.776662
_cell_length_c 15.066273
_cell_angle_alpha 90.000000
_cell_angle_beta 115.718816
_cell_angle_gamma 90.000000
_cell_volume 2765.889912
_symmetry_space_group_name_H-M "C 2/M"
_symmetry_group_IT_number 12
_symmetry_cell_setting 'monoclinic'
loop_
_space_group_symop_operation_xyz
x,y,z
-x,y,-z
-x,-y,-z
x,-y,z
1/2+x,1/2+y,z
1/2-x,1/2+y,-z
1/2-x,1/2-y,-z
1/2+x,1/2-y,z
loop_
_atom_site_type_symbol
_atom_site_label
_atom_site_fract_x
_atom_site_fract_y
_atom_site_fract_z
Si Si1 0.987559 0.678668 0.592949
Si Si2 0.065362 0.180767 0.797624
Si Si3 0.181559 0.318741 0.971877
Si Si4 0.152972 0.674597 0.149258
Si Si5 0.972590 0.179872 0.889942
Si Si6 0.770348 0.326294 0.635782
Si Si7 0.353416 0.676591 0.545880
O O1 0.995962 0.500000 0.613707
O O2 0.916638 0.725224 0.574737
O O3 0.000000 0.725997 0.500000
O O4 0.041337 0.765533 0.685770
O O5 0.133220 0.256484 0.865479
O O6 0.014293 0.240348 0.835923
O O7 0.073482 0.000000 0.804270
O O8 0.184848 0.500000 0.970353
O O9 0.250000 0.250000 0.000000
O O10 0.161302 0.258896 0.056143
O O11 0.132109 0.500000 0.128992
O O12 0.099361 0.763694 0.168641
O O13 0.217623 0.694695 0.250686
O O14 0.973769 0.000000 0.892077
O O15 0.000000 0.247920 0.000000
O O16 0.784188 0.500000 0.615029
O O17 0.696174 0.286888 0.567364
O O18 0.818227 0.218002 0.613842
O O19 0.373526 0.500000 0.562447
#
# Coordination Sequence:
#
# PCOD8100101 Si02
#       7
#     8   8   8   8   8   8   8
#     4  11  25  43  62  86 119 158 202 250 300 354
#     4  11  23  41  65  91 120 157 198 246 303 358
#     4  11  24  41  60  85 119 159 203 247 296 353
#     4  10  21  36  57  86 117 154 198 241 290 349
#     4  10  20  35  57  87 122 154 191 240 295 351
#     4   9  19  36  58  85 119 155 192 241 297 354
#     4  10  20  36  59  88 119 154 197 244 297 352
#
# _framework density 20.246648
#
# number of rings (size 3 to 8) (size 9 to 14) (size 15 to 20)
#    0.000    1.714    1.429    2.571    0.000    7.714 
#    0.000    1.429    0.000    0.000    0.000    0.000 
#    0.000    0.000    0.000    0.000    0.000    0.000 
#
# Total GULP energy -347268.585655 kJ/mol
# GULP energy per Si atom -12402.449488 kJ/mol
# Density = 2.020057 g / cm^3
# Si number density = 20.246648 Si / 1000 Ang^3
#
#
#
# Elastic Constant Matrix: (Units=GPa)
#
#
# Indices 1 2 3 4 5 6 
#
# 1 100.6067 33.8177 47.8466 0.0000 16.6003 0.0000
# 2 33.8177 59.8215 39.3794 0.0000 1.7828 0.0000
# 3 47.8466 39.3794 148.6552 0.0000 14.1294 0.0000
# 4 0.0000 0.0000 0.0000 31.3843 0.0000 4.6907
# 5 16.6003 1.7828 14.1294 0.0000 30.7125 0.0000
# 6 0.0000 0.0000 0.0000 4.6907 0.0000 31.3133
#
#
#
# Elastic Compliance Matrix: (Units=1/GPa)
#
#
# Indices 1 2 3 4 5 6 
#
# 1 0.014188 -0.006321 -0.002298 0.000000 -0.006244 0.000000
# 2 -0.006321 0.023117 -0.004482 0.000000 0.004137 0.000000
# 3 -0.002298 -0.004482 0.008901 0.000000 -0.002592 0.000000
# 4 0.000000 0.000000 0.000000 0.032593 0.000000 -0.004882
# 5 -0.006244 0.004137 -0.002592 0.000000 0.036888 0.000000
# 6 0.000000 0.000000 0.000000 -0.004882 0.000000 0.032667
#
#
# Mechanical properties :
#
#
# Convention : Reuss Voigt Hill
#
# Bulk Modulus (GPa) = 49.99718 61.24120 55.61919
# Shear Modulus (GPa) = 27.59001 31.21801 29.40401
#
# Velocity S-wave (km/s) = 3.69548 3.93094 3.81503
# Velocity P-wave (km/s) = 6.55411 7.13557 6.85101
#
# Compressibility (1/GPa) = 0.02000113
#
# Stress axis : x y z
#
# Youngs Moduli (GPa) = 70.48196 43.25743 112.35213
#
# Poissons Ratio (x) = 0.27345 0.25824
# Poissons Ratio (y) = 0.44555 0.50362
# Poissons Ratio (z) = 0.16200 0.19390
#
# Static dielectric constant tensor:
#      x y z
#    x 3.597910 0.000000 0.065700 
#    y 0.000000 3.656110 0.000000 
#    z 0.065700 0.000000 3.983650 
# 
# 
# High freq. dielectric constant tensor:
#      x y z
#    x 1.777480 0.000000 0.010500 
#    y 0.000000 1.789970 0.000000 
#    z 0.010500 0.000000 1.808100 
# 
# From -- ./inp_files/238955.got.cif
#   From: 2010.06.25/outbox.cif.g09.slc.cpg/sg12_120_cif.got.tgz:238955.got - 2010.06.28 00:19:55.
