data_PCOD8100052
_publ_section_title
;
Structure prediction by ZEFSAII (Michael W. Deem and Ramdas Pophale) SiO2 
 PCOD8100052
Probable space group: C 2/M
;
_chemical_formula_sum "Si O2"
_cell_formula_units_Z 56
_cell_length_a 19.562788
_cell_length_b 8.862592
_cell_length_c 27.668435
_cell_angle_alpha 90.000000
_cell_angle_beta 37.761573
_cell_angle_gamma 90.000000
_cell_volume 2937.615522
_symmetry_space_group_name_H-M "C 2/M"
_symmetry_group_IT_number 12
_symmetry_cell_setting 'monoclinic'
loop_
_space_group_symop_operation_xyz
x,y,z
-x,y,-z
-x,-y,-z
x,-y,z
1/2+x,1/2+y,z
1/2-x,1/2+y,-z
1/2-x,1/2-y,-z
1/2+x,1/2-y,z
loop_
_atom_site_type_symbol
_atom_site_label
_atom_site_fract_x
_atom_site_fract_y
_atom_site_fract_z
Si Si1 0.516182 0.823917 0.195499
Si Si2 0.137180 0.170795 0.049128
Si Si3 0.079239 0.678620 0.500793
Si Si4 0.682036 0.821299 0.624862
Si Si5 0.839182 0.825865 0.806885
Si Si6 0.119867 0.827498 0.945725
Si Si7 0.535932 0.323851 0.625392
O O1 0.530179 0.745647 0.135636
O O2 0.398997 0.779127 0.285350
O O3 0.617880 0.771807 0.172339
O O4 0.527137 0.000000 0.181860
O O5 0.143099 0.000000 0.063313
O O6 0.250000 0.250000 0.000000
O O7 0.125039 0.187137 0.999629
O O8 0.093999 0.500000 0.496495
O O9 0.199244 0.755050 0.426518
O O10 0.025497 0.741978 0.579895
O O11 0.000000 0.722521 0.500000
O O12 0.635956 0.747131 0.601289
O O13 0.689719 0.000000 0.612205
O O14 0.714122 0.770130 0.865626
O O15 0.916537 0.797835 0.717127
O O16 0.839942 0.000000 0.821442
O O17 0.131467 0.000000 0.921446
O O18 0.000000 0.758886 0.000000
O O19 0.563261 0.500000 0.602814
#
# Coordination Sequence:
#
# PCOD8100052 Si02
#       7
#     8   8   8   8   8   8   8
#     4  10  20  35  57  86 115 147 187 234 285 334
#     4  11  21  34  57  84 113 149 191 236 283 333
#     4  11  24  41  60  85 117 153 191 231 282 342
#     4  10  21  38  62  88 116 151 191 236 283 336
#     4  10  20  35  58  86 113 146 188 236 283 332
#     4  10  22  39  56  78 112 154 194 232 280 338
#     4  10  21  38  62  89 116 148 189 236 286 340
#
# _framework density 19.063078999999998
#
# number of rings (size 3 to 8) (size 9 to 14) (size 15 to 20)
#    0.000    1.714    1.429    3.000    0.000    5.429 
#    2.571    0.000    0.000    0.000    0.000    0.000 
#    0.000    0.000    0.000    0.000    0.000    0.000 
#
# Total GULP energy -347248.309232 kJ/mol
# GULP energy per Si atom -12401.725330 kJ/mol
# Density = 1.901969 g / cm^3
# Si number density = 19.063079 Si / 1000 Ang^3
#
#
#
# Elastic Constant Matrix: (Units=GPa)
#
#
# Indices 1 2 3 4 5 6 
#
# 1 90.9450 44.8016 51.0576 0.0002 -15.9898 -0.0002
# 2 44.8016 90.0324 50.2174 0.0007 1.1731 -0.0007
# 3 51.0576 50.2174 127.4489 -0.0001 -9.7403 0.0001
# 4 0.0002 0.0007 -0.0001 37.6694 0.0001 0.1482
# 5 -15.9898 1.1731 -9.7403 0.0001 28.5064 0.0001
# 6 -0.0002 -0.0007 0.0001 0.1482 0.0001 27.9964
#
#
#
# Elastic Compliance Matrix: (Units=1/GPa)
#
#
# Indices 1 2 3 4 5 6 
#
# 1 0.018242 -0.007068 -0.003819 0.000000 0.009218 0.000000
# 2 -0.007068 0.017160 -0.004402 0.000000 -0.006175 0.000000
# 3 -0.003819 -0.004402 0.011254 0.000000 0.001885 0.000000
# 4 0.000000 0.000000 0.000000 0.026547 0.000000 -0.000141
# 5 0.009218 -0.006175 0.001885 0.000000 0.041149 0.000000
# 6 0.000000 0.000000 0.000000 -0.000141 0.000000 0.035720
#
#
# Mechanical properties :
#
#
# Convention : Reuss Voigt Hill
#
# Bulk Modulus (GPa) = 62.18901 66.73107 64.46004
# Shear Modulus (GPa) = 26.88059 29.65776 28.26917
#
# Velocity S-wave (km/s) = 3.75919 3.94860 3.85506
# Velocity P-wave (km/s) = 7.17883 7.47462 7.32822
#
# Compressibility (1/GPa) = 0.01608001
#
# Stress axis : x y z
#
# Youngs Moduli (GPa) = 54.81876 58.27599 88.85344
#
# Poissons Ratio (x) = 0.41188 0.33930
# Poissons Ratio (y) = 0.38744 0.39111
# Poissons Ratio (z) = 0.20933 0.25652
#
# Static dielectric constant tensor:
#      x y z
#    x 3.213020 0.000000 0.042920 
#    y 0.000000 3.687550 0.000000 
#    z 0.042920 0.000000 3.787190 
# 
# 
# High freq. dielectric constant tensor:
#      x y z
#    x 1.718730 0.000000 0.001790 
#    y 0.000000 1.754770 0.000000 
#    z 0.001790 0.000000 1.760000 
# 
# From -- ./inp_files/363033.got.cif
#   From: 2010.06.25/outbox.cif.g09.slc.cpg/sg12_182_cif.got.tgz:363033.got - 2010.06.28 00:19:55.
