data_PCOD8100033
_publ_section_title
;
Structure prediction by ZEFSAII (Michael W. Deem and Ramdas Pophale) SiO2 
 PCOD8100033
Probable space group: C 2/M
;
_chemical_formula_sum "Si O2"
_cell_formula_units_Z 64
_cell_length_a 28.949715
_cell_length_b 9.136791
_cell_length_c 14.095587
_cell_angle_alpha 90.000000
_cell_angle_beta 119.654836
_cell_angle_gamma 90.000000
_cell_volume 3240.050793
_symmetry_space_group_name_H-M "C 2/M"
_symmetry_group_IT_number 12
_symmetry_cell_setting 'monoclinic'
loop_
_space_group_symop_operation_xyz
x,y,z
-x,y,-z
-x,-y,-z
x,-y,z
1/2+x,1/2+y,z
1/2-x,1/2+y,-z
1/2-x,1/2-y,-z
1/2+x,1/2-y,z
loop_
_atom_site_type_symbol
_atom_site_label
_atom_site_fract_x
_atom_site_fract_y
_atom_site_fract_z
Si Si1 0.796536 0.669923 0.994240
Si Si2 0.979522 0.834192 0.240602
Si Si3 0.852671 0.168215 0.390182
Si Si4 0.049037 0.670086 0.980481
Si Si5 0.247331 0.327016 0.397062
Si Si6 0.366864 0.339196 0.191903
Si Si7 0.336940 0.173011 0.836976
Si Si8 0.460113 0.173197 0.543609
O O1 0.786297 0.500000 0.991348
O O2 0.850740 0.712786 0.102379
O O3 0.750000 0.750000 0.000000
O O4 0.801455 0.721510 0.890843
O O5 0.930353 0.833917 0.263951
O O6 0.024737 0.741760 0.339163
O O7 0.999380 0.000000 0.242079
O O8 0.962260 0.763443 0.124159
O O9 0.799948 0.216087 0.392267
O O10 0.840050 0.188071 0.266285
O O11 0.900511 0.274993 0.464581
O O12 0.868480 0.000000 0.428457
O O13 0.056361 0.500000 0.959373
O O14 0.102315 0.729738 0.088597
O O15 0.000000 0.692715 0.000000
O O16 0.244172 0.500000 0.408640
O O17 0.250000 0.250000 0.500000
O O18 0.194219 0.268817 0.287899
O O19 0.348826 0.500000 0.136081
O O20 0.339025 0.000000 0.833730
O O21 0.500000 0.223709 0.500000
O O22 0.460866 0.000000 0.554850
#
# Coordination Sequence:
#
# PCOD8100033 Si02
#       8
#     8   8   8   8   8   8   8   8
#     4  11  21  34  56  84 117 154 194 241 293 356
#     4  11  22  37  60  87 121 160 198 246 301 358
#     4  10  21  39  61  85 119 161 205 249 303 367
#     4  10  21  39  63  90 121 160 205 247 295 357
#     4  10  22  41  63  85 115 157 204 251 297 351
#     4  10  20  35  57  85 118 155 193 238 295 360
#     4   9  19  38  61  83 114 156 195 237 291 349
#     4  11  23  37  58  88 123 160 203 252 305 367
#
# _framework density 19.752777999999999
#
# number of rings (size 3 to 8) (size 9 to 14) (size 15 to 20)
#    0.000    1.750    2.500    1.875    0.000    5.250 
#    0.000    4.375    0.000    0.000    0.000    0.000 
#    0.000    0.000    0.000    0.000    0.000    0.000 
#
# Total GULP energy -396720.794533 kJ/mol
# GULP energy per Si atom -12397.524829 kJ/mol
# Density = 1.970782 g / cm^3
# Si number density = 19.752778 Si / 1000 Ang^3
#
#
#
# Elastic Constant Matrix: (Units=GPa)
#
#
# Indices 1 2 3 4 5 6 
#
# 1 82.6797 44.5149 51.7938 0.0000 0.4169 0.0000
# 2 44.5149 67.8535 51.9393 0.0000 -1.5201 0.0000
# 3 51.7938 51.9393 145.1387 0.0000 1.4517 0.0000
# 4 0.0000 0.0000 0.0000 35.4446 0.0000 0.4653
# 5 0.4169 -1.5201 1.4517 0.0000 31.3368 0.0000
# 6 0.0000 0.0000 0.0000 0.4653 0.0000 26.9852
#
#
#
# Elastic Compliance Matrix: (Units=1/GPa)
#
#
# Indices 1 2 3 4 5 6 
#
# 1 0.019815 -0.010475 -0.003316 0.000000 -0.000618 0.000000
# 2 -0.010475 0.025890 -0.005543 0.000000 0.001652 0.000000
# 3 -0.003316 -0.005543 0.010064 0.000000 -0.000691 0.000000
# 4 0.000000 0.000000 0.000000 0.028219 0.000000 -0.000487
# 5 -0.000618 0.001652 -0.000691 0.000000 0.032032 0.000000
# 6 0.000000 0.000000 0.000000 -0.000487 0.000000 0.037066
#
#
# Mechanical properties :
#
#
# Convention : Reuss Voigt Hill
#
# Bulk Modulus (GPa) = 58.48054 65.79642 62.13848
# Shear Modulus (GPa) = 25.32211 28.58158 26.95185
#
# Velocity S-wave (km/s) = 3.58432 3.80803 3.69787
# Velocity P-wave (km/s) = 6.84108 7.26065 7.05398
#
# Compressibility (1/GPa) = 0.01709970
#
# Stress axis : x y z
#
# Youngs Moduli (GPa) = 50.46614 38.62504 99.36238
#
# Poissons Ratio (x) = 0.40459 0.32953
# Poissons Ratio (y) = 0.52863 0.55081
# Poissons Ratio (z) = 0.16737 0.21412
#
# Static dielectric constant tensor:
#      x y z
#    x 3.400210 0.000000 -0.194170 
#    y 0.000000 3.619700 0.000000 
#    z -0.194170 0.000000 3.359800 
# 
# 
# High freq. dielectric constant tensor:
#      x y z
#    x 1.771740 0.000000 0.006350 
#    y 0.000000 1.755050 0.000000 
#    z 0.006350 0.000000 1.775940 
# 
# From -- ./inp_files/249194.got.cif
#   From: 2010.06.25/outbox.cif.g09.slc.cpg/sg12_125_cif.got.tgz:249194.got - 2010.06.28 00:19:55.
