data_PCOD8100181
_publ_section_title
;
Structure prediction by ZEFSAII (Michael W. Deem and Ramdas Pophale) SiO2 
 PCOD8100181
Probable space group: C 2/M
;
_chemical_formula_sum "Si O2"
_cell_formula_units_Z 56
_cell_length_a 19.203726
_cell_length_b 9.121206
_cell_length_c 20.277528
_cell_angle_alpha 90.000000
_cell_angle_beta 124.424524
_cell_angle_gamma 90.000000
_cell_volume 2929.807778
_symmetry_space_group_name_H-M "C 2/M"
_symmetry_group_IT_number 12
_symmetry_cell_setting 'monoclinic'
loop_
_space_group_symop_operation_xyz
x,y,z
-x,y,-z
-x,-y,-z
x,-y,z
1/2+x,1/2+y,z
1/2-x,1/2+y,-z
1/2-x,1/2-y,-z
1/2+x,1/2-y,z
loop_
_atom_site_type_symbol
_atom_site_label
_atom_site_fract_x
_atom_site_fract_y
_atom_site_fract_z
Si Si1 0.035756 0.332064 0.313582
Si Si2 0.665744 0.333904 0.471076
Si Si3 0.188148 0.672637 0.141109
Si Si4 0.408112 0.666544 0.428664
Si Si5 0.072412 0.835233 0.984695
Si Si6 0.645151 0.169555 0.727732
Si Si7 0.045955 0.670551 0.169103
O O1 0.060521 0.500000 0.340930
O O2 0.085124 0.232711 0.391490
O O3 0.061883 0.287408 0.253515
O O4 0.936237 0.307076 0.269848
O O5 0.674958 0.500000 0.451880
O O6 0.750000 0.250000 0.500000
O O7 0.654568 0.325619 0.543354
O O8 0.194769 0.500000 0.134188
O O9 0.280183 0.737730 0.200681
O O10 0.129898 0.711554 0.173074
O O11 0.150997 0.743002 0.054513
O O12 0.500000 0.721418 0.500000
O O13 0.413345 0.500000 0.403693
O O14 0.372713 0.775214 0.355257
O O15 0.035557 0.759733 0.899506
O O16 0.102191 0.000000 0.983762
O O17 0.000000 0.836060 0.000000
O O18 0.671676 0.000000 0.738165
O O19 0.023983 0.500000 0.149158
#
# Coordination Sequence:
#
# PCOD8100181 Si02
#       7
#     8   8   8   8   8   8   8
#     4  10  22  40  58  81 115 151 186 230 283 334
#     4  11  24  40  60  84 113 147 186 234 281 334
#     4  10  20  35  58  84 112 147 188 229 274 336
#     4  10  21  40  61  80 108 149 192 228 274 336
#     4   9  17  32  55  84 115 143 179 229 280 327
#     4  11  23  37  57  84 115 147 187 237 281 327
#     4   9  19  36  58  82 110 147 186 225 276 335
#
# _framework density 19.113880999999999
#
# number of rings (size 3 to 8) (size 9 to 14) (size 15 to 20)
#    0.000    2.000    1.429    1.714    2.000    4.857 
#    0.000    0.714    0.000    0.000    0.000    0.000 
#    0.000    0.000    0.000    0.000    0.000    0.000 
#
# Total GULP energy -347306.497203 kJ/mol
# GULP energy per Si atom -12403.803472 kJ/mol
# Density = 1.907038 g / cm^3
# Si number density = 19.113881 Si / 1000 Ang^3
#
#
#
# Elastic Constant Matrix: (Units=GPa)
#
#
# Indices 1 2 3 4 5 6 
#
# 1 61.3598 31.4790 15.6223 0.0000 10.1804 0.0000
# 2 31.4790 107.4274 42.8984 0.0000 12.2051 0.0000
# 3 15.6223 42.8984 66.9969 0.0000 16.3374 0.0000
# 4 0.0000 0.0000 0.0000 37.7433 0.0000 7.1057
# 5 10.1804 12.2051 16.3374 0.0000 31.1970 0.0000
# 6 0.0000 0.0000 0.0000 7.1057 0.0000 27.3488
#
#
#
# Elastic Compliance Matrix: (Units=1/GPa)
#
#
# Indices 1 2 3 4 5 6 
#
# 1 0.019737 -0.005208 -0.000222 0.000000 -0.004287 0.000000
# 2 -0.005208 0.013898 -0.007765 0.000000 0.000328 0.000000
# 3 -0.000222 -0.007765 0.022001 0.000000 -0.008411 0.000000
# 4 0.000000 0.000000 0.000000 0.027857 0.000000 -0.007238
# 5 -0.004287 0.000328 -0.008411 0.000000 0.037730 0.000000
# 6 0.000000 0.000000 0.000000 -0.007238 0.000000 0.038445
#
#
# Mechanical properties :
#
#
# Convention : Reuss Voigt Hill
#
# Bulk Modulus (GPa) = 34.19257 46.19815 40.19536
# Shear Modulus (GPa) = 25.53557 28.97680 27.25618
#
# Velocity S-wave (km/s) = 3.65906 3.89782 3.78032
# Velocity P-wave (km/s) = 5.98158 6.66931 6.33479
#
# Compressibility (1/GPa) = 0.02924612
#
# Stress axis : x y z
#
# Youngs Moduli (GPa) = 50.66690 71.95358 45.45301
#
# Poissons Ratio (x) = 0.37470 0.01011
# Poissons Ratio (y) = 0.26385 0.35293
# Poissons Ratio (z) = 0.01127 0.55869
#
# Static dielectric constant tensor:
#      x y z
#    x 3.406510 0.000000 0.003150 
#    y 0.000000 3.685730 0.000000 
#    z 0.003150 0.000000 3.544580 
# 
# 
# High freq. dielectric constant tensor:
#      x y z
#    x 1.731140 0.000000 0.004810 
#    y 0.000000 1.751950 0.000000 
#    z 0.004810 0.000000 1.746150 
# 
# From -- ./inp_files/320246.got.cif
#   From: 2010.06.25/outbox.cif.g09.slc.cpg/sg12_161_cif.got.tgz:320246.got - 2010.06.28 00:19:55.
