data_PCOD8100679
_publ_section_title
;
Structure prediction by ZEFSAII (Michael W. Deem and Ramdas Pophale) SiO2 
 PCOD8100679
Probable space group: C 2/M
;
_chemical_formula_sum "Si O2"
_cell_formula_units_Z 40
_cell_length_a 20.147476
_cell_length_b 12.292809
_cell_length_c 17.564217
_cell_angle_alpha 90.000000
_cell_angle_beta 152.068708
_cell_angle_gamma 90.000000
_cell_volume 2037.647092
_symmetry_space_group_name_H-M "C 2/M"
_symmetry_group_IT_number 12
_symmetry_cell_setting 'monoclinic'
loop_
_space_group_symop_operation_xyz
x,y,z
-x,y,-z
-x,-y,-z
x,-y,z
1/2+x,1/2+y,z
1/2-x,1/2+y,-z
1/2-x,1/2-y,-z
1/2+x,1/2-y,z
loop_
_atom_site_type_symbol
_atom_site_label
_atom_site_fract_x
_atom_site_fract_y
_atom_site_fract_z
Si Si1 0.169447 0.380839 0.354390
Si Si2 0.084384 0.620476 0.013529
Si Si3 0.211769 0.273032 0.872648
Si Si4 0.809829 0.500000 0.217015
Si Si5 0.147614 0.500000 0.571805
Si Si6 0.615239 0.215209 0.457232
O O1 0.224697 0.500000 0.436669
O O2 0.291722 0.321807 0.428771
O O3 0.122225 0.304573 0.374977
O O4 0.027345 0.396505 0.165181
O O5 0.145712 0.500000 0.097733
O O6 0.208990 0.696027 0.107391
O O7 0.000000 0.672448 0.000000
O O8 0.250606 0.397538 0.891364
O O9 0.046244 0.258045 0.685273
O O10 0.250000 0.250000 0.000000
O O11 0.765302 0.500000 0.260547
O O12 0.978144 0.500000 0.397100
O O13 0.189423 0.612343 0.573324
#
# Coordination Sequence:
#
# PCOD8100679 Si02
#       6
#     8   8   8   4   4   8
#     4  10  20  37  57  85 121 156 202 246 302 365
#     4  10  23  41  61  84 121 164 199 247 311 367
#     4  11  22  39  63  89 121 159 206 251 300 369
#     4   9  22  36  58  91 118 154 197 253 308 356
#     4   9  18  38  59  82 119 158 199 245 306 359
#     4  10  20  35  61  88 115 161 202 250 296 359
#
# _framework density 19.630485
#
# number of rings (size 3 to 8) (size 9 to 14) (size 15 to 20)
#    0.000    2.000    3.000    0.000    4.200    0.800 
#    0.000    1.500    0.000    3.600    0.000    0.000 
#    0.000    0.000    0.000    0.000    0.000    0.000 
#
# Total GULP energy -247802.870354 kJ/mol
# GULP energy per Si atom -12390.143518 kJ/mol
# Density = 1.958580 g / cm^3
# Si number density = 19.630485 Si / 1000 Ang^3
#
#
#
# Elastic Constant Matrix: (Units=GPa)
#
#
# Indices 1 2 3 4 5 6 
#
# 1 113.3423 55.2204 26.0268 -0.0007 7.4968 -0.0003
# 2 55.2204 133.0143 43.2740 -0.0004 21.9158 -0.0002
# 3 26.0268 43.2740 50.1722 -0.0014 4.5736 -0.0007
# 4 -0.0007 -0.0004 -0.0014 43.2680 -0.0010 3.5134
# 5 7.4968 21.9158 4.5736 -0.0010 38.1917 -0.0005
# 6 -0.0003 -0.0002 -0.0007 3.5134 -0.0005 40.5043
#
#
#
# Elastic Compliance Matrix: (Units=1/GPa)
#
#
# Indices 1 2 3 4 5 6 
#
# 1 0.011288 -0.003930 -0.002497 0.000000 0.000338 0.000000
# 2 -0.003930 0.012844 -0.008531 0.000000 -0.005577 0.000000
# 3 -0.002497 -0.008531 0.028404 0.000001 0.001984 0.000000
# 4 0.000000 0.000000 0.000001 0.023276 0.000001 -0.002019
# 5 0.000338 -0.005577 0.001984 0.000001 0.029080 0.000000
# 6 0.000000 0.000000 0.000000 -0.002019 0.000000 0.024864
#
#
# Mechanical properties :
#
#
# Convention : Reuss Voigt Hill
#
# Bulk Modulus (GPa) = 44.20801 60.61902 52.41351
# Shear Modulus (GPa) = 29.90222 35.85997 32.88109
#
# Velocity S-wave (km/s) = 3.90712 4.27869 4.09712
# Velocity P-wave (km/s) = 6.55157 7.44020 7.00998
#
# Compressibility (1/GPa) = 0.02262034
#
# Stress axis : x y z
#
# Youngs Moduli (GPa) = 88.58624 77.85951 35.20628
#
# Poissons Ratio (x) = 0.30596 0.08792
# Poissons Ratio (y) = 0.34811 0.30034
# Poissons Ratio (z) = 0.22124 0.66421
#
# Static dielectric constant tensor:
#      x y z
#    x 3.703720 0.000000 -0.025860 
#    y 0.000000 4.389720 0.000000 
#    z -0.025860 0.000000 3.409610 
# 
# 
# High freq. dielectric constant tensor:
#      x y z
#    x 1.766140 0.000000 -0.008920 
#    y 0.000000 1.773810 0.000000 
#    z -0.008920 0.000000 1.741540 
# 
# From -- ./inp_files/283425.got.cif
#   From: 2010.06.25/outbox.cif.g09.slc.cpg/sg12_142_cif.got.tgz:283425.got - 2010.06.28 00:19:55.
