data_PCOD8100529
_publ_section_title
;
Structure prediction by ZEFSAII (Michael W. Deem and Ramdas Pophale) SiO2 
 PCOD8100529
Probable space group: C 2/M
;
_chemical_formula_sum "Si O2"
_cell_formula_units_Z 40
_cell_length_a 23.603876
_cell_length_b 10.867624
_cell_length_c 10.218208
_cell_angle_alpha 90.000000
_cell_angle_beta 51.766464
_cell_angle_gamma 90.000000
_cell_volume 2058.903441
_symmetry_space_group_name_H-M "C 2/M"
_symmetry_group_IT_number 12
_symmetry_cell_setting 'monoclinic'
loop_
_space_group_symop_operation_xyz
x,y,z
-x,y,-z
-x,-y,-z
x,-y,z
1/2+x,1/2+y,z
1/2-x,1/2+y,-z
1/2-x,1/2-y,-z
1/2+x,1/2-y,z
loop_
_atom_site_type_symbol
_atom_site_label
_atom_site_fract_x
_atom_site_fract_y
_atom_site_fract_z
Si Si1 0.499192 0.634992 0.347663
Si Si2 0.146105 0.210648 0.043365
Si Si3 0.080145 0.360400 0.905648
Si Si4 0.598695 0.858822 0.591173
Si Si5 0.802655 0.364158 0.784952
O O1 0.500000 0.657936 0.500000
O O2 0.462763 0.500000 0.369577
O O3 0.579688 0.623166 0.174247
O O4 0.462708 0.755136 0.337474
O O5 0.165251 0.281732 0.147859
O O6 0.126391 0.296496 0.950607
O O7 0.216233 0.135641 0.898802
O O8 0.070485 0.500000 0.966254
O O9 0.123907 0.350724 0.706085
O O10 0.000000 0.302483 0.000000
O O11 0.665068 0.823806 0.401945
O O12 0.570232 0.000000 0.604578
O O13 0.829214 0.500000 0.780459
#
# Coordination Sequence:
#
# PCOD8100529 Si02
#       5
#     8   8   8   8   8
#     4  11  22  37  58  88 122 154 193 246 299 346
#     4  11  21  37  59  86 117 156 193 240 298 349
#     4  10  20  35  59  89 120 150 194 249 294 344
#     4  10  21  39  61  87 117 154 199 243 289 347
#     4  10  22  38  58  84 115 154 201 243 286 347
#
# _framework density 19.427816
#
# number of rings (size 3 to 8) (size 9 to 14) (size 15 to 20)
#    0.000    1.600    4.000    1.200    0.000    2.000 
#    0.000    4.000    0.000    0.000    0.000    0.000 
#    0.000    0.000    0.000    0.000    0.000    0.000 
#
# Total GULP energy -247826.778376 kJ/mol
# GULP energy per Si atom -12391.338919 kJ/mol
# Density = 1.938360 g / cm^3
# Si number density = 19.427816 Si / 1000 Ang^3
#
#
#
# Elastic Constant Matrix: (Units=GPa)
#
#
# Indices 1 2 3 4 5 6 
#
# 1 52.5353 29.4371 41.3884 0.0000 0.8600 0.0000
# 2 29.4371 92.0038 28.9997 0.0000 4.4974 0.0000
# 3 41.3884 28.9997 139.4357 0.0000 0.7163 0.0000
# 4 0.0000 0.0000 0.0000 18.5526 0.0000 -1.1212
# 5 0.8600 4.4974 0.7163 0.0000 32.8354 0.0000
# 6 0.0000 0.0000 0.0000 -1.1212 0.0000 38.6113
#
#
#
# Elastic Compliance Matrix: (Units=1/GPa)
#
#
# Indices 1 2 3 4 5 6 
#
# 1 0.028410 -0.006901 -0.006999 0.000000 0.000354 0.000000
# 2 -0.006901 0.013386 -0.000727 0.000000 -0.001637 0.000000
# 3 -0.006999 -0.000727 0.009400 0.000000 0.000078 0.000000
# 4 0.000000 0.000000 0.000000 0.053996 0.000000 0.001568
# 5 0.000354 -0.001637 0.000078 0.000000 0.030668 0.000000
# 6 0.000000 0.000000 0.000000 0.001568 0.000000 0.025945
#
#
# Mechanical properties :
#
#
# Convention : Reuss Voigt Hill
#
# Bulk Modulus (GPa) = 45.57618 53.73614 49.65616
# Shear Modulus (GPa) = 25.20482 30.27649 27.74065
#
# Velocity S-wave (km/s) = 3.60579 3.95195 3.78283
# Velocity P-wave (km/s) = 6.39107 6.96730 6.68540
#
# Compressibility (1/GPa) = 0.02194129
#
# Stress axis : x y z
#
# Youngs Moduli (GPa) = 35.19859 74.70271 106.38002
#
# Poissons Ratio (x) = 0.51553 0.74461
# Poissons Ratio (y) = 0.24291 0.07737
# Poissons Ratio (z) = 0.24637 0.05433
#
# Static dielectric constant tensor:
#      x y z
#    x 3.310320 0.000000 -0.088780 
#    y 0.000000 3.521670 0.000000 
#    z -0.088780 0.000000 3.916340 
# 
# 
# High freq. dielectric constant tensor:
#      x y z
#    x 1.723570 0.000000 0.002200 
#    y 0.000000 1.755590 0.000000 
#    z 0.002200 0.000000 1.783710 
# 
# From -- ./inp_files/83351.got.cif
#   From: 2010.06.25/outbox.cif.g09.slc.cpg/sg12_42_cif.got.tgz:83351.got - 2010.06.28 00:19:55.
