data_PCOD8100107
_publ_section_title
;
Structure prediction by ZEFSAII (Michael W. Deem and Ramdas Pophale) SiO2 
 PCOD8100107
Probable space group: C 2/M
;
_chemical_formula_sum "Si O2"
_cell_formula_units_Z 56
_cell_length_a 19.165352
_cell_length_b 8.907410
_cell_length_c 18.543456
_cell_angle_alpha 90.000000
_cell_angle_beta 111.720481
_cell_angle_gamma 90.000000
_cell_volume 2940.863012
_symmetry_space_group_name_H-M "C 2/M"
_symmetry_group_IT_number 12
_symmetry_cell_setting 'monoclinic'
loop_
_space_group_symop_operation_xyz
x,y,z
-x,y,-z
-x,-y,-z
x,-y,z
1/2+x,1/2+y,z
1/2-x,1/2+y,-z
1/2-x,1/2-y,-z
1/2+x,1/2-y,z
loop_
_atom_site_type_symbol
_atom_site_label
_atom_site_fract_x
_atom_site_fract_y
_atom_site_fract_z
Si Si1 0.472044 0.824494 0.646632
Si Si2 0.558305 0.167329 0.958949
Si Si3 0.467337 0.326786 0.193477
Si Si4 0.173200 0.677267 0.497003
Si Si5 0.370401 0.175488 0.360052
Si Si6 0.693587 0.326990 0.799561
Si Si7 0.292383 0.676612 0.950180
O O1 0.478543 0.733474 0.723211
O O2 0.395287 0.770929 0.579980
O O3 0.541855 0.787527 0.620323
O O4 0.470632 0.000000 0.664420
O O5 0.517290 0.232464 0.872574
O O6 0.590419 0.000000 0.954128
O O7 0.500000 0.155067 0.000000
O O8 0.621139 0.281622 0.009904
O O9 0.486334 0.500000 0.186905
O O10 0.380863 0.303164 0.181792
O O11 0.182647 0.500000 0.498193
O O12 0.250000 0.750000 0.500000
O O13 0.152604 0.731003 0.569533
O O14 0.317659 0.264785 0.284864
O O15 0.355183 0.000000 0.343728
O O16 0.716554 0.500000 0.803416
O O17 0.760912 0.236967 0.862475
O O18 0.282196 0.500000 0.949935
O O19 0.250000 0.750000 0.000000
#
# Coordination Sequence:
#
# PCOD8100107 Si02
#       7
#     8   8   8   8   8   8   8
#     4   9  18  35  60  84 108 144 190 237 281 333
#     4  11  24  41  60  84 116 155 197 240 290 346
#     4  10  20  35  58  86 116 149 188 238 289 340
#     4  10  21  37  57  83 115 150 185 228 285 344
#     4   9  18  35  59  84 110 144 191 238 280 335
#     4  10  20  35  57  88 118 147 188 240 291 338
#     4  12  23  37  61  88 117 154 195 240 289 341
#
# _framework density 19.042028999999999
#
# number of rings (size 3 to 8) (size 9 to 14) (size 15 to 20)
#    0.000    1.857    1.429    3.000    0.000    5.143 
#    2.571    0.000    0.000    4.286    0.000    0.000 
#    0.000    0.000    0.000    0.000    0.000    0.000 
#
# Total GULP energy -347299.503699 kJ/mol
# GULP energy per Si atom -12403.553704 kJ/mol
# Density = 1.899869 g / cm^3
# Si number density = 19.042029 Si / 1000 Ang^3
#
#
#
# Elastic Constant Matrix: (Units=GPa)
#
#
# Indices 1 2 3 4 5 6 
#
# 1 82.4805 40.0800 65.3177 0.0000 1.7632 0.0000
# 2 40.0800 112.8711 76.4070 0.0000 -0.7526 0.0000
# 3 65.3177 76.4070 166.8195 0.0000 2.3124 0.0000
# 4 0.0000 0.0000 0.0000 34.8775 0.0000 2.4043
# 5 1.7632 -0.7526 2.3124 0.0000 27.4609 0.0000
# 6 0.0000 0.0000 0.0000 2.4043 0.0000 28.2472
#
#
#
# Elastic Compliance Matrix: (Units=1/GPa)
#
#
# Indices 1 2 3 4 5 6 
#
# 1 0.018007 -0.002367 -0.005956 0.000000 -0.000719 0.000000
# 2 -0.002367 0.013172 -0.005119 0.000000 0.000944 0.000000
# 3 -0.005956 -0.005119 0.010681 0.000000 -0.000657 0.000000
# 4 0.000000 0.000000 0.000000 0.028841 0.000000 -0.002455
# 5 -0.000719 0.000944 -0.000657 0.000000 0.036543 0.000000
# 6 0.000000 0.000000 0.000000 -0.002455 0.000000 0.035611
#
#
# Mechanical properties :
#
#
# Convention : Reuss Voigt Hill
#
# Bulk Modulus (GPa) = 66.78258 80.64229 73.71243
# Shear Modulus (GPa) = 28.61558 30.14155 29.37857
#
# Velocity S-wave (km/s) = 3.88075 3.98288 3.93215
# Velocity P-wave (km/s) = 7.43153 7.97450 7.70780
#
# Compressibility (1/GPa) = 0.01497396
#
# Stress axis : x y z
#
# Youngs Moduli (GPa) = 55.53546 75.91921 93.62724
#
# Poissons Ratio (x) = 0.17968 0.55769
# Poissons Ratio (y) = 0.13143 0.47932
# Poissons Ratio (z) = 0.33079 0.38866
#
# Static dielectric constant tensor:
#      x y z
#    x 3.206010 0.000000 -0.006940 
#    y 0.000000 3.691660 0.000000 
#    z -0.006940 0.000000 3.646170 
# 
# 
# High freq. dielectric constant tensor:
#      x y z
#    x 1.718380 0.000000 0.001560 
#    y 0.000000 1.745570 0.000000 
#    z 0.001560 0.000000 1.755470 
# 
# From -- ./inp_files/281719.got.cif
#   From: 2010.06.25/outbox.cif.g09.slc.cpg/sg12_141_cif.got.tgz:281719.got - 2010.06.28 00:19:55.
