data_PCOD8100955
_publ_section_title
;
Structure prediction by ZEFSAII (Michael W. Deem and Ramdas Pophale) SiO2 
 PCOD8100955
Probable space group: C 2/M
;
_chemical_formula_sum "Si O2"
_cell_formula_units_Z 48
_cell_length_a 9.082935
_cell_length_b 12.296281
_cell_length_c 25.352540
_cell_angle_alpha 90.000000
_cell_angle_beta 123.662302
_cell_angle_gamma 90.000000
_cell_volume 2356.737830
_symmetry_space_group_name_H-M "C 2/M"
_symmetry_group_IT_number 12
_symmetry_cell_setting 'monoclinic'
loop_
_space_group_symop_operation_xyz
x,y,z
-x,y,-z
-x,-y,-z
x,-y,z
1/2+x,1/2+y,z
1/2-x,1/2+y,-z
1/2-x,1/2-y,-z
1/2+x,1/2-y,z
loop_
_atom_site_type_symbol
_atom_site_label
_atom_site_fract_x
_atom_site_fract_y
_atom_site_fract_z
Si Si1 0.136447 0.629485 0.485063
Si Si2 0.894747 0.628220 0.639131
Si Si3 0.102040 0.627208 0.073465
Si Si4 0.330237 0.870421 0.220721
Si Si5 0.535539 0.250518 0.853634
Si Si6 0.485123 0.383654 0.435832
O O1 0.157160 0.500000 0.496760
O O2 0.056606 0.654815 0.411581
O O3 0.000000 0.681180 0.500000
O O4 0.331246 0.683060 0.538745
O O5 0.878970 0.500000 0.643861
O O6 0.044267 0.674920 0.707489
O O7 0.699209 0.677301 0.614835
O O8 0.105459 0.500000 0.085817
O O9 0.302608 0.667018 0.107229
O O10 0.995210 0.683905 0.099190
O O11 0.000000 0.656368 0.000000
O O12 0.417964 0.833709 0.183401
O O13 0.138953 0.819630 0.193926
O O14 0.312464 0.000000 0.217147
O O15 0.500000 0.411393 0.500000
O O16 0.489239 0.500000 0.406194
#
# Coordination Sequence:
#
# PCOD8100955 Si02
#       6
#     8   8   8   8   8   8
#     4   8  12  19  34  61  94 121 158 219 274 317
#     4   8  14  25  42  64  92 131 174 212 261 324
#     4  10  20  36  59  86 116 148 183 225 270 317
#     4  10  20  36  56  78 110 149 186 226 270 323
#     4  10  21  36  56  84 114 148 186 224 268 320
#     4   7  10  18  33  55  84 117 158 207 255 309
#
# _framework density 20.367135999999999
#
# number of rings (size 3 to 8) (size 9 to 14) (size 15 to 20)
#    0.000    3.167    0.000    3.500    0.000    0.000 
#    0.000    3.333    0.000   18.000    0.000   15.167 
#    0.000    0.000    0.000    0.000    0.000   57.333 
#
# Total GULP energy -297371.076719 kJ/mol
# GULP energy per Si atom -12390.461530 kJ/mol
# Density = 2.032078 g / cm^3
# Si number density = 20.367136 Si / 1000 Ang^3
#
#
#
# Elastic Constant Matrix: (Units=GPa)
#
#
# Indices 1 2 3 4 5 6 
#
# 1 130.5390 8.4819 48.6707 0.0000 14.0703 0.0000
# 2 8.4819 53.6125 18.9313 0.0000 2.7814 0.0000
# 3 48.6707 18.9313 122.0879 0.0000 11.7514 0.0000
# 4 0.0000 0.0000 0.0000 22.2719 0.0000 12.3975
# 5 14.0703 2.7814 11.7514 0.0000 29.7394 0.0000
# 6 0.0000 0.0000 0.0000 12.3975 0.0000 -3.9243
#
#
#
# Elastic Compliance Matrix: (Units=1/GPa)
#
#
# Indices 1 2 3 4 5 6 
#
# 1 0.009255 -0.000113 -0.003380 0.000000 -0.003033 0.000000
# 2 -0.000113 0.019747 -0.002957 0.000000 -0.000625 0.000000
# 3 -0.003380 -0.002957 0.010204 0.000000 -0.002156 0.000000
# 4 0.000000 0.000000 0.000000 0.016277 0.000000 0.051420
# 5 -0.003033 -0.000625 -0.002156 0.000000 0.035971 0.000000
# 6 0.000000 0.000000 0.000000 0.051420 0.000000 -0.092376
#
#
# Mechanical properties :
#
#
# Convention : Reuss Voigt Hill
#
# Bulk Modulus (GPa) = 38.01417 50.93414 44.47415
# Shear Modulus (GPa) = 241.00886 24.96110 132.98498
#
# Velocity S-wave (km/s) = 10.88986 3.50459 8.08923
# Velocity P-wave (km/s) = 13.29751 6.43728 10.44659
#
# Compressibility (1/GPa) = 0.02630598
#
# Stress axis : x y z
#
# Youngs Moduli (GPa) = 108.04953 50.64122 97.99757
#
# Poissons Ratio (x) = 0.00574 0.33124
# Poissons Ratio (y) = 0.01225 0.28974
# Poissons Ratio (z) = 0.36522 0.14973
#
# Static dielectric constant tensor:
#      x y z
#    x 4.032020 0.000000 0.397100 
#    y 0.000000 3.692140 0.000000 
#    z 0.397100 0.000000 3.977020 
# 
# 
# High freq. dielectric constant tensor:
#      x y z
#    x 1.801400 0.000000 0.020660 
#    y 0.000000 1.814120 0.000000 
#    z 0.020660 0.000000 1.787060 
# 
# From -- ./inp_files/356364.got.cif
#   From: 2010.06.25/outbox.cif.g09.slc.cpg/sg12_179_cif.got.tgz:356364.got - 2010.06.28 00:19:55.
