data_PCOD8100059
_publ_section_title
;
Structure prediction by ZEFSAII (Michael W. Deem and Ramdas Pophale) SiO2 
 PCOD8100059
Probable space group: C 2/M
;
_chemical_formula_sum "Si O2"
_cell_formula_units_Z 56
_cell_length_a 20.277864
_cell_length_b 9.080975
_cell_length_c 29.741895
_cell_angle_alpha 90.000000
_cell_angle_beta 33.592695
_cell_angle_gamma 90.000000
_cell_volume 3030.208370
_symmetry_space_group_name_H-M "C 2/M"
_symmetry_group_IT_number 12
_symmetry_cell_setting 'monoclinic'
loop_
_space_group_symop_operation_xyz
x,y,z
-x,y,-z
-x,-y,-z
x,-y,z
1/2+x,1/2+y,z
1/2-x,1/2+y,-z
1/2-x,1/2-y,-z
1/2+x,1/2-y,z
loop_
_atom_site_type_symbol
_atom_site_label
_atom_site_fract_x
_atom_site_fract_y
_atom_site_fract_z
Si Si1 0.806205 0.330982 0.905305
Si Si2 0.808195 0.171218 0.237892
Si Si3 0.927744 0.171995 0.916166
Si Si4 0.913698 0.171575 0.675885
Si Si5 0.527099 0.171444 0.267005
Si Si6 0.578742 0.329292 0.497670
Si Si7 0.188521 0.827685 0.658798
O O1 0.821977 0.500000 0.910315
O O2 0.891336 0.241155 0.889646
O O3 0.847317 0.304855 0.830677
O O4 0.667109 0.284538 0.990846
O O5 0.715523 0.265730 0.262317
O O6 0.795809 0.206514 0.297546
O O7 0.939073 0.221670 0.146088
O O8 0.783728 0.000000 0.242017
O O9 0.930820 0.000000 0.904881
O O10 0.967473 0.248824 0.688757
O O11 0.004728 0.204260 0.584236
O O12 0.900082 0.000000 0.693300
O O13 0.423892 0.239609 0.295448
O O14 0.500507 0.000000 0.289898
O O15 0.500000 0.281240 0.500000
O O16 0.616073 0.500000 0.472752
O O17 0.695508 0.228902 0.433387
O O18 0.170598 0.000000 0.659592
#
# Coordination Sequence:
#
# PCOD8100059 Si02
#       7
#     8   8   8   8   8   8   8
#     4   9  18  32  54  83 113 149 187 228 278 328
#     4  10  20  35  57  86 116 147 185 231 280 334
#     4   9  17  32  55  84 115 145 185 233 276 326
#     4  11  24  40  60  82 112 151 190 233 285 340
#     4  11  23  39  58  83 118 154 190 231 281 337
#     4  10  21  39  60  84 112 145 187 236 286 333
#     4  11  22  36  60  89 115 147 188 231 280 337
#
# _framework density 18.480575999999999
#
# number of rings (size 3 to 8) (size 9 to 14) (size 15 to 20)
#    0.000    1.857    2.857    1.286    0.000    3.714 
#    0.000    0.714    0.000    4.286    0.000    0.000 
#    0.000    0.000    0.000    0.000    0.000    0.000 
#
# Total GULP energy -347228.962711 kJ/mol
# GULP energy per Si atom -12401.034383 kJ/mol
# Density = 1.843851 g / cm^3
# Si number density = 18.480576 Si / 1000 Ang^3
#
#
#
# Elastic Constant Matrix: (Units=GPa)
#
#
# Indices 1 2 3 4 5 6 
#
# 1 44.3943 19.7281 24.5089 -0.0052 -2.3391 0.0111
# 2 19.7281 58.9720 35.4634 -0.0036 -3.6097 0.0051
# 3 24.5089 35.4634 101.3973 -0.0007 -10.0352 0.0010
# 4 -0.0052 -0.0036 -0.0007 26.0885 -0.0002 -2.6102
# 5 -2.3391 -3.6097 -10.0352 -0.0002 28.3976 -0.0031
# 6 0.0111 0.0051 0.0010 -2.6102 -0.0031 35.1113
#
#
#
# Elastic Compliance Matrix: (Units=1/GPa)
#
#
# Indices 1 2 3 4 5 6 
#
# 1 0.027935 -0.006692 -0.004423 0.000004 -0.000113 -0.000007
# 2 -0.006692 0.023077 -0.006443 0.000002 0.000105 -0.000001
# 3 -0.004423 -0.006443 0.013541 -0.000001 0.003602 0.000002
# 4 0.000004 0.000002 -0.000001 0.038618 0.000001 0.002871
# 5 -0.000113 0.000105 0.003602 0.000001 0.036491 0.000003
# 6 -0.000007 -0.000001 0.000002 0.002871 0.000003 0.028694
#
#
# Mechanical properties :
#
#
# Convention : Reuss Voigt Hill
#
# Bulk Modulus (GPa) = 33.97103 40.46270 37.21687
# Shear Modulus (GPa) = 23.44270 26.25703 24.84986
#
# Velocity S-wave (km/s) = 3.56547 3.77343 3.67092
# Velocity P-wave (km/s) = 5.94744 6.39744 6.17654
#
# Compressibility (1/GPa) = 0.02943685
#
# Stress axis : x y z
#
# Youngs Moduli (GPa) = 35.79720 43.33299 73.84904
#
# Poissons Ratio (x) = 0.29001 0.32661
# Poissons Ratio (y) = 0.23957 0.47581
# Poissons Ratio (z) = 0.15832 0.27920
#
# Static dielectric constant tensor:
#      x y z
#    x 3.186850 0.000000 -0.083390 
#    y 0.000000 3.439540 0.000010 
#    z -0.083390 0.000010 3.758580 
# 
# 
# High freq. dielectric constant tensor:
#      x y z
#    x 1.697130 0.000000 -0.007860 
#    y 0.000000 1.721510 0.000000 
#    z -0.007860 0.000000 1.733340 
# 
# From -- ./inp_files/274997.got.cif
#   From: 2010.06.25/outbox.cif.g09.slc.cpg/sg12_138_cif.got.tgz:274997.got - 2010.06.28 00:19:55.
