data_PCOD8100113
_publ_section_title
;
Structure prediction by ZEFSAII (Michael W. Deem and Ramdas Pophale) SiO2 
 PCOD8100113
Probable space group: C 2/M
;
_chemical_formula_sum "Si O2"
_cell_formula_units_Z 48
_cell_length_a 23.984049
_cell_length_b 9.029118
_cell_length_c 19.345460
_cell_angle_alpha 90.000000
_cell_angle_beta 146.527749
_cell_angle_gamma 90.000000
_cell_volume 2310.566342
_symmetry_space_group_name_H-M "C 2/M"
_symmetry_group_IT_number 12
_symmetry_cell_setting 'monoclinic'
loop_
_space_group_symop_operation_xyz
x,y,z
-x,y,-z
-x,-y,-z
x,-y,z
1/2+x,1/2+y,z
1/2-x,1/2+y,-z
1/2-x,1/2-y,-z
1/2+x,1/2-y,z
loop_
_atom_site_type_symbol
_atom_site_label
_atom_site_fract_x
_atom_site_fract_y
_atom_site_fract_z
Si Si1 0.915407 0.829450 0.358758
Si Si2 0.813742 0.329628 0.862379
Si Si3 0.298194 0.170129 0.485925
Si Si4 0.432289 0.675103 0.098061
Si Si5 0.622807 0.329474 0.203347
Si Si6 0.973791 0.675578 0.283170
O O1 0.804674 0.810573 0.277836
O O2 0.915114 0.731780 0.289561
O O3 0.000000 0.770886 0.500000
O O4 0.937403 0.000000 0.362167
O O5 0.842525 0.500000 0.904116
O O6 0.882497 0.267606 0.871181
O O7 0.839057 0.237867 0.957524
O O8 0.250000 0.250000 0.500000
O O9 0.232156 0.198546 0.349714
O O10 0.410543 0.228824 0.588246
O O11 0.300421 0.000000 0.508890
O O12 0.421738 0.500000 0.095906
O O13 0.536929 0.720080 0.168571
O O14 0.426454 0.749830 0.166710
O O15 0.607299 0.500000 0.165950
O O16 0.962674 0.500000 0.265574
#
# Coordination Sequence:
#
# PCOD8100113 Si02
#       6
#     8   8   8   8   8   8
#     4  10  23  44  66  88 118 158 201 245 301 364
#     4  11  24  40  61  89 119 156 203 253 299 352
#     4  10  20  35  57  88 122 154 193 240 293 350
#     4  11  23  40  62  87 122 165 201 242 300 363
#     4  10  21  38  60  88 122 161 201 241 296 362
#     4  11  23  38  62  94 124 156 200 253 299 347
#
# _framework density 20.774127
#
# number of rings (size 3 to 8) (size 9 to 14) (size 15 to 20)
#    0.000    1.500    1.667    3.000    0.000    7.000 
#    0.000    0.000    0.000    0.000    0.000    0.000 
#    0.000    0.000    0.000    0.000    0.000    0.000 
#
# Total GULP energy -297730.454920 kJ/mol
# GULP energy per Si atom -12405.435622 kJ/mol
# Density = 2.072684 g / cm^3
# Si number density = 20.774127 Si / 1000 Ang^3
#
#
#
# Elastic Constant Matrix: (Units=GPa)
#
#
# Indices 1 2 3 4 5 6 
#
# 1 100.1001 48.7307 20.7490 0.0000 -20.7494 0.0000
# 2 48.7307 86.8740 35.2615 0.0000 -13.4587 0.0000
# 3 20.7490 35.2615 89.6030 0.0000 -13.2694 0.0000
# 4 0.0000 0.0000 0.0000 33.3017 0.0000 -6.1509
# 5 -20.7494 -13.4587 -13.2694 0.0000 34.9144 0.0000
# 6 0.0000 0.0000 0.0000 -6.1509 0.0000 35.1519
#
#
#
# Elastic Compliance Matrix: (Units=1/GPa)
#
#
# Indices 1 2 3 4 5 6 
#
# 1 0.014838 -0.007561 0.000438 0.000000 0.006070 0.000000
# 2 -0.007561 0.017949 -0.005249 0.000000 0.000431 0.000000
# 3 0.000438 -0.005249 0.013631 0.000000 0.003418 0.000000
# 4 0.000000 0.000000 0.000000 0.031031 0.000000 0.005430
# 5 0.006070 0.000431 0.003418 0.000000 0.033714 0.000000
# 6 0.000000 0.000000 0.000000 0.005430 0.000000 0.029398
#
#
# Mechanical properties :
#
#
# Convention : Reuss Voigt Hill
#
# Bulk Modulus (GPa) = 46.13556 54.00661 50.07108
# Shear Modulus (GPa) = 28.98058 32.12932 30.55495
#
# Velocity S-wave (km/s) = 3.73907 3.93695 3.83928
# Velocity P-wave (km/s) = 6.39509 6.83518 6.61879
#
# Compressibility (1/GPa) = 0.02167526
#
# Stress axis : x y z
#
# Youngs Moduli (GPa) = 67.39382 55.71258 73.36445
#
# Poissons Ratio (x) = 0.42123 -0.03216
# Poissons Ratio (y) = 0.50955 0.38509
# Poissons Ratio (z) = -0.02954 0.29243
#
# Static dielectric constant tensor:
#      x y z
#    x 3.506780 0.000000 0.041750 
#    y 0.000000 4.173130 0.000000 
#    z 0.041750 0.000000 3.900310 
# 
# 
# High freq. dielectric constant tensor:
#      x y z
#    x 1.809660 0.000000 -0.001960 
#    y 0.000000 1.812000 0.000000 
#    z -0.001960 0.000000 1.824770 
# 
# From -- ./inp_files/327309.got.cif
#   From: 2010.06.25/outbox.cif.g09.slc.cpg/sg12_164_cif.got.tgz:327309.got - 2010.06.28 00:19:55.
