data_PCOD8100737
_publ_section_title
;
Structure prediction by ZEFSAII (Michael W. Deem and Ramdas Pophale) SiO2 
 PCOD8100737
Probable space group: C 2/M
;
_chemical_formula_sum "Si O2"
_cell_formula_units_Z 52
_cell_length_a 8.627798
_cell_length_b 23.744445
_cell_length_c 15.101963
_cell_angle_alpha 90.000000
_cell_angle_beta 56.700741
_cell_angle_gamma 90.000000
_cell_volume 2585.861586
_symmetry_space_group_name_H-M "C 2/M"
_symmetry_group_IT_number 12
_symmetry_cell_setting 'monoclinic'
loop_
_space_group_symop_operation_xyz
x,y,z
-x,y,-z
-x,-y,-z
x,-y,z
1/2+x,1/2+y,z
1/2-x,1/2+y,-z
1/2-x,1/2-y,-z
1/2+x,1/2-y,z
loop_
_atom_site_type_symbol
_atom_site_label
_atom_site_fract_x
_atom_site_fract_y
_atom_site_fract_z
Si Si1 0.383551 0.185838 0.785292
Si Si2 0.097862 0.000000 0.715240
Si Si3 0.196459 0.387084 0.606100
Si Si4 0.502862 0.691352 0.194342
Si Si5 0.640794 0.500000 0.037072
Si Si6 0.504612 0.000000 0.604480
Si Si7 0.476000 0.387475 0.366535
Si Si8 0.192800 0.120854 0.990663
O O1 0.544537 0.160990 0.672593
O O2 0.437603 0.245197 0.808931
O O3 0.196872 0.190409 0.788106
O O4 0.354335 0.145393 0.878753
O O5 0.084419 0.945801 0.657771
O O6 0.949925 0.000000 0.838340
O O7 0.293946 0.000000 0.704479
O O8 0.102157 0.445796 0.613398
O O9 0.320121 0.367241 0.484638
O O10 0.325208 0.396305 0.650825
O O11 0.490846 0.661930 0.292049
O O12 0.659725 0.660239 0.086522
O O13 0.760089 0.557680 0.995967
O O14 0.500000 0.500000 0.000000
O O15 0.500000 0.000000 0.500000
O O16 0.000000 0.116621 0.000000
#
# Coordination Sequence:
#
# PCOD8100737 Si02
#       8
#     8   4   8   8   4   4   8   8
#     4  11  24  40  65  93 126 167 216 268 314 378
#     4  12  21  38  68  93 126 172 209 257 314 382
#     4  11  25  41  61  95 132 165 210 264 313 377
#     4  11  22  41  65  91 124 170 217 259 320 376
#     4  10  20  35  62  99 127 160 199 259 316 374
#     4  12  23  37  65  98 123 165 209 256 310 378
#     4  11  23  42  64  90 132 171 209 259 320 372
#     4   9  20  37  62  95 126 163 207 260 318 380
#
# _framework density 20.109352000000001
#
# number of rings (size 3 to 8) (size 9 to 14) (size 15 to 20)
#    0.000    1.231    3.077    2.769    4.308    1.846 
#    0.000    2.308    0.000    0.923    0.000    0.000 
#    0.000    0.000    0.000    0.000    0.000    0.000 
#
# Total GULP energy -322441.131960 kJ/mol
# GULP energy per Si atom -12401.581998 kJ/mol
# Density = 2.006358 g / cm^3
# Si number density = 20.109352 Si / 1000 Ang^3
#
#
#
# Elastic Constant Matrix: (Units=GPa)
#
#
# Indices 1 2 3 4 5 6 
#
# 1 102.2291 48.0686 48.2920 0.0000 3.6447 0.0000
# 2 48.0686 175.1203 74.0124 0.0000 7.0357 0.0000
# 3 48.2920 74.0124 123.9504 0.0000 12.5763 0.0000
# 4 0.0000 0.0000 0.0000 37.6109 0.0000 11.2407
# 5 3.6447 7.0357 12.5763 0.0000 23.5381 0.0000
# 6 0.0000 0.0000 0.0000 11.2407 0.0000 85.6626
#
#
#
# Elastic Compliance Matrix: (Units=1/GPa)
#
#
# Indices 1 2 3 4 5 6 
#
# 1 0.012418 -0.001822 -0.003818 0.000000 0.000661 0.000000
# 2 -0.001822 0.007906 -0.004017 0.000000 0.000066 0.000000
# 3 -0.003818 -0.004017 0.012447 0.000000 -0.004858 0.000000
# 4 0.000000 0.000000 0.000000 0.027673 0.000000 -0.003631
# 5 0.000661 0.000066 -0.004858 0.000000 0.044958 0.000000
# 6 0.000000 0.000000 0.000000 -0.003631 0.000000 0.012150
#
#
# Mechanical properties :
#
#
# Convention : Reuss Voigt Hill
#
# Bulk Modulus (GPa) = 74.30905 82.44955 78.37930
# Shear Modulus (GPa) = 35.37263 44.75742 40.06503
#
# Velocity S-wave (km/s) = 4.19861 4.72285 4.46843
# Velocity P-wave (km/s) = 7.78056 8.41606 8.10454
#
# Compressibility (1/GPa) = 0.01345731
#
# Stress axis : x y z
#
# Youngs Moduli (GPa) = 80.52579 126.49039 80.34125
#
# Poissons Ratio (x) = 0.23045 0.30671
# Poissons Ratio (y) = 0.14671 0.32277
# Poissons Ratio (z) = 0.30741 0.50817
#
# Static dielectric constant tensor:
#      x y z
#    x 3.558200 0.000000 0.106020 
#    y 0.000000 3.951510 0.000000 
#    z 0.106020 0.000000 3.873340 
# 
# 
# High freq. dielectric constant tensor:
#      x y z
#    x 1.777500 0.000000 0.010190 
#    y 0.000000 1.797930 0.000000 
#    z 0.010190 0.000000 1.796850 
# 
# From -- ./inp_files/258454.got.cif
#   From: 2010.06.25/outbox.cif.g09.slc.cpg/sg12_130_cif.got.tgz:258454.got - 2010.06.28 00:19:55.
