data_PCOD8100498
_publ_section_title
;
Structure prediction by ZEFSAII (Michael W. Deem and Ramdas Pophale) SiO2 
 PCOD8100498
Probable space group: C 2/M
;
_chemical_formula_sum "Si O2"
_cell_formula_units_Z 56
_cell_length_a 28.059579
_cell_length_b 8.818352
_cell_length_c 17.394866
_cell_angle_alpha 90.000000
_cell_angle_beta 43.100935
_cell_angle_gamma 90.000000
_cell_volume 2940.979474
_symmetry_space_group_name_H-M "C 2/M"
_symmetry_group_IT_number 12
_symmetry_cell_setting 'monoclinic'
loop_
_space_group_symop_operation_xyz
x,y,z
-x,y,-z
-x,-y,-z
x,-y,z
1/2+x,1/2+y,z
1/2-x,1/2+y,-z
1/2-x,1/2-y,-z
1/2+x,1/2-y,z
loop_
_atom_site_type_symbol
_atom_site_label
_atom_site_fract_x
_atom_site_fract_y
_atom_site_fract_z
Si Si1 0.800794 0.825717 0.254069
Si Si2 0.179248 0.678653 0.613939
Si Si3 0.675584 0.822555 0.205073
Si Si4 0.068135 0.823431 0.634923
Si Si5 0.684308 0.825872 0.921600
Si Si6 0.577644 0.825634 0.180905
Si Si7 0.360170 0.172771 0.583740
O O1 0.835688 0.730941 0.281451
O O2 0.830397 0.767240 0.138405
O O3 0.717774 0.804758 0.355988
O O4 0.822247 0.000000 0.238033
O O5 0.187239 0.500000 0.600992
O O6 0.250000 0.750000 0.500000
O O7 0.114573 0.727268 0.638436
O O8 0.747798 0.732644 0.113153
O O9 0.626792 0.772702 0.192799
O O10 0.636344 0.781762 0.330813
O O11 0.694239 0.000000 0.181296
O O12 0.088173 0.781655 0.523758
O O13 0.988137 0.783811 0.743859
O O14 0.080880 0.000000 0.634250
O O15 0.696608 0.000000 0.885116
O O16 0.617643 0.804811 0.053953
O O17 0.554516 0.000000 0.220189
O O18 0.384777 0.000000 0.542840
#
# Coordination Sequence:
#
# PCOD8100498 Si02
#       7
#     8   8   8   8   8   8   8
#     4  10  20  36  60  88 117 150 188 234 286 338
#     4  12  23  38  62  89 117 148 187 234 284 342
#     4   9  19  36  60  85 112 151 197 240 287 342
#     4  12  25  38  56  83 117 154 192 238 289 343
#     4  10  20  35  59  88 117 150 192 242 289 336
#     4  10  22  40  58  80 115 158 197 238 290 343
#     4   9  18  34  56  82 114 150 188 234 286 343
#
# _framework density 19.041276
#
# number of rings (size 3 to 8) (size 9 to 14) (size 15 to 20)
#    0.000    1.714    1.429    4.714    0.000    4.571 
#    0.000    3.571    0.000    4.286    0.000    0.000 
#    0.000    0.000    0.000    0.000    0.000    0.000 
#
# Total GULP energy -347345.497475 kJ/mol
# GULP energy per Si atom -12405.196338 kJ/mol
# Density = 1.899794 g / cm^3
# Si number density = 19.041276 Si / 1000 Ang^3
#
#
#
# Elastic Constant Matrix: (Units=GPa)
#
#
# Indices 1 2 3 4 5 6 
#
# 1 55.5677 30.3305 29.4014 0.0045 14.8557 -0.0034
# 2 30.3305 121.0442 43.7363 0.0158 3.8400 -0.0149
# 3 29.4014 43.7363 87.1626 0.0017 4.1813 -0.0020
# 4 0.0045 0.0158 0.0017 31.8552 -0.0020 -0.4232
# 5 14.8557 3.8400 4.1813 -0.0020 21.8008 0.0028
# 6 -0.0034 -0.0149 -0.0020 -0.4232 0.0028 30.9577
#
#
#
# Elastic Compliance Matrix: (Units=1/GPa)
#
#
# Indices 1 2 3 4 5 6 
#
# 1 0.028443 -0.004166 -0.006671 -0.000003 -0.017368 0.000002
# 2 -0.004166 0.010715 -0.004055 -0.000004 0.001729 0.000004
# 3 -0.006671 -0.004055 0.015649 0.000002 0.002258 -0.000002
# 4 -0.000003 -0.000004 0.000002 0.031398 0.000005 0.000429
# 5 -0.017368 0.001729 0.002258 0.000005 0.056967 -0.000006
# 6 0.000002 0.000004 -0.000002 0.000429 -0.000006 0.032308
#
#
# Mechanical properties :
#
#
# Convention : Reuss Voigt Hill
#
# Bulk Modulus (GPa) = 39.95964 52.30122 46.13043
# Shear Modulus (GPa) = 23.40778 27.60985 25.50882
#
# Velocity S-wave (km/s) = 3.50997 3.81202 3.66411
# Velocity P-wave (km/s) = 6.12028 6.84852 6.49462
#
# Compressibility (1/GPa) = 0.02502525
#
# Stress axis : x y z
#
# Youngs Moduli (GPa) = 35.15836 93.32349 63.90134
#
# Poissons Ratio (x) = 0.38876 0.42627
# Poissons Ratio (y) = 0.14646 0.25909
# Poissons Ratio (z) = 0.23453 0.37838
#
# Static dielectric constant tensor:
#      x y z
#    x 3.560630 -0.000010 0.208190 
#    y -0.000010 3.552400 0.000020 
#    z 0.208190 0.000020 3.392140 
# 
# 
# High freq. dielectric constant tensor:
#      x y z
#    x 1.738630 0.000000 0.018960 
#    y 0.000000 1.744780 0.000000 
#    z 0.018960 0.000000 1.734250 
# 
# From -- ./inp_files/292372.got.cif
#   From: 2010.06.25/outbox.cif.g09.slc.cpg/sg12_147_cif.got.tgz:292372.got - 2010.06.28 00:19:55.
