data_PCOD8100476
_publ_section_title
;
Structure prediction by ZEFSAII (Michael W. Deem and Ramdas Pophale) SiO2 
 PCOD8100476
Probable space group: C 2/M
;
_chemical_formula_sum "Si O2"
_cell_formula_units_Z 56
_cell_length_a 19.369597
_cell_length_b 14.340629
_cell_length_c 11.809249
_cell_angle_alpha 90.000000
_cell_angle_beta 65.650156
_cell_angle_gamma 90.000000
_cell_volume 2988.483517
_symmetry_space_group_name_H-M "C 2/M"
_symmetry_group_IT_number 12
_symmetry_cell_setting 'monoclinic'
loop_
_space_group_symop_operation_xyz
x,y,z
-x,y,-z
-x,-y,-z
x,-y,z
1/2+x,1/2+y,z
1/2-x,1/2+y,-z
1/2-x,1/2-y,-z
1/2+x,1/2-y,z
loop_
_atom_site_type_symbol
_atom_site_label
_atom_site_fract_x
_atom_site_fract_y
_atom_site_fract_z
Si Si1 0.464107 0.601194 0.141635
Si Si2 0.382725 0.192396 0.407817
Si Si3 0.897345 0.500000 0.675425
Si Si4 0.561667 0.000000 0.609731
Si Si5 0.079365 0.392982 0.007749
Si Si6 0.665051 0.750086 0.793013
Si Si7 0.456084 0.250501 0.771905
Si Si8 0.332281 0.802926 0.696033
O O1 0.443238 0.500000 0.212743
O O2 0.390641 0.662410 0.164295
O O3 0.528385 0.654853 0.170293
O O4 0.500000 0.576603 0.000000
O O5 0.328478 0.229108 0.345411
O O6 0.467519 0.233165 0.350691
O O7 0.345266 0.211596 0.553958
O O8 0.392653 0.084991 0.369481
O O9 0.932599 0.500000 0.528168
O O10 0.846643 0.408652 0.727772
O O11 0.972199 0.500000 0.706003
O O12 0.108533 0.500000 0.011537
O O13 0.136805 0.337669 0.886244
O O14 0.067672 0.335384 0.131044
O O15 0.000000 0.398138 0.000000
O O16 0.746721 0.722229 0.785727
O O17 0.388439 0.265166 0.727581
#
# Coordination Sequence:
#
# PCOD8100476 Si02
#       8
#     8   8   4   4   8   8   8   8
#     4  10  20  40  62  80 106 150 207 242 269 334
#     4  10  20  35  59  87 115 160 194 236 289 347
#     4   9  18  32  50  87 117 150 185 239 291 337
#     4   9  16  30  56  84 113 143 202 233 277 343
#     4  11  22  38  61  90 117 153 199 242 295 352
#     4  11  22  39  59  85 122 154 196 236 297 349
#     4  11  20  37  62  86 117 152 199 238 291 343
#     4  11  23  35  56  88 128 152 188 240 301 356
#
# _framework density 18.738602
#
# number of rings (size 3 to 8) (size 9 to 14) (size 15 to 20)
#    0.000    1.571    5.714    0.857    4.000    0.571 
#    0.000    0.714    0.000    7.714    0.000    0.000 
#    0.000    0.000    0.000    0.000    0.000    0.000 
#
# Total GULP energy -346970.270987 kJ/mol
# GULP energy per Si atom -12391.795392 kJ/mol
# Density = 1.869595 g / cm^3
# Si number density = 18.738602 Si / 1000 Ang^3
#
#
#
# Elastic Constant Matrix: (Units=GPa)
#
#
# Indices 1 2 3 4 5 6 
#
# 1 104.6016 38.3283 13.7948 0.0000 -18.0341 0.0000
# 2 38.3283 130.8488 31.5510 0.0000 -10.7156 0.0000
# 3 13.7948 31.5510 57.2342 0.0000 -7.5572 0.0000
# 4 0.0000 0.0000 0.0000 3.8401 0.0000 11.6564
# 5 -18.0341 -10.7156 -7.5572 0.0000 19.0336 0.0000
# 6 0.0000 0.0000 0.0000 11.6564 0.0000 9.7969
#
#
#
# Elastic Compliance Matrix: (Units=1/GPa)
#
#
# Indices 1 2 3 4 5 6 
#
# 1 0.012323 -0.002755 -0.000121 0.000000 0.010077 0.000000
# 2 -0.002755 0.009619 -0.004504 0.000000 0.001016 0.000000
# 3 -0.000121 -0.004504 0.020721 0.000000 0.005577 0.000000
# 4 0.000000 0.000000 0.000000 -0.099714 0.000000 0.118640
# 5 0.010077 0.001016 0.005577 0.000000 0.064873 0.000000
# 6 0.000000 0.000000 0.000000 0.118640 0.000000 -0.039085
#
#
# Mechanical properties :
#
#
# Convention : Reuss Voigt Hill
#
# Bulk Modulus (GPa) = 35.83991 51.11476 43.47733
# Shear Modulus (GPa) = -694.15158 20.46815 -336.84171
#
# Velocity S-wave (km/s) = -19.26768 3.30858 -13.42194
# Velocity P-wave (km/s) = 21.81338 6.47554 14.72907
#
# Compressibility (1/GPa) = 0.02790186
#
# Stress axis : x y z
#
# Youngs Moduli (GPa) = 81.14964 103.96301 48.26132
#
# Poissons Ratio (x) = 0.28645 0.00582
# Poissons Ratio (y) = 0.22359 0.21738
# Poissons Ratio (z) = 0.00979 0.46827
#
# Static dielectric constant tensor:
#      x y z
#    x 2.895680 0.000000 -0.019750 
#    y 0.000000 4.639760 0.000000 
#    z -0.019750 0.000000 3.363400 
# 
# 
# High freq. dielectric constant tensor:
#      x y z
#    x 1.714570 0.000000 0.009190 
#    y 0.000000 1.724420 0.000000 
#    z 0.009190 0.000000 1.725860 
# 
# From -- ./inp_files/156578.got.cif
#   From: 2010.06.25/outbox.cif.g09.slc.cpg/sg12_79_cif.got.tgz:156578.got - 2010.06.28 00:19:55.
