data_PCOD8100514
_publ_section_title
;
Structure prediction by ZEFSAII (Michael W. Deem and Ramdas Pophale) SiO2 
 PCOD8100514
Probable space group: C 2/M
;
_chemical_formula_sum "Si O2"
_cell_formula_units_Z 48
_cell_length_a 16.367994
_cell_length_b 19.406967
_cell_length_c 13.848657
_cell_angle_alpha 90.000000
_cell_angle_beta 147.629892
_cell_angle_gamma 90.000000
_cell_volume 2355.200995
_symmetry_space_group_name_H-M "C 2/M"
_symmetry_group_IT_number 12
_symmetry_cell_setting 'monoclinic'
loop_
_space_group_symop_operation_xyz
x,y,z
-x,y,-z
-x,-y,-z
x,-y,z
1/2+x,1/2+y,z
1/2-x,1/2+y,-z
1/2-x,1/2-y,-z
1/2+x,1/2-y,z
loop_
_atom_site_type_symbol
_atom_site_label
_atom_site_fract_x
_atom_site_fract_y
_atom_site_fract_z
Si Si1 0.909832 0.713611 0.184122
Si Si2 0.301169 0.922462 0.167838
Si Si3 0.062747 0.824665 0.458482
Si Si4 0.394430 0.786767 0.811883
Si Si5 0.842243 0.132375 0.797646
Si Si6 0.528648 0.423641 0.254074
O O1 0.895958 0.633306 0.199994
O O2 0.997746 0.750677 0.359882
O O3 0.011475 0.722623 0.191238
O O4 0.750000 0.750000 0.000000
O O5 0.295490 0.899471 0.275534
O O6 0.371593 0.000000 0.228908
O O7 0.130280 0.922097 0.959399
O O8 0.245618 0.831479 0.642370
O O9 0.003226 0.881219 0.325273
O O10 0.000000 0.843608 0.500000
O O11 0.333202 0.714694 0.793400
O O12 0.500000 0.821928 0.000000
O O13 0.837820 0.107345 0.681791
O O14 0.000000 0.105346 0.000000
O O15 0.578639 0.500000 0.333106
#
# Coordination Sequence:
#
# PCOD8100514 Si02
#       6
#     8   8   8   8   8   8
#     4  12  21  40  63  93 129 162 207 256 311 376
#     4  10  20  35  62  94 129 167 199 248 318 386
#     4  12  24  39  62  92 122 162 212 262 311 362
#     4  11  23  39  65  93 120 160 210 265 312 368
#     4   9  16  34  58  91 119 153 203 251 307 368
#     4  10  20  35  59  88 123 164 209 256 306 370
#
# _framework density 20.380426
#
# number of rings (size 3 to 8) (size 9 to 14) (size 15 to 20)
#    0.000    1.333    3.333    5.000    0.000    2.333 
#    0.000    0.833    0.000    2.500    0.000    0.000 
#    0.000    0.000    0.000    0.000    0.000    0.000 
#
# Total GULP energy -297565.713232 kJ/mol
# GULP energy per Si atom -12398.571385 kJ/mol
# Density = 2.033404 g / cm^3
# Si number density = 20.380426 Si / 1000 Ang^3
#
#
#
# Elastic Constant Matrix: (Units=GPa)
#
#
# Indices 1 2 3 4 5 6 
#
# 1 114.6855 29.9611 34.2126 0.0000 -19.9319 0.0000
# 2 29.9611 100.3074 4.9715 0.0000 -12.3930 0.0000
# 3 34.2126 4.9715 48.9302 0.0000 -6.3694 0.0000
# 4 0.0000 0.0000 0.0000 12.5246 0.0000 0.4286
# 5 -19.9319 -12.3930 -6.3694 0.0000 36.2323 0.0000
# 6 0.0000 0.0000 0.0000 0.4286 0.0000 29.9674
#
#
#
# Elastic Compliance Matrix: (Units=1/GPa)
#
#
# Indices 1 2 3 4 5 6 
#
# 1 0.012619 -0.002809 -0.007941 0.000000 0.004585 0.000000
# 2 -0.002809 0.011052 0.001159 0.000000 0.002439 0.000000
# 3 -0.007941 0.001159 0.025949 0.000000 0.000589 0.000000
# 4 0.000000 0.000000 0.000000 0.079882 0.000000 -0.001142
# 5 0.004585 0.002439 0.000589 0.000000 0.031060 0.000000
# 6 0.000000 0.000000 0.000000 -0.001142 0.000000 0.033386
#
#
# Mechanical properties :
#
#
# Convention : Reuss Voigt Hill
#
# Bulk Modulus (GPa) = 32.85476 44.69040 38.77258
# Shear Modulus (GPa) = 22.39367 28.73006 25.56186
#
# Velocity S-wave (km/s) = 3.31839 3.75866 3.54536
# Velocity P-wave (km/s) = 5.55320 6.38845 5.98541
#
# Compressibility (1/GPa) = 0.03043699
#
# Stress axis : x y z
#
# Youngs Moduli (GPa) = 79.24368 90.47875 38.53727
#
# Poissons Ratio (x) = 0.25417 0.30604
# Poissons Ratio (y) = 0.22261 -0.04465
# Poissons Ratio (z) = 0.62930 -0.10484
#
# Static dielectric constant tensor:
#      x y z
#    x 3.564470 0.000000 -0.299900 
#    y 0.000000 3.721860 0.000000 
#    z -0.299900 0.000000 3.483420 
# 
# 
# High freq. dielectric constant tensor:
#      x y z
#    x 1.801380 0.000000 -0.013480 
#    y 0.000000 1.778450 0.000000 
#    z -0.013480 0.000000 1.783070 
# 
# From -- ./inp_files/148022.got.cif
#   From: 2010.06.25/outbox.cif.g09.slc.cpg/sg12_75_cif.got.tgz:148022.got - 2010.06.28 00:19:55.
