data_PCOD8100202
_publ_section_title
;
Structure prediction by ZEFSAII (Michael W. Deem and Ramdas Pophale) SiO2 
 PCOD8100202
Probable space group: C 2/M
;
_chemical_formula_sum "Si O2"
_cell_formula_units_Z 48
_cell_length_a 20.575459
_cell_length_b 8.995106
_cell_length_c 26.772794
_cell_angle_alpha 90.000000
_cell_angle_beta 30.147573
_cell_angle_gamma 90.000000
_cell_volume 2488.577772
_symmetry_space_group_name_H-M "C 2/M"
_symmetry_group_IT_number 12
_symmetry_cell_setting 'monoclinic'
loop_
_space_group_symop_operation_xyz
x,y,z
-x,y,-z
-x,-y,-z
x,-y,z
1/2+x,1/2+y,z
1/2-x,1/2+y,-z
1/2-x,1/2-y,-z
1/2+x,1/2-y,z
loop_
_atom_site_type_symbol
_atom_site_label
_atom_site_fract_x
_atom_site_fract_y
_atom_site_fract_z
Si Si1 0.374772 0.174294 0.894589
Si Si2 0.627763 0.826957 0.218990
Si Si3 0.867872 0.676724 0.223777
Si Si4 0.873467 0.827038 0.551446
Si Si5 0.866052 0.323513 0.112610
Si Si6 0.869502 0.675608 0.448211
O O1 0.392374 0.214262 0.825181
O O2 0.500008 0.237777 0.840037
O O3 0.360825 0.000000 0.912490
O O4 0.250000 0.250000 0.000000
O O5 0.748733 0.735792 0.158190
O O6 0.499434 0.777104 0.333217
O O7 0.656504 0.000000 0.207608
O O8 0.868289 0.500000 0.222766
O O9 0.747627 0.733450 0.336345
O O10 0.855076 0.739083 0.176177
O O11 0.882344 0.731387 0.495874
O O12 0.000000 0.800099 0.500000
O O13 0.857141 0.000000 0.547932
O O14 0.860141 0.500000 0.115829
O O15 0.000000 0.265864 0.000000
O O16 0.849147 0.500000 0.460934
O O17 0.750000 0.750000 0.500000
#
# Coordination Sequence:
#
# PCOD8100202 Si02
#       6
#     8   8   8   8   8   8
#     4  10  20  36  56  77 105 140 178 219 265 317
#     4  10  22  38  56  80 112 147 178 220 280 334
#     4   9  18  34  55  79 109 143 177 218 269 321
#     4  10  20  36  59  84 112 148 185 223 276 338
#     4  10  20  35  58  85 110 142 186 229 266 316
#     4  11  23  39  59  83 112 147 189 235 282 333
#
# _framework density 19.288125999999998
#
# number of rings (size 3 to 8) (size 9 to 14) (size 15 to 20)
#    0.000    2.000    0.000    3.500    0.000    8.000 
#    0.000    4.167    0.000    0.000    0.000    0.000 
#    0.000    0.000    0.000    0.000    0.000    0.000 
#
# Total GULP energy -297690.856670 kJ/mol
# GULP energy per Si atom -12403.785695 kJ/mol
# Density = 1.924423 g / cm^3
# Si number density = 19.288126 Si / 1000 Ang^3
#
#
#
# Elastic Constant Matrix: (Units=GPa)
#
#
# Indices 1 2 3 4 5 6 
#
# 1 72.3606 26.5527 18.8802 0.0003 -6.8712 -0.0004
# 2 26.5527 37.1076 32.5428 -0.0004 -2.4859 0.0002
# 3 18.8802 32.5428 135.7812 0.0023 -3.9671 -0.0009
# 4 0.0003 -0.0004 0.0023 29.7544 -0.0003 -0.8464
# 5 -6.8712 -2.4859 -3.9671 -0.0003 43.9553 -0.0002
# 6 -0.0004 0.0002 -0.0009 -0.8464 -0.0002 34.8615
#
#
#
# Elastic Compliance Matrix: (Units=1/GPa)
#
#
# Indices 1 2 3 4 5 6 
#
# 1 0.019022 -0.014179 0.000819 0.000000 0.002246 0.000000
# 2 -0.014179 0.044753 -0.008768 0.000001 -0.000477 -0.000001
# 3 0.000819 -0.008768 0.009366 -0.000001 0.000477 0.000000
# 4 0.000000 0.000001 -0.000001 0.033632 0.000000 0.000817
# 5 0.002246 -0.000477 0.000477 0.000000 0.023118 0.000000
# 6 0.000000 -0.000001 0.000000 0.000817 0.000000 0.028705
#
#
# Mechanical properties :
#
#
# Convention : Reuss Voigt Hill
#
# Bulk Modulus (GPa) = 34.62130 44.57787 39.59959
# Shear Modulus (GPa) = 23.53153 32.86579 28.19866
#
# Velocity S-wave (km/s) = 3.49664 4.13236 3.82772
# Velocity P-wave (km/s) = 5.85581 6.77719 6.33328
#
# Compressibility (1/GPa) = 0.02888395
#
# Stress axis : x y z
#
# Youngs Moduli (GPa) = 52.56958 22.34507 106.76533
#
# Poissons Ratio (x) = 0.31684 -0.08744
# Poissons Ratio (y) = 0.74541 0.93614
# Poissons Ratio (z) = -0.04305 0.19593
#
# Static dielectric constant tensor:
#      x y z
#    x 3.630120 0.000000 0.013780 
#    y 0.000000 3.297530 0.000000 
#    z 0.013780 0.000000 3.750120 
# 
# 
# High freq. dielectric constant tensor:
#      x y z
#    x 1.770120 0.000000 0.000830 
#    y 0.000000 1.723370 0.000000 
#    z 0.000830 0.000000 1.772240 
# 
# From -- ./inp_files/319559.got.cif
#   From: 2010.06.25/outbox.cif.g09.slc.cpg/sg12_160_cif.got.tgz:319559.got - 2010.06.28 00:19:55.
