data_PCOD8100206
_publ_section_title
;
Structure prediction by ZEFSAII (Michael W. Deem and Ramdas Pophale) SiO2 
 PCOD8100206
Probable space group: C 2/M
;
_chemical_formula_sum "Si O2"
_cell_formula_units_Z 40
_cell_length_a 20.614667
_cell_length_b 8.669628
_cell_length_c 12.667961
_cell_angle_alpha 90.000000
_cell_angle_beta 65.284206
_cell_angle_gamma 90.000000
_cell_volume 2056.635187
_symmetry_space_group_name_H-M "C 2/M"
_symmetry_group_IT_number 12
_symmetry_cell_setting 'monoclinic'
loop_
_space_group_symop_operation_xyz
x,y,z
-x,y,-z
-x,-y,-z
x,-y,z
1/2+x,1/2+y,z
1/2-x,1/2+y,-z
1/2-x,1/2-y,-z
1/2+x,1/2-y,z
loop_
_atom_site_type_symbol
_atom_site_label
_atom_site_fract_x
_atom_site_fract_y
_atom_site_fract_z
Si Si1 0.680387 0.682581 0.274512
Si Si2 0.910068 0.316456 0.848257
Si Si3 0.928544 0.317367 0.244345
Si Si4 0.177727 0.317596 0.503231
Si Si5 0.837665 0.316673 0.111584
O O1 0.681031 0.500000 0.284082
O O2 0.620741 0.736471 0.233930
O O3 0.660302 0.753452 0.400331
O O4 0.757564 0.745101 0.184227
O O5 0.906563 0.500000 0.837541
O O6 0.990786 0.255854 0.806838
O O7 0.865271 0.258314 0.979716
O O8 0.929157 0.500000 0.234383
O O9 0.887160 0.264837 0.377519
O O10 0.888625 0.248621 0.168609
O O11 0.185118 0.500000 0.494501
O O12 0.250000 0.250000 0.500000
O O13 0.839156 0.500000 0.114588
#
# Coordination Sequence:
#
# PCOD8100206 Si02
#       5
#     8   8   8   8   8
#     4  11  22  37  56  81 117 150 182 225 274 327
#     4  10  20  35  58  85 111 143 186 230 276 325
#     4   9  18  34  58  85 110 140 183 234 276 320
#     4  11  21  37  60  84 110 142 186 230 274 327
#     4   9  17  33  58  84 109 144 187 228 270 324
#
# _framework density 19.449245999999999
#
# number of rings (size 3 to 8) (size 9 to 14) (size 15 to 20)
#    0.000    2.000    2.000    2.400    0.000    3.200 
#    0.000    7.000    0.000    1.200    0.000    0.000 
#    0.000    0.000    0.000    0.000    0.000    0.000 
#
# Total GULP energy -248042.961402 kJ/mol
# GULP energy per Si atom -12402.148070 kJ/mol
# Density = 1.940498 g / cm^3
# Si number density = 19.449246 Si / 1000 Ang^3
#
#
#
# Elastic Constant Matrix: (Units=GPa)
#
#
# Indices 1 2 3 4 5 6 
#
# 1 103.2684 13.2216 34.4451 0.0000 15.6006 0.0000
# 2 13.2216 39.1714 24.9699 0.0000 3.5571 0.0000
# 3 34.4451 24.9699 131.5882 0.0000 18.6053 0.0000
# 4 0.0000 0.0000 0.0000 24.9046 0.0000 3.8312
# 5 15.6006 3.5571 18.6053 0.0000 37.8295 0.0000
# 6 0.0000 0.0000 0.0000 3.8312 0.0000 28.6292
#
#
#
# Elastic Compliance Matrix: (Units=1/GPa)
#
#
# Indices 1 2 3 4 5 6 
#
# 1 0.011150 -0.002162 -0.002028 0.000000 -0.003397 0.000000
# 2 -0.002162 0.029461 -0.005115 0.000000 0.000637 0.000000
# 3 -0.002028 -0.005115 0.009581 0.000000 -0.003395 0.000000
# 4 0.000000 0.000000 0.000000 0.040997 0.000000 -0.005486
# 5 -0.003397 0.000637 -0.003395 0.000000 0.029445 0.000000
# 6 0.000000 0.000000 0.000000 -0.005486 0.000000 0.035664
#
#
# Mechanical properties :
#
#
# Convention : Reuss Voigt Hill
#
# Bulk Modulus (GPa) = 31.66317 46.58902 39.12609
# Shear Modulus (GPa) = 26.96364 31.69876 29.33120
#
# Velocity S-wave (km/s) = 3.72742 4.04148 3.88763
# Velocity P-wave (km/s) = 5.90255 6.76641 6.34919
#
# Compressibility (1/GPa) = 0.03158244
#
# Stress axis : x y z
#
# Youngs Moduli (GPa) = 89.68591 33.94307 104.37488
#
# Poissons Ratio (x) = 0.07339 0.21167
# Poissons Ratio (y) = 0.19392 0.53383
# Poissons Ratio (z) = 0.18188 0.17360
#
# Static dielectric constant tensor:
#      x y z
#    x 3.714150 0.000000 -0.092870 
#    y 0.000000 3.204490 0.000000 
#    z -0.092870 0.000000 3.852670 
# 
# 
# High freq. dielectric constant tensor:
#      x y z
#    x 1.767640 0.000000 0.001810 
#    y 0.000000 1.719140 0.000000 
#    z 0.001810 0.000000 1.775400 
# 
# From -- ./inp_files/151693.got.cif
#   From: 2010.06.25/outbox.cif.g09.slc.cpg/sg12_76_cif.got.tgz:151693.got - 2010.06.28 00:19:55.
