data_PCOD8100465
_publ_section_title
;
Structure prediction by ZEFSAII (Michael W. Deem and Ramdas Pophale) SiO2 
 PCOD8100465
Probable space group: C 2/M
;
_chemical_formula_sum "Si O2"
_cell_formula_units_Z 56
_cell_length_a 29.796910
_cell_length_b 16.937024
_cell_length_c 9.404930
_cell_angle_alpha 90.000000
_cell_angle_beta 36.076076
_cell_angle_gamma 90.000000
_cell_volume 2794.957211
_symmetry_space_group_name_H-M "C 2/M"
_symmetry_group_IT_number 12
_symmetry_cell_setting 'monoclinic'
loop_
_space_group_symop_operation_xyz
x,y,z
-x,y,-z
-x,-y,-z
x,-y,z
1/2+x,1/2+y,z
1/2-x,1/2+y,-z
1/2-x,1/2-y,-z
1/2+x,1/2-y,z
loop_
_atom_site_type_symbol
_atom_site_label
_atom_site_fract_x
_atom_site_fract_y
_atom_site_fract_z
Si Si1 0.074011 0.707505 0.390188
Si Si2 0.029692 0.797922 0.769240
Si Si3 0.798094 0.409842 0.878107
Si Si4 0.887243 0.196850 0.956906
Si Si5 0.708519 0.823921 0.672921
Si Si6 0.241980 0.408150 0.328983
Si Si7 0.674698 0.591443 0.416482
O O1 0.060912 0.725791 0.591559
O O2 0.141169 0.644594 0.198255
O O3 0.094168 0.790441 0.257951
O O4 0.000000 0.671612 0.500000
O O5 0.094407 0.863851 0.625603
O O6 0.959015 0.835098 0.862825
O O7 0.000000 0.768067 0.000000
O O8 0.826401 0.500000 0.817014
O O9 0.794122 0.380358 0.726225
O O10 0.714005 0.400839 0.161158
O O11 0.865572 0.287083 0.061816
O O12 0.822886 0.132860 0.146332
O O13 0.750000 0.750000 0.500000
O O14 0.685507 0.882607 0.601943
O O15 0.765358 0.870632 0.629270
O O16 0.257534 0.500000 0.288553
O O17 0.660522 0.500000 0.493168
#
# Coordination Sequence:
#
# PCOD8100465 Si02
#       7
#     8   8   8   8   8   8   8
#     4  10  22  40  62  86 121 160 201 254 309 358
#     4  11  24  37  58  92 122 161 204 248 296 364
#     4  10  22  39  63  92 118 155 207 254 307 366
#     4  10  21  38  57  87 120 160 203 242 300 362
#     4  10  20  35  59  86 118 158 202 249 298 353
#     4  10  21  35  57  88 122 156 194 247 305 359
#     4  11  23  40  63  92 125 165 205 251 304 362
#
# _framework density 20.036085
#
# number of rings (size 3 to 8) (size 9 to 14) (size 15 to 20)
#    0.000    1.714    1.429    3.000    6.000    2.286 
#    0.000    0.000    0.000    5.571    0.000    0.000 
#    0.000    0.000    0.000    0.000    0.000    0.000 
#
# Total GULP energy -347024.698080 kJ/mol
# GULP energy per Si atom -12393.739217 kJ/mol
# Density = 1.999048 g / cm^3
# Si number density = 20.036085 Si / 1000 Ang^3
#
#
#
# Elastic Constant Matrix: (Units=GPa)
#
#
# Indices 1 2 3 4 5 6 
#
# 1 91.0134 41.5352 36.3268 0.0000 13.2076 0.0000
# 2 41.5352 57.5430 30.7766 0.0000 -0.7719 0.0000
# 3 36.3268 30.7766 85.1886 0.0000 5.9632 0.0000
# 4 0.0000 0.0000 0.0000 22.5252 0.0000 3.0879
# 5 13.2076 -0.7719 5.9632 0.0000 40.2433 0.0000
# 6 0.0000 0.0000 0.0000 3.0879 0.0000 27.9639
#
#
#
# Elastic Compliance Matrix: (Units=1/GPa)
#
#
# Indices 1 2 3 4 5 6 
#
# 1 0.018443 -0.011652 -0.003249 0.000000 -0.005795 0.000000
# 2 -0.011652 0.029003 -0.005877 0.000000 0.005251 0.000000
# 3 -0.003249 -0.005877 0.015340 0.000000 -0.001319 0.000000
# 4 0.000000 0.000000 0.000000 0.045077 0.000000 -0.004978
# 5 -0.005795 0.005251 -0.001319 0.000000 0.027047 0.000000
# 6 0.000000 0.000000 0.000000 -0.004978 0.000000 0.036310
#
#
# Mechanical properties :
#
#
# Convention : Reuss Voigt Hill
#
# Bulk Modulus (GPa) = 47.10571 50.11357 48.60964
# Shear Modulus (GPa) = 22.74261 26.48690 24.61476
#
# Velocity S-wave (km/s) = 3.37275 3.63982 3.50883
# Velocity P-wave (km/s) = 6.22324 6.53685 6.38197
#
# Compressibility (1/GPa) = 0.02122885
#
# Stress axis : x y z
#
# Youngs Moduli (GPa) = 54.22170 34.47975 65.19027
#
# Poissons Ratio (x) = 0.40176 0.21182
# Poissons Ratio (y) = 0.63180 0.38311
# Poissons Ratio (z) = 0.17618 0.20263
#
# Static dielectric constant tensor:
#      x y z
#    x 3.745880 0.000000 0.339130 
#    y 0.000000 3.664470 0.000000 
#    z 0.339130 0.000000 4.145720 
# 
# 
# High freq. dielectric constant tensor:
#      x y z
#    x 1.789730 0.000000 0.017900 
#    y 0.000000 1.760620 0.000000 
#    z 0.017900 0.000000 1.791440 
# 
# From -- ./inp_files/105982.got.cif
#   From: 2010.06.25/outbox.cif.g09.slc.cpg/sg12_53_cif.got.tgz:105982.got - 2010.06.28 00:19:55.
