data_PCOD8100358
_publ_section_title
;
Structure prediction by ZEFSAII (Michael W. Deem and Ramdas Pophale) SiO2 
 PCOD8100358
Probable space group: C 2/M
;
_chemical_formula_sum "Si O2"
_cell_formula_units_Z 48
_cell_length_a 29.922811
_cell_length_b 8.848500
_cell_length_c 14.717839
_cell_angle_alpha 90.000000
_cell_angle_beta 39.929691
_cell_angle_gamma 90.000000
_cell_volume 2501.195694
_symmetry_space_group_name_H-M "C 2/M"
_symmetry_group_IT_number 12
_symmetry_cell_setting 'monoclinic'
loop_
_space_group_symop_operation_xyz
x,y,z
-x,y,-z
-x,-y,-z
x,-y,z
1/2+x,1/2+y,z
1/2-x,1/2+y,-z
1/2-x,1/2-y,-z
1/2+x,1/2-y,z
loop_
_atom_site_type_symbol
_atom_site_label
_atom_site_fract_x
_atom_site_fract_y
_atom_site_fract_z
Si Si1 0.572011 0.323159 0.845863
Si Si2 0.936636 0.321894 0.330338
Si Si3 0.409171 0.177950 0.860686
Si Si4 0.819996 0.821784 0.852159
Si Si5 0.326156 0.174124 0.650803
Si Si6 0.669659 0.327269 0.856372
O O1 0.565423 0.500000 0.838805
O O2 0.588867 0.246265 0.724434
O O3 0.634696 0.281332 0.815849
O O4 0.500000 0.259526 0.000000
O O5 0.935071 0.500000 0.322343
O O6 0.884469 0.267926 0.490253
O O7 0.013797 0.264319 0.234560
O O8 0.386082 0.262055 0.805229
O O9 0.407074 0.000000 0.846358
O O10 0.356946 0.218150 0.023212
O O11 0.831279 0.778507 0.730578
O O12 0.813805 0.000000 0.872352
O O13 0.750000 0.750000 0.000000
O O14 0.251990 0.193581 0.717243
O O15 0.338405 0.000000 0.660257
O O16 0.650197 0.500000 0.912511
#
# Coordination Sequence:
#
# PCOD8100358 Si02
#       6
#     8   8   8   8   8   8
#     4  10  20  35  58  88 119 155 201 249 298 350
#     4  10  23  40  59  87 122 159 197 246 298 349
#     4  11  22  37  60  88 118 154 200 245 293 349
#     4  12  24  39  62  91 119 152 197 243 294 353
#     4  10  22  41  61  85 121 159 198 243 296 351
#     4  10  20  36  60  86 115 156 202 246 293 349
#
# _framework density 19.190822000000001
#
# number of rings (size 3 to 8) (size 9 to 14) (size 15 to 20)
#    0.000    1.500    3.333    2.000    0.000    3.667 
#    0.000    3.333    0.000    0.000    0.000    0.000 
#    0.000    0.000    0.000    0.000    0.000    0.000 
#
# Total GULP energy -297736.732095 kJ/mol
# GULP energy per Si atom -12405.697171 kJ/mol
# Density = 1.914714 g / cm^3
# Si number density = 19.190822 Si / 1000 Ang^3
#
#
#
# Elastic Constant Matrix: (Units=GPa)
#
#
# Indices 1 2 3 4 5 6 
#
# 1 138.6266 42.2036 37.7719 0.0000 11.2536 0.0000
# 2 42.2036 71.6351 27.8391 -0.0024 7.4317 0.0003
# 3 37.7719 27.8391 102.7899 -0.0006 10.0816 0.0001
# 4 0.0000 -0.0024 -0.0006 25.9318 0.0001 9.3025
# 5 11.2536 7.4317 10.0816 0.0001 32.1201 0.0000
# 6 0.0000 0.0003 0.0001 9.3025 0.0000 32.6076
#
#
#
# Elastic Compliance Matrix: (Units=1/GPa)
#
#
# Indices 1 2 3 4 5 6 
#
# 1 0.009266 -0.004508 -0.002031 -0.000001 -0.001566 0.000000
# 2 -0.004508 0.017969 -0.003051 0.000002 -0.001621 -0.000001
# 3 -0.002031 -0.003051 0.011517 0.000000 -0.002197 0.000000
# 4 -0.000001 0.000002 0.000000 0.042959 0.000000 -0.012256
# 5 -0.001566 -0.001621 -0.002197 0.000000 0.032747 0.000000
# 6 0.000000 -0.000001 0.000000 -0.012256 0.000000 0.034164
#
#
# Mechanical properties :
#
#
# Convention : Reuss Voigt Hill
#
# Bulk Modulus (GPa) = 51.09057 58.74230 54.91644
# Shear Modulus (GPa) = 28.68196 31.81437 30.24816
#
# Velocity S-wave (km/s) = 3.87016 4.07602 3.97442
# Velocity P-wave (km/s) = 6.83015 7.26828 7.05262
#
# Compressibility (1/GPa) = 0.01957308
#
# Stress axis : x y z
#
# Youngs Moduli (GPa) = 107.91727 55.65072 86.83038
#
# Poissons Ratio (x) = 0.25085 0.17632
# Poissons Ratio (y) = 0.48645 0.26495
# Poissons Ratio (z) = 0.21914 0.16981
#
# Static dielectric constant tensor:
#      x y z
#    x 3.763290 0.000000 -0.090210 
#    y 0.000000 3.425400 0.000000 
#    z -0.090210 0.000000 3.526320 
# 
# 
# High freq. dielectric constant tensor:
#      x y z
#    x 1.763790 0.000000 -0.002460 
#    y 0.000000 1.740730 0.000000 
#    z -0.002460 0.000000 1.740490 
# 
# From -- ./inp_files/244704.got.cif
#   From: 2010.06.25/outbox.cif.g09.slc.cpg/sg12_123_cif.got.tgz:244704.got - 2010.06.28 00:19:55.
