data_PCOD8100619
_publ_section_title
;
Structure prediction by ZEFSAII (Michael W. Deem and Ramdas Pophale) SiO2 
 PCOD8100619
Probable space group: C 2/M
;
_chemical_formula_sum "Si O2"
_cell_formula_units_Z 64
_cell_length_a 29.469042
_cell_length_b 9.196235
_cell_length_c 11.920152
_cell_angle_alpha 90.000000
_cell_angle_beta 83.957507
_cell_angle_gamma 90.000000
_cell_volume 3212.463832
_symmetry_space_group_name_H-M "C 2/M"
_symmetry_group_IT_number 12
_symmetry_cell_setting 'monoclinic'
loop_
_space_group_symop_operation_xyz
x,y,z
-x,y,-z
-x,-y,-z
x,-y,z
1/2+x,1/2+y,z
1/2-x,1/2+y,-z
1/2-x,1/2-y,-z
1/2+x,1/2-y,z
loop_
_atom_site_type_symbol
_atom_site_label
_atom_site_fract_x
_atom_site_fract_y
_atom_site_fract_z
Si Si1 0.400092 0.838203 0.855661
Si Si2 0.812516 0.165983 0.921663
Si Si3 0.445539 0.839463 0.601791
Si Si4 0.534272 0.168560 0.703137
Si Si5 0.288123 0.670030 0.415770
Si Si6 0.391388 0.328691 0.436216
Si Si7 0.478719 0.343608 0.889341
Si Si8 0.268964 0.666542 0.162890
O O1 0.350518 0.770441 0.861964
O O2 0.423866 0.842397 0.729541
O O3 0.430748 0.735511 0.925742
O O4 0.396905 0.000000 0.907314
O O5 0.767887 0.216976 0.866969
O O6 0.822415 0.000000 0.884844
O O7 0.808917 0.179215 0.058462
O O8 0.500117 0.806647 0.604340
O O9 0.416913 0.718845 0.543283
O O10 0.439514 0.000000 0.546704
O O11 0.582767 0.245231 0.670259
O O12 0.512988 0.238736 0.817340
O O13 0.541872 0.000000 0.725806
O O14 0.280064 0.500000 0.435476
O O15 0.250000 0.750000 0.500000
O O16 0.338111 0.716229 0.448632
O O17 0.285699 0.709282 0.283671
O O18 0.396798 0.500000 0.417813
O O19 0.471300 0.500000 0.828137
O O20 0.500000 0.382344 0.000000
O O21 0.250186 0.500000 0.167259
#
# Coordination Sequence:
#
# PCOD8100619 Si02
#       8
#     8   8   8   8   8   8   8   8
#     4  10  21  36  56  84 117 152 192 234 285 347
#     4  10  20  35  60  89 114 146 192 244 296 349
#     4   9  20  37  56  81 115 153 192 236 284 343
#     4  10  21  38  59  84 115 152 195 237 284 346
#     4  10  24  43  60  83 116 154 196 242 296 357
#     4  11  23  37  57  86 115 149 193 241 294 347
#     4  10  21  37  57  83 116 152 188 233 288 338
#     4   9  20  40  60  80 113 152 189 239 300 354
#
# _framework density 19.922402999999999
#
# number of rings (size 3 to 8) (size 9 to 14) (size 15 to 20)
#    0.000    2.125    0.000    3.000    1.750    8.500 
#    0.000    2.500    0.000    0.000    0.000    0.000 
#    0.000    0.000    0.000    0.000    0.000    0.000 
#
# Total GULP energy -396628.394071 kJ/mol
# GULP energy per Si atom -12394.637315 kJ/mol
# Density = 1.987706 g / cm^3
# Si number density = 19.922403 Si / 1000 Ang^3
#
#
#
# Elastic Constant Matrix: (Units=GPa)
#
#
# Indices 1 2 3 4 5 6 
#
# 1 116.9442 63.5167 12.5944 0.0000 -3.4114 0.0000
# 2 63.5167 138.8516 30.0603 0.0000 -1.4912 0.0000
# 3 12.5944 30.0603 38.2769 0.0000 14.5862 0.0000
# 4 0.0000 0.0000 0.0000 21.3417 0.0000 -1.5049
# 5 -3.4114 -1.4912 14.5862 0.0000 21.0349 0.0000
# 6 0.0000 0.0000 0.0000 -1.5049 0.0000 33.9225
#
#
#
# Elastic Compliance Matrix: (Units=1/GPa)
#
#
# Indices 1 2 3 4 5 6 
#
# 1 0.011428 -0.005117 -0.000420 0.000000 0.001782 0.000000
# 2 -0.005117 0.011869 -0.010386 0.000000 0.007214 0.000000
# 3 -0.000420 -0.010386 0.047199 0.000000 -0.033534 0.000000
# 4 0.000000 0.000000 0.000000 0.047004 0.000000 0.002085
# 5 0.001782 0.007214 -0.033534 0.000000 0.071594 0.000000
# 6 0.000000 0.000000 0.000000 0.002085 0.000000 0.029571
#
#
# Mechanical properties :
#
#
# Convention : Reuss Voigt Hill
#
# Bulk Modulus (GPa) = 25.87457 56.26840 41.07148
# Shear Modulus (GPa) = 18.98291 27.78657 23.38474
#
# Velocity S-wave (km/s) = 3.09016 3.73867 3.42978
# Velocity P-wave (km/s) = 5.07425 6.85142 6.02868
#
# Compressibility (1/GPa) = 0.03864798
#
# Stress axis : x y z
#
# Youngs Moduli (GPa) = 87.50582 84.25410 21.18688
#
# Poissons Ratio (x) = 0.43117 0.00890
# Poissons Ratio (y) = 0.44781 0.22005
# Poissons Ratio (z) = 0.03678 0.87507
#
# Static dielectric constant tensor:
#      x y z
#    x 3.725630 0.000000 -0.085310 
#    y 0.000000 3.897900 0.000000 
#    z -0.085310 0.000000 3.566370 
# 
# 
# High freq. dielectric constant tensor:
#      x y z
#    x 1.774370 0.000000 -0.010390 
#    y 0.000000 1.790770 0.000000 
#    z -0.010390 0.000000 1.771330 
# 
# From -- ./inp_files/187573.got.cif
#   From: 2010.06.25/outbox.cif.g09.slc.cpg/sg12_94_cif.got.tgz:187573.got - 2010.06.28 00:19:55.
