data_PCOD8100900
_publ_section_title
;
Structure prediction by ZEFSAII (Michael W. Deem and Ramdas Pophale) SiO2 
 PCOD8100900
Probable space group: C 2/M
;
_chemical_formula_sum "Si O2"
_cell_formula_units_Z 52
_cell_length_a 22.782964
_cell_length_b 26.686692
_cell_length_c 9.923420
_cell_angle_alpha 90.000000
_cell_angle_beta 27.889723
_cell_angle_gamma 90.000000
_cell_volume 2822.278720
_symmetry_space_group_name_H-M "C 2/M"
_symmetry_group_IT_number 12
_symmetry_cell_setting 'monoclinic'
loop_
_space_group_symop_operation_xyz
x,y,z
-x,y,-z
-x,-y,-z
x,-y,z
1/2+x,1/2+y,z
1/2-x,1/2+y,-z
1/2-x,1/2-y,-z
1/2+x,1/2-y,z
loop_
_atom_site_type_symbol
_atom_site_label
_atom_site_fract_x
_atom_site_fract_y
_atom_site_fract_z
Si Si1 0.603797 0.164273 0.510981
Si Si2 0.825134 0.769605 0.717025
Si Si3 0.316046 0.854660 0.118149
Si Si4 0.246308 0.101711 0.990650
Si Si5 0.500000 0.653504 0.500000
Si Si6 0.351681 0.893482 0.326233
Si Si7 0.618897 0.000000 0.663099
Si Si8 0.877224 0.500000 0.655004
O O1 0.611630 0.224213 0.492038
O O2 0.680009 0.143597 0.485632
O O3 0.464319 0.143915 0.800953
O O4 0.660617 0.143309 0.257704
O O5 0.729563 0.797674 0.810867
O O6 0.935293 0.809387 0.524154
O O7 0.750000 0.750000 0.000000
O O8 0.254378 0.892994 0.136102
O O9 0.278443 0.873883 0.343196
O O10 0.106325 0.116328 0.222957
O O11 0.286684 0.046851 0.863939
O O12 0.302678 0.949446 0.464153
O O13 0.500000 0.894534 0.000000
O O14 0.575289 0.000000 0.595181
O O15 0.500000 0.000000 0.000000
O O16 0.000000 0.500000 0.500000
#
# Coordination Sequence:
#
# PCOD8100900 Si02
#       8
#     8   8   8   8   4   8   4   4
#     4  11  19  34  55  84 113 147 186 244 287 343
#     4  11  20  33  59  83 110 156 195 241 286 344
#     4  10  21  35  54  85 114 147 188 238 294 347
#     4  11  23  36  60  84 117 150 192 248 283 347
#     4  10  22  39  52  88 118 157 196 228 306 352
#     4   9  20  34  53  78 117 147 178 233 304 351
#     4  10  20  36  55  83 120 151 172 235 310 349
#     4  12  24  37  63  99 110 147 202 248 299 346
#
# _framework density 18.424828000000002
#
# number of rings (size 3 to 8) (size 9 to 14) (size 15 to 20)
#    0.000    1.538    4.615    2.308    4.308    0.923 
#    0.000    0.000    0.000    2.769    0.000    4.308 
#    0.000    0.000    0.000    0.000    0.000    0.000 
#
# Total GULP energy -322294.402819 kJ/mol
# GULP energy per Si atom -12395.938570 kJ/mol
# Density = 1.838289 g / cm^3
# Si number density = 18.424828 Si / 1000 Ang^3
#
#
#
# Elastic Constant Matrix: (Units=GPa)
#
#
# Indices 1 2 3 4 5 6 
#
# 1 119.2492 54.0074 34.3287 -0.0011 16.0570 0.0003
# 2 54.0074 141.3270 43.8876 0.0002 3.2800 0.0001
# 3 34.3287 43.8876 52.9637 -0.0020 -7.3036 0.0007
# 4 -0.0011 0.0002 -0.0020 30.6120 0.0010 2.1995
# 5 16.0570 3.2800 -7.3036 0.0010 26.8256 -0.0004
# 6 0.0003 0.0001 0.0007 2.1995 -0.0004 30.5364
#
#
#
# Elastic Compliance Matrix: (Units=1/GPa)
#
#
# Indices 1 2 3 4 5 6 
#
# 1 0.012978 -0.002306 -0.007828 0.000000 -0.009618 0.000000
# 2 -0.002306 0.010253 -0.007257 -0.000001 -0.001849 0.000000
# 3 -0.007828 -0.007257 0.031935 0.000001 0.014268 0.000000
# 4 0.000000 -0.000001 0.000001 0.032837 -0.000001 -0.002365
# 5 -0.009618 -0.001849 0.014268 -0.000001 0.047146 0.000001
# 6 0.000000 0.000000 0.000000 -0.002365 0.000001 0.032918
#
#
# Mechanical properties :
#
#
# Convention : Reuss Voigt Hill
#
# Bulk Modulus (GPa) = 49.05227 64.22083 56.63655
# Shear Modulus (GPa) = 23.84994 29.68254 26.76624
#
# Velocity S-wave (km/s) = 3.60174 4.01809 3.81560
# Velocity P-wave (km/s) = 6.63155 7.51385 7.08645
#
# Compressibility (1/GPa) = 0.02038641
#
# Stress axis : x y z
#
# Youngs Moduli (GPa) = 77.05058 97.52909 31.31320
#
# Poissons Ratio (x) = 0.22486 0.24512
# Poissons Ratio (y) = 0.17765 0.22724
# Poissons Ratio (z) = 0.60314 0.70776
#
# Static dielectric constant tensor:
#      x y z
#    x 3.556880 0.000000 0.092260 
#    y 0.000000 3.767750 0.000000 
#    z 0.092260 0.000000 3.267070 
# 
# 
# High freq. dielectric constant tensor:
#      x y z
#    x 1.705580 0.000000 0.011310 
#    y 0.000000 1.729330 0.000000 
#    z 0.011310 0.000000 1.684610 
# 
# From -- ./inp_files/91487.got.cif
#   From: 2010.06.25/outbox.cif.g09.slc.cpg/sg12_46_cif.got.tgz:91487.got - 2010.06.28 00:19:55.
