data_PCOD8100963
_publ_section_title
;
Structure prediction by ZEFSAII (Michael W. Deem and Ramdas Pophale) SiO2 
 PCOD8100963
Probable space group: C 2/M
;
_chemical_formula_sum "Si O2"
_cell_formula_units_Z 56
_cell_length_a 18.320842
_cell_length_b 26.041538
_cell_length_c 8.532181
_cell_angle_alpha 90.000000
_cell_angle_beta 44.679722
_cell_angle_gamma 90.000000
_cell_volume 2862.304510
_symmetry_space_group_name_H-M "C 2/M"
_symmetry_group_IT_number 12
_symmetry_cell_setting 'monoclinic'
loop_
_space_group_symop_operation_xyz
x,y,z
-x,y,-z
-x,-y,-z
x,-y,z
1/2+x,1/2+y,z
1/2-x,1/2+y,-z
1/2-x,1/2-y,-z
1/2+x,1/2-y,z
loop_
_atom_site_type_symbol
_atom_site_label
_atom_site_fract_x
_atom_site_fract_y
_atom_site_fract_z
Si Si1 0.292261 0.440641 0.958635
Si Si2 0.002887 0.060392 0.808868
Si Si3 0.883904 0.760267 0.164653
Si Si4 0.308707 0.620328 0.627648
Si Si5 0.882666 0.622692 0.655076
Si Si6 0.290071 0.797030 0.035367
Si Si7 0.797720 0.670756 0.485646
O O1 0.299320 0.500000 0.933406
O O2 0.395897 0.421655 0.890352
O O3 0.276156 0.421182 0.806136
O O4 0.193027 0.425907 0.213795
O O5 0.084514 0.100685 0.610843
O O6 0.028858 0.000000 0.731870
O O7 0.000000 0.068056 0.000000
O O8 0.873679 0.725720 0.026479
O O9 0.856995 0.722879 0.349598
O O10 0.812324 0.811136 0.272757
O O11 0.000000 0.781411 0.000000
O O12 0.307308 0.675119 0.724989
O O13 0.223313 0.629243 0.621006
O O14 0.871021 0.643900 0.498571
O O15 0.000000 0.604400 0.500000
O O16 0.851298 0.664497 0.831022
O O17 0.250000 0.750000 0.000000
#
# Coordination Sequence:
#
# PCOD8100963 Si02
#       7
#     8   8   8   8   8   8   8
#     4  10  22  40  60  85 119 153 192 244 296 354
#     4  10  20  37  62  91 122 154 189 239 305 363
#     4  10  20  36  56  78 114 155 190 236 286 337
#     4  10  21  36  59  84 119 156 191 235 292 354
#     4  11  22  38  62  85 113 153 199 248 291 347
#     4  10  20  39  56  81 119 158 196 237 286 343
#     4  10  21  36  55  83 114 147 194 239 285 337
#
# _framework density 19.564654999999998
#
# number of rings (size 3 to 8) (size 9 to 14) (size 15 to 20)
#    0.000    1.857    1.429    2.571    0.000    3.143 
#    2.571    0.714    0.000    0.857    0.000    0.000 
#    0.000    0.000    0.000    0.000    0.000    0.000 
#
# Total GULP energy -346988.412731 kJ/mol
# GULP energy per Si atom -12392.443312 kJ/mol
# Density = 1.952013 g / cm^3
# Si number density = 19.564655 Si / 1000 Ang^3
#
#
#
# Elastic Constant Matrix: (Units=GPa)
#
#
# Indices 1 2 3 4 5 6 
#
# 1 112.4252 32.8276 45.2650 0.0000 1.1096 0.0000
# 2 32.8276 41.4866 26.8743 0.0000 -2.4233 0.0000
# 3 45.2650 26.8743 81.4521 0.0000 -6.8060 0.0000
# 4 0.0000 0.0000 0.0000 28.0385 0.0000 3.0900
# 5 1.1096 -2.4233 -6.8060 0.0000 38.7527 0.0000
# 6 0.0000 0.0000 0.0000 3.0900 0.0000 32.5950
#
#
#
# Elastic Compliance Matrix: (Units=1/GPa)
#
#
# Indices 1 2 3 4 5 6 
#
# 1 0.013020 -0.007151 -0.005018 0.000000 -0.001701 0.000000
# 2 -0.007151 0.034585 -0.007347 0.000000 0.001077 0.000000
# 3 -0.005018 -0.007347 0.017724 0.000000 0.002797 0.000000
# 4 0.000000 0.000000 0.000000 0.036042 0.000000 -0.003417
# 5 -0.001701 0.001077 0.002797 0.000000 0.026412 0.000000
# 6 0.000000 0.000000 0.000000 -0.003417 0.000000 0.031003
#
#
# Mechanical properties :
#
#
# Convention : Reuss Voigt Hill
#
# Bulk Modulus (GPa) = 38.02858 49.47752 43.75305
# Shear Modulus (GPa) = 24.20323 28.57038 26.38680
#
# Velocity S-wave (km/s) = 3.52104 3.82554 3.67645
# Velocity P-wave (km/s) = 6.00083 6.69755 6.35874
#
# Compressibility (1/GPa) = 0.02629601
#
# Stress axis : x y z
#
# Youngs Moduli (GPa) = 76.80354 28.91439 56.42167
#
# Poissons Ratio (x) = 0.20677 0.28314
# Poissons Ratio (y) = 0.54924 0.41452
# Poissons Ratio (z) = 0.38543 0.21243
#
# Static dielectric constant tensor:
#      x y z
#    x 3.821980 0.000000 0.136000 
#    y 0.000000 3.629690 0.000000 
#    z 0.136000 0.000000 3.637370 
# 
# 
# High freq. dielectric constant tensor:
#      x y z
#    x 1.767620 0.000000 0.018710 
#    y 0.000000 1.756560 0.000000 
#    z 0.018710 0.000000 1.757720 
# 
# From -- ./inp_files/80018.got.cif
#   From: 2010.06.25/outbox.cif.g09.slc.cpg/sg12_41_cif.got.tgz:80018.got - 2010.06.28 00:19:55.
