data_PCOD8100716
_publ_section_title
;
Structure prediction by ZEFSAII (Michael W. Deem and Ramdas Pophale) SiO2 
 PCOD8100716
Probable space group: C 2/M
;
_chemical_formula_sum "Si O2"
_cell_formula_units_Z 32
_cell_length_a 9.366404
_cell_length_b 16.495982
_cell_length_c 12.887187
_cell_angle_alpha 90.000000
_cell_angle_beta 55.273434
_cell_angle_gamma 90.000000
_cell_volume 1636.506000
_symmetry_space_group_name_H-M "C 2/M"
_symmetry_group_IT_number 12
_symmetry_cell_setting 'monoclinic'
loop_
_space_group_symop_operation_xyz
x,y,z
-x,y,-z
-x,-y,-z
x,-y,z
1/2+x,1/2+y,z
1/2-x,1/2+y,-z
1/2-x,1/2-y,-z
1/2+x,1/2-y,z
loop_
_atom_site_type_symbol
_atom_site_label
_atom_site_fract_x
_atom_site_fract_y
_atom_site_fract_z
Si Si1 0.278288 0.198522 0.826686
Si Si2 0.435668 0.290067 0.414586
Si Si3 0.046303 0.908993 0.775313
Si Si4 0.670375 0.861907 0.976059
O O1 0.433986 0.223219 0.686144
O O2 0.138333 0.144469 0.824745
O O3 0.180514 0.276447 0.911747
O O4 0.358369 0.148361 0.889022
O O5 0.500000 0.318888 0.500000
O O6 0.250000 0.250000 0.500000
O O7 0.422917 0.369927 0.349597
O O8 0.842001 0.914059 0.884719
O O9 0.122461 0.000000 0.743643
O O10 0.500000 0.906862 0.000000
#
# Coordination Sequence:
#
# PCOD8100716 Si02
#       4
#     8   8   8   8
#     4  10  20  37  61  90 118 160 203 245 289 360
#     4  11  22  40  66  89 116 159 207 248 289 354
#     4  11  24  40  60  90 125 158 195 249 311 357
#     4  10  20  35  62  89 121 156 203 247 293 353
#
# _framework density 19.553854000000001
#
# number of rings (size 3 to 8) (size 9 to 14) (size 15 to 20)
#    0.000    1.500    2.500    5.250    3.500    3.000 
#    0.000    2.500    0.000    0.000    0.000    0.000 
#    0.000    0.000    0.000    0.000    0.000    0.000 
#
# Total GULP energy -198436.270190 kJ/mol
# GULP energy per Si atom -12402.266887 kJ/mol
# Density = 1.950935 g / cm^3
# Si number density = 19.553854 Si / 1000 Ang^3
#
#
#
# Elastic Constant Matrix: (Units=GPa)
#
#
# Indices 1 2 3 4 5 6 
#
# 1 140.0878 34.7198 55.2469 0.0000 10.1639 0.0000
# 2 34.7198 95.9547 30.3893 0.0000 8.4618 0.0000
# 3 55.2469 30.3893 119.9104 0.0000 12.8231 0.0000
# 4 0.0000 0.0000 0.0000 6.9025 0.0000 -2.2167
# 5 10.1639 8.4618 12.8231 0.0000 48.2339 0.0000
# 6 0.0000 0.0000 0.0000 -2.2167 0.0000 15.7893
#
#
#
# Elastic Compliance Matrix: (Units=1/GPa)
#
#
# Indices 1 2 3 4 5 6 
#
# 1 0.009126 -0.002107 -0.003607 0.000000 -0.000594 0.000000
# 2 -0.002107 0.011893 -0.001922 0.000000 -0.001131 0.000000
# 3 -0.003607 -0.001922 0.010675 0.000000 -0.001741 0.000000
# 4 0.000000 0.000000 0.000000 0.151715 0.000000 0.021300
# 5 -0.000594 -0.001131 -0.001741 0.000000 0.021519 0.000000
# 6 0.000000 0.000000 0.000000 0.021300 0.000000 0.066324
#
#
# Mechanical properties :
#
#
# Convention : Reuss Voigt Hill
#
# Bulk Modulus (GPa) = 60.89961 66.29609 63.59785
# Shear Modulus (GPa) = 17.12336 29.89161 23.50749
#
# Velocity S-wave (km/s) = 2.96244 3.91408 3.47103
# Velocity P-wave (km/s) = 6.55084 7.37595 6.97561
#
# Compressibility (1/GPa) = 0.01642047
#
# Stress axis : x y z
#
# Youngs Moduli (GPa) = 109.57231 84.08589 93.67887
#
# Poissons Ratio (x) = 0.17720 0.33792
# Poissons Ratio (y) = 0.23091 0.18005
# Poissons Ratio (z) = 0.39525 0.16162
#
# Static dielectric constant tensor:
#      x y z
#    x 3.784620 0.000000 0.092670 
#    y 0.000000 3.242370 0.000000 
#    z 0.092670 0.000000 3.543190 
# 
# 
# High freq. dielectric constant tensor:
#      x y z
#    x 1.782810 0.000000 0.006630 
#    y 0.000000 1.729360 0.000000 
#    z 0.006630 0.000000 1.768880 
# 
# From -- ./inp_files/117661.got.cif
#   From: 2010.06.25/outbox.cif.g09.slc.cpg/sg12_59_cif.got.tgz:117661.got - 2010.06.28 00:19:55.
