data_PCOD8100811
_publ_section_title
;
Structure prediction by ZEFSAII (Michael W. Deem and Ramdas Pophale) SiO2 
 PCOD8100811
Probable space group: C 2/M
;
_chemical_formula_sum "Si O2"
_cell_formula_units_Z 64
_cell_length_a 14.203473
_cell_length_b 8.500626
_cell_length_c 30.077587
_cell_angle_alpha 90.000000
_cell_angle_beta 118.432868
_cell_angle_gamma 90.000000
_cell_volume 3193.470098
_symmetry_space_group_name_H-M "C 2/M"
_symmetry_group_IT_number 12
_symmetry_cell_setting 'monoclinic'
loop_
_space_group_symop_operation_xyz
x,y,z
-x,y,-z
-x,-y,-z
x,-y,z
1/2+x,1/2+y,z
1/2-x,1/2+y,-z
1/2-x,1/2-y,-z
1/2+x,1/2-y,z
loop_
_atom_site_type_symbol
_atom_site_label
_atom_site_fract_x
_atom_site_fract_y
_atom_site_fract_z
Si Si1 0.982841 0.183632 0.635240
Si Si2 0.793752 0.685031 0.818894
Si Si3 0.944988 0.814077 0.444063
Si Si4 0.718483 0.816058 0.360952
Si Si5 0.287437 0.815146 0.114354
Si Si6 0.980293 0.314496 0.096500
Si Si7 0.204493 0.682592 0.709916
Si Si8 0.160166 0.685512 0.012236
O O1 0.888756 0.281593 0.636464
O O2 0.991293 0.239207 0.585799
O O3 0.094901 0.218121 0.684651
O O4 0.956892 0.000000 0.633571
O O5 0.795638 0.500000 0.809761
O O6 0.706728 0.727327 0.836957
O O7 0.768975 0.776776 0.768520
O O8 0.906257 0.754333 0.862672
O O9 0.821170 0.760034 0.413041
O O10 0.000000 0.736343 0.500000
O O11 0.950372 0.000000 0.449078
O O12 0.719058 0.725009 0.314329
O O13 0.727025 0.000000 0.352196
O O14 0.387961 0.750531 0.108685
O O15 0.176706 0.769160 0.063624
O O16 0.291665 0.000000 0.123305
O O17 0.983750 0.500000 0.102544
O O18 0.952608 0.274462 0.038237
O O19 0.174998 0.500000 0.702089
O O20 0.171902 0.500000 0.021976
O O21 0.250000 0.750000 0.000000
#
# Coordination Sequence:
#
# PCOD8100811 Si02
#       8
#     8   8   8   8   8   8   8   8
#     4  10  20  36  59  85 113 150 194 234 277 332
#     4  11  22  38  57  79 105 138 179 224 276 334
#     4   8  16  32  54  83 121 158 191 231 276 324
#     4  10  20  36  59  85 114 151 192 233 280 332
#     4  10  20  36  54  78 108 140 176 217 267 325
#     4   8  18  35  55  75 103 139 173 210 262 327
#     4  11  23  40  58  79 109 143 184 237 288 335
#     4   9  16  31  53  77 103 137 175 214 263 322
#
# _framework density 20.040894999999999
#
# number of rings (size 3 to 8) (size 9 to 14) (size 15 to 20)
#    0.000    2.375    0.000    4.500    0.000    2.000 
#    0.000   13.750    0.000   12.750    0.000    0.000 
#    0.000    0.000    0.000    0.000    0.000    0.000 
#
# Total GULP energy -396704.959224 kJ/mol
# GULP energy per Si atom -12397.029976 kJ/mol
# Density = 1.999528 g / cm^3
# Si number density = 20.040895 Si / 1000 Ang^3
#
#
#
# Elastic Constant Matrix: (Units=GPa)
#
#
# Indices 1 2 3 4 5 6 
#
# 1 79.7206 6.0439 38.2663 0.0000 -5.4434 0.0000
# 2 6.0439 49.4894 15.6495 0.0000 -3.2223 0.0000
# 3 38.2663 15.6495 138.1914 0.0000 -9.7706 0.0000
# 4 0.0000 0.0000 0.0000 24.3564 0.0000 -3.5466
# 5 -5.4434 -3.2223 -9.7706 0.0000 20.4794 0.0000
# 6 0.0000 0.0000 0.0000 -3.5466 0.0000 25.7456
#
#
#
# Elastic Compliance Matrix: (Units=1/GPa)
#
#
# Indices 1 2 3 4 5 6 
#
# 1 0.014555 -0.000434 -0.003842 0.000000 0.001967 0.000000
# 2 -0.000434 0.021070 -0.002111 0.000000 0.002193 0.000000
# 3 -0.003842 -0.002111 0.008738 0.000000 0.002816 0.000000
# 4 0.000000 0.000000 0.000000 0.041897 0.000000 0.005772
# 5 0.001967 0.002193 0.002816 0.000000 0.051041 0.000000
# 6 0.000000 0.000000 0.000000 0.005772 0.000000 0.039637
#
#
# Mechanical properties :
#
#
# Convention : Reuss Voigt Hill
#
# Bulk Modulus (GPa) = 31.65697 43.03562 37.34629
# Shear Modulus (GPa) = 24.96973 27.94573 26.45773
#
# Velocity S-wave (km/s) = 3.53362 3.73826 3.63738
# Velocity P-wave (km/s) = 5.69904 6.33667 6.02629
#
# Compressibility (1/GPa) = 0.03158863
#
# Stress axis : x y z
#
# Youngs Moduli (GPa) = 68.70326 47.46169 114.43777
#
# Poissons Ratio (x) = 0.02062 0.43969
# Poissons Ratio (y) = 0.02985 0.24154
# Poissons Ratio (z) = 0.26397 0.10018
#
# Static dielectric constant tensor:
#      x y z
#    x 3.640890 0.000000 0.070220 
#    y 0.000000 3.437850 0.000000 
#    z 0.070220 0.000000 3.985800 
# 
# 
# High freq. dielectric constant tensor:
#      x y z
#    x 1.777750 0.000000 -0.004060 
#    y 0.000000 1.766330 0.000000 
#    z -0.004060 0.000000 1.787020 
# 
# From -- ./inp_files/375108.got.cif
#   From: 2010.06.25/outbox.cif.g09.slc.cpg/sg12_188_cif.got.tgz:375108.got - 2010.06.28 00:19:55.
