data_PCOD8100338
_publ_section_title
;
Structure prediction by ZEFSAII (Michael W. Deem and Ramdas Pophale) SiO2 
 PCOD8100338
Probable space group: C 2/M
;
_chemical_formula_sum "Si O2"
_cell_formula_units_Z 56
_cell_length_a 8.806475
_cell_length_b 22.580769
_cell_length_c 14.590288
_cell_angle_alpha 90.000000
_cell_angle_beta 88.667938
_cell_angle_gamma 90.000000
_cell_volume 2900.596498
_symmetry_space_group_name_H-M "C 2/M"
_symmetry_group_IT_number 12
_symmetry_cell_setting 'monoclinic'
loop_
_space_group_symop_operation_xyz
x,y,z
-x,y,-z
-x,-y,-z
x,-y,z
1/2+x,1/2+y,z
1/2-x,1/2+y,-z
1/2-x,1/2-y,-z
1/2+x,1/2-y,z
loop_
_atom_site_type_symbol
_atom_site_label
_atom_site_fract_x
_atom_site_fract_y
_atom_site_fract_z
Si Si1 0.724503 0.000000 0.063165
Si Si2 0.110359 0.622424 0.782872
Si Si3 0.378074 0.375253 0.080742
Si Si4 0.098847 0.788552 0.414622
Si Si5 0.918561 0.185987 0.787853
Si Si6 0.611205 0.000000 0.861691
Si Si7 0.914044 0.303142 0.908290
Si Si8 0.941468 0.667913 0.411279
O O1 0.815585 0.058492 0.090005
O O2 0.567815 0.000000 0.119475
O O3 0.703005 0.000000 0.954614
O O4 0.246478 0.666303 0.803829
O O5 0.161495 0.555620 0.800206
O O6 0.053564 0.627498 0.678897
O O7 0.980921 0.638698 0.857827
O O8 0.461153 0.360360 0.174285
O O9 0.254774 0.323787 0.061919
O O10 0.500000 0.369997 0.000000
O O11 0.040199 0.814994 0.319712
O O12 0.276654 0.801738 0.427466
O O13 0.000000 0.815750 0.500000
O O14 0.070436 0.718588 0.405133
O O15 0.927211 0.249975 0.835786
O O16 0.000000 0.285563 0.000000
O O17 0.000000 0.630354 0.500000
#
# Coordination Sequence:
#
# PCOD8100338 Si02
#       8
#     4   8   8   8   8   4   8   8
#     4  11  23  42  64  82 114 159 207 258 283 337
#     4  11  23  40  61  88 117 161 199 241 298 350
#     4  12  25  39  60  87 118 157 206 246 291 344
#     4  10  20  35  58  87 124 156 192 238 294 356
#     4  11  24  38  58  92 122 156 192 246 299 359
#     4  11  22  42  63  84 114 158 210 245 291 347
#     4  12  23  38  59  83 126 159 194 237 299 360
#     4  10  20  36  60  89 120 154 195 240 297 353
#
# _framework density 19.306373000000001
#
# number of rings (size 3 to 8) (size 9 to 14) (size 15 to 20)
#    0.000    1.000    2.857    5.786    2.000    3.429 
#    0.000    0.357    0.000    0.000    0.000    2.500 
#    0.000    0.000    0.000    0.000    0.000    0.000 
#
# Total GULP energy -347172.034437 kJ/mol
# GULP energy per Si atom -12399.001230 kJ/mol
# Density = 1.926243 g / cm^3
# Si number density = 19.306373 Si / 1000 Ang^3
#
#
#
# Elastic Constant Matrix: (Units=GPa)
#
#
# Indices 1 2 3 4 5 6 
#
# 1 58.8503 20.0838 41.5478 0.0000 14.1088 0.0000
# 2 20.0838 89.4116 48.1286 0.0000 7.3984 0.0000
# 3 41.5478 48.1286 127.0954 0.0000 19.7198 0.0000
# 4 0.0000 0.0000 0.0000 17.0040 0.0000 0.4974
# 5 14.1088 7.3984 19.7198 0.0000 36.5944 0.0000
# 6 0.0000 0.0000 0.0000 0.4974 0.0000 28.2292
#
#
#
# Elastic Compliance Matrix: (Units=1/GPa)
#
#
# Indices 1 2 3 4 5 6 
#
# 1 0.023122 -0.001418 -0.006201 0.000000 -0.005286 0.000000
# 2 -0.001418 0.014135 -0.004944 0.000000 0.000353 0.000000
# 3 -0.006201 -0.004944 0.012267 0.000000 -0.003220 0.000000
# 4 0.000000 0.000000 0.000000 0.058840 0.000000 -0.001037
# 5 -0.005286 0.000353 -0.003220 0.000000 0.031028 0.000000
# 6 0.000000 0.000000 0.000000 -0.001037 0.000000 0.035443
#
#
# Mechanical properties :
#
#
# Convention : Reuss Voigt Hill
#
# Bulk Modulus (GPa) = 40.98884 54.98640 47.98762
# Shear Modulus (GPa) = 24.02773 27.40532 25.71653
#
# Velocity S-wave (km/s) = 3.53164 3.77171 3.65365
# Velocity P-wave (km/s) = 6.15685 6.89279 6.53519
#
# Compressibility (1/GPa) = 0.02439688
#
# Stress axis : x y z
#
# Youngs Moduli (GPa) = 43.24962 70.74798 81.51923
#
# Poissons Ratio (x) = 0.10033 0.50553
# Poissons Ratio (y) = 0.06134 0.40301
# Poissons Ratio (z) = 0.26820 0.34976
#
# Static dielectric constant tensor:
#      x y z
#    x 3.666690 0.000000 0.119540 
#    y 0.000000 3.393470 0.000000 
#    z 0.119540 0.000000 3.963270 
# 
# 
# High freq. dielectric constant tensor:
#      x y z
#    x 1.765080 0.000000 0.007220 
#    y 0.000000 1.724680 0.000000 
#    z 0.007220 0.000000 1.764010 
# 
# From -- ./inp_files/197589.got.cif
#   From: 2010.06.25/outbox.cif.g09.slc.cpg/sg12_99_cif.got.tgz:197589.got - 2010.06.28 00:19:55.
