data_PCOD8100426
_publ_section_title
;
Structure prediction by ZEFSAII (Michael W. Deem and Ramdas Pophale) SiO2 
 PCOD8100426
Probable space group: C 2/M
;
_chemical_formula_sum "Si O2"
_cell_formula_units_Z 64
_cell_length_a 20.351835
_cell_length_b 9.065700
_cell_length_c 18.463072
_cell_angle_alpha 90.000000
_cell_angle_beta 96.763841
_cell_angle_gamma 90.000000
_cell_volume 3382.794666
_symmetry_space_group_name_H-M "C 2/M"
_symmetry_group_IT_number 12
_symmetry_cell_setting 'monoclinic'
loop_
_space_group_symop_operation_xyz
x,y,z
-x,y,-z
-x,-y,-z
x,-y,z
1/2+x,1/2+y,z
1/2-x,1/2+y,-z
1/2-x,1/2-y,-z
1/2+x,1/2-y,z
loop_
_atom_site_type_symbol
_atom_site_label
_atom_site_fract_x
_atom_site_fract_y
_atom_site_fract_z
Si Si1 0.131212 0.824645 0.930543
Si Si2 0.637550 0.671701 0.093617
Si Si3 0.239626 0.828050 0.832229
Si Si4 0.483558 0.174920 0.302094
Si Si5 0.346033 0.672481 0.316277
Si Si6 0.003880 0.827604 0.158417
Si Si7 0.688525 0.672028 0.528157
Si Si8 0.549293 0.329247 0.441280
O O1 0.189618 0.765053 0.886663
O O2 0.061500 0.768103 0.890329
O O3 0.129454 0.000000 0.931708
O O4 0.142307 0.762836 0.012886
O O5 0.654077 0.500000 0.096054
O O6 0.690130 0.749466 0.152458
O O7 0.564565 0.703269 0.113130
O O8 0.211164 0.794937 0.749058
O O9 0.250380 0.000000 0.845830
O O10 0.410530 0.238219 0.302740
O O11 0.515049 0.235017 0.232361
O O12 0.531902 0.225921 0.372123
O O13 0.480348 0.000000 0.299964
O O14 0.365523 0.500000 0.320660
O O15 0.320120 0.727453 0.390563
O O16 0.997585 0.000000 0.177650
O O17 0.703034 0.500000 0.529682
O O18 0.750000 0.750000 0.500000
O O19 0.623168 0.711138 0.474718
O O20 0.500000 0.292624 0.500000
O O21 0.542533 0.500000 0.417603
#
# Coordination Sequence:
#
# PCOD8100426 Si02
#       8
#     8   8   8   8   8   8   8   8
#     4   9  17  34  60  85 108 149 200 238 281 342
#     4  10  21  35  56  86 117 148 191 246 289 333
#     4  10  20  35  59  84 114 154 190 233 289 349
#     4  12  24  36  58  91 120 146 188 248 295 330
#     4  10  20  40  63  82 110 156 200 230 278 347
#     4  10  20  38  60  81 113 155 197 235 283 349
#     4  10  22  39  62  89 118 153 190 234 283 337
#     4  10  20  39  65  87 114 155 197 228 274 346
#
# _framework density 18.919267999999999
#
# number of rings (size 3 to 8) (size 9 to 14) (size 15 to 20)
#    0.000    1.875    2.500    1.875    0.000    4.750 
#    0.000    3.125    0.000    1.500    0.000    0.000 
#    0.000    0.000    0.000    0.000    0.000    0.000 
#
# Total GULP energy -396922.605203 kJ/mol
# GULP energy per Si atom -12403.831413 kJ/mol
# Density = 1.887621 g / cm^3
# Si number density = 18.919268 Si / 1000 Ang^3
#
#
#
# Elastic Constant Matrix: (Units=GPa)
#
#
# Indices 1 2 3 4 5 6 
#
# 1 87.3301 27.7719 20.8564 0.0000 9.8690 0.0000
# 2 27.7719 53.9266 36.8324 0.0000 4.4491 0.0000
# 3 20.8564 36.8324 103.1331 0.0000 10.4809 0.0000
# 4 0.0000 0.0000 0.0000 19.5660 0.0000 2.4169
# 5 9.8690 4.4491 10.4809 0.0000 30.1135 0.0000
# 6 0.0000 0.0000 0.0000 2.4169 0.0000 32.0759
#
#
#
# Elastic Compliance Matrix: (Units=1/GPa)
#
#
# Indices 1 2 3 4 5 6 
#
# 1 0.014065 -0.006949 0.000001 0.000000 -0.003583 0.000000
# 2 -0.006949 0.027970 -0.008703 0.000000 0.001174 0.000000
# 3 0.000001 -0.008703 0.013138 0.000000 -0.003287 0.000000
# 4 0.000000 0.000000 0.000000 0.051589 0.000000 -0.003887
# 5 -0.003583 0.001174 -0.003287 0.000000 0.035353 0.000000
# 6 0.000000 0.000000 0.000000 -0.003887 0.000000 0.031469
#
#
# Mechanical properties :
#
#
# Convention : Reuss Voigt Hill
#
# Bulk Modulus (GPa) = 41.88964 46.14569 44.01766
# Shear Modulus (GPa) = 23.49157 26.94635 25.21896
#
# Velocity S-wave (km/s) = 3.52756 3.77806 3.65496
# Velocity P-wave (km/s) = 6.22743 6.59359 6.41313
#
# Compressibility (1/GPa) = 0.02387225
#
# Stress axis : x y z
#
# Youngs Moduli (GPa) = 71.09741 35.75300 76.11440
#
# Poissons Ratio (x) = 0.24844 -0.00011
# Poissons Ratio (y) = 0.49404 0.66242
# Poissons Ratio (z) = -0.00010 0.31116
#
# Static dielectric constant tensor:
#      x y z
#    x 3.684580 0.000000 0.958140 
#    y 0.000000 3.201520 0.000000 
#    z 0.958140 0.000000 7.190560 
# 
# 
# High freq. dielectric constant tensor:
#      x y z
#    x 1.740960 0.000000 0.004110 
#    y 0.000000 1.708260 0.000000 
#    z 0.004110 0.000000 1.750700 
# 
# From -- ./inp_files/281328.got.cif
#   From: 2010.06.25/outbox.cif.g09.slc.cpg/sg12_141_cif.got.tgz:281328.got - 2010.06.28 00:19:55.
