data_PCOD8100550
_publ_section_title
;
Structure prediction by ZEFSAII (Michael W. Deem and Ramdas Pophale) SiO2 
 PCOD8100550
Probable space group: C 2/M
;
_chemical_formula_sum "Si O2"
_cell_formula_units_Z 56
_cell_length_a 30.643262
_cell_length_b 19.449033
_cell_length_c 9.541376
_cell_angle_alpha 90.000000
_cell_angle_beta 150.089477
_cell_angle_gamma 90.000000
_cell_volume 2835.549167
_symmetry_space_group_name_H-M "C 2/M"
_symmetry_group_IT_number 12
_symmetry_cell_setting 'monoclinic'
loop_
_space_group_symop_operation_xyz
x,y,z
-x,y,-z
-x,-y,-z
x,-y,z
1/2+x,1/2+y,z
1/2-x,1/2+y,-z
1/2-x,1/2-y,-z
1/2+x,1/2-y,z
loop_
_atom_site_type_symbol
_atom_site_label
_atom_site_fract_x
_atom_site_fract_y
_atom_site_fract_z
Si Si1 0.157426 0.169156 0.665435
Si Si2 0.766435 0.917889 0.355761
Si Si3 0.295268 0.178755 0.282863
Si Si4 0.484666 0.146609 0.792814
Si Si5 0.429083 0.921716 0.198991
Si Si6 0.981234 0.219799 0.285504
Si Si7 0.709623 0.680209 0.326459
O O1 0.170692 0.106349 0.594980
O O2 0.186323 0.239613 0.670593
O O3 0.056359 0.170129 0.431770
O O4 0.216642 0.155859 0.965325
O O5 0.797392 0.881560 0.583492
O O6 0.772020 0.000000 0.389463
O O7 0.667670 0.890204 0.050494
O O8 0.381729 0.137864 0.476005
O O9 0.273801 0.156854 0.380910
O O10 0.537224 0.083599 0.868510
O O11 0.522867 0.211907 0.818139
O O12 0.500000 0.152814 0.000000
O O13 0.500000 0.885008 0.500000
O O14 0.420872 0.000000 0.220292
O O15 0.000000 0.236556 0.500000
O O16 0.886477 0.186735 0.006978
O O17 0.750000 0.750000 0.500000
#
# Coordination Sequence:
#
# PCOD8100550 Si02
#       7
#     8   8   8   8   8   8   8
#     4  10  21  38  60  89 118 158 205 252 300 362
#     4  11  24  41  62  91 126 163 203 252 313 368
#     4  10  20  35  59  90 121 155 204 250 302 354
#     4  11  22  33  55  93 124 153 195 252 304 359
#     4  10  21  38  60  85 120 166 203 234 293 374
#     4  11  23  39  61  87 117 155 203 255 306 362
#     4  12  22  39  64  91 123 160 198 257 311 360
#
# _framework density 19.749261000000001
#
# number of rings (size 3 to 8) (size 9 to 14) (size 15 to 20)
#    0.000    1.286    2.857    3.857    2.000    0.286 
#    0.000    2.857    0.000    0.857    0.000    0.000 
#    0.000    0.000    0.000    0.000    0.000    0.000 
#
# Total GULP energy -347179.353724 kJ/mol
# GULP energy per Si atom -12399.262633 kJ/mol
# Density = 1.970431 g / cm^3
# Si number density = 19.749261 Si / 1000 Ang^3
#
#
#
# Elastic Constant Matrix: (Units=GPa)
#
#
# Indices 1 2 3 4 5 6 
#
# 1 114.7392 20.3932 15.4378 0.0000 -10.6487 0.0000
# 2 20.3932 50.0532 12.9093 0.0000 -7.7916 0.0000
# 3 15.4378 12.9093 86.1978 0.0000 -2.6025 0.0000
# 4 0.0000 0.0000 0.0000 11.4335 0.0000 -0.1259
# 5 -10.6487 -7.7916 -2.6025 0.0000 42.2305 0.0000
# 6 0.0000 0.0000 0.0000 -0.1259 0.0000 32.3583
#
#
#
# Elastic Compliance Matrix: (Units=1/GPa)
#
#
# Indices 1 2 3 4 5 6 
#
# 1 0.009630 -0.003351 -0.001170 0.000000 0.001738 0.000000
# 2 -0.003351 0.022525 -0.002678 0.000000 0.003146 0.000000
# 3 -0.001170 -0.002678 0.012211 0.000000 -0.000037 0.000000
# 4 0.000000 0.000000 0.000000 0.087466 0.000000 0.000340
# 5 0.001738 0.003146 -0.000037 0.000000 0.024696 0.000000
# 6 0.000000 0.000000 0.000000 0.000340 0.000000 0.030905
#
#
# Mechanical properties :
#
#
# Convention : Reuss Voigt Hill
#
# Bulk Modulus (GPa) = 33.37136 38.71898 36.04517
# Shear Modulus (GPa) = 23.60489 30.68779 27.14634
#
# Velocity S-wave (km/s) = 3.46096 3.94619 3.71151
# Velocity P-wave (km/s) = 5.73630 6.35697 6.05460
#
# Compressibility (1/GPa) = 0.02996582
#
# Stress axis : x y z
#
# Youngs Moduli (GPa) = 103.84468 44.39610 81.89463
#
# Poissons Ratio (x) = 0.14878 0.09584
# Poissons Ratio (y) = 0.34799 0.21933
# Poissons Ratio (z) = 0.12153 0.11890
#
# Static dielectric constant tensor:
#      x y z
#    x 3.830770 0.000000 0.067340 
#    y 0.000000 3.246370 0.000000 
#    z 0.067340 0.000000 3.849860 
# 
# 
# High freq. dielectric constant tensor:
#      x y z
#    x 1.789510 0.000000 0.002470 
#    y 0.000000 1.726870 0.000000 
#    z 0.002470 0.000000 1.782600 
# 
# From -- ./inp_files/77643.got.cif
#   From: 2010.06.25/outbox.cif.g09.slc.cpg/sg12_39_cif.got.tgz:77643.got - 2010.06.28 00:19:55.
