data_PCOD8100602
_publ_section_title
;
Structure prediction by ZEFSAII (Michael W. Deem and Ramdas Pophale) SiO2 
 PCOD8100602
Probable space group: C 2/M
;
_chemical_formula_sum "Si O2"
_cell_formula_units_Z 60
_cell_length_a 19.459954
_cell_length_b 9.494990
_cell_length_c 17.283249
_cell_angle_alpha 90.000000
_cell_angle_beta 76.396032
_cell_angle_gamma 90.000000
_cell_volume 3103.868188
_symmetry_space_group_name_H-M "C 2/M"
_symmetry_group_IT_number 12
_symmetry_cell_setting 'monoclinic'
loop_
_space_group_symop_operation_xyz
x,y,z
-x,y,-z
-x,-y,-z
x,-y,z
1/2+x,1/2+y,z
1/2-x,1/2+y,-z
1/2-x,1/2-y,-z
1/2+x,1/2-y,z
loop_
_atom_site_type_symbol
_atom_site_label
_atom_site_fract_x
_atom_site_fract_y
_atom_site_fract_z
Si Si1 0.419927 0.157243 0.878036
Si Si2 0.277982 0.159970 0.843686
Si Si3 0.249900 0.661267 0.576964
Si Si4 0.500000 0.250819 0.000000
Si Si5 0.016359 0.835627 0.272022
Si Si6 0.876810 0.842940 0.136598
Si Si7 0.339651 0.338705 0.692367
Si Si8 0.887116 0.334369 0.286977
O O1 0.335168 0.192507 0.896928
O O2 0.451197 0.157573 0.956103
O O3 0.459761 0.274450 0.817160
O O4 0.432849 0.000000 0.840724
O O5 0.196653 0.189375 0.890845
O O6 0.293508 0.250142 0.763720
O O7 0.286669 0.000000 0.814646
O O8 0.248369 0.500000 0.551365
O O9 0.250000 0.750000 0.500000
O O10 0.319486 0.697752 0.609196
O O11 0.184032 0.698247 0.648716
O O12 0.556291 0.343590 0.938162
O O13 0.076952 0.811535 0.319819
O O14 0.948515 0.747307 0.318013
O O15 0.998096 0.000000 0.266107
O O16 0.884866 0.727234 0.201092
O O17 0.872871 0.000000 0.174108
O O18 0.319801 0.500000 0.715598
O O19 0.903485 0.500000 0.277107
#
# Coordination Sequence:
#
# PCOD8100602 Si02
#       8
#     8   8   8   4   8   8   8   8
#     4  10  21  37  55  80 114 151 194 241 293 346
#     4   9  19  36  58  81 108 149 198 242 286 343
#     4  10  22  39  61  91 122 153 190 236 286 340
#     4  12  24  34  56  84 120 156 198 242 298 342
#     4  10  20  35  60  87 114 151 193 236 288 344
#     4  11  23  38  57  82 114 153 198 244 292 344
#     4   9  18  36  59  86 117 150 190 236 284 340
#     4  11  22  38  61  87 118 153 192 237 287 347
#
# _framework density 19.330717
#
# number of rings (size 3 to 8) (size 9 to 14) (size 15 to 20)
#    0.000    1.867    2.667    1.200    0.000    3.733 
#    0.000    0.667    0.000    4.000    0.000    0.000 
#    0.000    0.000    0.000    0.000    0.000    0.000 
#
# Total GULP energy -371815.326048 kJ/mol
# GULP energy per Si atom -12393.844202 kJ/mol
# Density = 1.928672 g / cm^3
# Si number density = 19.330717 Si / 1000 Ang^3
#
#
#
# Elastic Constant Matrix: (Units=GPa)
#
#
# Indices 1 2 3 4 5 6 
#
# 1 148.9797 57.3445 57.5386 0.0000 21.2877 0.0000
# 2 57.3445 104.0758 43.8984 0.0000 5.4068 0.0000
# 3 57.5386 43.8984 91.1423 0.0000 17.8309 0.0000
# 4 0.0000 0.0000 0.0000 26.8419 0.0000 0.3024
# 5 21.2877 5.4068 17.8309 0.0000 25.8564 0.0000
# 6 0.0000 0.0000 0.0000 0.3024 0.0000 29.1919
#
#
#
# Elastic Compliance Matrix: (Units=1/GPa)
#
#
# Indices 1 2 3 4 5 6 
#
# 1 0.010367 -0.003904 -0.003646 0.000000 -0.005204 0.000000
# 2 -0.003904 0.013594 -0.004804 0.000000 0.003684 0.000000
# 3 -0.003646 -0.004804 0.017112 0.000000 -0.007794 0.000000
# 4 0.000000 0.000000 0.000000 0.037259 0.000000 -0.000386
# 5 -0.005204 0.003684 -0.007794 0.000000 0.047565 0.000000
# 6 0.000000 0.000000 0.000000 -0.000386 0.000000 0.034260
#
#
# Mechanical properties :
#
#
# Convention : Reuss Voigt Hill
#
# Bulk Modulus (GPa) = 61.10356 73.52896 67.31626
# Shear Modulus (GPa) = 26.27149 28.73913 27.50531
#
# Velocity S-wave (km/s) = 3.69053 3.85997 3.77620
# Velocity P-wave (km/s) = 7.05962 7.61484 7.34248
#
# Compressibility (1/GPa) = 0.01636566
#
# Stress axis : x y z
#
# Youngs Moduli (GPa) = 96.46188 73.56130 58.43699
#
# Poissons Ratio (x) = 0.28716 0.21308
# Poissons Ratio (y) = 0.37655 0.28073
# Poissons Ratio (z) = 0.35173 0.35338
#
# Static dielectric constant tensor:
#      x y z
#    x 4.213510 0.000000 0.183060 
#    y 0.000000 3.554880 0.000000 
#    z 0.183060 0.000000 3.174210 
# 
# 
# High freq. dielectric constant tensor:
#      x y z
#    x 1.783260 0.000000 0.012430 
#    y 0.000000 1.758700 0.000000 
#    z 0.012430 0.000000 1.705280 
# 
# From -- ./inp_files/281198.got.cif
#   From: 2010.06.25/outbox.cif.g09.slc.cpg/sg12_141_cif.got.tgz:281198.got - 2010.06.28 00:19:55.
