data_PCOD8100779
_publ_section_title
;
Structure prediction by ZEFSAII (Michael W. Deem and Ramdas Pophale) SiO2 
 PCOD8100779
Probable space group: C 2/M
;
_chemical_formula_sum "Si O2"
_cell_formula_units_Z 56
_cell_length_a 15.471528
_cell_length_b 22.454352
_cell_length_c 16.079583
_cell_angle_alpha 90.000000
_cell_angle_beta 34.123662
_cell_angle_gamma 90.000000
_cell_volume 3133.694140
_symmetry_space_group_name_H-M "C 2/M"
_symmetry_group_IT_number 12
_symmetry_cell_setting 'monoclinic'
loop_
_space_group_symop_operation_xyz
x,y,z
-x,y,-z
-x,-y,-z
x,-y,z
1/2+x,1/2+y,z
1/2-x,1/2+y,-z
1/2-x,1/2-y,-z
1/2+x,1/2-y,z
loop_
_atom_site_type_symbol
_atom_site_label
_atom_site_fract_x
_atom_site_fract_y
_atom_site_fract_z
Si Si1 0.246783 0.796469 0.623409
Si Si2 0.734722 0.000000 0.269594
Si Si3 0.090232 0.828786 0.508409
Si Si4 0.422426 0.703362 0.801670
Si Si5 0.138656 0.378572 0.614978
Si Si6 0.669213 0.372908 0.842050
Si Si7 0.079101 0.500000 0.571310
Si Si8 0.680557 0.833152 0.114867
O O1 0.339564 0.736188 0.565849
O O2 0.332541 0.831146 0.481490
O O3 0.246674 0.835161 0.706901
O O4 0.073122 0.780937 0.735606
O O5 0.841097 0.941941 0.175565
O O6 0.668825 0.000000 0.414071
O O7 0.602116 0.000000 0.304855
O O8 0.225445 0.874902 0.425121
O O9 0.000000 0.852848 0.500000
O O10 0.966491 0.828139 0.681056
O O11 0.329361 0.763274 0.856381
O O12 0.312189 0.657740 0.940057
O O13 0.129737 0.444012 0.585281
O O14 0.980601 0.360775 0.787666
O O15 0.778505 0.367898 0.834086
O O16 0.500000 0.348681 0.000000
#
# Coordination Sequence:
#
# PCOD8100779 Si02
#       8
#     8   4   8   8   8   8   4   8
#     4  11  20  35  57  81 117 152 184 228 282 340
#     4  11  23  36  54  82 118 152 196 227 268 332
#     4  11  22  38  58  84 109 146 189 242 288 342
#     4  10  20  36  53  82 115 148 185 224 289 342
#     4  11  21  38  58  81 112 152 191 233 285 331
#     4  12  23  35  52  84 121 157 187 227 276 337
#     4  11  22  36  59  84 108 152 196 240 269 333
#     4  11  20  34  55  80 116 150 183 228 276 341
#
# _framework density 17.870283000000001
#
# number of rings (size 3 to 8) (size 9 to 14) (size 15 to 20)
#    0.000    1.000    7.143    1.929    0.000    0.000 
#    0.000    1.071    0.000    0.000    0.000    1.000 
#    0.000    0.000    0.000    0.000    0.000    0.000 
#
# Total GULP energy -347295.549400 kJ/mol
# GULP energy per Si atom -12403.412479 kJ/mol
# Density = 1.782961 g / cm^3
# Si number density = 17.870283 Si / 1000 Ang^3
#
#
#
# Elastic Constant Matrix: (Units=GPa)
#
#
# Indices 1 2 3 4 5 6 
#
# 1 111.7429 26.6293 47.2136 0.0083 4.9635 -0.0034
# 2 26.6293 73.5103 15.1833 0.0003 2.6216 -0.0028
# 3 47.2136 15.1833 105.8413 -0.0034 -4.9103 0.0146
# 4 0.0083 0.0003 -0.0034 23.2126 -0.0074 5.3780
# 5 4.9635 2.6216 -4.9103 -0.0074 23.4443 -0.0094
# 6 -0.0034 -0.0028 0.0146 5.3780 -0.0094 38.1913
#
#
#
# Elastic Compliance Matrix: (Units=1/GPa)
#
#
# Indices 1 2 3 4 5 6 
#
# 1 0.011980 -0.003184 -0.005037 -0.000007 -0.003235 0.000003
# 2 -0.003184 0.014959 -0.000780 0.000000 -0.001162 0.000001
# 3 -0.005037 -0.000780 0.011977 0.000006 0.003662 -0.000005
# 4 -0.000007 0.000000 0.000006 0.044533 0.000014 -0.006271
# 5 -0.003235 -0.001162 0.003662 0.000014 0.044236 0.000007
# 6 0.000003 0.000001 -0.000005 -0.006271 0.000007 0.027067
#
#
# Mechanical properties :
#
#
# Convention : Reuss Voigt Hill
#
# Bulk Modulus (GPa) = 47.81380 52.12743 49.97061
# Shear Modulus (GPa) = 27.82014 30.44085 29.13050
#
# Velocity S-wave (km/s) = 3.94989 4.13175 4.04184
# Velocity P-wave (km/s) = 6.90046 7.21075 7.05731
#
# Compressibility (1/GPa) = 0.02091446
#
# Stress axis : x y z
#
# Youngs Moduli (GPa) = 83.47252 66.84767 83.49393
#
# Poissons Ratio (x) = 0.21284 0.42059
# Poissons Ratio (y) = 0.26577 0.06509
# Poissons Ratio (z) = 0.42048 0.05211
#
# Static dielectric constant tensor:
#      x y z
#    x 3.281760 -0.000020 -0.070310 
#    y -0.000020 3.130070 0.000030 
#    z -0.070310 0.000030 3.481300 
# 
# 
# High freq. dielectric constant tensor:
#      x y z
#    x 1.682360 0.000000 -0.010360 
#    y 0.000000 1.668350 0.000000 
#    z -0.010360 0.000000 1.704150 
# 
# From -- ./inp_files/218276.got.cif
#   From: 2010.06.25/outbox.cif.g09.slc.cpg/sg12_110_cif.got.tgz:218276.got - 2010.06.28 00:19:55.
