data_PCOD8100567
_publ_section_title
;
Structure prediction by ZEFSAII (Michael W. Deem and Ramdas Pophale) SiO2 
 PCOD8100567
Probable space group: C 2/M
;
_chemical_formula_sum "Si O2"
_cell_formula_units_Z 56
_cell_length_a 21.017143
_cell_length_b 17.010866
_cell_length_c 9.170807
_cell_angle_alpha 90.000000
_cell_angle_beta 58.464014
_cell_angle_gamma 90.000000
_cell_volume 2794.513243
_symmetry_space_group_name_H-M "C 2/M"
_symmetry_group_IT_number 12
_symmetry_cell_setting 'monoclinic'
loop_
_space_group_symop_operation_xyz
x,y,z
-x,y,-z
-x,-y,-z
x,-y,z
1/2+x,1/2+y,z
1/2-x,1/2+y,-z
1/2-x,1/2-y,-z
1/2+x,1/2-y,z
loop_
_atom_site_type_symbol
_atom_site_label
_atom_site_fract_x
_atom_site_fract_y
_atom_site_fract_z
Si Si1 0.841353 0.593530 0.897374
Si Si2 0.551785 0.674724 0.232412
Si Si3 0.927979 0.305661 0.014294
Si Si4 0.416287 0.192779 0.582463
Si Si5 0.181467 0.911799 0.164880
Si Si6 0.897212 0.090618 0.431512
Si Si7 0.660968 0.742398 0.615085
O O1 0.848061 0.500000 0.884114
O O2 0.858263 0.630066 0.718204
O O3 0.900807 0.627572 0.938476
O O4 0.762015 0.628341 0.047029
O O5 0.579540 0.725036 0.337755
O O6 0.622905 0.619879 0.116036
O O7 0.481568 0.620326 0.356165
O O8 0.538294 0.729419 0.109565
O O9 0.863602 0.281034 0.203763
O O10 0.000000 0.345220 0.000000
O O11 0.500000 0.156095 0.500000
O O12 0.386689 0.213776 0.455999
O O13 0.150481 0.903567 0.364560
O O14 0.196364 0.000000 0.102238
O O15 0.858166 0.149071 0.362351
O O16 0.898291 0.000000 0.373670
O O17 0.750000 0.750000 0.500000
#
# Coordination Sequence:
#
# PCOD8100567 Si02
#       7
#     8   8   8   8   8   8   8
#     4  10  24  42  63  92 119 159 217 275 321 365
#     4  11  20  37  63  92 122 162 212 252 303 381
#     4  11  23  40  62  87 127 164 207 260 318 385
#     4  11  21  41  67  88 122 161 219 265 305 386
#     4  10  20  35  59  91 123 155 203 263 312 360
#     4  11  21  38  63  95 129 166 207 254 307 375
#     4  12  24  40  61  96 127 174 209 252 320 381
#
# _framework density 20.039268
#
# number of rings (size 3 to 8) (size 9 to 14) (size 15 to 20)
#    0.000    1.143    4.286    2.571    2.000    2.857 
#    0.000    3.571    0.000    0.000    0.000    0.000 
#    0.000    0.000    0.000    0.000    0.000    0.000 
#
# Total GULP energy -347004.641340 kJ/mol
# GULP energy per Si atom -12393.022905 kJ/mol
# Density = 1.999366 g / cm^3
# Si number density = 20.039268 Si / 1000 Ang^3
#
#
#
# Elastic Constant Matrix: (Units=GPa)
#
#
# Indices 1 2 3 4 5 6 
#
# 1 81.3767 18.8604 21.8267 0.0000 -17.5720 0.0000
# 2 18.8604 90.0671 41.7496 0.0000 -5.7570 0.0000
# 3 21.8267 41.7496 92.8827 0.0000 -13.6841 0.0000
# 4 0.0000 0.0000 0.0000 24.4446 0.0000 -8.7491
# 5 -17.5720 -5.7570 -13.6841 0.0000 40.9581 0.0000
# 6 0.0000 0.0000 0.0000 -8.7491 0.0000 24.0903
#
#
#
# Elastic Compliance Matrix: (Units=1/GPa)
#
#
# Indices 1 2 3 4 5 6 
#
# 1 0.014333 -0.001848 -0.001756 0.000000 0.005303 0.000000
# 2 -0.001848 0.014264 -0.006099 0.000000 -0.000826 0.000000
# 3 -0.001756 -0.006099 0.014391 0.000000 0.003198 0.000000
# 4 0.000000 0.000000 0.000000 0.047021 0.000000 0.017077
# 5 0.005303 -0.000826 0.003198 0.000000 0.027642 0.000000
# 6 0.000000 0.000000 0.000000 0.017077 0.000000 0.047713
#
#
# Mechanical properties :
#
#
# Convention : Reuss Voigt Hill
#
# Bulk Modulus (GPa) = 42.40553 47.68888 45.04721
# Shear Modulus (GPa) = 25.95624 30.02458 27.99041
#
# Velocity S-wave (km/s) = 3.60289 3.87497 3.74140
# Velocity P-wave (km/s) = 6.20604 6.62344 6.41813
#
# Compressibility (1/GPa) = 0.02358183
#
# Stress axis : x y z
#
# Youngs Moduli (GPa) = 69.76922 70.10561 69.48606
#
# Poissons Ratio (x) = 0.12959 0.12202
# Poissons Ratio (y) = 0.12896 0.42379
# Poissons Ratio (z) = 0.12252 0.42756
#
# Static dielectric constant tensor:
#      x y z
#    x 3.740990 0.000000 -0.255110 
#    y 0.000000 3.695960 0.000000 
#    z -0.255110 0.000000 3.758350 
# 
# 
# High freq. dielectric constant tensor:
#      x y z
#    x 1.786180 0.000000 -0.021160 
#    y 0.000000 1.773420 0.000000 
#    z -0.021160 0.000000 1.784950 
# 
# From -- ./inp_files/87855.got.cif
#   From: 2010.06.25/outbox.cif.g09.slc.cpg/sg12_44_cif.got.tgz:87855.got - 2010.06.28 00:19:55.
