data_PCOD8100247
_publ_section_title
;
Structure prediction by ZEFSAII (Michael W. Deem and Ramdas Pophale) SiO2 
 PCOD8100247
Probable space group: C 2/M
;
_chemical_formula_sum "Si O2"
_cell_formula_units_Z 40
_cell_length_a 18.103341
_cell_length_b 10.272638
_cell_length_c 12.201465
_cell_angle_alpha 90.000000
_cell_angle_beta 68.665519
_cell_angle_gamma 90.000000
_cell_volume 2113.599560
_symmetry_space_group_name_H-M "C 2/M"
_symmetry_group_IT_number 12
_symmetry_cell_setting 'monoclinic'
loop_
_space_group_symop_operation_xyz
x,y,z
-x,y,-z
-x,-y,-z
x,-y,z
1/2+x,1/2+y,z
1/2-x,1/2+y,-z
1/2-x,1/2-y,-z
1/2+x,1/2-y,z
loop_
_atom_site_type_symbol
_atom_site_label
_atom_site_fract_x
_atom_site_fract_y
_atom_site_fract_z
Si Si1 0.587307 0.649825 0.501088
Si Si2 0.249550 0.000000 0.864859
Si Si3 0.424566 0.500000 0.117195
Si Si4 0.435752 0.000000 0.129130
Si Si5 0.893815 0.250202 0.270799
Si Si6 0.721902 0.737104 0.268236
Si Si7 0.233088 0.500000 0.890583
O O1 0.500000 0.657786 0.500000
O O2 0.612447 0.500000 0.509361
O O3 0.591941 0.733476 0.608662
O O4 0.646507 0.716569 0.384683
O O5 0.286063 0.124085 0.784866
O O6 0.154200 0.000000 0.914072
O O7 0.276296 0.000000 0.974976
O O8 0.428232 0.625730 0.190839
O O9 0.500000 0.500000 0.000000
O O10 0.443971 0.126315 0.201750
O O11 0.353127 0.000000 0.112821
O O12 0.500000 0.000000 0.000000
O O13 0.800587 0.270802 0.299857
O O14 0.720570 0.628060 0.174266
#
# Coordination Sequence:
#
# PCOD8100247 Si02
#       7
#     8   4   4   4   8   8   4
#     4  11  23  39  61  88 115 149 196 247 293 337
#     4  10  22  35  58  89 115 152 196 238 287 338
#     4  10  20  35  58  85 117 152 196 240 275 336
#     4  10  22  37  58  85 115 154 188 232 293 344
#     4  10  21  39  59  84 117 154 195 234 285 350
#     4  10  21  39  59  84 118 155 193 235 287 349
#     4  10  20  37  58  81 117 154 192 234 281 346
#
# _framework density 18.925059999999998
#
# number of rings (size 3 to 8) (size 9 to 14) (size 15 to 20)
#    0.000    1.800    2.000    1.800    0.000    4.000 
#    0.000    1.000    0.000    0.000    0.000    0.000 
#    0.000    0.000    0.000    0.000    0.000    0.000 
#
# Total GULP energy -248093.637259 kJ/mol
# GULP energy per Si atom -12404.681863 kJ/mol
# Density = 1.888199 g / cm^3
# Si number density = 18.925060 Si / 1000 Ang^3
#
#
#
# Elastic Constant Matrix: (Units=GPa)
#
#
# Indices 1 2 3 4 5 6 
#
# 1 50.7673 41.5902 58.4855 0.0000 1.1692 0.0000
# 2 41.5902 176.6034 86.1751 0.0000 -1.3830 0.0000
# 3 58.4855 86.1751 167.2316 0.0000 -7.4284 0.0000
# 4 0.0000 0.0000 0.0000 30.2945 0.0000 5.7037
# 5 1.1692 -1.3830 -7.4284 0.0000 41.9312 0.0000
# 6 0.0000 0.0000 0.0000 5.7037 0.0000 40.2326
#
#
#
# Elastic Compliance Matrix: (Units=1/GPa)
#
#
# Indices 1 2 3 4 5 6 
#
# 1 0.034463 -0.002931 -0.010673 0.000000 -0.002948 0.000000
# 2 -0.002931 0.007822 -0.003014 0.000000 -0.000194 0.000000
# 3 -0.010673 -0.003014 0.011364 0.000000 0.002211 0.000000
# 4 0.000000 0.000000 0.000000 0.033915 0.000000 -0.004808
# 5 -0.002948 -0.000194 0.002211 0.000000 0.024316 0.000000
# 6 0.000000 0.000000 0.000000 -0.004808 0.000000 0.025537
#
#
# Mechanical properties :
#
#
# Convention : Reuss Voigt Hill
#
# Bulk Modulus (GPa) = 48.99158 85.23376 67.11267
# Shear Modulus (GPa) = 28.17584 36.38175 32.27879
#
# Velocity S-wave (km/s) = 3.86270 4.38929 4.13438
# Velocity P-wave (km/s) = 6.77032 8.41564 7.63742
#
# Compressibility (1/GPa) = 0.02041167
#
# Stress axis : x y z
#
# Youngs Moduli (GPa) = 29.01698 127.84491 87.99778
#
# Poissons Ratio (x) = 0.37471 0.93921
# Poissons Ratio (y) = 0.08505 0.26525
# Poissons Ratio (z) = 0.30970 0.38536
#
# Static dielectric constant tensor:
#      x y z
#    x 3.331710 0.000000 -0.011150 
#    y 0.000000 4.171680 0.000000 
#    z -0.011150 0.000000 3.612420 
# 
# 
# High freq. dielectric constant tensor:
#      x y z
#    x 1.724020 0.000000 -0.000210 
#    y 0.000000 1.752360 0.000000 
#    z -0.000210 0.000000 1.746000 
# 
# From -- ./inp_files/153353.got.cif
#   From: 2010.06.25/outbox.cif.g09.slc.cpg/sg12_77_cif.got.tgz:153353.got - 2010.06.28 00:19:55.
