data_PCOD8100162
_publ_section_title
;
Structure prediction by ZEFSAII (Michael W. Deem and Ramdas Pophale) SiO2 
 PCOD8100162
Probable space group: C 2/M
;
_chemical_formula_sum "Si O2"
_cell_formula_units_Z 48
_cell_length_a 18.641291
_cell_length_b 9.140165
_cell_length_c 15.064155
_cell_angle_alpha 90.000000
_cell_angle_beta 89.306343
_cell_angle_gamma 90.000000
_cell_volume 2566.510051
_symmetry_space_group_name_H-M "C 2/M"
_symmetry_group_IT_number 12
_symmetry_cell_setting 'monoclinic'
loop_
_space_group_symop_operation_xyz
x,y,z
-x,y,-z
-x,-y,-z
x,-y,z
1/2+x,1/2+y,z
1/2-x,1/2+y,-z
1/2-x,1/2-y,-z
1/2+x,1/2-y,z
loop_
_atom_site_type_symbol
_atom_site_label
_atom_site_fract_x
_atom_site_fract_y
_atom_site_fract_z
Si Si1 0.569657 0.170484 0.253711
Si Si2 0.183961 0.332180 0.104840
Si Si3 0.171633 0.828684 0.595117
Si Si4 0.421228 0.326679 0.236157
Si Si5 0.834991 0.329438 0.580341
Si Si6 0.327514 0.169845 0.099791
O O1 0.616948 0.207853 0.167040
O O2 0.500912 0.272207 0.252410
O O3 0.613532 0.214955 0.340360
O O4 0.547780 0.000000 0.255146
O O5 0.207861 0.500000 0.119077
O O6 0.250951 0.232637 0.131696
O O7 0.160355 0.302620 0.004556
O O8 0.128081 0.775110 0.681299
O O9 0.138869 0.752461 0.508480
O O10 0.254284 0.782164 0.607669
O O11 0.163056 0.000000 0.581315
O O12 0.420805 0.500000 0.224184
O O13 0.391667 0.253275 0.147401
O O14 0.838495 0.500000 0.560095
O O15 0.330364 0.000000 0.124487
#
# Coordination Sequence:
#
# PCOD8100162 Si02
#       6
#     8   8   8   8   8   8
#     4  10  21  37  55  77 109 145 179 216 264 320
#     4   9  19  37  59  81 108 141 175 217 268 318
#     4   9  19  36  56  77 103 137 175 217 267 317
#     4  11  23  37  53  76 110 147 180 218 266 316
#     4   9  18  34  57  80 101 132 175 221 265 312
#     4  10  20  35  58  84 107 137 179 222 264 314
#
# _framework density 18.702438999999998
#
# number of rings (size 3 to 8) (size 9 to 14) (size 15 to 20)
#    0.000    2.333    0.000    2.000    0.000    7.333 
#    0.000   10.000    0.000    0.000    0.000    0.000 
#    0.000    0.000    0.000    0.000    0.000    0.000 
#
# Total GULP energy -297706.694103 kJ/mol
# GULP energy per Si atom -12404.445588 kJ/mol
# Density = 1.865987 g / cm^3
# Si number density = 18.702439 Si / 1000 Ang^3
#
#
#
# Elastic Constant Matrix: (Units=GPa)
#
#
# Indices 1 2 3 4 5 6 
#
# 1 105.6433 52.3515 60.3744 0.0000 15.6446 0.0000
# 2 52.3515 71.3168 50.2682 0.0000 8.8115 0.0000
# 3 60.3744 50.2682 102.2116 0.0000 14.7283 0.0000
# 4 0.0000 0.0000 0.0000 32.4744 0.0000 3.0189
# 5 15.6446 8.8115 14.7283 0.0000 19.5699 0.0000
# 6 0.0000 0.0000 0.0000 3.0189 0.0000 36.8715
#
#
#
# Elastic Compliance Matrix: (Units=1/GPa)
#
#
# Indices 1 2 3 4 5 6 
#
# 1 0.017617 -0.008356 -0.005394 0.000000 -0.006261 0.000000
# 2 -0.008356 0.025490 -0.007750 0.000000 0.001035 0.000000
# 3 -0.005394 -0.007750 0.017561 0.000000 -0.005415 0.000000
# 4 0.000000 0.000000 0.000000 0.031030 0.000000 -0.002541
# 5 -0.006261 0.001035 -0.005415 0.000000 0.059714 0.000000
# 6 0.000000 0.000000 0.000000 -0.002541 0.000000 0.027329
#
#
# Mechanical properties :
#
#
# Convention : Reuss Voigt Hill
#
# Bulk Modulus (GPa) = 56.59704 67.23998 61.91851
# Shear Modulus (GPa) = 21.96547 25.52834 23.74691
#
# Velocity S-wave (km/s) = 3.43077 3.69856 3.56718
# Velocity P-wave (km/s) = 6.78389 7.36680 7.08134
#
# Compressibility (1/GPa) = 0.01766877
#
# Stress axis : x y z
#
# Youngs Moduli (GPa) = 56.76493 39.23035 56.94327
#
# Poissons Ratio (x) = 0.32782 0.30715
# Poissons Ratio (y) = 0.47434 0.44129
# Poissons Ratio (z) = 0.30618 0.30402
#
# Static dielectric constant tensor:
#      x y z
#    x 3.351940 0.000000 -0.008390 
#    y 0.000000 3.395640 0.000000 
#    z -0.008390 0.000000 3.591890 
# 
# 
# High freq. dielectric constant tensor:
#      x y z
#    x 1.720570 0.000000 0.002670 
#    y 0.000000 1.724760 0.000000 
#    z 0.002670 0.000000 1.737590 
# 
# From -- ./inp_files/221626.got.cif
#   From: 2010.06.25/outbox.cif.g09.slc.cpg/sg12_111_cif.got.tgz:221626.got - 2010.06.28 00:19:55.
