data_PCOD8100416
_publ_section_title
;
Structure prediction by ZEFSAII (Michael W. Deem and Ramdas Pophale) SiO2 
 PCOD8100416
Probable space group: C 2/M
;
_chemical_formula_sum "Si O2"
_cell_formula_units_Z 64
_cell_length_a 11.735647
_cell_length_b 24.245017
_cell_length_c 13.042953
_cell_angle_alpha 90.000000
_cell_angle_beta 109.744793
_cell_angle_gamma 90.000000
_cell_volume 3492.934806
_symmetry_space_group_name_H-M "C 2/M"
_symmetry_group_IT_number 12
_symmetry_cell_setting 'monoclinic'
loop_
_space_group_symop_operation_xyz
x,y,z
-x,y,-z
-x,-y,-z
x,-y,z
1/2+x,1/2+y,z
1/2-x,1/2+y,-z
1/2-x,1/2-y,-z
1/2+x,1/2-y,z
loop_
_atom_site_type_symbol
_atom_site_label
_atom_site_fract_x
_atom_site_fract_y
_atom_site_fract_z
Si Si1 0.069504 0.845716 0.120420
Si Si2 0.459558 0.562048 0.728045
Si Si3 0.125776 0.359411 0.095210
Si Si4 0.723192 0.564801 0.719764
Si Si5 0.783415 0.693473 0.062828
Si Si6 0.124516 0.894184 0.491455
Si Si7 0.968904 0.732511 0.796932
Si Si8 0.607344 0.265823 0.450025
O O1 0.082052 0.897859 0.195818
O O2 0.201443 0.824995 0.131313
O O3 0.002907 0.793333 0.150448
O O4 0.000000 0.866223 0.000000
O O5 0.454455 0.500000 0.768013
O O6 0.595043 0.577993 0.733752
O O7 0.360655 0.569572 0.606900
O O8 0.168997 0.409859 0.179273
O O9 0.126205 0.302527 0.162855
O O10 0.219894 0.351169 0.030463
O O11 0.000000 0.373033 0.000000
O O12 0.746308 0.500000 0.714743
O O13 0.727906 0.593629 0.607911
O O14 0.911290 0.696479 0.158336
O O15 0.750000 0.750000 0.000000
O O16 0.110925 0.831423 0.451775
O O17 0.000000 0.916449 0.500000
O O18 0.931012 0.738621 0.668202
O O19 0.500000 0.247081 0.500000
O O20 0.750000 0.250000 0.500000
#
# Coordination Sequence:
#
# PCOD8100416 Si02
#       8
#     8   8   8   8   8   8   8   8
#     4  12  21  34  56  82 113 153 192 230 292 345
#     4  10  21  35  53  81 115 147 187 236 289 350
#     4  10  21  38  54  82 114 145 195 238 284 338
#     4  10  20  35  59  82 108 150 192 241 290 340
#     4  11  21  34  55  81 113 151 190 234 281 356
#     4   9  18  34  55  81 112 148 190 234 289 351
#     4  11  22  36  57  84 115 151 189 238 289 352
#     4  11  24  37  56  89 121 158 192 241 300 357
#
# _framework density 18.322700000000001
#
# number of rings (size 3 to 8) (size 9 to 14) (size 15 to 20)
#    0.000    1.500    3.750    2.250    1.750    2.000 
#    0.000    0.625    0.000    0.750    0.000    0.000 
#    0.000   11.500    0.000    0.000    0.000    0.000 
#
# Total GULP energy -396453.588741 kJ/mol
# GULP energy per Si atom -12389.174648 kJ/mol
# Density = 1.828100 g / cm^3
# Si number density = 18.322700 Si / 1000 Ang^3
#
#
#
# Elastic Constant Matrix: (Units=GPa)
#
#
# Indices 1 2 3 4 5 6 
#
# 1 70.4247 28.9250 40.2746 0.0000 -6.8741 0.0000
# 2 28.9250 91.2039 54.1898 0.0000 -3.5589 0.0000
# 3 40.2746 54.1898 151.9673 0.0000 5.3798 0.0000
# 4 0.0000 0.0000 0.0000 29.9672 0.0000 -0.2330
# 5 -6.8741 -3.5589 5.3798 0.0000 21.6410 0.0000
# 6 0.0000 0.0000 0.0000 -0.2330 0.0000 20.9585
#
#
#
# Elastic Compliance Matrix: (Units=1/GPa)
#
#
# Indices 1 2 3 4 5 6 
#
# 1 0.018402 -0.003249 -0.003941 0.000000 0.006291 0.000000
# 2 -0.003249 0.014762 -0.004492 0.000000 0.002512 0.000000
# 3 -0.003941 -0.004492 0.009380 0.000000 -0.004322 0.000000
# 4 0.000000 0.000000 0.000000 0.033373 0.000000 0.000371
# 5 0.006291 0.002512 -0.004322 0.000000 0.049694 0.000000
# 6 0.000000 0.000000 0.000000 0.000371 0.000000 0.047718
#
#
# Mechanical properties :
#
#
# Convention : Reuss Voigt Hill
#
# Bulk Modulus (GPa) = 52.13887 62.26386 57.20137
# Shear Modulus (GPa) = 24.62031 27.19376 25.90704
#
# Velocity S-wave (km/s) = 3.66964 3.85666 3.76431
# Velocity P-wave (km/s) = 6.81708 7.34080 7.08378
#
# Compressibility (1/GPa) = 0.01917955
#
# Stress axis : x y z
#
# Youngs Moduli (GPa) = 54.34241 67.74288 106.61510
#
# Poissons Ratio (x) = 0.22010 0.42017
# Poissons Ratio (y) = 0.17656 0.47889
# Poissons Ratio (z) = 0.21416 0.30428
#
# Static dielectric constant tensor:
#      x y z
#    x 3.335000 0.000000 -0.303070 
#    y 0.000000 3.324170 0.000000 
#    z -0.303070 0.000000 3.455330 
# 
# 
# High freq. dielectric constant tensor:
#      x y z
#    x 1.688450 0.000000 -0.001590 
#    y 0.000000 1.697660 0.000000 
#    z -0.001590 0.000000 1.726960 
# 
# From -- ./inp_files/135982.got.cif
#   From: 2010.06.25/outbox.cif.g09.slc.cpg/sg12_68_cif.got.tgz:135982.got - 2010.06.28 00:19:55.
