data_PCOD8100741
_publ_section_title
;
Structure prediction by ZEFSAII (Michael W. Deem and Ramdas Pophale) SiO2 
 PCOD8100741
Probable space group: C 2/M
;
_chemical_formula_sum "Si O2"
_cell_formula_units_Z 40
_cell_length_a 16.453592
_cell_length_b 17.117574
_cell_length_c 9.855309
_cell_angle_alpha 90.000000
_cell_angle_beta 39.182697
_cell_angle_gamma 90.000000
_cell_volume 1753.676719
_symmetry_space_group_name_H-M "C 2/M"
_symmetry_group_IT_number 12
_symmetry_cell_setting 'monoclinic'
loop_
_space_group_symop_operation_xyz
x,y,z
-x,y,-z
-x,-y,-z
x,-y,z
1/2+x,1/2+y,z
1/2-x,1/2+y,-z
1/2-x,1/2-y,-z
1/2+x,1/2-y,z
loop_
_atom_site_type_symbol
_atom_site_label
_atom_site_fract_x
_atom_site_fract_y
_atom_site_fract_z
Si Si1 0.564441 0.681930 0.781624
Si Si2 0.384653 0.714122 0.786347
Si Si3 0.971910 0.619641 0.681653
Si Si4 0.755044 0.587090 0.167311
Si Si5 0.161813 0.357722 0.661526
O O1 0.451819 0.666744 0.819417
O O2 0.690614 0.634713 0.575951
O O3 0.605888 0.771366 0.749819
O O4 0.500000 0.647886 0.000000
O O5 0.477025 0.787749 0.638021
O O6 0.359189 0.653153 0.693862
O O7 0.250000 0.750000 0.000000
O O8 0.000000 0.577151 0.500000
O O9 0.080779 0.597058 0.651205
O O10 0.836871 0.592925 0.921666
O O11 0.696386 0.500000 0.254065
O O12 0.847110 0.603501 0.177501
#
# Coordination Sequence:
#
# PCOD8100741 Si02
#       5
#     8   8   8   8   8
#     4  10  20  35  63  92 124 159 210 271 310 362
#     4   9  20  36  61  91 127 160 211 257 313 368
#     4  10  22  38  67  97 120 160 215 274 315 362
#     4  11  24  42  63  92 134 171 205 255 322 395
#     4  10  22  37  60  94 123 162 210 256 323 370
#
# _framework density 22.809221999999998
#
# number of rings (size 3 to 8) (size 9 to 14) (size 15 to 20)
#    0.000    2.000    0.000    4.200   14.000    2.000 
#    0.000    2.000    0.000    1.200    0.000    0.000 
#    0.000    0.000    0.000    0.000    0.000    0.000 
#
# Total GULP energy -247806.472266 kJ/mol
# GULP energy per Si atom -12390.323613 kJ/mol
# Density = 2.275731 g / cm^3
# Si number density = 22.809222 Si / 1000 Ang^3
#
#
#
# Elastic Constant Matrix: (Units=GPa)
#
#
# Indices 1 2 3 4 5 6 
#
# 1 160.0209 32.0386 31.9466 0.0000 10.4912 0.0000
# 2 32.0386 97.2580 -12.7307 0.0000 7.2317 0.0000
# 3 31.9466 -12.7307 99.9109 0.0000 21.9342 0.0000
# 4 0.0000 0.0000 0.0000 4.4834 0.0000 -0.7780
# 5 10.4912 7.2317 21.9342 0.0000 42.3945 0.0000
# 6 0.0000 0.0000 0.0000 -0.7780 0.0000 6.5769
#
#
#
# Elastic Compliance Matrix: (Units=1/GPa)
#
#
# Indices 1 2 3 4 5 6 
#
# 1 0.007344 -0.002779 -0.002716 0.000000 0.000062 0.000000
# 2 -0.002779 0.011809 0.003029 0.000000 -0.002894 0.000000
# 3 -0.002716 0.003029 0.012668 0.000000 -0.006399 0.000000
# 4 0.000000 0.000000 0.000000 0.227719 0.000000 0.026939
# 5 0.000062 -0.002894 -0.006399 0.000000 0.027377 0.000000
# 6 0.000000 0.000000 0.000000 0.026939 0.000000 0.155235
#
#
# Mechanical properties :
#
#
# Convention : Reuss Voigt Hill
#
# Bulk Modulus (GPa) = 37.19165 51.07766 44.13466
# Shear Modulus (GPa) = 10.96377 31.08664 21.02520
#
# Velocity S-wave (km/s) = 2.19480 3.69575 3.03939
# Velocity P-wave (km/s) = 4.77114 6.37601 5.63104
#
# Compressibility (1/GPa) = 0.02688775
#
# Stress axis : x y z
#
# Youngs Moduli (GPa) = 136.16954 84.68061 78.93904
#
# Poissons Ratio (x) = 0.23535 0.21439
# Poissons Ratio (y) = 0.37845 -0.23908
# Poissons Ratio (z) = 0.36982 -0.25647
#
# Static dielectric constant tensor:
#      x y z
#    x 4.439770 0.000000 0.048950 
#    y 0.000000 3.938190 0.000000 
#    z 0.048950 0.000000 4.048700 
# 
# 
# High freq. dielectric constant tensor:
#      x y z
#    x 1.913190 0.000000 0.006580 
#    y 0.000000 1.851580 0.000000 
#    z 0.006580 0.000000 1.902150 
# 
# From -- ./inp_files/63153.got.cif
#   From: 2010.06.25/outbox.cif.g09.slc.cpg/sg12_32_cif.got.tgz:63153.got - 2010.06.28 00:19:55.
