data_PCOD8100070
_publ_section_title
;
Structure prediction by ZEFSAII (Michael W. Deem and Ramdas Pophale) SiO2 
 PCOD8100070
Probable space group: C 2/M
;
_chemical_formula_sum "Si O2"
_cell_formula_units_Z 64
_cell_length_a 15.385877
_cell_length_b 9.006585
_cell_length_c 25.075645
_cell_angle_alpha 90.000000
_cell_angle_beta 72.228345
_cell_angle_gamma 90.000000
_cell_volume 3309.020182
_symmetry_space_group_name_H-M "C 2/M"
_symmetry_group_IT_number 12
_symmetry_cell_setting 'monoclinic'
loop_
_space_group_symop_operation_xyz
x,y,z
-x,y,-z
-x,-y,-z
x,-y,z
1/2+x,1/2+y,z
1/2-x,1/2+y,-z
1/2-x,1/2-y,-z
1/2+x,1/2-y,z
loop_
_atom_site_type_symbol
_atom_site_label
_atom_site_fract_x
_atom_site_fract_y
_atom_site_fract_z
Si Si1 0.994958 0.175557 0.756339
Si Si2 0.942975 0.327479 0.361948
Si Si3 0.799946 0.175612 0.827436
Si Si4 0.389642 0.168884 0.177071
Si Si5 0.017433 0.667974 0.057375
Si Si6 0.691546 0.673851 0.056129
Si Si7 0.565530 0.174299 0.439569
Si Si8 0.255045 0.674800 0.556225
O O1 0.893437 0.241380 0.785468
O O2 0.032899 0.234571 0.694116
O O3 0.059188 0.223030 0.792732
O O4 0.993727 0.000000 0.754011
O O5 0.952835 0.500000 0.346906
O O6 0.839262 0.288521 0.396479
O O7 0.013242 0.281977 0.395360
O O8 0.716022 0.220051 0.804997
O O9 0.781077 0.235717 0.890680
O O10 0.809694 0.000000 0.829851
O O11 0.426129 0.179655 0.109625
O O12 0.398674 0.000000 0.196480
O O13 0.057219 0.500000 0.052197
O O14 0.086201 0.786672 0.068640
O O15 0.000000 0.713969 0.000000
O O16 0.707121 0.500000 0.048449
O O17 0.750000 0.750000 0.000000
O O18 0.500000 0.223155 0.500000
O O19 0.661050 0.261657 0.424827
O O20 0.587065 0.000000 0.438894
O O21 0.268108 0.500000 0.545977
O O22 0.250000 0.750000 0.500000
#
# Coordination Sequence:
#
# PCOD8100070 Si02
#       8
#     8   8   8   8   8   8   8   8
#     4  11  23  41  62  87 120 156 204 255 296 345
#     4  10  23  42  62  87 124 165 201 243 301 362
#     4   9  20  39  61  83 115 157 194 243 300 354
#     4  10  20  38  63  85 114 158 200 239 299 367
#     4  10  20  35  57  86 119 154 196 242 300 367
#     4  11  21  36  57  84 120 153 194 246 303 361
#     4  10  20  39  63  90 127 164 198 245 305 359
#     4  11  22  38  62  92 126 163 205 250 302 361
#
# _framework density 19.341072
#
# number of rings (size 3 to 8) (size 9 to 14) (size 15 to 20)
#    0.000    1.750    2.500    1.875    0.000    5.000 
#    0.000    7.500    0.000    0.000    0.000    0.000 
#    0.000    0.000    0.000    0.000    0.000    0.000 
#
# Total GULP energy -396832.520999 kJ/mol
# GULP energy per Si atom -12401.016281 kJ/mol
# Density = 1.929705 g / cm^3
# Si number density = 19.341072 Si / 1000 Ang^3
#
#
#
# Elastic Constant Matrix: (Units=GPa)
#
#
# Indices 1 2 3 4 5 6 
#
# 1 156.6020 46.4076 67.5783 0.0000 -8.3588 0.0000
# 2 46.4076 60.7549 49.0938 0.0000 -6.1419 0.0000
# 3 67.5783 49.0938 129.9321 0.0000 -1.0467 0.0000
# 4 0.0000 0.0000 0.0000 23.5767 0.0000 -0.1727
# 5 -8.3588 -6.1419 -1.0467 0.0000 28.5784 0.0000
# 6 0.0000 0.0000 0.0000 -0.1727 0.0000 35.3305
#
#
#
# Elastic Compliance Matrix: (Units=1/GPa)
#
#
# Indices 1 2 3 4 5 6 
#
# 1 0.009071 -0.004265 -0.003093 0.000000 0.001623 0.000000
# 2 -0.004265 0.026367 -0.007711 0.000000 0.004137 0.000000
# 3 -0.003093 -0.007711 0.012201 0.000000 -0.002115 0.000000
# 4 0.000000 0.000000 0.000000 0.042416 0.000000 0.000207
# 5 0.001623 0.004137 -0.002115 0.000000 0.036278 0.000000
# 6 0.000000 0.000000 0.000000 0.000207 0.000000 0.028305
#
#
# Mechanical properties :
#
#
# Convention : Reuss Voigt Hill
#
# Bulk Modulus (GPa) = 57.14049 74.82759 65.98404
# Shear Modulus (GPa) = 26.23154 29.77773 28.00464
#
# Velocity S-wave (km/s) = 3.68674 3.92804 3.80930
# Velocity P-wave (km/s) = 6.90872 7.70358 7.31695
#
# Compressibility (1/GPa) = 0.01750072
#
# Stress axis : x y z
#
# Youngs Moduli (GPa) = 110.24083 37.92690 81.95732
#
# Poissons Ratio (x) = 0.16177 0.25351
# Poissons Ratio (y) = 0.47021 0.63194
# Poissons Ratio (z) = 0.34100 0.29244
#
# Static dielectric constant tensor:
#      x y z
#    x 3.971620 0.000000 -0.220300 
#    y 0.000000 3.567510 0.000000 
#    z -0.220300 0.000000 3.952200 
# 
# 
# High freq. dielectric constant tensor:
#      x y z
#    x 1.765610 0.000000 -0.002540 
#    y 0.000000 1.738480 0.000000 
#    z -0.002540 0.000000 1.756520 
# 
# From -- ./inp_files/359708.got.cif
#   From: 2010.06.25/outbox.cif.g09.slc.cpg/sg12_180_cif.got.tgz:359708.got - 2010.06.28 00:19:55.
