data_PCOD8100139
_publ_section_title
;
Structure prediction by ZEFSAII (Michael W. Deem and Ramdas Pophale) SiO2 
 PCOD8100139
Probable space group: C 2/M
;
_chemical_formula_sum "Si O2"
_cell_formula_units_Z 56
_cell_length_a 19.343140
_cell_length_b 15.472965
_cell_length_c 23.976638
_cell_angle_alpha 90.000000
_cell_angle_beta 156.335154
_cell_angle_gamma 90.000000
_cell_volume 2880.387450
_symmetry_space_group_name_H-M "C 2/M"
_symmetry_group_IT_number 12
_symmetry_cell_setting 'monoclinic'
loop_
_space_group_symop_operation_xyz
x,y,z
-x,y,-z
-x,-y,-z
x,-y,z
1/2+x,1/2+y,z
1/2-x,1/2+y,-z
1/2-x,1/2-y,-z
1/2+x,1/2-y,z
loop_
_atom_site_type_symbol
_atom_site_label
_atom_site_fract_x
_atom_site_fract_y
_atom_site_fract_z
Si Si1 0.244115 0.264562 0.344724
Si Si2 0.683884 0.361171 0.898352
Si Si3 0.387182 0.264690 0.331655
Si Si4 0.921209 0.668189 0.170053
Si Si5 0.185659 0.597771 0.118491
Si Si6 0.023439 0.598678 0.668333
Si Si7 0.812742 0.907156 0.643146
O O1 0.259224 0.275459 0.289617
O O2 0.419770 0.285776 0.506557
O O3 0.198844 0.163688 0.317433
O O4 0.094120 0.323096 0.260383
O O5 0.651235 0.260058 0.864143
O O6 0.810652 0.399114 0.945571
O O7 0.504099 0.410980 0.759843
O O8 0.775213 0.378771 0.025262
O O9 0.335820 0.339343 0.250878
O O10 0.372026 0.169326 0.291761
O O11 0.954650 0.612229 0.249613
O O12 0.215404 0.500000 0.162454
O O13 0.000000 0.632656 0.000000
O O14 0.082988 0.500000 0.697734
O O15 0.820859 0.612072 0.505693
O O16 0.768343 0.000000 0.637575
#
# Coordination Sequence:
#
# PCOD8100139 Si02
#       7
#     8   8   8   8   8   8   8
#     4   9  20  35  60  82 114 156 190 235 293 338
#     4  10  20  35  58  81 113 152 187 236 291 336
#     4  10  20  39  58  84 117 153 192 238 286 346
#     4  10  20  36  57  87 114 149 192 238 288 342
#     4  11  23  37  57  81 109 150 195 235 283 343
#     4  10  21  36  60  90 119 153 191 238 290 343
#     4   9  19  34  56  86 114 147 194 235 280 345
#
# _framework density 19.441828999999998
#
# number of rings (size 3 to 8) (size 9 to 14) (size 15 to 20)
#    0.000    2.143    1.429    1.286    2.000    3.429 
#    0.000    5.000    0.000    0.429    0.000    0.000 
#    0.000    0.000    0.000    0.000    0.000    0.000 
#
# Total GULP energy -347113.244340 kJ/mol
# GULP energy per Si atom -12396.901584 kJ/mol
# Density = 1.939758 g / cm^3
# Si number density = 19.441829 Si / 1000 Ang^3
#
#
#
# Elastic Constant Matrix: (Units=GPa)
#
#
# Indices 1 2 3 4 5 6 
#
# 1 86.0024 19.0709 31.1545 0.0142 0.2131 -0.0025
# 2 19.0709 89.1090 36.3454 -0.0654 -6.1831 -0.0051
# 3 31.1545 36.3454 85.3035 -0.0153 -4.9861 0.0057
# 4 0.0142 -0.0654 -0.0153 20.5969 0.0164 2.4412
# 5 0.2131 -6.1831 -4.9861 0.0164 29.4558 0.0105
# 6 -0.0025 -0.0051 0.0057 2.4412 0.0105 15.3754
#
#
#
# Elastic Compliance Matrix: (Units=1/GPa)
#
#
# Indices 1 2 3 4 5 6 
#
# 1 0.013518 -0.001125 -0.004522 -0.000016 -0.001099 0.000007
# 2 -0.001125 0.013781 -0.005344 0.000039 0.001996 -0.000001
# 3 -0.004522 -0.005344 0.015743 -0.000002 0.001576 -0.000009
# 4 -0.000016 0.000039 -0.000002 0.049482 -0.000017 -0.007856
# 5 -0.001099 0.001996 0.001576 -0.000017 0.034643 -0.000021
# 6 0.000007 -0.000001 -0.000009 -0.007856 -0.000021 0.066286
#
#
# Mechanical properties :
#
#
# Convention : Reuss Voigt Hill
#
# Bulk Modulus (GPa) = 47.48266 48.17296 47.82781
# Shear Modulus (GPa) = 22.47628 24.67523 23.57576
#
# Velocity S-wave (km/s) = 3.40380 3.56642 3.48606
# Velocity P-wave (km/s) = 6.31853 6.46459 6.39198
#
# Compressibility (1/GPa) = 0.02106032
#
# Stress axis : x y z
#
# Youngs Moduli (GPa) = 73.97634 72.56198 63.51828
#
# Poissons Ratio (x) = 0.08163 0.28722
# Poissons Ratio (y) = 0.08322 0.33946
# Poissons Ratio (z) = 0.33452 0.38779
#
# Static dielectric constant tensor:
#      x y z
#    x 3.452640 -0.000030 0.037440 
#    y -0.000030 3.560810 -0.000080 
#    z 0.037440 -0.000080 3.587310 
# 
# 
# High freq. dielectric constant tensor:
#      x y z
#    x 1.747220 0.000000 -0.001440 
#    y 0.000000 1.753940 -0.000010 
#    z -0.001440 -0.000010 1.759120 
# 
# From -- ./inp_files/316803.got.cif
#   From: 2010.06.25/outbox.cif.g09.slc.cpg/sg12_159_cif.got.tgz:316803.got - 2010.06.28 00:19:55.
