data_PCOD8100483
_publ_section_title
;
Structure prediction by ZEFSAII (Michael W. Deem and Ramdas Pophale) SiO2 
 PCOD8100483
Probable space group: C 2/M
;
_chemical_formula_sum "Si O2"
_cell_formula_units_Z 48
_cell_length_a 16.260305
_cell_length_b 17.496561
_cell_length_c 8.401873
_cell_angle_alpha 90.000000
_cell_angle_beta 86.617581
_cell_angle_gamma 90.000000
_cell_volume 2386.163979
_symmetry_space_group_name_H-M "C 2/M"
_symmetry_group_IT_number 12
_symmetry_cell_setting 'monoclinic'
loop_
_space_group_symop_operation_xyz
x,y,z
-x,y,-z
-x,-y,-z
x,-y,z
1/2+x,1/2+y,z
1/2-x,1/2+y,-z
1/2-x,1/2-y,-z
1/2+x,1/2-y,z
loop_
_atom_site_type_symbol
_atom_site_label
_atom_site_fract_x
_atom_site_fract_y
_atom_site_fract_z
Si Si1 0.156409 0.416273 0.625211
Si Si2 0.500000 0.134022 0.500000
Si Si3 0.591221 0.204887 0.198743
Si Si4 0.000000 0.828412 0.000000
Si Si5 0.342164 0.411027 0.147769
Si Si6 0.240083 0.686958 0.370972
Si Si7 0.175572 0.411093 0.972598
O O1 0.193668 0.500000 0.638125
O O2 0.059170 0.418378 0.600281
O O3 0.195436 0.382107 0.463548
O O4 0.174525 0.375412 0.793092
O O5 0.546164 0.187595 0.368856
O O6 0.543132 0.275201 0.126399
O O7 0.685550 0.225038 0.236582
O O8 0.603404 0.133024 0.077643
O O9 0.930352 0.885066 0.073357
O O10 0.347809 0.500000 0.201434
O O11 0.323400 0.351607 0.293898
O O12 0.267714 0.401244 0.030334
O O13 0.250000 0.750000 0.500000
O O14 0.149298 0.500000 0.975682
#
# Coordination Sequence:
#
# PCOD8100483 Si02
#       7
#     8   4   8   4   8   8   8
#     4  10  20  35  59  87 119 157 196 243 297 364
#     4  10  21  36  54  86 131 154 194 238 313 366
#     4  10  23  37  57  89 121 159 200 247 306 358
#     4  12  25  38  65  88 126 160 206 256 307 356
#     4  10  23  43  64  88 120 163 208 252 299 358
#     4  10  23  38  64  87 119 156 201 250 298 361
#     4   9  20  39  63  88 119 158 208 250 296 362
#
# _framework density 20.115969
#
# number of rings (size 3 to 8) (size 9 to 14) (size 15 to 20)
#    0.000    2.000    0.000    2.000    9.333    6.000 
#    0.000    2.083    0.000    1.000    0.000    0.000 
#    0.000    0.000    0.000    0.000    0.000    0.000 
#
# Total GULP energy -297319.128328 kJ/mol
# GULP energy per Si atom -12388.297014 kJ/mol
# Density = 2.007018 g / cm^3
# Si number density = 20.115969 Si / 1000 Ang^3
#
#
#
# Elastic Constant Matrix: (Units=GPa)
#
#
# Indices 1 2 3 4 5 6 
#
# 1 101.3648 50.1315 43.8701 0.0000 -14.4912 0.0000
# 2 50.1315 89.1512 37.7998 0.0000 2.9098 0.0000
# 3 43.8701 37.7998 99.8828 0.0000 1.8383 0.0000
# 4 0.0000 0.0000 0.0000 32.5980 0.0000 -0.9393
# 5 -14.4912 2.9098 1.8383 0.0000 29.2116 0.0000
# 6 0.0000 0.0000 0.0000 -0.9393 0.0000 32.7205
#
#
#
# Elastic Compliance Matrix: (Units=1/GPa)
#
#
# Indices 1 2 3 4 5 6 
#
# 1 0.017253 -0.008015 -0.004723 0.000000 0.009654 0.000000
# 2 -0.008015 0.017114 -0.002855 0.000000 -0.005501 0.000000
# 3 -0.004723 -0.002855 0.013220 0.000000 -0.002890 0.000000
# 4 0.000000 0.000000 0.000000 0.030702 0.000000 0.000881
# 5 0.009654 -0.005501 -0.002890 0.000000 0.039752 0.000000
# 6 0.000000 0.000000 0.000000 0.000881 0.000000 0.030587
#
#
# Mechanical properties :
#
#
# Convention : Reuss Voigt Hill
#
# Bulk Modulus (GPa) = 60.96799 61.55574 61.26186
# Shear Modulus (GPa) = 26.98616 29.47916 28.23266
#
# Velocity S-wave (km/s) = 3.66666 3.83229 3.75039
# Velocity P-wave (km/s) = 6.94982 7.08864 7.01957
#
# Compressibility (1/GPa) = 0.01640205
#
# Stress axis : x y z
#
# Youngs Moduli (GPa) = 57.96031 58.43236 75.64490
#
# Poissons Ratio (x) = 0.46831 0.35723
# Poissons Ratio (y) = 0.46453 0.21598
# Poissons Ratio (z) = 0.27372 0.16684
#
# Static dielectric constant tensor:
#      x y z
#    x 3.517840 0.000000 0.546310 
#    y 0.000000 3.413750 0.000000 
#    z 0.546310 0.000000 2.885010 
# 
# 
# High freq. dielectric constant tensor:
#      x y z
#    x 1.780890 0.000000 -0.000350 
#    y 0.000000 1.777980 0.000000 
#    z -0.000350 0.000000 1.796440 
# 
# From -- ./inp_files/73671.got.cif
#   From: 2010.06.25/outbox.cif.g09.slc.cpg/sg12_37_cif.got.tgz:73671.got - 2010.06.28 00:19:55.
