data_PCOD8100612
_publ_section_title
;
Structure prediction by ZEFSAII (Michael W. Deem and Ramdas Pophale) SiO2 
 PCOD8100612
Probable space group: C 2/M
;
_chemical_formula_sum "Si O2"
_cell_formula_units_Z 52
_cell_length_a 19.306619
_cell_length_b 12.530938
_cell_length_c 20.065680
_cell_angle_alpha 90.000000
_cell_angle_beta 33.973951
_cell_angle_gamma 90.000000
_cell_volume 2712.766842
_symmetry_space_group_name_H-M "C 2/M"
_symmetry_group_IT_number 12
_symmetry_cell_setting 'monoclinic'
loop_
_space_group_symop_operation_xyz
x,y,z
-x,y,-z
-x,-y,-z
x,-y,z
1/2+x,1/2+y,z
1/2-x,1/2+y,-z
1/2-x,1/2-y,-z
1/2+x,1/2-y,z
loop_
_atom_site_type_symbol
_atom_site_label
_atom_site_fract_x
_atom_site_fract_y
_atom_site_fract_z
Si Si1 0.946565 0.121205 0.674086
Si Si2 0.411642 0.128070 0.852280
Si Si3 0.873911 0.777085 0.363575
Si Si4 0.739234 0.877502 0.348502
Si Si5 0.000000 0.749838 0.500000
Si Si6 0.271765 0.776830 0.081206
Si Si7 0.358233 0.386428 0.114534
O O1 0.816731 0.135211 0.815564
O O2 0.050640 0.153138 0.644043
O O3 0.945367 0.183068 0.604925
O O4 0.967386 0.000000 0.637673
O O5 0.546044 0.173316 0.722942
O O6 0.303974 0.184092 0.895918
O O7 0.411515 0.000000 0.843239
O O8 0.376898 0.161360 0.955341
O O9 0.750000 0.750000 0.500000
O O10 0.833302 0.841506 0.331035
O O11 0.607460 0.818459 0.449568
O O12 0.813943 0.854093 0.222555
O O13 0.706416 0.000000 0.386738
O O14 0.340296 0.714916 0.083784
O O15 0.291904 0.500000 0.146174
O O16 0.500000 0.413006 0.000000
#
# Coordination Sequence:
#
# PCOD8100612 Si02
#       7
#     8   8   8   8   4   8   8
#     4  11  23  40  64  88 122 168 206 248 309 366
#     4  10  22  38  62  91 121 161 206 255 308 362
#     4  11  23  42  61  90 125 161 205 256 302 369
#     4  11  23  40  63  91 122 157 202 256 311 362
#     4  12  22  42  60  92 126 156 210 256 302 364
#     4  10  20  39  61  87 124 155 205 260 300 368
#     4  10  20  35  60  88 117 155 195 248 310 360
#
# _framework density 19.168621999999999
#
# number of rings (size 3 to 8) (size 9 to 14) (size 15 to 20)
#    0.000    1.385    3.077    2.769    0.000    1.231 
#    0.000    4.615    0.000    1.846    0.000    0.000 
#    0.000    0.000    0.000    0.000    0.000    0.000 
#
# Total GULP energy -322196.109098 kJ/mol
# GULP energy per Si atom -12392.158042 kJ/mol
# Density = 1.912499 g / cm^3
# Si number density = 19.168622 Si / 1000 Ang^3
#
#
#
# Elastic Constant Matrix: (Units=GPa)
#
#
# Indices 1 2 3 4 5 6 
#
# 1 83.0814 41.5300 17.3706 0.0000 3.5257 0.0000
# 2 41.5300 129.8444 48.4460 0.0000 4.1378 0.0000
# 3 17.3706 48.4460 131.1424 0.0000 5.6046 0.0000
# 4 0.0000 0.0000 0.0000 20.0804 0.0000 -2.0576
# 5 3.5257 4.1378 5.6046 0.0000 29.7910 0.0000
# 6 0.0000 0.0000 0.0000 -2.0576 0.0000 10.9478
#
#
#
# Elastic Compliance Matrix: (Units=1/GPa)
#
#
# Indices 1 2 3 4 5 6 
#
# 1 0.014365 -0.004487 -0.000201 0.000000 -0.001039 0.000000
# 2 -0.004487 0.010346 -0.003215 0.000000 -0.000301 0.000000
# 3 -0.000201 -0.003215 0.008891 0.000000 -0.001202 0.000000
# 4 0.000000 0.000000 0.000000 0.050778 0.000000 0.009544
# 5 -0.001039 -0.000301 -0.001202 0.000000 0.033958 0.000000
# 6 0.000000 0.000000 0.000000 0.009544 0.000000 0.093136
#
#
# Mechanical properties :
#
#
# Convention : Reuss Voigt Hill
#
# Bulk Modulus (GPa) = 56.18839 62.08461 59.13650
# Shear Modulus (GPa) = 21.43987 27.94528 24.69258
#
# Velocity S-wave (km/s) = 3.34801 3.82234 3.59301
# Velocity P-wave (km/s) = 6.65747 7.20690 6.93762
#
# Compressibility (1/GPa) = 0.01779727
#
# Stress axis : x y z
#
# Youngs Moduli (GPa) = 69.61278 96.66012 112.47525
#
# Poissons Ratio (x) = 0.43367 0.02260
# Poissons Ratio (y) = 0.31232 0.36157
# Poissons Ratio (z) = 0.01399 0.31073
#
# Static dielectric constant tensor:
#      x y z
#    x 3.338590 0.000000 0.115370 
#    y 0.000000 3.467250 0.000000 
#    z 0.115370 0.000000 3.732510 
# 
# 
# High freq. dielectric constant tensor:
#      x y z
#    x 1.745960 0.000000 0.010150 
#    y 0.000000 1.747160 0.000000 
#    z 0.010150 0.000000 1.762630 
# 
# From -- ./inp_files/321518.got.cif
#   From: 2010.06.25/outbox.cif.g09.slc.cpg/sg12_161_cif.got.tgz:321518.got - 2010.06.28 00:19:55.
