data_PCOD8100039
_publ_section_title
;
Structure prediction by ZEFSAII (Michael W. Deem and Ramdas Pophale) SiO2 
 PCOD8100039
Probable space group: C 2/M
;
_chemical_formula_sum "Si O2"
_cell_formula_units_Z 64
_cell_length_a 30.538327
_cell_length_b 8.694174
_cell_length_c 22.775950
_cell_angle_alpha 90.000000
_cell_angle_beta 31.481836
_cell_angle_gamma 90.000000
_cell_volume 3157.987574
_symmetry_space_group_name_H-M "C 2/M"
_symmetry_group_IT_number 12
_symmetry_cell_setting 'monoclinic'
loop_
_space_group_symop_operation_xyz
x,y,z
-x,y,-z
-x,-y,-z
x,-y,z
1/2+x,1/2+y,z
1/2-x,1/2+y,-z
1/2-x,1/2-y,-z
1/2+x,1/2-y,z
loop_
_atom_site_type_symbol
_atom_site_label
_atom_site_fract_x
_atom_site_fract_y
_atom_site_fract_z
Si Si1 0.166997 0.680549 0.568240
Si Si2 0.105501 0.680313 0.091113
Si Si3 0.377154 0.678120 0.499433
Si Si4 0.748131 0.318648 0.256888
Si Si5 0.566395 0.679560 0.260006
Si Si6 0.457506 0.680988 0.201306
Si Si7 0.415471 0.182607 0.127855
Si Si8 0.779747 0.818479 0.840520
O O1 0.163456 0.500000 0.584133
O O2 0.250000 0.750000 0.500000
O O3 0.164330 0.715232 0.502362
O O4 0.088032 0.763639 0.687670
O O5 0.091502 0.500000 0.099364
O O6 0.074827 0.729973 0.189928
O O7 0.053235 0.763262 0.099011
O O8 0.202114 0.727272 0.971029
O O9 0.360242 0.500000 0.502763
O O10 0.332172 0.723371 0.611593
O O11 0.476120 0.710754 0.392358
O O12 0.759263 0.500000 0.238536
O O13 0.834407 0.252406 0.185942
O O14 0.732404 0.245759 0.210478
O O15 0.580347 0.500000 0.230454
O O16 0.635524 0.744640 0.226401
O O17 0.453117 0.500000 0.200677
O O18 0.412007 0.754182 0.197573
O O19 0.414066 0.000000 0.132675
O O20 0.500000 0.242999 0.000000
O O21 0.787195 0.000000 0.825280
#
# Coordination Sequence:
#
# PCOD8100039 Si02
#       8
#     8   8   8   8   8   8   8   8
#     4  12  24  39  60  85 116 154 195 240 292 353
#     4  11  21  36  59  85 116 155 199 247 302 360
#     4  10  20  35  57  85 119 156 194 242 296 350
#     4   9  18  34  56  83 116 153 197 245 289 346
#     4  10  20  35  57  86 120 153 194 248 299 352
#     4  12  24  38  58  86 119 153 195 246 301 358
#     4  10  20  36  59  85 116 159 206 249 295 354
#     4   9  19  35  57  86 116 152 200 248 294 349
#
# _framework density 20.266072000000001
#
# number of rings (size 3 to 8) (size 9 to 14) (size 15 to 20)
#    0.000    1.625    1.250    4.500    0.000    3.750 
#    0.000    3.125    0.000    3.000    0.000    1.750 
#    0.000    0.000    0.000    0.000    0.000    0.000 
#
# Total GULP energy -396899.253296 kJ/mol
# GULP energy per Si atom -12403.101665 kJ/mol
# Density = 2.021995 g / cm^3
# Si number density = 20.266072 Si / 1000 Ang^3
#
#
#
# Elastic Constant Matrix: (Units=GPa)
#
#
# Indices 1 2 3 4 5 6 
#
# 1 135.2160 14.5453 50.1197 0.0146 -12.8586 0.0084
# 2 14.5453 25.3174 20.5182 0.0463 -4.2068 0.0005
# 3 50.1197 20.5182 127.5982 0.0143 -8.4104 0.0110
# 4 0.0146 0.0463 0.0143 20.0884 -0.0056 1.4280
# 5 -12.8586 -4.2068 -8.4104 -0.0056 40.2860 -0.0055
# 6 0.0084 0.0005 0.0110 1.4280 -0.0055 24.0095
#
#
#
# Elastic Compliance Matrix: (Units=1/GPa)
#
#
# Indices 1 2 3 4 5 6 
#
# 1 0.008953 -0.002380 -0.003003 0.000002 0.001982 -0.000001
# 2 -0.002380 0.046477 -0.006356 -0.000101 0.002767 0.000009
# 3 -0.003003 -0.006356 0.010071 0.000010 0.000480 -0.000004
# 4 0.000002 -0.000101 0.000010 0.049992 -0.000001 -0.002973
# 5 0.001982 0.002767 0.000480 -0.000001 0.025844 0.000005
# 6 -0.000001 0.000009 -0.000004 -0.002973 0.000005 0.041827
#
#
# Mechanical properties :
#
#
# Convention : Reuss Voigt Hill
#
# Bulk Modulus (GPa) = 23.79760 50.94425 37.37093
# Shear Modulus (GPa) = 22.66013 30.40666 26.53340
#
# Velocity S-wave (km/s) = 3.34747 3.87767 3.62228
# Velocity P-wave (km/s) = 5.16806 6.72612 5.99790
#
# Compressibility (1/GPa) = 0.04202104
#
# Stress axis : x y z
#
# Youngs Moduli (GPa) = 111.68955 21.51579 99.29919
#
# Poissons Ratio (x) = 0.05122 0.29823
# Poissons Ratio (y) = 0.26587 0.63118
# Poissons Ratio (z) = 0.33545 0.13676
#
# Static dielectric constant tensor:
#      x y z
#    x 3.879770 -0.000020 -0.113650 
#    y -0.000020 3.362020 0.000050 
#    z -0.113650 0.000050 3.888760 
# 
# 
# High freq. dielectric constant tensor:
#      x y z
#    x 1.800830 0.000000 -0.007060 
#    y 0.000000 1.758450 0.000010 
#    z -0.007060 0.000010 1.803780 
# 
# From -- ./inp_files/353288.got.cif
#   From: 2010.06.25/outbox.cif.g09.slc.cpg/sg12_177_cif.got.tgz:353288.got - 2010.06.28 00:19:55.
