data_PCOD8100717
_publ_section_title
;
Structure prediction by ZEFSAII (Michael W. Deem and Ramdas Pophale) SiO2 
 PCOD8100717
Probable space group: C 2/M
;
_chemical_formula_sum "Si O2"
_cell_formula_units_Z 56
_cell_length_a 8.011018
_cell_length_b 19.898122
_cell_length_c 19.008601
_cell_angle_alpha 90.000000
_cell_angle_beta 122.341622
_cell_angle_gamma 90.000000
_cell_volume 2560.009674
_symmetry_space_group_name_H-M "C 2/M"
_symmetry_group_IT_number 12
_symmetry_cell_setting 'monoclinic'
loop_
_space_group_symop_operation_xyz
x,y,z
-x,y,-z
-x,-y,-z
x,-y,z
1/2+x,1/2+y,z
1/2-x,1/2+y,-z
1/2-x,1/2-y,-z
1/2+x,1/2-y,z
loop_
_atom_site_type_symbol
_atom_site_label
_atom_site_fract_x
_atom_site_fract_y
_atom_site_fract_z
Si Si1 0.284513 0.575423 0.824330
Si Si2 0.311305 0.074933 0.545161
Si Si3 0.621933 0.167230 0.674489
Si Si4 0.715639 0.381240 0.885153
Si Si5 0.556055 0.574365 0.626645
Si Si6 0.551045 0.689979 0.726007
Si Si7 0.129636 0.577074 0.939630
O O1 0.207374 0.500000 0.800213
O O2 0.137339 0.618724 0.744574
O O3 0.510516 0.578236 0.848406
O O4 0.247696 0.599133 0.896420
O O5 0.470766 0.134894 0.584503
O O6 0.187919 0.077199 0.588030
O O7 0.170461 0.089452 0.446838
O O8 0.407032 0.000000 0.558594
O O9 0.565318 0.239629 0.691192
O O10 0.823220 0.173563 0.679078
O O11 0.659927 0.313453 0.827674
O O12 0.890158 0.418394 0.880329
O O13 0.796105 0.371085 0.982793
O O14 0.568225 0.500000 0.664215
O O15 0.640861 0.629654 0.699499
O O16 0.184893 0.500000 0.972469
#
# Coordination Sequence:
#
# PCOD8100717 Si02
#       7
#     8   8   8   8   8   8   8
#     4  10  21  37  61  90 119 154 199 256 308 359
#     4   9  19  39  64  91 123 152 193 244 291 361
#     4  11  24  40  59  84 120 159 207 241 298 357
#     4  10  21  37  57  88 121 152 200 249 299 364
#     4   9  20  38  63  93 120 154 193 240 302 352
#     4  11  25  40  60  84 120 163 197 254 293 355
#     4  10  20  35  62  90 117 157 194 249 313 361
#
# _framework density 21.874915999999999
#
# number of rings (size 3 to 8) (size 9 to 14) (size 15 to 20)
#    0.000    2.000    0.000    4.286    4.000    6.286 
#    0.000    2.143    3.143    0.000    0.000    0.000 
#    0.000    0.000    0.000    0.000    0.000    0.000 
#
# Total GULP energy -346918.354089 kJ/mol
# GULP energy per Si atom -12389.941217 kJ/mol
# Density = 2.182513 g / cm^3
# Si number density = 21.874916 Si / 1000 Ang^3
#
#
#
# Elastic Constant Matrix: (Units=GPa)
#
#
# Indices 1 2 3 4 5 6 
#
# 1 71.9151 13.7277 14.3258 0.0000 0.4294 0.0000
# 2 13.7277 92.6158 24.8488 0.0000 -1.2412 0.0000
# 3 14.3258 24.8488 55.3650 0.0000 6.1924 0.0000
# 4 0.0000 0.0000 0.0000 -15.8753 0.0000 22.1109
# 5 0.4294 -1.2412 6.1924 0.0000 29.8583 0.0000
# 6 0.0000 0.0000 0.0000 22.1109 0.0000 13.1121
#
#
#
# Elastic Compliance Matrix: (Units=1/GPa)
#
#
# Indices 1 2 3 4 5 6 
#
# 1 0.014808 -0.001306 -0.003292 0.000000 0.000415 0.000000
# 2 -0.001306 0.012475 -0.005447 0.000000 0.001667 0.000000
# 3 -0.003292 -0.005447 0.021886 0.000000 -0.004718 0.000000
# 4 0.000000 0.000000 0.000000 -0.018811 0.000000 0.031721
# 5 0.000415 0.001667 -0.004718 0.000000 0.034533 0.000000
# 6 0.000000 0.000000 0.000000 0.031721 0.000000 0.022775
#
#
# Mechanical properties :
#
#
# Convention : Reuss Voigt Hill
#
# Bulk Modulus (GPa) = 34.38989 36.18895 35.28942
# Shear Modulus (GPa) = 42.57132 16.55191 29.56162
#
# Velocity S-wave (km/s) = 4.41628 2.75373 3.68012
# Velocity P-wave (km/s) = 6.46219 5.16626 5.85022
#
# Compressibility (1/GPa) = 0.02907831
#
# Stress axis : x y z
#
# Youngs Moduli (GPa) = 67.53170 80.16179 45.69059
#
# Poissons Ratio (x) = 0.10470 0.15041
# Poissons Ratio (y) = 0.08820 0.24890
# Poissons Ratio (z) = 0.22230 0.43667
#
# Static dielectric constant tensor:
#      x y z
#    x 4.122160 0.000000 0.062950 
#    y 0.000000 3.615680 0.000000 
#    z 0.062950 0.000000 4.035010 
# 
# 
# High freq. dielectric constant tensor:
#      x y z
#    x 1.875690 0.000000 -0.001200 
#    y 0.000000 1.829690 0.000000 
#    z -0.001200 0.000000 1.859180 
# 
# From -- ./inp_files/300912.got.cif
#   From: 2010.06.25/outbox.cif.g09.slc.cpg/sg12_151_cif.got.tgz:300912.got - 2010.06.28 00:19:55.
