data_PCOD8100256
_publ_section_title
;
Structure prediction by ZEFSAII (Michael W. Deem and Ramdas Pophale) SiO2 
 PCOD8100256
Probable space group: C 2/M
;
_chemical_formula_sum "Si O2"
_cell_formula_units_Z 64
_cell_length_a 30.186158
_cell_length_b 8.782394
_cell_length_c 18.702392
_cell_angle_alpha 90.000000
_cell_angle_beta 39.873299
_cell_angle_gamma 90.000000
_cell_volume 3178.617739
_symmetry_space_group_name_H-M "C 2/M"
_symmetry_group_IT_number 12
_symmetry_cell_setting 'monoclinic'
loop_
_space_group_symop_operation_xyz
x,y,z
-x,y,-z
-x,-y,-z
x,-y,z
1/2+x,1/2+y,z
1/2-x,1/2+y,-z
1/2-x,1/2-y,-z
1/2+x,1/2-y,z
loop_
_atom_site_type_symbol
_atom_site_label
_atom_site_fract_x
_atom_site_fract_y
_atom_site_fract_z
Si Si1 0.540045 0.822040 0.584981
Si Si2 0.808122 0.678692 0.220488
Si Si3 0.092588 0.176506 0.289019
Si Si4 0.157755 0.176106 0.358866
Si Si5 0.821013 0.321628 0.937433
Si Si6 0.687927 0.182006 0.623283
Si Si7 0.041912 0.680258 0.745552
Si Si8 0.398210 0.181869 0.981650
O O1 0.487075 0.725372 0.601501
O O2 0.616760 0.782063 0.464576
O O3 0.532182 0.767808 0.676216
O O4 0.525714 0.000000 0.593320
O O5 0.818145 0.500000 0.215449
O O6 0.737415 0.719705 0.268093
O O7 0.808108 0.746546 0.300474
O O8 0.870034 0.742684 0.093231
O O9 0.136174 0.214023 0.305181
O O10 0.119537 0.281567 0.192047
O O11 0.098719 0.000000 0.261062
O O12 0.143724 0.000000 0.395165
O O13 0.809453 0.500000 0.954957
O O14 0.846286 0.260713 0.983450
O O15 0.750000 0.250000 0.000000
O O16 0.750000 0.250000 0.500000
O O17 0.614603 0.243837 0.684725
O O18 0.693552 0.000000 0.613010
O O19 0.043958 0.500000 0.748194
O O20 0.976388 0.743459 0.872210
O O21 0.398917 0.000000 0.978853
#
# Coordination Sequence:
#
# PCOD8100256 Si02
#       8
#     8   8   8   8   8   8   8   8
#     4  11  21  35  54  79 110 146 185 229 281 337
#     4   9  18  33  55  82 109 140 182 225 272 329
#     4  11  22  36  54  78 109 146 189 233 281 332
#     4  10  21  36  52  76 110 146 184 231 283 333
#     4  11  21  35  56  80 112 152 191 232 279 329
#     4  10  20  35  58  86 112 141 181 225 272 334
#     4   9  18  33  54  82 113 142 178 228 283 329
#     4   9  17  33  55  79 111 145 179 229 281 320
#
# _framework density 20.134539
#
# number of rings (size 3 to 8) (size 9 to 14) (size 15 to 20)
#    0.000    2.000    1.250    3.000    0.000    5.000 
#    0.000    3.125    0.000    1.500    0.000    0.875 
#    0.000    0.000    0.000    0.000    0.000    0.000 
#
# Total GULP energy -396770.270566 kJ/mol
# GULP energy per Si atom -12399.070955 kJ/mol
# Density = 2.008871 g / cm^3
# Si number density = 20.134539 Si / 1000 Ang^3
#
#
#
# Elastic Constant Matrix: (Units=GPa)
#
#
# Indices 1 2 3 4 5 6 
#
# 1 146.1359 31.3543 71.2656 -0.0134 -5.8630 0.0045
# 2 31.3543 28.1130 27.8814 -0.0276 3.0821 0.0187
# 3 71.2656 27.8814 155.4361 -0.0305 1.1862 0.0131
# 4 -0.0134 -0.0276 -0.0305 31.3560 0.0053 -2.9296
# 5 -5.8630 3.0821 1.1862 0.0053 32.2997 -0.0034
# 6 0.0045 0.0187 0.0131 -2.9296 -0.0034 20.2331
#
#
#
# Elastic Compliance Matrix: (Units=1/GPa)
#
#
# Indices 1 2 3 4 5 6 
#
# 1 0.010399 -0.008708 -0.003227 -0.000006 0.002837 0.000007
# 2 -0.008708 0.051043 -0.005115 0.000034 -0.006263 -0.000038
# 3 -0.003227 -0.005115 0.008834 0.000003 -0.000422 0.000000
# 4 -0.000006 0.000034 0.000003 0.032329 -0.000009 0.004681
# 5 0.002837 -0.006263 -0.000422 -0.000009 0.032088 0.000009
# 6 0.000007 -0.000038 0.000000 0.004681 0.000009 0.050102
#
#
# Mechanical properties :
#
#
# Convention : Reuss Voigt Hill
#
# Bulk Modulus (GPa) = 27.64422 65.63197 46.63809
# Shear Modulus (GPa) = 21.64917 30.05668 25.85293
#
# Velocity S-wave (km/s) = 3.28262 3.86786 3.58719
# Velocity P-wave (km/s) = 5.30349 7.25359 6.35380
#
# Compressibility (1/GPa) = 0.03617393
#
# Stress axis : x y z
#
# Youngs Moduli (GPa) = 96.16207 19.59131 113.19802
#
# Poissons Ratio (x) = 0.17061 0.36534
# Poissons Ratio (y) = 0.83740 0.57906
# Poissons Ratio (z) = 0.31036 0.10022
#
# Static dielectric constant tensor:
#      x y z
#    x 3.874030 -0.000050 -0.029480 
#    y -0.000050 3.221260 0.000040 
#    z -0.029480 0.000040 3.973750 
# 
# 
# High freq. dielectric constant tensor:
#      x y z
#    x 1.793980 0.000000 -0.003790 
#    y 0.000000 1.740280 0.000000 
#    z -0.003790 0.000000 1.802070 
# 
# From -- ./inp_files/295653.got.cif
#   From: 2010.06.25/outbox.cif.g09.slc.cpg/sg12_148_cif.got.tgz:295653.got - 2010.06.28 00:19:55.
