data_PCOD8100424
_publ_section_title
;
Structure prediction by ZEFSAII (Michael W. Deem and Ramdas Pophale) SiO2 
 PCOD8100424
Probable space group: C 2/M
;
_chemical_formula_sum "Si O2"
_cell_formula_units_Z 56
_cell_length_a 8.853728
_cell_length_b 18.977013
_cell_length_c 17.917770
_cell_angle_alpha 90.000000
_cell_angle_beta 74.416133
_cell_angle_gamma 90.000000
_cell_volume 2899.824455
_symmetry_space_group_name_H-M "C 2/M"
_symmetry_group_IT_number 12
_symmetry_cell_setting 'monoclinic'
loop_
_space_group_symop_operation_xyz
x,y,z
-x,y,-z
-x,-y,-z
x,-y,z
1/2+x,1/2+y,z
1/2-x,1/2+y,-z
1/2-x,1/2-y,-z
1/2+x,1/2-y,z
loop_
_atom_site_type_symbol
_atom_site_label
_atom_site_fract_x
_atom_site_fract_y
_atom_site_fract_z
Si Si1 0.856541 0.348231 0.223671
Si Si2 0.126804 0.807710 0.044339
Si Si3 0.315085 0.918043 0.523326
Si Si4 0.857133 0.418448 0.069439
Si Si5 0.887525 0.810062 0.371393
Si Si6 0.066745 0.768460 0.210501
Si Si7 0.214689 0.837753 0.392932
O O1 0.881791 0.405093 0.154912
O O2 0.023182 0.314289 0.226442
O O3 0.746945 0.283876 0.207218
O O4 0.775119 0.377919 0.309420
O O5 0.205963 0.880362 0.057753
O O6 0.031507 0.781477 0.128568
O O7 0.250000 0.750000 0.000000
O O8 0.000000 0.826049 0.000000
O O9 0.500000 0.905012 0.500000
O O10 0.237294 0.872852 0.600425
O O11 0.241345 0.892521 0.455422
O O12 0.274172 0.000000 0.540644
O O13 0.830718 0.500000 0.060168
O O14 0.000000 0.390144 0.000000
O O15 0.952307 0.815134 0.278243
O O16 0.807637 0.734529 0.396667
O O17 0.031094 0.818980 0.410329
#
# Coordination Sequence:
#
# PCOD8100424 Si02
#       7
#     8   8   8   8   8   8   8
#     4   9  18  33  54  80 107 137 175 227 274 321
#     4  11  20  33  57  84 111 144 185 230 272 320
#     4  11  24  40  56  77 108 145 185 230 280 332
#     4  10  21  36  52  75 111 151 186 222 271 327
#     4  10  20  36  57  82 111 142 178 225 276 328
#     4   9  18  32  52  82 109 135 175 221 272 321
#     4  10  20  35  59  84 108 140 181 225 274 328
#
# _framework density 19.311513999999999
#
# number of rings (size 3 to 8) (size 9 to 14) (size 15 to 20)
#    0.000    2.000    0.000    4.714    0.000    3.143 
#    0.000    5.714    0.000    1.714    0.000    0.000 
#    0.000    0.000    0.000    0.000    0.000    0.000 
#
# Total GULP energy -347058.811725 kJ/mol
# GULP energy per Si atom -12394.957562 kJ/mol
# Density = 1.926756 g / cm^3
# Si number density = 19.311514 Si / 1000 Ang^3
#
#
#
# Elastic Constant Matrix: (Units=GPa)
#
#
# Indices 1 2 3 4 5 6 
#
# 1 69.1609 25.7558 26.3812 0.0000 -4.2970 0.0000
# 2 25.7558 74.9206 37.8966 0.0000 -9.6349 0.0000
# 3 26.3812 37.8966 121.8009 0.0000 -0.5580 0.0000
# 4 0.0000 0.0000 0.0000 27.4326 0.0000 -0.1546
# 5 -4.2970 -9.6349 -0.5580 0.0000 29.7268 0.0000
# 6 0.0000 0.0000 0.0000 -0.1546 0.0000 25.2070
#
#
#
# Elastic Compliance Matrix: (Units=1/GPa)
#
#
# Indices 1 2 3 4 5 6 
#
# 1 0.017098 -0.004613 -0.002264 0.000000 0.000934 0.000000
# 2 -0.004613 0.017878 -0.004540 0.000000 0.005043 0.000000
# 3 -0.002264 -0.004540 0.010106 0.000000 -0.001609 0.000000
# 4 0.000000 0.000000 0.000000 0.036454 0.000000 0.000224
# 5 0.000934 0.005043 -0.001609 0.000000 0.035379 0.000000
# 6 0.000000 0.000000 0.000000 0.000224 0.000000 0.039673
#
#
# Mechanical properties :
#
#
# Convention : Reuss Voigt Hill
#
# Bulk Modulus (GPa) = 44.94701 49.54994 47.24847
# Shear Modulus (GPa) = 26.76103 28.19653 27.47878
#
# Velocity S-wave (km/s) = 3.72661 3.82526 3.77626
# Velocity P-wave (km/s) = 6.46855 6.72488 6.59796
#
# Compressibility (1/GPa) = 0.02224842
#
# Stress axis : x y z
#
# Youngs Moduli (GPa) = 58.48493 55.93366 98.95338
#
# Poissons Ratio (x) = 0.25801 0.22402
# Poissons Ratio (y) = 0.26978 0.44929
# Poissons Ratio (z) = 0.13241 0.25396
#
# Static dielectric constant tensor:
#      x y z
#    x 3.813040 0.000000 -0.311280 
#    y 0.000000 3.231320 0.000000 
#    z -0.311280 0.000000 4.124590 
# 
# 
# High freq. dielectric constant tensor:
#      x y z
#    x 1.754840 0.000000 -0.006550 
#    y 0.000000 1.719010 0.000000 
#    z -0.006550 0.000000 1.774530 
# 
# From -- ./inp_files/256996.got.cif
#   From: 2010.06.25/outbox.cif.g09.slc.cpg/sg12_129_cif.got.tgz:256996.got - 2010.06.28 00:19:55.
