data_PCOD8100640
_publ_section_title
;
Structure prediction by ZEFSAII (Michael W. Deem and Ramdas Pophale) SiO2 
 PCOD8100640
Probable space group: C 2/M
;
_chemical_formula_sum "Si O2"
_cell_formula_units_Z 64
_cell_length_a 31.726381
_cell_length_b 8.789888
_cell_length_c 17.844853
_cell_angle_alpha 90.000000
_cell_angle_beta 139.024904
_cell_angle_gamma 90.000000
_cell_volume 3263.191184
_symmetry_space_group_name_H-M "C 2/M"
_symmetry_group_IT_number 12
_symmetry_cell_setting 'monoclinic'
loop_
_space_group_symop_operation_xyz
x,y,z
-x,y,-z
-x,-y,-z
x,-y,z
1/2+x,1/2+y,z
1/2-x,1/2+y,-z
1/2-x,1/2-y,-z
1/2+x,1/2-y,z
loop_
_atom_site_type_symbol
_atom_site_label
_atom_site_fract_x
_atom_site_fract_y
_atom_site_fract_z
Si Si1 0.021877 0.824111 0.294501
Si Si2 0.337657 0.323020 0.568056
Si Si3 0.817823 0.178533 0.110114
Si Si4 0.285623 0.323713 0.658853
Si Si5 0.547140 0.323526 0.497366
Si Si6 0.603311 0.175430 0.911923
Si Si7 0.201608 0.675900 0.172505
Si Si8 0.829736 0.321064 0.282371
O O1 0.091786 0.770685 0.361131
O O2 0.013496 0.796497 0.372186
O O3 0.971155 0.722032 0.180599
O O4 0.010816 0.000000 0.259286
O O5 0.325484 0.500000 0.533803
O O6 0.328513 0.288446 0.643665
O O7 0.287820 0.226121 0.452524
O O8 0.867770 0.216045 0.112447
O O9 0.844801 0.242967 0.223569
O O10 0.808980 0.000000 0.106002
O O11 0.750000 0.250000 0.000000
O O12 0.286137 0.500000 0.680849
O O13 0.316316 0.229146 0.768098
O O14 0.500000 0.265628 0.500000
O O15 0.564475 0.500000 0.532254
O O16 0.613231 0.228868 0.585713
O O17 0.610315 0.000000 0.897295
O O18 0.638953 0.206204 0.038013
O O19 0.221435 0.500000 0.198301
O O20 0.261195 0.771710 0.222014
O O21 0.829217 0.500000 0.271029
#
# Coordination Sequence:
#
# PCOD8100640 Si02
#       8
#     8   8   8   8   8   8   8   8
#     4  10  21  38  60  83 115 159 198 236 292 357
#     4   9  19  37  60  88 120 155 191 233 295 358
#     4  12  23  38  59  83 115 154 196 241 288 342
#     4  10  20  35  60  91 119 147 190 244 292 349
#     4  10  21  37  57  84 118 156 193 235 291 349
#     4  11  24  40  59  84 115 154 198 245 293 344
#     4  11  23  39  58  82 116 153 190 239 297 351
#     4  12  24  37  59  88 117 151 193 243 293 345
#
# _framework density 19.612704000000001
#
# number of rings (size 3 to 8) (size 9 to 14) (size 15 to 20)
#    0.000    1.375    1.250    4.875    0.000    5.250 
#    0.000    0.625    0.000    3.750    0.000    0.000 
#    0.000    0.000    0.000    0.000    0.000    0.000 
#
# Total GULP energy -397002.876515 kJ/mol
# GULP energy per Si atom -12406.339891 kJ/mol
# Density = 1.956806 g / cm^3
# Si number density = 19.612704 Si / 1000 Ang^3
#
#
#
# Elastic Constant Matrix: (Units=GPa)
#
#
# Indices 1 2 3 4 5 6 
#
# 1 98.8948 29.2903 46.2982 0.0000 1.9053 0.0000
# 2 29.2903 109.0872 50.4302 0.0000 -2.5082 0.0000
# 3 46.2982 50.4302 113.5633 0.0000 0.9349 0.0000
# 4 0.0000 0.0000 0.0000 36.7574 0.0000 0.1950
# 5 1.9053 -2.5082 0.9349 0.0000 33.4025 0.0000
# 6 0.0000 0.0000 0.0000 0.1950 0.0000 29.5549
#
#
#
# Elastic Compliance Matrix: (Units=1/GPa)
#
#
# Indices 1 2 3 4 5 6 
#
# 1 0.012652 -0.001297 -0.004576 0.000000 -0.000691 0.000000
# 2 -0.001297 0.011702 -0.004677 0.000000 0.001084 0.000000
# 3 -0.004576 -0.004677 0.012752 0.000000 -0.000447 0.000000
# 4 0.000000 0.000000 0.000000 0.027206 0.000000 -0.000180
# 5 -0.000691 0.001084 -0.000447 0.000000 0.030071 0.000000
# 6 0.000000 0.000000 0.000000 -0.000180 0.000000 0.033836
#
#
# Mechanical properties :
#
#
# Convention : Reuss Voigt Hill
#
# Bulk Modulus (GPa) = 62.47901 63.73142 63.10521
# Shear Modulus (GPa) = 32.33006 32.97808 32.65407
#
# Velocity S-wave (km/s) = 4.06448 4.10502 4.08480
# Velocity P-wave (km/s) = 7.34522 7.41847 7.38194
#
# Compressibility (1/GPa) = 0.01600538
#
# Stress axis : x y z
#
# Youngs Moduli (GPa) = 79.04109 85.45390 78.42101
#
# Poissons Ratio (x) = 0.11087 0.35886
# Poissons Ratio (y) = 0.10255 0.36674
# Poissons Ratio (z) = 0.36170 0.39963
#
# Static dielectric constant tensor:
#      x y z
#    x 3.765310 0.000000 -0.027480 
#    y 0.000000 3.594980 0.000000 
#    z -0.027480 0.000000 3.653810 
# 
# 
# High freq. dielectric constant tensor:
#      x y z
#    x 1.759200 0.000000 -0.003850 
#    y 0.000000 1.768430 0.000000 
#    z -0.003850 0.000000 1.767780 
# 
# From -- ./inp_files/295680.got.cif
#   From: 2010.06.25/outbox.cif.g09.slc.cpg/sg12_148_cif.got.tgz:295680.got - 2010.06.28 00:19:55.
