data_PCOD8100454
_publ_section_title
;
Structure prediction by ZEFSAII (Michael W. Deem and Ramdas Pophale) SiO2 
 PCOD8100454
Probable space group: C 2/M
;
_chemical_formula_sum "Si O2"
_cell_formula_units_Z 64
_cell_length_a 20.555519
_cell_length_b 12.946119
_cell_length_c 20.369711
_cell_angle_alpha 90.000000
_cell_angle_beta 37.788184
_cell_angle_gamma 90.000000
_cell_volume 3321.483036
_symmetry_space_group_name_H-M "C 2/M"
_symmetry_group_IT_number 12
_symmetry_cell_setting 'monoclinic'
loop_
_space_group_symop_operation_xyz
x,y,z
-x,y,-z
-x,-y,-z
x,-y,z
1/2+x,1/2+y,z
1/2-x,1/2+y,-z
1/2-x,1/2-y,-z
1/2+x,1/2-y,z
loop_
_atom_site_type_symbol
_atom_site_label
_atom_site_fract_x
_atom_site_fract_y
_atom_site_fract_z
Si Si1 0.433264 0.883653 0.188625
Si Si2 0.873813 0.880654 0.096014
Si Si3 0.628292 0.251794 0.026475
Si Si4 0.343334 0.882344 0.400306
Si Si5 0.421210 0.381337 0.671216
Si Si6 0.141933 0.777958 0.503314
Si Si7 0.331276 0.618413 0.885276
Si Si8 0.255297 0.267178 0.713328
O O1 0.521021 0.805772 0.091241
O O2 0.420776 0.867485 0.276606
O O3 0.323961 0.862046 0.237761
O O4 0.467792 0.000000 0.144771
O O5 0.811595 0.829935 0.206505
O O6 0.841096 0.000000 0.119757
O O7 0.832614 0.825183 0.063177
O O8 0.000000 0.867367 0.000000
O O9 0.605750 0.321359 0.108233
O O10 0.714289 0.164171 0.971455
O O11 0.223831 0.850963 0.476594
O O12 0.389592 0.816208 0.423827
O O13 0.341149 0.000000 0.425641
O O14 0.408261 0.500000 0.658214
O O15 0.540966 0.345537 0.563002
O O16 0.398742 0.369859 0.765883
O O17 0.342308 0.307312 0.694795
O O18 0.191338 0.731011 0.397285
O O19 0.318893 0.500000 0.916195
#
# Coordination Sequence:
#
# PCOD8100454 Si02
#       8
#     8   8   8   8   8   8   8   8
#     4  10  20  35  59  86 114 148 189 238 295 348
#     4  11  23  41  62  85 116 156 196 237 290 348
#     4  11  20  38  60  83 119 149 193 239 291 344
#     4   9  19  37  58  85 115 149 191 239 293 347
#     4  11  22  38  59  87 120 154 193 240 294 346
#     4  10  21  36  60  85 117 152 194 242 289 342
#     4  10  22  36  57  87 116 151 193 238 289 347
#     4  11  22  39  57  86 116 152 197 240 286 344
#
# _framework density 19.268502000000002
#
# number of rings (size 3 to 8) (size 9 to 14) (size 15 to 20)
#    0.000    1.625    2.500    2.625    0.000    2.500 
#    0.000    1.250    0.000    1.500    0.000    0.000 
#    0.000    0.000    0.000    0.000    0.000    0.000 
#
# Total GULP energy -396923.550498 kJ/mol
# GULP energy per Si atom -12403.860953 kJ/mol
# Density = 1.922465 g / cm^3
# Si number density = 19.268502 Si / 1000 Ang^3
#
#
#
# Elastic Constant Matrix: (Units=GPa)
#
#
# Indices 1 2 3 4 5 6 
#
# 1 65.2968 29.2122 22.5690 0.0000 1.1684 0.0000
# 2 29.2122 123.3210 44.7005 0.0000 5.4414 0.0000
# 3 22.5690 44.7005 83.8894 0.0000 5.5879 0.0000
# 4 0.0000 0.0000 0.0000 31.0430 0.0000 2.8271
# 5 1.1684 5.4414 5.5879 0.0000 28.2529 0.0000
# 6 0.0000 0.0000 0.0000 2.8271 0.0000 18.4272
#
#
#
# Elastic Compliance Matrix: (Units=1/GPa)
#
#
# Indices 1 2 3 4 5 6 
#
# 1 0.017782 -0.003083 -0.003173 0.000000 0.000486 0.000000
# 2 -0.003083 0.010607 -0.004757 0.000000 -0.000974 0.000000
# 3 -0.003173 -0.004757 0.015443 0.000000 -0.002007 0.000000
# 4 0.000000 0.000000 0.000000 0.032670 0.000000 -0.005012
# 5 0.000486 -0.000974 -0.002007 0.000000 0.035959 0.000000
# 6 0.000000 0.000000 0.000000 -0.005012 0.000000 0.055037
#
#
# Mechanical properties :
#
#
# Convention : Reuss Voigt Hill
#
# Bulk Modulus (GPa) = 45.86419 51.71895 48.79157
# Shear Modulus (GPa) = 25.40733 27.27965 26.34349
#
# Velocity S-wave (km/s) = 3.63518 3.76675 3.70155
# Velocity P-wave (km/s) = 6.44001 6.76885 6.60648
#
# Compressibility (1/GPa) = 0.02180350
#
# Stress axis : x y z
#
# Youngs Moduli (GPa) = 56.23571 94.27976 64.75503
#
# Poissons Ratio (x) = 0.29071 0.20549
# Poissons Ratio (y) = 0.17340 0.30806
# Poissons Ratio (z) = 0.17846 0.44852
#
# Static dielectric constant tensor:
#      x y z
#    x 3.443740 0.000000 0.115590 
#    y 0.000000 3.530080 0.000000 
#    z 0.115590 0.000000 3.513650 
# 
# 
# High freq. dielectric constant tensor:
#      x y z
#    x 1.748280 0.000000 0.005700 
#    y 0.000000 1.750790 0.000000 
#    z 0.005700 0.000000 1.753170 
# 
# From -- ./inp_files/321237.got.cif
#   From: 2010.06.25/outbox.cif.g09.slc.cpg/sg12_161_cif.got.tgz:321237.got - 2010.06.28 00:19:55.
