data_PCOD8100009
_publ_section_title
;
Structure prediction by ZEFSAII (Michael W. Deem and Ramdas Pophale) SiO2 
 PCOD8100009
Probable space group: C 2/M
;
_chemical_formula_sum "Si O2"
_cell_formula_units_Z 48
_cell_length_a 20.516248
_cell_length_b 8.847483
_cell_length_c 15.042613
_cell_angle_alpha 90.000000
_cell_angle_beta 111.855151
_cell_angle_gamma 90.000000
_cell_volume 2534.246188
_symmetry_space_group_name_H-M "C 2/M"
_symmetry_group_IT_number 12
_symmetry_cell_setting 'monoclinic'
loop_
_space_group_symop_operation_xyz
x,y,z
-x,y,-z
-x,-y,-z
x,-y,z
1/2+x,1/2+y,z
1/2-x,1/2+y,-z
1/2-x,1/2-y,-z
1/2+x,1/2-y,z
loop_
_atom_site_type_symbol
_atom_site_label
_atom_site_fract_x
_atom_site_fract_y
_atom_site_fract_z
Si Si1 0.421563 0.179691 0.462448
Si Si2 0.820244 0.323779 0.766433
Si Si3 0.177882 0.823849 0.932597
Si Si4 0.678057 0.823413 0.434947
Si Si5 0.080847 0.174605 0.048529
Si Si6 0.324567 0.820934 0.252588
O O1 0.500000 0.248450 0.500000
O O2 0.384265 0.237996 0.533602
O O3 0.377691 0.237948 0.355288
O O4 0.424894 0.000000 0.462436
O O5 0.802580 0.500000 0.768678
O O6 0.840241 0.282883 0.675531
O O7 0.886776 0.279653 0.859084
O O8 0.754022 0.227376 0.763881
O O9 0.151013 0.751972 0.827310
O O10 0.191829 0.000000 0.925817
O O11 0.250000 0.750000 0.000000
O O12 0.117723 0.791512 0.973643
O O13 0.750000 0.750000 0.500000
O O14 0.687430 0.000000 0.454424
O O15 0.090313 0.000000 0.080686
O O16 0.000000 0.220022 0.000000
O O17 0.326155 0.000000 0.243771
#
# Coordination Sequence:
#
# PCOD8100009 Si02
#       6
#     8   8   8   8   8   8
#     4   9  19  36  57  83 116 152 191 235 285 340
#     4  11  22  35  58  88 117 150 193 244 288 338
#     4  11  22  37  60  87 117 151 193 239 286 343
#     4  10  20  35  57  85 114 149 191 235 283 336
#     4  10  23  42  61  83 116 156 193 234 290 349
#     4  11  21  35  60  87 114 154 196 238 287 342
#
# _framework density 18.940543000000002
#
# number of rings (size 3 to 8) (size 9 to 14) (size 15 to 20)
#    0.000    1.667    3.333    1.500    0.000    3.000 
#    0.000    1.667    0.000    4.500    0.000    0.000 
#    0.000    0.000    0.000    0.000    0.000    0.000 
#
# Total GULP energy -297685.156769 kJ/mol
# GULP energy per Si atom -12403.548199 kJ/mol
# Density = 1.889743 g / cm^3
# Si number density = 18.940543 Si / 1000 Ang^3
#
#
#
# Elastic Constant Matrix: (Units=GPa)
#
#
# Indices 1 2 3 4 5 6 
#
# 1 152.8749 34.8052 75.2329 0.0000 -3.1231 0.0000
# 2 34.8052 61.9193 49.5073 0.0000 -7.5265 0.0000
# 3 75.2329 49.5073 161.0584 0.0000 -11.6659 0.0000
# 4 0.0000 0.0000 0.0000 30.1407 0.0000 -1.6636
# 5 -3.1231 -7.5265 -11.6659 0.0000 34.9320 0.0000
# 6 0.0000 0.0000 0.0000 -1.6636 0.0000 19.3788
#
#
#
# Elastic Compliance Matrix: (Units=1/GPa)
#
#
# Indices 1 2 3 4 5 6 
#
# 1 0.008735 -0.002257 -0.003448 0.000000 -0.000857 0.000000
# 2 -0.002257 0.022207 -0.005575 0.000000 0.002721 0.000000
# 3 -0.003448 -0.005575 0.009658 0.000000 0.001716 0.000000
# 4 0.000000 0.000000 0.000000 0.033336 0.000000 0.002862
# 5 -0.000857 0.002721 0.001716 0.000000 0.029710 0.000000
# 6 0.000000 0.000000 0.000000 0.002862 0.000000 0.051849
#
#
# Mechanical properties :
#
#
# Convention : Reuss Voigt Hill
#
# Bulk Modulus (GPa) = 55.43561 77.21594 66.32578
# Shear Modulus (GPa) = 27.16419 31.31077 29.23748
#
# Velocity S-wave (km/s) = 3.79117 4.07025 3.93319
# Velocity P-wave (km/s) = 6.96389 7.93381 7.46462
#
# Compressibility (1/GPa) = 0.01803895
#
# Stress axis : x y z
#
# Youngs Moduli (GPa) = 114.48650 45.03160 103.54490
#
# Poissons Ratio (x) = 0.10163 0.35707
# Poissons Ratio (y) = 0.25837 0.57724
# Poissons Ratio (z) = 0.39480 0.25104
#
# Static dielectric constant tensor:
#      x y z
#    x 3.615680 0.000000 -0.225980 
#    y 0.000000 3.364490 0.000000 
#    z -0.225980 0.000000 3.919400 
# 
# 
# High freq. dielectric constant tensor:
#      x y z
#    x 1.737870 0.000000 -0.008980 
#    y 0.000000 1.724590 0.000000 
#    z -0.008980 0.000000 1.750670 
# 
# From -- ./inp_files/229894.got.cif
#   From: 2010.06.25/outbox.cif.g09.slc.cpg/sg12_115_cif.got.tgz:229894.got - 2010.06.28 00:19:55.
