data_PCOD8100730
_publ_section_title
;
Structure prediction by ZEFSAII (Michael W. Deem and Ramdas Pophale) SiO2 
 PCOD8100730
Probable space group: C 2/M
;
_chemical_formula_sum "Si O2"
_cell_formula_units_Z 60
_cell_length_a 8.294253
_cell_length_b 20.615395
_cell_length_c 24.458894
_cell_angle_alpha 90.000000
_cell_angle_beta 43.278526
_cell_angle_gamma 90.000000
_cell_volume 2867.094876
_symmetry_space_group_name_H-M "C 2/M"
_symmetry_group_IT_number 12
_symmetry_cell_setting 'monoclinic'
loop_
_space_group_symop_operation_xyz
x,y,z
-x,y,-z
-x,-y,-z
x,-y,z
1/2+x,1/2+y,z
1/2-x,1/2+y,-z
1/2-x,1/2-y,-z
1/2+x,1/2-y,z
loop_
_atom_site_type_symbol
_atom_site_label
_atom_site_fract_x
_atom_site_fract_y
_atom_site_fract_z
Si Si1 0.639606 0.820129 0.522731
Si Si2 0.931869 0.832792 0.927959
Si Si3 0.679862 0.682180 0.697524
Si Si4 0.613516 0.574581 0.795922
Si Si5 0.333803 0.069656 0.326308
Si Si6 0.000000 0.101251 0.500000
Si Si7 0.237159 0.816443 0.270586
Si Si8 0.146404 0.305131 0.098495
O O1 0.500000 0.834480 0.500000
O O2 0.750000 0.750000 0.500000
O O3 0.451403 0.830315 0.617441
O O4 0.864407 0.863243 0.483248
O O5 0.856932 0.772159 0.909432
O O6 0.965559 0.897938 0.884004
O O7 0.177779 0.816165 0.895097
O O8 0.729984 0.843773 0.023596
O O9 0.562301 0.620874 0.757009
O O10 0.653071 0.748577 0.737338
O O11 0.535146 0.692199 0.677410
O O12 0.537384 0.500000 0.803751
O O13 0.890047 0.580908 0.736757
O O14 0.203330 0.062932 0.417387
O O15 0.233024 0.128881 0.317205
O O16 0.292801 0.000000 0.306761
O O17 0.395077 0.834899 0.178606
#
# Coordination Sequence:
#
# PCOD8100730 Si02
#       8
#     8   8   8   8   8   4   8   8
#     4  12  24  39  59  96 132 167 214 278 332 382
#     4  10  20  38  60  94 124 156 206 254 313 375
#     4  12  24  40  64  94 128 163 216 258 323 380
#     4  11  23  42  63  88 127 169 210 257 312 381
#     4  11  24  43  65  90 125 169 214 257 320 389
#     4  12  23  42  66  88 128 172 219 264 327 390
#     4  12  23  39  66  95 126 165 206 267 313 380
#     4  10  20  35  62  94 123 155 202 258 310 365
#
# _framework density 20.927108
#
# number of rings (size 3 to 8) (size 9 to 14) (size 15 to 20)
#    0.000    0.800    4.667    4.200    0.000    0.533 
#    0.000    2.000    0.000    2.800    0.000    0.000 
#    0.000    0.000    0.000    0.000    0.000    0.000 
#
# Total GULP energy -371770.526827 kJ/mol
# GULP energy per Si atom -12392.350894 kJ/mol
# Density = 2.087948 g / cm^3
# Si number density = 20.927108 Si / 1000 Ang^3
#
#
#
# Elastic Constant Matrix: (Units=GPa)
#
#
# Indices 1 2 3 4 5 6 
#
# 1 86.8905 37.1636 -3.4802 0.0088 3.7525 -0.0091
# 2 37.1636 134.3166 31.7609 0.0035 15.5072 -0.0029
# 3 -3.4802 31.7609 119.6895 0.0017 3.8803 -0.0046
# 4 0.0088 0.0035 0.0017 10.2857 -0.0081 6.3954
# 5 3.7525 15.5072 3.8803 -0.0081 28.3012 0.0065
# 6 -0.0091 -0.0029 -0.0046 6.3954 0.0065 21.5313
#
#
#
# Elastic Compliance Matrix: (Units=1/GPa)
#
#
# Indices 1 2 3 4 5 6 
#
# 1 0.013288 -0.004050 0.001453 -0.000016 0.000258 0.000010
# 2 -0.004050 0.009677 -0.002542 -0.000004 -0.004417 0.000002
# 3 0.001453 -0.002542 0.009073 -0.000004 -0.000044 0.000003
# 4 -0.000016 -0.000004 -0.000004 0.119245 0.000047 -0.035419
# 5 0.000258 -0.004417 -0.000044 0.000047 0.037726 -0.000026
# 6 0.000010 0.000002 0.000003 -0.035419 -0.000026 0.056965
#
#
# Mechanical properties :
#
#
# Convention : Reuss Voigt Hill
#
# Bulk Modulus (GPa) = 45.95856 52.42059 49.18957
# Shear Modulus (GPa) = 18.97490 30.38711 24.68101
#
# Velocity S-wave (km/s) = 3.01444 3.81471 3.43794
# Velocity P-wave (km/s) = 5.84163 6.67129 6.27020
#
# Compressibility (1/GPa) = 0.02175873
#
# Stress axis : x y z
#
# Youngs Moduli (GPa) = 75.25614 103.34044 110.21402
#
# Poissons Ratio (x) = 0.41852 -0.16011
# Poissons Ratio (y) = 0.30478 0.28021
# Poissons Ratio (z) = -0.10932 0.26273
#
# Static dielectric constant tensor:
#      x y z
#    x 3.515980 -0.000180 -0.007110 
#    y -0.000180 3.963870 0.000030 
#    z -0.007110 0.000030 4.062250 
# 
# 
# High freq. dielectric constant tensor:
#      x y z
#    x 1.812840 0.000000 -0.003460 
#    y 0.000000 1.794310 0.000000 
#    z -0.003460 0.000000 1.844110 
# 
# From -- ./inp_files/356899.got.cif
#   From: 2010.06.25/outbox.cif.g09.slc.cpg/sg12_179_cif.got.tgz:356899.got - 2010.06.28 00:19:55.
