data_PCOD8100444
_publ_section_title
;
Structure prediction by ZEFSAII (Michael W. Deem and Ramdas Pophale) SiO2 
 PCOD8100444
Probable space group: C 2/M
;
_chemical_formula_sum "Si O2"
_cell_formula_units_Z 56
_cell_length_a 16.890528
_cell_length_b 18.526119
_cell_length_c 13.604273
_cell_angle_alpha 90.000000
_cell_angle_beta 42.197802
_cell_angle_gamma 90.000000
_cell_volume 2859.389376
_symmetry_space_group_name_H-M "C 2/M"
_symmetry_group_IT_number 12
_symmetry_cell_setting 'monoclinic'
loop_
_space_group_symop_operation_xyz
x,y,z
-x,y,-z
-x,-y,-z
x,-y,z
1/2+x,1/2+y,z
1/2-x,1/2+y,-z
1/2-x,1/2-y,-z
1/2+x,1/2-y,z
loop_
_atom_site_type_symbol
_atom_site_label
_atom_site_fract_x
_atom_site_fract_y
_atom_site_fract_z
Si Si1 0.303492 0.166809 0.857761
Si Si2 0.520989 0.085406 0.592627
Si Si3 0.132318 0.583808 0.846215
Si Si4 0.516810 0.582464 0.691732
Si Si5 0.910375 0.918216 0.004101
Si Si6 0.779651 0.415883 0.448792
Si Si7 0.302821 0.670424 0.829067
O O1 0.423266 0.122295 0.749635
O O2 0.324594 0.245103 0.790681
O O3 0.207898 0.127604 0.877703
O O4 0.259772 0.164508 0.008967
O O5 0.500000 0.110891 0.500000
O O6 0.646498 0.111153 0.523398
O O7 0.506971 0.000000 0.615859
O O8 0.162044 0.500000 0.841988
O O9 0.147146 0.601147 0.717210
O O10 0.220244 0.635611 0.823188
O O11 0.000000 0.602498 0.000000
O O12 0.514134 0.500000 0.654860
O O13 0.472908 0.586279 0.842668
O O14 0.647893 0.617749 0.565500
O O15 0.428568 0.630050 0.707119
O O16 0.876518 0.000000 0.063126
O O17 0.000000 0.884832 0.000000
O O18 0.758550 0.500000 0.481407
#
# Coordination Sequence:
#
# PCOD8100444 Si02
#       7
#     8   8   8   8   8   8   8
#     4  10  21  37  54  79 112 145 187 231 272 335
#     4  10  21  37  60  83 110 147 186 234 287 335
#     4  10  20  35  59  86 110 142 190 234 275 330
#     4   9  18  34  55  80 111 142 181 225 274 331
#     4   9  18  31  54  81 105 140 184 230 275 325
#     4   9  19  35  56  85 113 138 177 234 281 326
#     4  10  21  37  56  78 112 153 183 227 281 329
#
# _framework density 19.584602
#
# number of rings (size 3 to 8) (size 9 to 14) (size 15 to 20)
#    0.000    2.429    0.000    1.714    2.000    4.000 
#    2.571    4.286    0.000    0.000    0.000    0.000 
#    0.000    0.000    0.000    0.000    0.000    0.000 
#
# Total GULP energy -347148.956528 kJ/mol
# GULP energy per Si atom -12398.177019 kJ/mol
# Density = 1.954003 g / cm^3
# Si number density = 19.584602 Si / 1000 Ang^3
#
#
#
# Elastic Constant Matrix: (Units=GPa)
#
#
# Indices 1 2 3 4 5 6 
#
# 1 146.1485 47.2508 45.3759 0.0000 -23.3044 0.0000
# 2 47.2508 59.5002 35.4070 0.0001 -9.7331 0.0000
# 3 45.3759 35.4070 80.2076 0.0000 -33.0639 0.0000
# 4 0.0000 0.0001 0.0000 15.8660 0.0000 5.5451
# 5 -23.3044 -9.7331 -33.0639 0.0000 30.9009 0.0000
# 6 0.0000 0.0000 0.0000 5.5451 0.0000 8.6575
#
#
#
# Elastic Compliance Matrix: (Units=1/GPa)
#
#
# Indices 1 2 3 4 5 6 
#
# 1 0.009988 -0.006701 -0.000818 0.000000 0.004546 0.000000
# 2 -0.006701 0.028025 -0.012569 0.000000 -0.009675 0.000000
# 3 -0.000818 -0.012569 0.029687 0.000000 0.027189 0.000000
# 4 0.000000 0.000000 0.000000 0.081206 0.000000 -0.052012
# 5 0.004546 -0.009675 0.027189 0.000000 0.061835 0.000000
# 6 0.000000 0.000000 0.000000 -0.052012 0.000000 0.148820
#
#
# Mechanical properties :
#
#
# Convention : Reuss Voigt Hill
#
# Bulk Modulus (GPa) = 36.33205 60.21375 48.27290
# Shear Modulus (GPa) = 12.22763 21.60639 16.91701
#
# Velocity S-wave (km/s) = 2.50141 3.32510 2.94222
# Velocity P-wave (km/s) = 5.18983 6.74936 6.02031
#
# Compressibility (1/GPa) = 0.02752391
#
# Stress axis : x y z
#
# Youngs Moduli (GPa) = 100.12193 35.68269 33.68489
#
# Poissons Ratio (x) = 0.23911 0.02756
# Poissons Ratio (y) = 0.67092 0.42337
# Poissons Ratio (z) = 0.08191 0.44848
#
# Static dielectric constant tensor:
#      x y z
#    x 3.720640 0.000000 -0.177310 
#    y 0.000000 3.492230 0.000000 
#    z -0.177310 0.000000 3.543160 
# 
# 
# High freq. dielectric constant tensor:
#      x y z
#    x 1.772940 0.000000 -0.011030 
#    y 0.000000 1.737550 0.000000 
#    z -0.011030 0.000000 1.761240 
# 
# From -- ./inp_files/226555.got.cif
#   From: 2010.06.25/outbox.cif.g09.slc.cpg/sg12_114_cif.got.tgz:226555.got - 2010.06.28 00:19:55.
