data_PCOD8100662
_publ_section_title
;
Structure prediction by ZEFSAII (Michael W. Deem and Ramdas Pophale) SiO2 
 PCOD8100662
Probable space group: C 2/M
;
_chemical_formula_sum "Si O2"
_cell_formula_units_Z 56
_cell_length_a 12.453480
_cell_length_b 16.435083
_cell_length_c 20.497404
_cell_angle_alpha 90.000000
_cell_angle_beta 140.840854
_cell_angle_gamma 90.000000
_cell_volume 2649.224345
_symmetry_space_group_name_H-M "C 2/M"
_symmetry_group_IT_number 12
_symmetry_cell_setting 'monoclinic'
loop_
_space_group_symop_operation_xyz
x,y,z
-x,y,-z
-x,-y,-z
x,-y,z
1/2+x,1/2+y,z
1/2-x,1/2+y,-z
1/2-x,1/2-y,-z
1/2+x,1/2-y,z
loop_
_atom_site_type_symbol
_atom_site_label
_atom_site_fract_x
_atom_site_fract_y
_atom_site_fract_z
Si Si1 0.011897 0.093657 0.176553
Si Si2 0.973572 0.594028 0.724432
Si Si3 0.081332 0.684840 0.103673
Si Si4 0.811846 0.592902 0.053993
Si Si5 0.393363 0.592685 0.255990
Si Si6 0.322887 0.815932 0.282814
Si Si7 0.872522 0.168788 0.382959
O O1 0.982923 0.134650 0.234512
O O2 0.203307 0.108614 0.244302
O O3 0.982518 0.000000 0.175092
O O4 0.878678 0.120892 0.056771
O O5 0.929057 0.500000 0.685643
O O6 0.814700 0.633425 0.688754
O O7 0.147337 0.596145 0.849456
O O8 0.014498 0.647876 0.679332
O O9 0.191994 0.602569 0.146342
O O10 0.210183 0.752816 0.189027
O O11 0.932189 0.662212 0.082035
O O12 0.000000 0.718566 0.000000
O O13 0.846981 0.500000 0.045978
O O14 0.445135 0.500000 0.288126
O O15 0.444901 0.633781 0.348763
O O16 0.375849 0.766928 0.373598
O O17 0.000000 0.143501 0.500000
#
# Coordination Sequence:
#
# PCOD8100662 Si02
#       7
#     8   8   8   8   8   8   8
#     4  10  22  39  62  92 133 175 211 254 307 380
#     4  11  24  44  67  95 132 172 215 262 314 381
#     4  11  21  31  54  89 127 165 208 261 311 368
#     4  10  20  35  60  92 129 172 214 255 306 370
#     4  10  20  37  62  91 121 158 208 264 317 372
#     4  11  26  41  62  91 131 174 215 258 320 386
#     4  11  26  45  71  95 122 159 211 279 334 383
#
# _framework density 21.138262999999998
#
# number of rings (size 3 to 8) (size 9 to 14) (size 15 to 20)
#    0.000    1.429    4.286    1.286    6.000    2.857 
#    0.000    2.143    0.000    0.857    0.000    0.000 
#    0.000    0.000    0.000    0.000    0.000    0.000 
#
# Total GULP energy -346887.708871 kJ/mol
# GULP energy per Si atom -12388.846745 kJ/mol
# Density = 2.109015 g / cm^3
# Si number density = 21.138263 Si / 1000 Ang^3
#
#
#
# Elastic Constant Matrix: (Units=GPa)
#
#
# Indices 1 2 3 4 5 6 
#
# 1 89.7629 30.1459 18.4507 0.0001 -6.7399 0.0000
# 2 30.1459 66.3403 11.3592 0.0000 -4.8978 0.0000
# 3 18.4507 11.3592 105.5900 0.0001 -12.9035 0.0001
# 4 0.0001 0.0000 0.0001 20.2633 0.0001 -4.7594
# 5 -6.7399 -4.8978 -12.9035 0.0001 18.0090 0.0000
# 6 0.0000 0.0000 0.0001 -4.7594 0.0000 35.2039
#
#
#
# Elastic Compliance Matrix: (Units=1/GPa)
#
#
# Indices 1 2 3 4 5 6 
#
# 1 0.013547 -0.005725 -0.001449 0.000000 0.002475 0.000000
# 2 -0.005725 0.017955 -0.000653 0.000000 0.002272 0.000000
# 3 -0.001449 -0.000653 0.010637 0.000000 0.006902 0.000000
# 4 0.000000 0.000000 0.000000 0.050969 0.000000 0.006891
# 5 0.002475 0.002272 0.006902 0.000000 0.062017 0.000000
# 6 0.000000 0.000000 0.000000 0.006891 0.000000 0.029338
#
#
# Mechanical properties :
#
#
# Convention : Reuss Voigt Hill
#
# Bulk Modulus (GPa) = 37.75793 42.40055 40.07924
# Shear Modulus (GPa) = 23.92967 28.14439 26.03703
#
# Velocity S-wave (km/s) = 3.36825 3.65285 3.51344
# Velocity P-wave (km/s) = 5.74700 6.15576 5.95488
#
# Compressibility (1/GPa) = 0.02648450
#
# Stress axis : x y z
#
# Youngs Moduli (GPa) = 73.81826 55.69478 94.00712
#
# Poissons Ratio (x) = 0.31886 0.13620
# Poissons Ratio (y) = 0.42261 0.06143
# Poissons Ratio (z) = 0.10695 0.03640
#
# Static dielectric constant tensor:
#      x y z
#    x 3.746810 0.000000 -0.106540 
#    y 0.000000 3.843220 0.000000 
#    z -0.106540 0.000000 3.828170 
# 
# 
# High freq. dielectric constant tensor:
#      x y z
#    x 1.819120 0.000000 -0.013510 
#    y 0.000000 1.827560 0.000000 
#    z -0.013510 0.000000 1.808190 
# 
# From -- ./inp_files/264333.got.cif
#   From: 2010.06.25/outbox.cif.g09.slc.cpg/sg12_133_cif.got.tgz:264333.got - 2010.06.28 00:19:55.
