data_PCOD8100774
_publ_section_title
;
Structure prediction by ZEFSAII (Michael W. Deem and Ramdas Pophale) SiO2 
 PCOD8100774
Probable space group: C 2/M
;
_chemical_formula_sum "Si O2"
_cell_formula_units_Z 48
_cell_length_a 21.764246
_cell_length_b 22.880903
_cell_length_c 5.452805
_cell_angle_alpha 90.000000
_cell_angle_beta 118.318345
_cell_angle_gamma 90.000000
_cell_volume 2390.452081
_symmetry_space_group_name_H-M "C 2/M"
_symmetry_group_IT_number 12
_symmetry_cell_setting 'monoclinic'
loop_
_space_group_symop_operation_xyz
x,y,z
-x,y,-z
-x,-y,-z
x,-y,z
1/2+x,1/2+y,z
1/2-x,1/2+y,-z
1/2-x,1/2-y,-z
1/2+x,1/2-y,z
loop_
_atom_site_type_symbol
_atom_site_label
_atom_site_fract_x
_atom_site_fract_y
_atom_site_fract_z
Si Si1 0.232152 0.065434 0.546995
Si Si2 0.430183 0.228887 0.263131
Si Si3 0.932224 0.841694 0.002075
Si Si4 0.665819 0.280528 0.531664
Si Si5 0.811397 0.675036 0.771805
Si Si6 0.852653 0.065820 0.118331
O O1 0.299244 0.108303 0.667873
O O2 0.196013 0.069534 0.214104
O O3 0.260546 0.000000 0.642129
O O4 0.184043 0.081880 0.692890
O O5 0.500000 0.198169 0.500000
O O6 0.388424 0.273653 0.354983
O O7 0.456626 0.275806 0.115107
O O8 0.378960 0.177654 0.075628
O O9 0.862699 0.831620 0.703368
O O10 0.913305 0.886123 0.188053
O O11 0.000000 0.870134 0.000000
O O12 0.741377 0.301156 0.774067
O O13 0.673408 0.216347 0.429244
O O14 0.883693 0.000000 0.195297
#
# Coordination Sequence:
#
# PCOD8100774 Si02
#       6
#     8   8   8   8   8   8
#     4  10  21  39  61  86 115 150 196 248 297 341
#     4  11  22  35  55  81 119 152 189 238 300 354
#     4  11  21  34  55  78 117 159 194 237 285 347
#     4  10  20  36  52  85 112 148 195 234 293 347
#     4  10  21  33  59  84 111 148 192 247 285 352
#     4  10  22  38  58  84 117 155 199 246 286 336
#
# _framework density 20.079882000000001
#
# number of rings (size 3 to 8) (size 9 to 14) (size 15 to 20)
#    0.000    1.667    3.333    1.500    2.333    0.333 
#    0.000    0.000    0.000    4.000    0.000    1.167 
#    0.000    0.000    0.000    0.000    0.000    0.000 
#
# Total GULP energy -297360.896417 kJ/mol
# GULP energy per Si atom -12390.037351 kJ/mol
# Density = 2.003418 g / cm^3
# Si number density = 20.079882 Si / 1000 Ang^3
#
#
#
# Elastic Constant Matrix: (Units=GPa)
#
#
# Indices 1 2 3 4 5 6 
#
# 1 63.1877 23.7796 35.3749 0.0000 12.6516 0.0000
# 2 23.7796 94.0018 10.9421 0.0000 7.9332 0.0000
# 3 35.3749 10.9421 80.3944 0.0000 13.0540 0.0000
# 4 0.0000 0.0000 0.0000 19.9937 0.0000 -3.1637
# 5 12.6516 7.9332 13.0540 0.0000 40.9821 0.0000
# 6 0.0000 0.0000 0.0000 -3.1637 0.0000 18.6651
#
#
#
# Elastic Compliance Matrix: (Units=1/GPa)
#
#
# Indices 1 2 3 4 5 6 
#
# 1 0.023307 -0.004550 -0.009081 0.000000 -0.003422 0.000000
# 2 -0.004550 0.011813 0.000567 0.000000 -0.001063 0.000000
# 3 -0.009081 0.000567 0.016788 0.000000 -0.002654 0.000000
# 4 0.000000 0.000000 0.000000 0.051394 0.000000 0.008711
# 5 -0.003422 -0.001063 -0.002654 0.000000 0.026508 0.000000
# 6 0.000000 0.000000 0.000000 0.008711 0.000000 0.055052
#
#
# Mechanical properties :
#
#
# Convention : Reuss Voigt Hill
#
# Bulk Modulus (GPa) = 38.78941 41.97526 40.38234
# Shear Modulus (GPa) = 22.77034 27.09401 24.93217
#
# Velocity S-wave (km/s) = 3.37113 3.67728 3.52753
# Velocity P-wave (km/s) = 5.87470 6.24335 6.06183
#
# Compressibility (1/GPa) = 0.02578023
#
# Stress axis : x y z
#
# Youngs Moduli (GPa) = 42.90547 84.65363 59.56618
#
# Poissons Ratio (x) = 0.38519 0.54089
# Poissons Ratio (y) = 0.19523 -0.03377
# Poissons Ratio (z) = 0.38961 -0.04799
#
# Static dielectric constant tensor:
#      x y z
#    x 3.522210 0.000000 -0.072680 
#    y 0.000000 3.727410 0.000000 
#    z -0.072680 0.000000 3.695280 
# 
# 
# High freq. dielectric constant tensor:
#      x y z
#    x 1.770250 0.000000 -0.014210 
#    y 0.000000 1.772560 0.000000 
#    z -0.014210 0.000000 1.778660 
# 
# From -- ./inp_files/16575.got.cif
#   From: 2010.06.25/outbox.cif.g09.slc.cpg/sg12_9_cif.got.tgz:16575.got - 2010.06.28 00:19:55.
