data_PCOD8100642
_publ_section_title
;
Structure prediction by ZEFSAII (Michael W. Deem and Ramdas Pophale) SiO2 
 PCOD8100642
Probable space group: C 2/M
;
_chemical_formula_sum "Si O2"
_cell_formula_units_Z 56
_cell_length_a 28.282852
_cell_length_b 8.554203
_cell_length_c 19.565089
_cell_angle_alpha 90.000000
_cell_angle_beta 142.779202
_cell_angle_gamma 90.000000
_cell_volume 2863.252845
_symmetry_space_group_name_H-M "C 2/M"
_symmetry_group_IT_number 12
_symmetry_cell_setting 'monoclinic'
loop_
_space_group_symop_operation_xyz
x,y,z
-x,y,-z
-x,-y,-z
x,-y,z
1/2+x,1/2+y,z
1/2-x,1/2+y,-z
1/2-x,1/2-y,-z
1/2+x,1/2-y,z
loop_
_atom_site_type_symbol
_atom_site_label
_atom_site_fract_x
_atom_site_fract_y
_atom_site_fract_z
Si Si1 0.552859 0.680837 0.763734
Si Si2 0.053995 0.818915 0.923041
Si Si3 0.255239 0.317872 0.672884
Si Si4 0.610345 0.183073 0.413890
Si Si5 0.296726 0.817176 0.117587
Si Si6 0.212097 0.682086 0.148746
Si Si7 0.391384 0.818598 0.744633
O O1 0.567441 0.500000 0.764267
O O2 0.570385 0.720284 0.862830
O O3 0.464464 0.725798 0.642731
O O4 0.611370 0.783782 0.785528
O O5 0.981087 0.718698 0.866510
O O6 0.034081 0.000000 0.910453
O O7 0.130132 0.773609 0.053366
O O8 0.249614 0.500000 0.683818
O O9 0.185098 0.263786 0.542968
O O10 0.246379 0.220026 0.731968
O O11 0.336881 0.283946 0.730125
O O12 0.625723 0.230732 0.353165
O O13 0.593113 0.000000 0.399698
O O14 0.269402 0.734932 0.154982
O O15 0.279919 0.000000 0.104174
O O16 0.250000 0.750000 0.000000
O O17 0.194675 0.500000 0.121524
O O18 0.374081 0.000000 0.737881
#
# Coordination Sequence:
#
# PCOD8100642 Si02
#       7
#     8   8   8   8   8   8   8
#     4  10  20  35  60  91 120 150 191 242 292 342
#     4  10  20  36  58  86 119 153 192 239 293 350
#     4  11  23  40  59  83 118 159 199 241 293 350
#     4   9  20  38  61  87 118 155 196 243 292 344
#     4  12  23  38  62  90 120 153 192 237 288 348
#     4  12  25  40  59  85 119 156 195 242 294 350
#     4  10  20  36  60  89 118 151 197 244 291 347
#
# _framework density 19.558174999999999
#
# number of rings (size 3 to 8) (size 9 to 14) (size 15 to 20)
#    0.000    1.429    1.429    4.714    0.000    3.429 
#    0.000    3.571    0.000    4.286    0.000    0.000 
#    0.000    0.000    0.000    0.000    0.000    0.000 
#
# Total GULP energy -347402.307028 kJ/mol
# GULP energy per Si atom -12407.225251 kJ/mol
# Density = 1.951366 g / cm^3
# Si number density = 19.558175 Si / 1000 Ang^3
#
#
#
# Elastic Constant Matrix: (Units=GPa)
#
#
# Indices 1 2 3 4 5 6 
#
# 1 105.4959 22.6456 42.5879 0.0000 0.6345 0.0000
# 2 22.6456 60.2760 18.3432 0.0000 -0.9645 0.0000
# 3 42.5879 18.3432 57.0373 0.0000 -2.0854 0.0000
# 4 0.0000 0.0000 0.0000 31.6007 0.0000 3.4265
# 5 0.6345 -0.9645 -2.0854 0.0000 24.9102 0.0000
# 6 0.0000 0.0000 0.0000 3.4265 0.0000 35.5053
#
#
#
# Elastic Compliance Matrix: (Units=1/GPa)
#
#
# Indices 1 2 3 4 5 6 
#
# 1 0.013885 -0.002292 -0.009676 0.000000 -0.001252 0.000000
# 2 -0.002292 0.018770 -0.004310 0.000000 0.000424 0.000000
# 3 -0.009676 -0.004310 0.026226 0.000000 0.002275 0.000000
# 4 0.000000 0.000000 0.000000 0.031979 0.000000 -0.003086
# 5 -0.001252 0.000424 0.002275 0.000000 0.040383 0.000000
# 6 0.000000 0.000000 0.000000 -0.003086 0.000000 0.028463
#
#
# Mechanical properties :
#
#
# Convention : Reuss Voigt Hill
#
# Bulk Modulus (GPa) = 37.98551 43.32919 40.65735
# Shear Modulus (GPa) = 24.87120 27.68541 26.27831
#
# Velocity S-wave (km/s) = 3.56989 3.76645 3.66949
# Velocity P-wave (km/s) = 6.03789 6.41225 6.22789
#
# Compressibility (1/GPa) = 0.02632583
#
# Stress axis : x y z
#
# Youngs Moduli (GPa) = 72.02194 53.27734 38.12975
#
# Poissons Ratio (x) = 0.12211 0.36894
# Poissons Ratio (y) = 0.16507 0.16432
# Poissons Ratio (z) = 0.69688 0.22960
#
# Static dielectric constant tensor:
#      x y z
#    x 3.578930 0.000000 0.088330 
#    y 0.000000 3.584300 0.000000 
#    z 0.088330 0.000000 3.547440 
# 
# 
# High freq. dielectric constant tensor:
#      x y z
#    x 1.761230 0.000000 0.011620 
#    y 0.000000 1.772050 0.000000 
#    z 0.011620 0.000000 1.754160 
# 
# From -- ./inp_files/288203.got.cif
#   From: 2010.06.25/outbox.cif.g09.slc.cpg/sg12_145_cif.got.tgz:288203.got - 2010.06.28 00:19:55.
