data_PCOD8100930
_publ_section_title
;
Structure prediction by ZEFSAII (Michael W. Deem and Ramdas Pophale) SiO2 
 PCOD8100930
Probable space group: C 2/M
;
_chemical_formula_sum "Si O2"
_cell_formula_units_Z 48
_cell_length_a 25.527989
_cell_length_b 13.852617
_cell_length_c 7.606962
_cell_angle_alpha 90.000000
_cell_angle_beta 65.721292
_cell_angle_gamma 90.000000
_cell_volume 2452.127782
_symmetry_space_group_name_H-M "C 2/M"
_symmetry_group_IT_number 12
_symmetry_cell_setting 'monoclinic'
loop_
_space_group_symop_operation_xyz
x,y,z
-x,y,-z
-x,-y,-z
x,-y,z
1/2+x,1/2+y,z
1/2-x,1/2+y,-z
1/2-x,1/2-y,-z
1/2+x,1/2-y,z
loop_
_atom_site_type_symbol
_atom_site_label
_atom_site_fract_x
_atom_site_fract_y
_atom_site_fract_z
Si Si1 0.439694 0.249486 0.293582
Si Si2 0.246540 0.611022 0.140907
Si Si3 0.187137 0.698874 0.896564
Si Si4 0.067501 0.104391 0.402466
Si Si5 0.161789 0.611138 0.575589
Si Si6 0.931653 0.766924 0.911223
O O1 0.412781 0.323384 0.471368
O O2 0.402624 0.152496 0.355162
O O3 0.506835 0.223312 0.237807
O O4 0.434845 0.300391 0.109733
O O5 0.269000 0.500000 0.118500
O O6 0.296657 0.687334 0.115472
O O7 0.195146 0.627813 0.348581
O O8 0.223752 0.632588 0.976429
O O9 0.197032 0.662649 0.684033
O O10 0.119270 0.688168 0.038257
O O11 0.085567 0.142575 0.186106
O O12 0.000000 0.091553 0.500000
O O13 0.097320 0.000000 0.390043
O O14 0.155163 0.500000 0.633102
#
# Coordination Sequence:
#
# PCOD8100930 Si02
#       6
#     8   8   8   8   8   8
#     4   9  18  33  51  76 107 137 171 213 259 309
#     4  10  21  36  55  79 105 137 178 219 260 307
#     4  10  20  36  56  77 106 139 172 217 264 307
#     4   9  17  29  47  70  99 137 174 207 248 300
#     4  10  20  36  57  79 105 138 175 215 261 311
#     4   9  18  32  51  74 105 139 171 210 258 309
#
# _framework density 19.574836999999999
#
# number of rings (size 3 to 8) (size 9 to 14) (size 15 to 20)
#    0.000    2.500    0.000    2.000    0.000    1.333 
#    0.000   13.333    0.000   13.500    0.000    0.000 
#    0.000    0.000    0.000    0.000    0.000    0.000 
#
# Total GULP energy -297476.894214 kJ/mol
# GULP energy per Si atom -12394.870592 kJ/mol
# Density = 1.953028 g / cm^3
# Si number density = 19.574837 Si / 1000 Ang^3
#
#
#
# Elastic Constant Matrix: (Units=GPa)
#
#
# Indices 1 2 3 4 5 6 
#
# 1 70.5503 41.9489 23.0157 0.0000 3.9776 0.0000
# 2 41.9489 108.2822 35.8524 0.0000 6.0411 0.0000
# 3 23.0157 35.8524 77.3212 0.0000 5.4368 0.0000
# 4 0.0000 0.0000 0.0000 -47.1534 0.0000 97.4970
# 5 3.9776 6.0411 5.4368 0.0000 24.2885 0.0000
# 6 0.0000 0.0000 0.0000 97.4970 0.0000 -101.5178
#
#
#
# Elastic Compliance Matrix: (Units=1/GPa)
#
#
# Indices 1 2 3 4 5 6 
#
# 1 0.018879 -0.006407 -0.002584 0.000000 -0.000920 0.000000
# 2 -0.006407 0.013146 -0.004097 0.000000 -0.001303 0.000000
# 3 -0.002584 -0.004097 0.015748 0.000000 -0.002083 0.000000
# 4 0.000000 0.000000 0.000000 0.021514 0.000000 0.020662
# 5 -0.000920 -0.001303 -0.002083 0.000000 0.042113 0.000000
# 6 0.000000 0.000000 0.000000 0.020662 0.000000 0.009993
#
#
# Mechanical properties :
#
#
# Convention : Reuss Voigt Hill
#
# Bulk Modulus (GPa) = 46.30132 50.86532 48.58332
# Shear Modulus (GPa) = 32.30650 -14.52076 8.89287
#
# Velocity S-wave (km/s) = 4.06693 -2.72657 2.13375
# Velocity P-wave (km/s) = 6.76447 4.01612 5.56270
#
# Compressibility (1/GPa) = 0.02159766
#
# Stress axis : x y z
#
# Youngs Moduli (GPa) = 52.97015 76.06667 63.49830
#
# Poissons Ratio (x) = 0.48734 0.16409
# Poissons Ratio (y) = 0.33936 0.26015
# Poissons Ratio (z) = 0.13688 0.31165
#
# Static dielectric constant tensor:
#      x y z
#    x 3.556510 0.000000 0.069890 
#    y 0.000000 3.521900 0.000000 
#    z 0.069890 0.000000 3.789890 
# 
# 
# High freq. dielectric constant tensor:
#      x y z
#    x 1.756770 0.000000 0.008930 
#    y 0.000000 1.740220 0.000000 
#    z 0.008930 0.000000 1.775540 
# 
# From -- ./inp_files/102420.got.cif
#   From: 2010.06.25/outbox.cif.g09.slc.cpg/sg12_52_cif.got.tgz:102420.got - 2010.06.28 00:19:55.
