data_PCOD8100066
_publ_section_title
;
Structure prediction by ZEFSAII (Michael W. Deem and Ramdas Pophale) SiO2 
 PCOD8100066
Probable space group: C 2/M
;
_chemical_formula_sum "Si O2"
_cell_formula_units_Z 64
_cell_length_a 29.921510
_cell_length_b 8.955006
_cell_length_c 22.362453
_cell_angle_alpha 90.000000
_cell_angle_beta 148.142386
_cell_angle_gamma 90.000000
_cell_volume 3162.616698
_symmetry_space_group_name_H-M "C 2/M"
_symmetry_group_IT_number 12
_symmetry_cell_setting 'monoclinic'
loop_
_space_group_symop_operation_xyz
x,y,z
-x,y,-z
-x,-y,-z
x,-y,z
1/2+x,1/2+y,z
1/2-x,1/2+y,-z
1/2-x,1/2-y,-z
1/2+x,1/2-y,z
loop_
_atom_site_type_symbol
_atom_site_label
_atom_site_fract_x
_atom_site_fract_y
_atom_site_fract_z
Si Si1 0.017583 0.827764 0.640122
Si Si2 0.142681 0.829513 0.005274
Si Si3 0.505386 0.324358 0.249542
Si Si4 0.189730 0.827105 0.771840
Si Si5 0.281658 0.826847 0.696010
Si Si6 0.364142 0.176349 0.411060
Si Si7 0.910575 0.170417 0.923527
Si Si8 0.331219 0.825254 0.620636
O O1 0.004053 0.775188 0.692601
O O2 0.114604 0.799271 0.733334
O O3 0.959640 0.732334 0.529311
O O4 0.992459 0.000000 0.603302
O O5 0.224876 0.725280 0.098533
O O6 0.088782 0.812797 0.004636
O O7 0.172605 0.000000 0.030360
O O8 0.081114 0.777770 0.881989
O O9 0.522004 0.500000 0.261548
O O10 0.583591 0.238922 0.309908
O O11 0.174082 0.733321 0.694455
O O12 0.197205 0.000000 0.762480
O O13 0.193060 0.737642 0.599186
O O14 0.339363 0.778429 0.816893
O O15 0.330039 0.789670 0.689819
O O16 0.259419 0.000000 0.676045
O O17 0.362313 0.000000 0.408512
O O18 0.891512 0.000000 0.882049
O O19 0.000000 0.224942 0.000000
O O20 0.250000 0.750000 0.500000
O O21 0.327103 0.000000 0.602908
#
# Coordination Sequence:
#
# PCOD8100066 Si02
#       8
#     8   8   8   8   8   8   8   8
#     4  10  23  42  63  89 121 161 206 250 306 369
#     4  10  21  38  61  90 124 161 203 251 299 357
#     4  10  22  42  65  89 123 165 206 251 302 360
#     4  11  23  40  63  90 123 162 202 251 309 367
#     4  11  23  38  58  86 120 158 197 243 301 361
#     4  12  24  39  62  92 123 156 202 258 312 367
#     4  10  20  35  57  86 118 155 198 242 292 352
#     4  11  24  40  60  89 123 161 206 252 301 361
#
# _framework density 20.236408999999998
#
# number of rings (size 3 to 8) (size 9 to 14) (size 15 to 20)
#    0.000    1.375    1.250    4.125    0.000   10.250 
#    0.000    0.000    0.000    0.000    0.000    0.000 
#    0.000    0.000    0.000    0.000    0.000    0.000 
#
# Total GULP energy -396998.388652 kJ/mol
# GULP energy per Si atom -12406.199645 kJ/mol
# Density = 2.019035 g / cm^3
# Si number density = 20.236409 Si / 1000 Ang^3
#
#
#
# Elastic Constant Matrix: (Units=GPa)
#
#
# Indices 1 2 3 4 5 6 
#
# 1 100.1544 50.8812 38.3691 0.0000 11.9183 0.0000
# 2 50.8812 105.5017 53.7585 0.0000 7.7447 0.0000
# 3 38.3691 53.7585 123.4018 0.0000 6.4606 0.0000
# 4 0.0000 0.0000 0.0000 36.5946 0.0000 6.4754
# 5 11.9183 7.7447 6.4606 0.0000 36.4929 0.0000
# 6 0.0000 0.0000 0.0000 6.4754 0.0000 27.4151
#
#
#
# Elastic Compliance Matrix: (Units=1/GPa)
#
#
# Indices 1 2 3 4 5 6 
#
# 1 0.013835 -0.005577 -0.001714 0.000000 -0.003031 0.000000
# 2 -0.005577 0.014531 -0.004573 0.000000 -0.000453 0.000000
# 3 -0.001714 -0.004573 0.010647 0.000000 -0.000355 0.000000
# 4 0.000000 0.000000 0.000000 0.028518 0.000000 -0.006736
# 5 -0.003031 -0.000453 -0.000355 0.000000 0.028552 0.000000
# 6 0.000000 0.000000 0.000000 -0.006736 0.000000 0.038067
#
#
# Mechanical properties :
#
#
# Convention : Reuss Voigt Hill
#
# Bulk Modulus (GPa) = 65.41327 68.34173 66.87750
# Shear Modulus (GPa) = 30.68013 32.50380 31.59197
#
# Velocity S-wave (km/s) = 3.89792 4.01210 3.95542
# Velocity P-wave (km/s) = 7.25624 7.43690 7.34713
#
# Compressibility (1/GPa) = 0.01528742
#
# Stress axis : x y z
#
# Youngs Moduli (GPa) = 72.28124 68.81703 93.92280
#
# Poissons Ratio (x) = 0.38376 0.16094
# Poissons Ratio (y) = 0.40308 0.42948
# Poissons Ratio (z) = 0.12386 0.31468
#
# Static dielectric constant tensor:
#      x y z
#    x 3.805790 0.000000 -0.037560 
#    y 0.000000 3.644500 0.000000 
#    z -0.037560 0.000000 3.665560 
# 
# 
# High freq. dielectric constant tensor:
#      x y z
#    x 1.799640 0.000000 0.005610 
#    y 0.000000 1.788120 0.000000 
#    z 0.005610 0.000000 1.796880 
# 
# From -- ./inp_files/353492.got.cif
#   From: 2010.06.25/outbox.cif.g09.slc.cpg/sg12_177_cif.got.tgz:353492.got - 2010.06.28 00:19:55.
