data_PCOD8100439
_publ_section_title
;
Structure prediction by ZEFSAII (Michael W. Deem and Ramdas Pophale) SiO2 
 PCOD8100439
Probable space group: C 2/M
;
_chemical_formula_sum "Si O2"
_cell_formula_units_Z 56
_cell_length_a 20.852302
_cell_length_b 8.830401
_cell_length_c 17.884293
_cell_angle_alpha 90.000000
_cell_angle_beta 122.923838
_cell_angle_gamma 90.000000
_cell_volume 2764.215941
_symmetry_space_group_name_H-M "C 2/M"
_symmetry_group_IT_number 12
_symmetry_cell_setting 'monoclinic'
loop_
_space_group_symop_operation_xyz
x,y,z
-x,y,-z
-x,-y,-z
x,-y,z
1/2+x,1/2+y,z
1/2-x,1/2+y,-z
1/2-x,1/2-y,-z
1/2+x,1/2-y,z
loop_
_atom_site_type_symbol
_atom_site_label
_atom_site_fract_x
_atom_site_fract_y
_atom_site_fract_z
Si Si1 0.232866 0.326431 0.371788
Si Si2 0.085440 0.676476 0.031145
Si Si3 0.295036 0.328843 0.797270
Si Si4 0.137675 0.672224 0.774513
Si Si5 0.333893 0.679040 0.057348
Si Si6 0.362199 0.672321 0.569794
Si Si7 0.979797 0.824120 0.404829
O O1 0.224885 0.500000 0.342138
O O2 0.236018 0.220595 0.302329
O O3 0.311625 0.294581 0.464673
O O4 0.160783 0.283765 0.377948
O O5 0.092883 0.500000 0.016758
O O6 0.137600 0.717359 0.135173
O O7 0.112543 0.771883 0.977070
O O8 0.000000 0.721352 0.000000
O O9 0.326191 0.500000 0.812300
O O10 0.227342 0.318603 0.814250
O O11 0.111995 0.500000 0.772699
O O12 0.122867 0.769609 0.839660
O O13 0.091845 0.736635 0.674662
O O14 0.324734 0.500000 0.050715
O O15 0.250000 0.750000 0.000000
O O16 0.348828 0.500000 0.587722
O O17 0.449620 0.703133 0.605755
O O18 0.000000 0.760383 0.500000
O O19 0.957654 0.000000 0.397457
#
# Coordination Sequence:
#
# PCOD8100439 Si02
#       7
#     8   8   8   8   8   8   8
#     4  10  20  35  59  85 114 155 201 251 303 364
#     4  11  25  44  67  95 127 163 206 260 318 377
#     4  11  23  39  61  88 120 158 201 251 308 374
#     4  11  24  40  62  93 124 162 210 258 310 373
#     4  12  24  42  69  96 127 167 210 261 317 379
#     4   9  19  36  56  82 117 157 200 247 305 368
#     4  10  21  38  60  87 122 162 204 254 310 368
#
# _framework density 20.25891
#
# number of rings (size 3 to 8) (size 9 to 14) (size 15 to 20)
#    0.000    1.429    1.429    3.857    0.000    6.571 
#    0.000    0.000    0.000    0.000    0.000    0.000 
#    0.000    0.000    0.000    0.000    0.000    0.000 
#
# Total GULP energy -347363.565430 kJ/mol
# GULP energy per Si atom -12405.841622 kJ/mol
# Density = 2.021280 g / cm^3
# Si number density = 20.258910 Si / 1000 Ang^3
#
#
#
# Elastic Constant Matrix: (Units=GPa)
#
#
# Indices 1 2 3 4 5 6 
#
# 1 80.9130 48.6115 31.7856 0.0000 2.1925 0.0000
# 2 48.6115 113.9655 49.0436 0.0000 -0.8189 0.0000
# 3 31.7856 49.0436 97.1217 0.0000 -5.8733 0.0000
# 4 0.0000 0.0000 0.0000 35.8119 0.0000 -3.3796
# 5 2.1925 -0.8189 -5.8733 0.0000 31.1287 0.0000
# 6 0.0000 0.0000 0.0000 -3.3796 0.0000 31.2989
#
#
#
# Elastic Compliance Matrix: (Units=1/GPa)
#
#
# Indices 1 2 3 4 5 6 
#
# 1 0.017163 -0.006220 -0.002589 0.000000 -0.001861 0.000000
# 2 -0.006220 0.013484 -0.004780 0.000000 -0.000109 0.000000
# 3 -0.002589 -0.004780 0.013717 0.000000 0.002645 0.000000
# 4 0.000000 0.000000 0.000000 0.028211 0.000000 0.003046
# 5 -0.001861 -0.000109 0.002645 0.000000 0.032752 0.000000
# 6 0.000000 0.000000 0.000000 0.003046 0.000000 0.032279
#
#
# Mechanical properties :
#
#
# Convention : Reuss Voigt Hill
#
# Bulk Modulus (GPa) = 58.18370 61.20907 59.69639
# Shear Modulus (GPa) = 29.32325 30.48521 29.90423
#
# Velocity S-wave (km/s) = 3.80863 3.88336 3.84618
# Velocity P-wave (km/s) = 6.93710 7.09833 7.01818
#
# Compressibility (1/GPa) = 0.01718694
#
# Stress axis : x y z
#
# Youngs Moduli (GPa) = 58.26354 74.16180 72.90137
#
# Poissons Ratio (x) = 0.46131 0.18871
# Poissons Ratio (y) = 0.36242 0.34846
# Poissons Ratio (z) = 0.15082 0.35448
#
# Static dielectric constant tensor:
#      x y z
#    x 3.623300 0.000000 -0.050460 
#    y 0.000000 3.716210 0.000000 
#    z -0.050460 0.000000 3.659930 
# 
# 
# High freq. dielectric constant tensor:
#      x y z
#    x 1.790070 0.000000 -0.006070 
#    y 0.000000 1.796400 0.000000 
#    z -0.006070 0.000000 1.796700 
# 
# From -- ./inp_files/281723.got.cif
#   From: 2010.06.25/outbox.cif.g09.slc.cpg/sg12_141_cif.got.tgz:281723.got - 2010.06.28 00:19:55.
