data_PCOD8100707
_publ_section_title
;
Structure prediction by ZEFSAII (Michael W. Deem and Ramdas Pophale) SiO2 
 PCOD8100707
Probable space group: C 2/M
;
_chemical_formula_sum "Si O2"
_cell_formula_units_Z 56
_cell_length_a 27.541906
_cell_length_b 18.662769
_cell_length_c 18.425331
_cell_angle_alpha 90.000000
_cell_angle_beta 162.267688
_cell_angle_gamma 90.000000
_cell_volume 2884.515483
_symmetry_space_group_name_H-M "C 2/M"
_symmetry_group_IT_number 12
_symmetry_cell_setting 'monoclinic'
loop_
_space_group_symop_operation_xyz
x,y,z
-x,y,-z
-x,-y,-z
x,-y,z
1/2+x,1/2+y,z
1/2-x,1/2+y,-z
1/2-x,1/2-y,-z
1/2+x,1/2-y,z
loop_
_atom_site_type_symbol
_atom_site_label
_atom_site_fract_x
_atom_site_fract_y
_atom_site_fract_z
Si Si1 0.309958 0.421602 0.734834
Si Si2 0.207427 0.789709 0.747176
Si Si3 0.132377 0.192372 0.796547
Si Si4 0.371557 0.651240 0.959361
Si Si5 0.003027 0.082933 0.287100
Si Si6 0.830428 0.346869 0.784135
Si Si7 0.825384 0.786332 0.676582
O O1 0.234510 0.500000 0.610424
O O2 0.241654 0.361745 0.581308
O O3 0.500000 0.426578 0.000000
O O4 0.267727 0.398745 0.757579
O O5 0.197121 0.831761 0.809217
O O6 0.327441 0.835175 0.867073
O O7 0.043512 0.776760 0.469522
O O8 0.265048 0.709648 0.848978
O O9 0.111872 0.124575 0.820354
O O10 0.250000 0.250000 0.000000
O O11 0.460535 0.602053 0.144101
O O12 0.491341 0.696820 0.079015
O O13 0.189984 0.099433 0.562089
O O14 0.972432 0.000000 0.258006
O O15 0.805843 0.268815 0.714230
O O16 0.000000 0.379959 0.000000
O O17 0.750000 0.750000 0.500000
#
# Coordination Sequence:
#
# PCOD8100707 Si02
#       7
#     8   8   8   8   8   8   8
#     4   9  18  31  49  77 119 155 184 231 292 353
#     4  10  20  35  61  94 112 151 211 251 300 354
#     4  10  21  39  62  88 115 155 204 259 298 355
#     4  11  18  33  58  87 120 148 196 251 295 361
#     4  11  24  38  60  92 121 160 203 250 311 369
#     4  11  20  37  58  86 126 159 201 247 291 361
#     4  11  19  31  52  87 117 160 202 236 284 355
#
# _framework density 19.414006000000001
#
# number of rings (size 3 to 8) (size 9 to 14) (size 15 to 20)
#    0.000    1.571    5.714    0.857    0.000    0.857 
#    0.000    5.714    0.000    2.571    0.000    0.000 
#    0.000    0.000    0.000    0.000    0.000    0.000 
#
# Total GULP energy -346991.547872 kJ/mol
# GULP energy per Si atom -12392.555281 kJ/mol
# Density = 1.936982 g / cm^3
# Si number density = 19.414006 Si / 1000 Ang^3
#
#
#
# Elastic Constant Matrix: (Units=GPa)
#
#
# Indices 1 2 3 4 5 6 
#
# 1 129.3199 37.7141 29.5218 0.0000 -4.4947 0.0000
# 2 37.7141 110.7004 26.5936 0.0000 -7.5659 0.0000
# 3 29.5218 26.5936 53.5996 0.0000 -4.9725 0.0000
# 4 0.0000 0.0000 0.0000 21.7839 0.0000 -1.7784
# 5 -4.4947 -7.5659 -4.9725 0.0000 31.0192 0.0000
# 6 0.0000 0.0000 0.0000 -1.7784 0.0000 28.4646
#
#
#
# Elastic Compliance Matrix: (Units=1/GPa)
#
#
# Indices 1 2 3 4 5 6 
#
# 1 0.009294 -0.002190 -0.004017 0.000000 0.000169 0.000000
# 2 -0.002190 0.010862 -0.004027 0.000000 0.001687 0.000000
# 3 -0.004017 -0.004027 0.023065 0.000000 0.002133 0.000000
# 4 0.000000 0.000000 0.000000 0.046141 0.000000 0.002883
# 5 0.000169 0.001687 0.002133 0.000000 0.033016 0.000000
# 6 0.000000 0.000000 0.000000 0.002883 0.000000 0.035311
#
#
# Mechanical properties :
#
#
# Convention : Reuss Voigt Hill
#
# Bulk Modulus (GPa) = 43.94751 53.47543 48.71147
# Shear Modulus (GPa) = 26.91918 29.57291 28.24604
#
# Velocity S-wave (km/s) = 3.72773 3.90715 3.81849
# Velocity P-wave (km/s) = 6.41982 6.92524 6.67732
#
# Compressibility (1/GPa) = 0.02275442
#
# Stress axis : x y z
#
# Youngs Moduli (GPa) = 107.59293 92.06376 43.35569
#
# Poissons Ratio (x) = 0.20161 0.17416
# Poissons Ratio (y) = 0.23562 0.17458
# Poissons Ratio (z) = 0.43220 0.37070
#
# Static dielectric constant tensor:
#      x y z
#    x 3.896750 0.000000 -0.104700 
#    y 0.000000 3.281260 0.000000 
#    z -0.104700 0.000000 3.448280 
# 
# 
# High freq. dielectric constant tensor:
#      x y z
#    x 1.773380 0.000000 -0.014090 
#    y 0.000000 1.735180 0.000000 
#    z -0.014090 0.000000 1.725830 
# 
# From -- ./inp_files/293926.got.cif
#   From: 2010.06.25/outbox.cif.g09.slc.cpg/sg12_147_cif.got.tgz:293926.got - 2010.06.28 00:19:55.
