data_PCOD8100308
_publ_section_title
;
Structure prediction by ZEFSAII (Michael W. Deem and Ramdas Pophale) SiO2 
 PCOD8100308
Probable space group: C 2/M
;
_chemical_formula_sum "Si O2"
_cell_formula_units_Z 64
_cell_length_a 23.573340
_cell_length_b 9.234838
_cell_length_c 27.852971
_cell_angle_alpha 90.000000
_cell_angle_beta 146.943857
_cell_angle_gamma 90.000000
_cell_volume 3307.389098
_symmetry_space_group_name_H-M "C 2/M"
_symmetry_group_IT_number 12
_symmetry_cell_setting 'monoclinic'
loop_
_space_group_symop_operation_xyz
x,y,z
-x,y,-z
-x,-y,-z
x,-y,z
1/2+x,1/2+y,z
1/2-x,1/2+y,-z
1/2-x,1/2-y,-z
1/2+x,1/2-y,z
loop_
_atom_site_type_symbol
_atom_site_label
_atom_site_fract_x
_atom_site_fract_y
_atom_site_fract_z
Si Si1 0.166404 0.333003 0.737580
Si Si2 0.415706 0.166858 0.161974
Si Si3 0.036814 0.671777 0.911388
Si Si4 0.326133 0.333497 0.765594
Si Si5 0.413162 0.667210 0.659997
Si Si6 0.226403 0.330422 0.593942
Si Si7 0.278506 0.333171 0.914452
Si Si8 0.453423 0.668784 0.580184
O O1 0.131022 0.500000 0.715969
O O2 0.246197 0.307479 0.751418
O O3 0.219928 0.282808 0.824847
O O4 0.067315 0.235090 0.657140
O O5 0.431821 0.225314 0.119647
O O6 0.487918 0.249209 0.250307
O O7 0.296637 0.191040 0.093165
O O8 0.447541 0.000000 0.187773
O O9 0.036427 0.500000 0.915648
O O10 0.924482 0.732540 0.845249
O O11 0.119785 0.735385 0.007591
O O12 0.363167 0.500000 0.789287
O O13 0.271926 0.286961 0.677706
O O14 0.432904 0.500000 0.685526
O O15 0.308338 0.720005 0.611566
O O16 0.403068 0.698054 0.596496
O O17 0.201298 0.500000 0.572766
O O18 0.119873 0.243614 0.511169
O O19 0.313269 0.500000 0.934819
O O20 0.461364 0.500000 0.574162
#
# Coordination Sequence:
#
# PCOD8100308 Si02
#       8
#     8   8   8   8   8   8   8   8
#     4  10  22  41  63  84 110 151 200 242 280 332
#     4  10  20  35  58  87 116 150 188 230 285 342
#     4  11  23  37  58  89 120 150 186 235 292 343
#     4  10  22  41  63  84 110 151 200 242 280 332
#     4  10  20  35  58  87 116 150 188 230 285 342
#     4  10  21  38  60  85 115 152 192 234 282 340
#     4  10  21  38  60  85 115 152 192 234 282 340
#     4  11  23  37  58  89 120 150 186 235 292 343
#
# _framework density 19.35061
#
# number of rings (size 3 to 8) (size 9 to 14) (size 15 to 20)
#    0.000    1.750    2.500    1.500    0.000    4.500 
#    0.000    5.000    0.000    0.000    0.000    0.000 
#    0.000    0.000    0.000    0.000    0.000    0.000 
#
# Total GULP energy -396977.166032 kJ/mol
# GULP energy per Si atom -12405.536438 kJ/mol
# Density = 1.930657 g / cm^3
# Si number density = 19.350610 Si / 1000 Ang^3
#
#
#
# Elastic Constant Matrix: (Units=GPa)
#
#
# Indices 1 2 3 4 5 6 
#
# 1 76.6872 25.7097 30.1766 0.0000 12.3489 -0.0002
# 2 25.7097 72.9342 63.4746 0.0001 9.7099 -0.0003
# 3 30.1766 63.4746 135.0925 -0.0001 13.0975 -0.0001
# 4 0.0000 0.0001 -0.0001 35.5930 0.0000 -0.2645
# 5 12.3489 9.7099 13.0975 0.0000 11.2556 -0.0001
# 6 -0.0002 -0.0003 -0.0001 -0.2645 -0.0001 21.7071
#
#
#
# Elastic Compliance Matrix: (Units=1/GPa)
#
#
# Indices 1 2 3 4 5 6 
#
# 1 0.016819 -0.003286 -0.000788 0.000000 -0.014701 0.000000
# 2 -0.003286 0.024540 -0.010250 0.000000 -0.005638 0.000000
# 3 -0.000788 -0.010250 0.012910 0.000000 -0.005316 0.000000
# 4 0.000000 0.000000 0.000000 0.028098 0.000000 0.000342
# 5 -0.014701 -0.005638 -0.005316 0.000000 0.116023 0.000000
# 6 0.000000 0.000000 0.000000 0.000342 0.000000 0.046072
#
#
# Mechanical properties :
#
#
# Convention : Reuss Voigt Hill
#
# Bulk Modulus (GPa) = 39.02931 58.15951 48.59441
# Shear Modulus (GPa) = 17.75254 24.73469 21.24362
#
# Velocity S-wave (km/s) = 3.03217 3.57912 3.31694
# Velocity P-wave (km/s) = 5.69843 6.87030 6.31162
#
# Compressibility (1/GPa) = 0.02562177
#
# Stress axis : x y z
#
# Youngs Moduli (GPa) = 59.45690 40.74904 77.46119
#
# Poissons Ratio (x) = 0.13390 0.06101
# Poissons Ratio (y) = 0.19538 0.79397
# Poissons Ratio (z) = 0.04683 0.41768
#
# Static dielectric constant tensor:
#      x y z
#    x 3.602350 0.000000 -0.053330 
#    y 0.000000 3.471180 0.000000 
#    z -0.053330 0.000000 3.427640 
# 
# 
# High freq. dielectric constant tensor:
#      x y z
#    x 1.755380 0.000000 -0.000270 
#    y 0.000000 1.748000 0.000000 
#    z -0.000270 0.000000 1.758410 
# 
# From -- ./inp_files/238648.got.cif
#   From: 2010.06.25/outbox.cif.g09.slc.cpg/sg12_120_cif.got.tgz:238648.got - 2010.06.28 00:19:55.
