data_PCOD8100462
_publ_section_title
;
Structure prediction by ZEFSAII (Michael W. Deem and Ramdas Pophale) SiO2 
 PCOD8100462
Probable space group: C 2/M
;
_chemical_formula_sum "Si O2"
_cell_formula_units_Z 48
_cell_length_a 20.462154
_cell_length_b 8.933317
_cell_length_c 20.988417
_cell_angle_alpha 90.000000
_cell_angle_beta 138.529622
_cell_angle_gamma 90.000000
_cell_volume 2540.706109
_symmetry_space_group_name_H-M "C 2/M"
_symmetry_group_IT_number 12
_symmetry_cell_setting 'monoclinic'
loop_
_space_group_symop_operation_xyz
x,y,z
-x,y,-z
-x,-y,-z
x,-y,z
1/2+x,1/2+y,z
1/2-x,1/2+y,-z
1/2-x,1/2-y,-z
1/2+x,1/2-y,z
loop_
_atom_site_type_symbol
_atom_site_label
_atom_site_fract_x
_atom_site_fract_y
_atom_site_fract_z
Si Si1 0.536307 0.175418 0.730531
Si Si2 0.844834 0.177259 0.537637
Si Si3 0.600316 0.177272 0.043570
Si Si4 0.789261 0.328328 0.234990
Si Si5 0.391595 0.827462 0.441440
Si Si6 0.146873 0.674824 0.937723
O O1 0.439756 0.270814 0.646353
O O2 0.621657 0.228160 0.744506
O O3 0.568337 0.214292 0.825729
O O4 0.513214 0.000000 0.704194
O O5 0.750000 0.250000 0.500000
O O6 0.852163 0.226844 0.469777
O O7 0.835234 0.000000 0.533983
O O8 0.692375 0.233141 0.151556
O O9 0.600477 0.000000 0.047132
O O10 0.500000 0.243387 0.000000
O O11 0.605101 0.234134 0.974276
O O12 0.766477 0.500000 0.201847
O O13 0.816891 0.306381 0.328645
O O14 0.500000 0.772538 0.500000
O O15 0.397219 0.000000 0.468120
O O16 0.167541 0.500000 0.954913
O O17 0.250000 0.750000 0.000000
#
# Coordination Sequence:
#
# PCOD8100462 Si02
#       6
#     8   8   8   8   8   8
#     4  10  20  38  61  87 119 158 202 246 301 357
#     4  12  26  42  62  90 124 159 200 249 304 360
#     4  10  22  38  55  83 123 158 193 245 301 347
#     4  10  20  36  62  90 117 155 197 242 294 354
#     4  10  20  39  64  89 121 158 198 245 301 359
#     4  10  20  35  59  86 116 155 199 244 293 351
#
# _framework density 18.892385000000001
#
# number of rings (size 3 to 8) (size 9 to 14) (size 15 to 20)
#    0.000    1.667    3.333    1.500    0.000    4.000 
#    0.000    1.667    0.000    0.000    0.000    0.000 
#    0.000    0.000    0.000    0.000    0.000    0.000 
#
# Total GULP energy -297698.123532 kJ/mol
# GULP energy per Si atom -12404.088480 kJ/mol
# Density = 1.884938 g / cm^3
# Si number density = 18.892385 Si / 1000 Ang^3
#
#
#
# Elastic Constant Matrix: (Units=GPa)
#
#
# Indices 1 2 3 4 5 6 
#
# 1 166.3523 58.7141 80.3205 0.0000 8.3753 0.0000
# 2 58.7141 68.8633 44.3689 0.0000 3.7674 0.0000
# 3 80.3205 44.3689 129.2429 0.0000 -0.2780 0.0000
# 4 0.0000 0.0000 0.0000 35.1544 0.0000 3.6364
# 5 8.3753 3.7674 -0.2780 0.0000 35.4703 0.0000
# 6 0.0000 0.0000 0.0000 3.6364 0.0000 28.5598
#
#
#
# Elastic Compliance Matrix: (Units=1/GPa)
#
#
# Indices 1 2 3 4 5 6 
#
# 1 0.010285 -0.005839 -0.004391 0.000000 -0.001843 0.000000
# 2 -0.005839 0.022108 -0.003963 0.000000 -0.001000 0.000000
# 3 -0.004391 -0.003963 0.011830 0.000000 0.001551 0.000000
# 4 0.000000 0.000000 0.000000 0.028826 0.000000 -0.003670
# 5 -0.001843 -0.001000 0.001551 0.000000 0.028746 0.000000
# 6 0.000000 0.000000 0.000000 -0.003670 0.000000 0.035482
#
#
# Mechanical properties :
#
#
# Convention : Reuss Voigt Hill
#
# Bulk Modulus (GPa) = 63.14452 81.25173 72.19812
# Shear Modulus (GPa) = 29.24941 31.90723 30.57832
#
# Velocity S-wave (km/s) = 3.93900 4.11407 4.02749
# Velocity P-wave (km/s) = 7.36094 8.10361 7.74119
#
# Compressibility (1/GPa) = 0.01583669
#
# Stress axis : x y z
#
# Youngs Moduli (GPa) = 97.22487 45.23186 84.52864
#
# Poissons Ratio (x) = 0.26412 0.37120
# Poissons Ratio (y) = 0.56773 0.33498
# Poissons Ratio (z) = 0.42695 0.17925
#
# Static dielectric constant tensor:
#      x y z
#    x 3.630520 0.000000 -0.027930 
#    y 0.000000 3.345230 0.000000 
#    z -0.027930 0.000000 3.492960 
# 
# 
# High freq. dielectric constant tensor:
#      x y z
#    x 1.739910 0.000000 -0.007180 
#    y 0.000000 1.721930 0.000000 
#    z -0.007180 0.000000 1.747780 
# 
# From -- ./inp_files/244851.got.cif
#   From: 2010.06.25/outbox.cif.g09.slc.cpg/sg12_123_cif.got.tgz:244851.got - 2010.06.28 00:19:55.
