data_PCOD8100877
_publ_section_title
;
Structure prediction by ZEFSAII (Michael W. Deem and Ramdas Pophale) SiO2 
 PCOD8100877
Probable space group: C 2/M
;
_chemical_formula_sum "Si O2"
_cell_formula_units_Z 56
_cell_length_a 27.222978
_cell_length_b 9.109390
_cell_length_c 20.797816
_cell_angle_alpha 90.000000
_cell_angle_beta 35.220626
_cell_angle_gamma 90.000000
_cell_volume 2974.490080
_symmetry_space_group_name_H-M "C 2/M"
_symmetry_group_IT_number 12
_symmetry_cell_setting 'monoclinic'
loop_
_space_group_symop_operation_xyz
x,y,z
-x,y,-z
-x,-y,-z
x,-y,z
1/2+x,1/2+y,z
1/2-x,1/2+y,-z
1/2-x,1/2-y,-z
1/2+x,1/2-y,z
loop_
_atom_site_type_symbol
_atom_site_label
_atom_site_fract_x
_atom_site_fract_y
_atom_site_fract_z
Si Si1 0.943166 0.329106 0.335641
Si Si2 0.582675 0.328469 0.876903
Si Si3 0.833752 0.827126 0.551085
Si Si4 0.727520 0.830114 0.118341
Si Si5 0.761226 0.329114 0.745626
Si Si6 0.115913 0.170828 0.137201
Si Si7 0.345771 0.831963 0.313420
O O1 0.958185 0.500000 0.333681
O O2 0.914958 0.249458 0.431397
O O3 0.868789 0.303854 0.362832
O O4 0.029678 0.259021 0.216286
O O5 0.571526 0.500000 0.878592
O O6 0.664192 0.288767 0.832791
O O7 0.589398 0.260088 0.799221
O O8 0.500000 0.261406 0.000000
O O9 0.824365 0.765205 0.633376
O O10 0.751125 0.783663 0.597032
O O11 0.849512 0.000000 0.537198
O O12 0.723874 0.785811 0.196671
O O13 0.659344 0.728677 0.155827
O O14 0.702762 0.000000 0.134270
O O15 0.822115 0.800872 0.989673
O O16 0.779403 0.500000 0.713434
O O17 0.094847 0.000000 0.168242
O O18 0.358148 0.000000 0.280603
#
# Coordination Sequence:
#
# PCOD8100877 Si02
#       7
#     8   8   8   8   8   8   8
#     4  11  22  36  55  79 109 144 183 223 269 320
#     4   9  18  30  49  77 109 142 179 218 256 311
#     4  10  20  36  55  79 109 142 182 225 267 314
#     4   9  19  37  59  80 109 143 177 218 269 325
#     4   9  18  34  55  78 106 144 180 214 265 322
#     4  10  21  36  57  84 110 138 177 225 271 318
#     4   9  20  35  51  75 108 145 181 219 265 315
#
# _framework density 18.826756
#
# number of rings (size 3 to 8) (size 9 to 14) (size 15 to 20)
#    0.000    2.429    0.000    1.714    2.000    3.143 
#    0.000    0.714    0.000    4.286    0.000    0.000 
#    0.000    0.000    0.000    0.000    0.000    0.000 
#
# Total GULP energy -347274.347419 kJ/mol
# GULP energy per Si atom -12402.655265 kJ/mol
# Density = 1.878391 g / cm^3
# Si number density = 18.826756 Si / 1000 Ang^3
#
#
#
# Elastic Constant Matrix: (Units=GPa)
#
#
# Indices 1 2 3 4 5 6 
#
# 1 68.9395 35.2957 28.6759 -0.0025 17.1997 0.0000
# 2 35.2957 78.2765 43.1835 -0.0256 9.5796 0.0178
# 3 28.6759 43.1835 85.0095 -0.0165 12.7317 0.0120
# 4 -0.0025 -0.0256 -0.0165 34.5471 0.0101 1.5560
# 5 17.1997 9.5796 12.7317 0.0101 26.7141 -0.0040
# 6 0.0000 0.0178 0.0120 1.5560 -0.0040 29.5434
#
#
#
# Elastic Compliance Matrix: (Units=1/GPa)
#
#
# Indices 1 2 3 4 5 6 
#
# 1 0.021727 -0.007421 -0.002006 -0.000002 -0.010372 0.000004
# 2 -0.007421 0.020408 -0.008058 0.000011 0.001300 -0.000009
# 3 -0.002006 -0.008058 0.017130 0.000003 -0.003983 -0.000003
# 4 -0.000002 0.000011 0.000003 0.029015 -0.000015 -0.001528
# 5 -0.010372 0.001300 -0.003983 -0.000015 0.045543 0.000008
# 6 0.000004 -0.000009 -0.000003 -0.001528 0.000008 0.033929
#
#
# Mechanical properties :
#
#
# Convention : Reuss Voigt Hill
#
# Bulk Modulus (GPa) = 41.16194 49.61509 45.38851
# Shear Modulus (GPa) = 23.71688 26.49895 25.10791
#
# Velocity S-wave (km/s) = 3.55314 3.75576 3.65585
# Velocity P-wave (km/s) = 6.22447 6.72446 6.47929
#
# Compressibility (1/GPa) = 0.02429429
#
# Stress axis : x y z
#
# Youngs Moduli (GPa) = 46.02601 49.00063 58.37681
#
# Poissons Ratio (x) = 0.36363 0.11710
# Poissons Ratio (y) = 0.34156 0.47042
# Poissons Ratio (z) = 0.09233 0.39487
#
# Static dielectric constant tensor:
#      x y z
#    x 3.302840 -0.000010 0.050770 
#    y -0.000010 3.431130 0.000050 
#    z 0.050770 0.000050 3.460530 
# 
# 
# High freq. dielectric constant tensor:
#      x y z
#    x 1.716470 0.000000 0.007240 
#    y 0.000000 1.733150 0.000000 
#    z 0.007240 0.000000 1.733610 
# 
# From -- ./inp_files/287854.got.cif
#   From: 2010.06.25/outbox.cif.g09.slc.cpg/sg12_144_cif.got.tgz:287854.got - 2010.06.28 00:19:55.
