data_PCOD8100579
_publ_section_title
;
Structure prediction by ZEFSAII (Michael W. Deem and Ramdas Pophale) SiO2 
 PCOD8100579
Probable space group: C 2/M
;
_chemical_formula_sum "Si O2"
_cell_formula_units_Z 64
_cell_length_a 9.566041
_cell_length_b 17.649529
_cell_length_c 33.828587
_cell_angle_alpha 90.000000
_cell_angle_beta 146.400517
_cell_angle_gamma 90.000000
_cell_volume 3160.645884
_symmetry_space_group_name_H-M "C 2/M"
_symmetry_group_IT_number 12
_symmetry_cell_setting 'monoclinic'
loop_
_space_group_symop_operation_xyz
x,y,z
-x,y,-z
-x,-y,-z
x,-y,z
1/2+x,1/2+y,z
1/2-x,1/2+y,-z
1/2-x,1/2-y,-z
1/2+x,1/2-y,z
loop_
_atom_site_type_symbol
_atom_site_label
_atom_site_fract_x
_atom_site_fract_y
_atom_site_fract_z
Si Si1 0.462506 0.416393 0.206408
Si Si2 0.086156 0.809754 0.562378
Si Si3 0.779745 0.696784 0.794804
Si Si4 0.269914 0.342051 0.566010
Si Si5 0.218953 0.080612 0.919507
Si Si6 0.755967 0.413242 0.718537
Si Si7 0.554273 0.141561 0.717601
Si Si8 0.715205 0.735985 0.946572
O O1 0.428839 0.500000 0.217989
O O2 0.427518 0.348608 0.228831
O O3 0.267495 0.405798 0.124387
O O4 0.740956 0.410739 0.254563
O O5 0.191934 0.726416 0.577085
O O6 0.320834 0.857544 0.632915
O O7 0.000000 0.846646 0.500000
O O8 0.870403 0.811355 0.546587
O O9 0.845377 0.643817 0.773549
O O10 0.659334 0.775001 0.752274
O O11 0.034655 0.705829 0.880856
O O12 0.479263 0.392985 0.636391
O O13 0.000000 0.387582 0.500000
O O14 0.088525 0.152714 0.909582
O O15 0.078732 0.000000 0.895866
O O16 0.500000 0.074486 0.000000
O O17 0.750846 0.500000 0.732133
O O18 0.971942 0.402622 0.737141
O O19 0.750000 0.750000 0.000000
O O20 0.000000 0.741275 0.000000
#
# Coordination Sequence:
#
# PCOD8100579 Si02
#       8
#     8   8   8   8   8   8   8   8
#     4  11  23  39  62  90 121 162 207 257 309 370
#     4  10  20  35  59  94 123 156 207 263 308 360
#     4  12  23  40  65  93 125 160 211 261 309 370
#     4  10  20  36  60  89 123 164 208 257 308 371
#     4   9  18  35  58  85 117 154 197 249 304 359
#     4  11  25  42  61  93 132 168 203 259 325 376
#     4  11  23  39  66  90 123 165 211 254 306 372
#     4  11  24  40  64  93 123 162 210 262 308 371
#
# _framework density 20.249026000000001
#
# number of rings (size 3 to 8) (size 9 to 14) (size 15 to 20)
#    0.000    1.375    2.500    4.500    3.500    1.250 
#    0.000    0.625    0.000   11.250    0.000    0.000 
#    0.000    0.500    0.000    0.000    0.000    0.000 
#
# Total GULP energy -396440.358726 kJ/mol
# GULP energy per Si atom -12388.761210 kJ/mol
# Density = 2.020294 g / cm^3
# Si number density = 20.249026 Si / 1000 Ang^3
#
#
#
# Elastic Constant Matrix: (Units=GPa)
#
#
# Indices 1 2 3 4 5 6 
#
# 1 102.9640 27.1019 34.6711 0.0005 0.2150 0.0000
# 2 27.1019 100.1138 30.4997 -0.0004 -8.7491 0.0000
# 3 34.6711 30.4997 102.7044 -0.0012 -6.6337 0.0010
# 4 0.0005 -0.0004 -0.0012 30.1603 0.0008 0.0621
# 5 0.2150 -8.7491 -6.6337 0.0008 33.6231 0.0004
# 6 0.0000 0.0000 0.0010 0.0621 0.0004 25.2282
#
#
#
# Elastic Compliance Matrix: (Units=1/GPa)
#
#
# Indices 1 2 3 4 5 6 
#
# 1 0.011398 -0.002200 -0.003278 0.000000 -0.001292 0.000000
# 2 -0.002200 0.011576 -0.002532 0.000000 0.002527 0.000000
# 3 -0.003278 -0.002532 0.011703 0.000000 0.001671 0.000000
# 4 0.000000 0.000000 0.000000 0.033156 -0.000001 -0.000082
# 5 -0.001292 0.002527 0.001671 -0.000001 0.030737 -0.000001
# 6 0.000000 0.000000 0.000000 -0.000082 -0.000001 0.039638
#
#
# Mechanical properties :
#
#
# Convention : Reuss Voigt Hill
#
# Bulk Modulus (GPa) = 53.59669 54.48086 54.03877
# Shear Modulus (GPa) = 31.16293 32.03627 31.59960
#
# Velocity S-wave (km/s) = 3.92725 3.98190 3.95466
# Velocity P-wave (km/s) = 6.86226 6.93574 6.89910
#
# Compressibility (1/GPa) = 0.01865787
#
# Stress axis : x y z
#
# Youngs Moduli (GPa) = 87.73784 86.38318 85.44784
#
# Poissons Ratio (x) = 0.19002 0.28008
# Poissons Ratio (y) = 0.19300 0.21635
# Poissons Ratio (z) = 0.28759 0.21872
#
# Static dielectric constant tensor:
#      x y z
#    x 3.614600 0.000000 -0.138640 
#    y 0.000000 3.715440 0.000000 
#    z -0.138640 0.000000 4.032450 
# 
# 
# High freq. dielectric constant tensor:
#      x y z
#    x 1.784210 0.000000 -0.002430 
#    y 0.000000 1.783720 0.000000 
#    z -0.002430 0.000000 1.809660 
# 
# From -- ./inp_files/372977.got.cif
#   From: 2010.06.25/outbox.cif.g09.slc.cpg/sg12_187_cif.got.tgz:372977.got - 2010.06.28 00:19:55.
