data_PCOD8100521
_publ_section_title
;
Structure prediction by ZEFSAII (Michael W. Deem and Ramdas Pophale) SiO2 
 PCOD8100521
Probable space group: C 2/M
;
_chemical_formula_sum "Si O2"
_cell_formula_units_Z 48
_cell_length_a 15.618773
_cell_length_b 8.879261
_cell_length_c 19.039111
_cell_angle_alpha 90.000000
_cell_angle_beta 114.924071
_cell_angle_gamma 90.000000
_cell_volume 2394.495489
_symmetry_space_group_name_H-M "C 2/M"
_symmetry_group_IT_number 12
_symmetry_cell_setting 'monoclinic'
loop_
_space_group_symop_operation_xyz
x,y,z
-x,y,-z
-x,-y,-z
x,-y,z
1/2+x,1/2+y,z
1/2-x,1/2+y,-z
1/2-x,1/2-y,-z
1/2+x,1/2-y,z
loop_
_atom_site_type_symbol
_atom_site_label
_atom_site_fract_x
_atom_site_fract_y
_atom_site_fract_z
Si Si1 0.038033 0.321049 0.086939
Si Si2 0.672674 0.834674 0.648499
Si Si3 0.025643 0.336788 0.352239
Si Si4 0.841388 0.824006 0.500850
Si Si5 0.426429 0.822284 0.183360
Si Si6 0.251684 0.178812 0.804641
O O1 0.037106 0.500000 0.087923
O O2 0.145895 0.265683 0.133482
O O3 0.966287 0.262699 0.122634
O O4 0.000000 0.257011 0.000000
O O5 0.580211 0.861546 0.660721
O O6 0.640772 0.744970 0.568835
O O7 0.743721 0.740713 0.721989
O O8 0.715803 0.000000 0.643869
O O9 0.078810 0.500000 0.376833
O O10 0.074688 0.210245 0.415976
O O11 0.013636 0.286178 0.267184
O O12 0.750000 0.750000 0.500000
O O13 0.829994 0.000000 0.488790
O O14 0.329190 0.738851 0.170440
O O15 0.404793 0.000000 0.174918
O O16 0.243316 0.000000 0.798803
#
# Coordination Sequence:
#
# PCOD8100521 Si02
#       6
#     8   8   8   8   8   8
#     4   9  19  36  59  87 118 155 195 235 291 359
#     4  10  21  39  60  82 111 150 189 235 290 345
#     4   9  19  36  57  79 109 148 190 234 287 344
#     4  12  25  37  53  81 115 151 192 238 284 335
#     4   9  19  37  60  84 116 158 194 237 295 352
#     4  10  20  35  59  89 117 152 197 246 289 345
#
# _framework density 20.045976
#
# number of rings (size 3 to 8) (size 9 to 14) (size 15 to 20)
#    0.000    2.167    0.000    4.000    2.333    6.000 
#    0.000    1.667    0.000    3.500    0.000    0.000 
#    0.000    0.000    0.000    0.000    0.000    0.000 
#
# Total GULP energy -297468.419439 kJ/mol
# GULP energy per Si atom -12394.517477 kJ/mol
# Density = 2.000035 g / cm^3
# Si number density = 20.045976 Si / 1000 Ang^3
#
#
#
# Elastic Constant Matrix: (Units=GPa)
#
#
# Indices 1 2 3 4 5 6 
#
# 1 65.6029 24.9304 34.2310 0.0000 -0.6472 0.0000
# 2 24.9304 103.2037 39.4971 0.0000 0.3549 0.0000
# 3 34.2310 39.4971 129.5677 0.0000 -3.7871 0.0000
# 4 0.0000 0.0000 0.0000 24.5466 0.0000 2.3644
# 5 -0.6472 0.3549 -3.7871 0.0000 37.2403 0.0000
# 6 0.0000 0.0000 0.0000 2.3644 0.0000 25.2248
#
#
#
# Elastic Compliance Matrix: (Units=1/GPa)
#
#
# Indices 1 2 3 4 5 6 
#
# 1 0.018432 -0.002930 -0.003978 0.000000 -0.000056 0.000000
# 2 -0.002930 0.011442 -0.002727 0.000000 -0.000437 0.000000
# 3 -0.003978 -0.002727 0.009628 0.000000 0.000936 0.000000
# 4 0.000000 0.000000 0.000000 0.041110 0.000000 -0.003853
# 5 -0.000056 -0.000437 0.000936 0.000000 0.026951 0.000000
# 6 0.000000 0.000000 0.000000 -0.003853 0.000000 0.040005
#
#
# Mechanical properties :
#
#
# Convention : Reuss Voigt Hill
#
# Bulk Modulus (GPa) = 49.42596 55.07681 52.25139
# Shear Modulus (GPa) = 28.80499 30.71673 29.76086
#
# Velocity S-wave (km/s) = 3.79482 3.91873 3.85727
# Velocity P-wave (km/s) = 6.62652 6.92893 6.77941
#
# Compressibility (1/GPa) = 0.02023228
#
# Stress axis : x y z
#
# Youngs Moduli (GPa) = 54.25410 87.39430 103.86856
#
# Poissons Ratio (x) = 0.25605 0.41320
# Poissons Ratio (y) = 0.15895 0.28323
# Poissons Ratio (z) = 0.21583 0.23831
#
# Static dielectric constant tensor:
#      x y z
#    x 3.616340 0.000000 -0.074570 
#    y 0.000000 3.566210 0.000000 
#    z -0.074570 0.000000 3.491780 
# 
# 
# High freq. dielectric constant tensor:
#      x y z
#    x 1.781100 0.000000 -0.006880 
#    y 0.000000 1.768620 0.000000 
#    z -0.006880 0.000000 1.786920 
# 
# From -- ./inp_files/313375.got.cif
#   From: 2010.06.25/outbox.cif.g09.slc.cpg/sg12_157_cif.got.tgz:313375.got - 2010.06.28 00:19:55.
