data_PCOD8100000
_publ_section_title
;
Structure prediction by ZEFSAII (Michael W. Deem and Ramdas Pophale) SiO2 
 PCOD8100000
Probable space group: C 2/M
;
_chemical_formula_sum "Si O2"
_cell_formula_units_Z 48
_cell_length_a 30.001858
_cell_length_b 8.951510
_cell_length_c 8.624687
_cell_angle_alpha 90.000000
_cell_angle_beta 84.194623
_cell_angle_gamma 90.000000
_cell_volume 2304.383003
_symmetry_space_group_name_H-M "C 2/M"
_symmetry_group_IT_number 12
_symmetry_cell_setting 'monoclinic'
loop_
_space_group_symop_operation_xyz
x,y,z
-x,y,-z
-x,-y,-z
x,-y,z
1/2+x,1/2+y,z
1/2-x,1/2+y,-z
1/2-x,1/2-y,-z
1/2+x,1/2-y,z
loop_
_atom_site_type_symbol
_atom_site_label
_atom_site_fract_x
_atom_site_fract_y
_atom_site_fract_z
Si Si1 0.145223 0.169090 0.117041
Si Si2 0.985432 0.824786 0.178258
Si Si3 0.322665 0.673485 0.243039
Si Si4 0.903934 0.675280 0.357996
Si Si5 0.258729 0.327086 0.835243
Si Si6 0.066552 0.326279 0.306725
O O1 0.188065 0.190307 0.217041
O O2 0.106436 0.282558 0.176936
O O3 0.126735 0.000000 0.137367
O O4 0.159188 0.202527 0.936166
O O5 0.021771 0.764354 0.286249
O O6 0.937939 0.746834 0.223048
O O7 0.979470 0.000000 0.204488
O O8 0.000000 0.783842 0.000000
O O9 0.319181 0.500000 0.284897
O O10 0.355200 0.752656 0.353577
O O11 0.272953 0.745724 0.279928
O O12 0.901147 0.500000 0.329201
O O13 0.919869 0.714692 0.524379
O O14 0.245215 0.500000 0.850979
O O15 0.250000 0.250000 0.000000
O O16 0.055954 0.500000 0.289953
#
# Coordination Sequence:
#
# PCOD8100000 Si02
#       6
#     8   8   8   8   8   8
#     4   9  19  35  56  83 113 145 186 232 276 328
#     4  11  24  41  62  87 112 141 182 228 274 330
#     4  10  20  35  57  85 113 146 190 234 279 332
#     4  11  24  40  57  82 115 148 185 228 275 330
#     4   9  17  31  53  82 114 147 186 234 282 327
#     4  11  24  39  57  83 114 148 186 227 274 330
#
# _framework density 20.82987
#
# number of rings (size 3 to 8) (size 9 to 14) (size 15 to 20)
#    0.000    1.833    0.000    5.000    0.000   14.000 
#    0.000    0.833    0.000    0.000    0.000    0.000 
#    0.000    0.000    0.000    0.000    0.000    0.000 
#
# Total GULP energy -297657.512524 kJ/mol
# GULP energy per Si atom -12402.396355 kJ/mol
# Density = 2.078246 g / cm^3
# Si number density = 20.829870 Si / 1000 Ang^3
#
#
#
# Elastic Constant Matrix: (Units=GPa)
#
#
# Indices 1 2 3 4 5 6 
#
# 1 82.7451 25.4242 4.7688 0.0000 32.1942 0.0000
# 2 25.4242 92.3001 29.7191 0.0000 21.7106 0.0000
# 3 4.7688 29.7191 41.5540 0.0000 17.5748 0.0000
# 4 0.0000 0.0000 0.0000 27.4257 0.0000 5.4398
# 5 32.1942 21.7106 17.5748 0.0000 34.3341 0.0000
# 6 0.0000 0.0000 0.0000 5.4398 0.0000 41.3592
#
#
#
# Elastic Compliance Matrix: (Units=1/GPa)
#
#
# Indices 1 2 3 4 5 6 
#
# 1 0.021594 -0.003737 0.009903 0.000000 -0.022953 0.000000
# 2 -0.003737 0.015366 -0.010126 0.000000 -0.001029 0.000000
# 3 0.009903 -0.010126 0.040063 0.000000 -0.023390 0.000000
# 4 0.000000 0.000000 0.000000 0.037439 0.000000 -0.004924
# 5 -0.022953 -0.001029 -0.023390 0.000000 0.063272 0.000000
# 6 0.000000 0.000000 0.000000 -0.004924 0.000000 0.024826
#
#
# Mechanical properties :
#
#
# Convention : Reuss Voigt Hill
#
# Bulk Modulus (GPa) = 14.47132 37.38036 25.92584
# Shear Modulus (GPa) = 21.41200 31.06960 26.24080
#
# Velocity S-wave (km/s) = 3.20964 3.86630 3.55317
# Velocity P-wave (km/s) = 4.54953 6.15756 5.41358
#
# Compressibility (1/GPa) = 0.06910220
#
# Stress axis : x y z
#
# Youngs Moduli (GPa) = 46.31004 65.07880 24.96067
#
# Poissons Ratio (x) = 0.24323 -0.24718
# Poissons Ratio (y) = 0.17308 0.25274
# Poissons Ratio (z) = -0.45860 0.65896
#
# Static dielectric constant tensor:
#      x y z
#    x 4.143620 0.000000 0.220700 
#    y 0.000000 3.848690 0.000000 
#    z 0.220700 0.000000 3.502270 
# 
# 
# High freq. dielectric constant tensor:
#      x y z
#    x 1.832620 0.000000 0.016750 
#    y 0.000000 1.825580 0.000000 
#    z 0.016750 0.000000 1.791300 
# 
# From -- ./inp_files/108558.got.cif
#   From: 2010.06.25/outbox.cif.g09.slc.cpg/sg12_55_cif.got.tgz:108558.got - 2010.06.28 00:19:55.
