data_PCOD8100409
_publ_section_title
;
Structure prediction by ZEFSAII (Michael W. Deem and Ramdas Pophale) SiO2 
 PCOD8100409
Probable space group: C 2/M
;
_chemical_formula_sum "Si O2"
_cell_formula_units_Z 40
_cell_length_a 7.882132
_cell_length_b 24.183577
_cell_length_c 11.033797
_cell_angle_alpha 90.000000
_cell_angle_beta 115.841053
_cell_angle_gamma 90.000000
_cell_volume 1892.931813
_symmetry_space_group_name_H-M "C 2/M"
_symmetry_group_IT_number 12
_symmetry_cell_setting 'monoclinic'
loop_
_space_group_symop_operation_xyz
x,y,z
-x,y,-z
-x,-y,-z
x,-y,z
1/2+x,1/2+y,z
1/2-x,1/2+y,-z
1/2-x,1/2-y,-z
1/2+x,1/2-y,z
loop_
_atom_site_type_symbol
_atom_site_label
_atom_site_fract_x
_atom_site_fract_y
_atom_site_fract_z
Si Si1 0.904710 0.000000 0.276367
Si Si2 0.058072 0.500000 0.318367
Si Si3 0.000000 0.723310 0.000000
Si Si4 0.081527 0.113891 0.392036
Si Si5 0.500000 0.592732 0.000000
Si Si6 0.500000 0.911841 0.500000
Si Si7 0.905005 0.183631 0.151811
Si Si8 0.766937 0.500000 0.037820
O O1 0.031975 0.944680 0.310281
O O2 0.782884 0.000000 0.363427
O O3 0.764941 0.000000 0.116053
O O4 0.995682 0.447066 0.375435
O O5 0.978157 0.500000 0.155350
O O6 0.178546 0.683822 0.073658
O O7 0.983855 0.760053 0.117068
O O8 0.307421 0.124091 0.449608
O O9 0.000000 0.109226 0.500000
O O10 0.979513 0.169949 0.309195
O O11 0.509858 0.630833 0.886920
O O12 0.318759 0.554549 0.927544
#
# Coordination Sequence:
#
# PCOD8100409 Si02
#       8
#     4   4   4   8   4   4   8   4
#     4  12  22  40  59  89 141 174 215 268 305 373
#     4  11  22  36  56  85 130 182 222 253 302 360
#     4   9  22  45  72  96 120 153 206 281 352 386
#     4  12  24  44  63  95 133 179 219 258 306 393
#     4  10  20  35  58  92 130 163 204 258 318 384
#     4  11  24  40  60  84 130 186 220 248 304 373
#     4  10  21  43  69  95 124 162 206 270 338 389
#     4  11  22  34  57 100 132 170 209 265 312 376
#
# _framework density 21.131242
#
# number of rings (size 3 to 8) (size 9 to 14) (size 15 to 20)
#    0.000    1.200    4.000    3.000    2.800    1.600 
#   10.800    1.000    0.000    0.000    0.000    0.000 
#    0.000    0.000    0.000    0.000    0.000    0.000 
#
# Total GULP energy -247829.215957 kJ/mol
# GULP energy per Si atom -12391.460798 kJ/mol
# Density = 2.108315 g / cm^3
# Si number density = 21.131242 Si / 1000 Ang^3
#
#
#
# Elastic Constant Matrix: (Units=GPa)
#
#
# Indices 1 2 3 4 5 6 
#
# 1 139.5059 26.5634 33.7579 0.0000 8.5538 0.0000
# 2 26.5634 63.8493 33.0633 0.0000 1.5563 0.0000
# 3 33.7579 33.0633 108.3438 0.0000 4.2810 0.0000
# 4 0.0000 0.0000 0.0000 20.2868 0.0000 5.8230
# 5 8.5538 1.5563 4.2810 0.0000 23.1654 0.0000
# 6 0.0000 0.0000 0.0000 5.8230 0.0000 6.7834
#
#
#
# Elastic Compliance Matrix: (Units=1/GPa)
#
#
# Indices 1 2 3 4 5 6 
#
# 1 0.008207 -0.002471 -0.001702 0.000000 -0.002550 0.000000
# 2 -0.002471 0.019346 -0.005156 0.000000 0.000566 0.000000
# 3 -0.001702 -0.005156 0.011378 0.000000 -0.001128 0.000000
# 4 0.000000 0.000000 0.000000 0.065409 0.000000 -0.056148
# 5 -0.002550 0.000566 -0.001128 0.000000 0.044280 0.000000
# 6 0.000000 0.000000 0.000000 -0.056148 0.000000 0.195616
#
#
# Mechanical properties :
#
#
# Convention : Reuss Voigt Hill
#
# Bulk Modulus (GPa) = 49.32765 55.38534 52.35649
# Shear Modulus (GPa) = 13.52621 24.60143 19.06382
#
# Velocity S-wave (km/s) = 2.53277 3.41577 3.00686
# Velocity P-wave (km/s) = 5.65220 6.46713 6.07335
#
# Compressibility (1/GPa) = 0.02027260
#
# Stress axis : x y z
#
# Youngs Moduli (GPa) = 121.84898 51.68995 87.88541
#
# Poissons Ratio (x) = 0.12771 0.14962
# Poissons Ratio (y) = 0.30104 0.45317
# Poissons Ratio (z) = 0.20744 0.26653
#
# Static dielectric constant tensor:
#      x y z
#    x 3.936710 0.000000 -0.090520 
#    y 0.000000 3.577520 0.000000 
#    z -0.090520 0.000000 4.101090 
# 
# 
# High freq. dielectric constant tensor:
#      x y z
#    x 1.842380 0.000000 -0.006740 
#    y 0.000000 1.797250 0.000000 
#    z -0.006740 0.000000 1.828770 
# 
# From -- ./inp_files/122238.got.cif
#   From: 2010.06.25/outbox.cif.g09.slc.cpg/sg12_62_cif.got.tgz:122238.got - 2010.06.28 00:19:55.
