data_PCOD8100004
_publ_section_title
;
Structure prediction by ZEFSAII (Michael W. Deem and Ramdas Pophale) SiO2 
 PCOD8100004
Probable space group: C 2/M
;
_chemical_formula_sum "Si O2"
_cell_formula_units_Z 64
_cell_length_a 32.041047
_cell_length_b 9.270953
_cell_length_c 11.218474
_cell_angle_alpha 90.000000
_cell_angle_beta 88.301787
_cell_angle_gamma 90.000000
_cell_volume 3330.995711
_symmetry_space_group_name_H-M "C 2/M"
_symmetry_group_IT_number 12
_symmetry_cell_setting 'monoclinic'
loop_
_space_group_symop_operation_xyz
x,y,z
-x,y,-z
-x,-y,-z
x,-y,z
1/2+x,1/2+y,z
1/2-x,1/2+y,-z
1/2-x,1/2-y,-z
1/2+x,1/2-y,z
loop_
_atom_site_type_symbol
_atom_site_label
_atom_site_fract_x
_atom_site_fract_y
_atom_site_fract_z
Si Si1 0.452246 0.832158 0.523355
Si Si2 0.765894 0.665260 0.327445
Si Si3 0.309109 0.833152 0.574021
Si Si4 0.385770 0.671317 0.665262
Si Si5 0.163465 0.668169 0.855804
Si Si6 0.958820 0.168307 0.066530
Si Si7 0.875078 0.167048 0.938209
Si Si8 0.580494 0.166524 0.730811
O O1 0.500000 0.782891 0.500000
O O2 0.431202 0.736820 0.629243
O O3 0.425272 0.801040 0.407493
O O4 0.450560 0.000000 0.560013
O O5 0.750216 0.500000 0.321798
O O6 0.726029 0.769191 0.334755
O O7 0.795112 0.686216 0.439504
O O8 0.792574 0.708101 0.208911
O O9 0.351562 0.744167 0.583270
O O10 0.316816 0.000000 0.605633
O O11 0.386870 0.500000 0.646539
O O12 0.373831 0.713717 0.801049
O O13 0.160555 0.500000 0.882447
O O14 0.126616 0.715695 0.768216
O O15 0.159921 0.748799 0.982702
O O16 0.954270 0.245654 0.193669
O O17 0.962736 0.000000 0.092067
O O18 0.920514 0.206682 0.983886
O O19 0.000000 0.229027 0.000000
O O20 0.864947 0.000000 0.954066
O O21 0.572726 0.000000 0.759363
#
# Coordination Sequence:
#
# PCOD8100004 Si02
#       8
#     8   8   8   8   8   8   8   8
#     4  10  22  38  55  78 108 142 179 223 272 324
#     4   9  18  34  57  85 115 141 175 224 271 318
#     4  10  20  35  57  85 114 146 179 218 268 322
#     4  11  23  38  56  77 109 147 182 222 269 324
#     4   9  17  32  55  79 104 138 176 220 269 317
#     4   9  18  32  52  74  99 133 174 222 271 315
#     4   9  20  36  51  74 105 140 180 224 270 318
#     4   9  18  33  51  75 105 134 171 216 264 315
#
# _framework density 19.213474999999999
#
# number of rings (size 3 to 8) (size 9 to 14) (size 15 to 20)
#    0.000    2.500    0.000    1.500    1.750    5.000 
#    0.000    3.125    0.000    0.000    0.000    0.000 
#    0.000    0.000    0.000    0.000    0.000    0.000 
#
# Total GULP energy -396860.444033 kJ/mol
# GULP energy per Si atom -12401.888876 kJ/mol
# Density = 1.916974 g / cm^3
# Si number density = 19.213475 Si / 1000 Ang^3
#
#
#
# Elastic Constant Matrix: (Units=GPa)
#
#
# Indices 1 2 3 4 5 6 
#
# 1 86.2214 45.1162 34.6542 0.0000 -25.2652 0.0000
# 2 45.1162 73.4898 43.9147 0.0000 -17.1377 0.0000
# 3 34.6542 43.9147 77.1572 0.0000 -23.7371 0.0000
# 4 0.0000 0.0000 0.0000 31.6162 0.0000 -7.5586
# 5 -25.2652 -17.1377 -23.7371 0.0000 32.8709 0.0000
# 6 0.0000 0.0000 0.0000 -7.5586 0.0000 32.6405
#
#
#
# Elastic Compliance Matrix: (Units=1/GPa)
#
#
# Indices 1 2 3 4 5 6 
#
# 1 0.019615 -0.009534 -0.000353 0.000000 0.009851 0.000000
# 2 -0.009534 0.025475 -0.010781 0.000000 -0.001831 0.000000
# 3 -0.000353 -0.010781 0.022424 0.000000 0.010301 0.000000
# 4 0.000000 0.000000 0.000000 0.033483 0.000000 0.007754
# 5 0.009851 -0.001831 0.010301 0.000000 0.044478 0.000000
# 6 0.000000 0.000000 0.000000 0.007754 0.000000 0.032432
#
#
# Mechanical properties :
#
#
# Convention : Reuss Voigt Hill
#
# Bulk Modulus (GPa) = 38.19791 53.80429 46.00110
# Shear Modulus (GPa) = 21.93269 26.97108 24.45189
#
# Velocity S-wave (km/s) = 3.38231 3.75074 3.57128
# Velocity P-wave (km/s) = 5.93105 6.84263 6.40308
#
# Compressibility (1/GPa) = 0.02617945
#
# Stress axis : x y z
#
# Youngs Moduli (GPa) = 50.98070 39.25345 44.59461
#
# Poissons Ratio (x) = 0.37423 0.01575
# Poissons Ratio (y) = 0.48604 0.48077
# Poissons Ratio (z) = 0.01800 0.42319
#
# Static dielectric constant tensor:
#      x y z
#    x 3.510490 0.000000 -0.157050 
#    y 0.000000 3.452670 0.000000 
#    z -0.157050 0.000000 3.514120 
# 
# 
# High freq. dielectric constant tensor:
#      x y z
#    x 1.745130 0.000000 -0.013750 
#    y 0.000000 1.741820 0.000000 
#    z -0.013750 0.000000 1.741970 
# 
# From -- ./inp_files/187397.got.cif
#   From: 2010.06.25/outbox.cif.g09.slc.cpg/sg12_94_cif.got.tgz:187397.got - 2010.06.28 00:19:55.
