data_PCOD8100276
_publ_section_title
;
Structure prediction by ZEFSAII (Michael W. Deem and Ramdas Pophale) SiO2 
 PCOD8100276
Probable space group: C 2/M
;
_chemical_formula_sum "Si O2"
_cell_formula_units_Z 48
_cell_length_a 24.741018
_cell_length_b 8.947008
_cell_length_c 12.398331
_cell_angle_alpha 90.000000
_cell_angle_beta 109.977637
_cell_angle_gamma 90.000000
_cell_volume 2579.325149
_symmetry_space_group_name_H-M "C 2/M"
_symmetry_group_IT_number 12
_symmetry_cell_setting 'monoclinic'
loop_
_space_group_symop_operation_xyz
x,y,z
-x,y,-z
-x,-y,-z
x,-y,z
1/2+x,1/2+y,z
1/2-x,1/2+y,-z
1/2-x,1/2-y,-z
1/2+x,1/2-y,z
loop_
_atom_site_type_symbol
_atom_site_label
_atom_site_fract_x
_atom_site_fract_y
_atom_site_fract_z
Si Si1 0.378079 0.323157 0.380316
Si Si2 0.562396 0.324471 0.000972
Si Si3 0.135307 0.328303 0.227506
Si Si4 0.741956 0.327275 0.607719
Si Si5 0.936073 0.323722 0.223825
Si Si6 0.937543 0.326538 0.614343
O O1 0.381658 0.500000 0.370769
O O2 0.314636 0.266782 0.370701
O O3 0.391057 0.248643 0.274930
O O4 0.424354 0.269953 0.499904
O O5 0.564251 0.500000 0.980059
O O6 0.578088 0.238050 0.903421
O O7 0.500000 0.272667 0.000000
O O8 0.609568 0.281907 0.121658
O O9 0.120792 0.500000 0.187485
O O10 0.203426 0.298637 0.277988
O O11 0.109289 0.289787 0.326586
O O12 0.734602 0.500000 0.576151
O O13 0.750000 0.250000 0.500000
O O14 0.927861 0.500000 0.217945
O O15 0.000503 0.277083 0.299963
O O16 0.936660 0.500000 0.580559
#
# Coordination Sequence:
#
# PCOD8100276 Si02
#       6
#     8   8   8   8   8   8
#     4  11  23  37  56  86 121 153 188 236 290 337
#     4  11  23  38  59  87 118 148 185 237 291 340
#     4  10  20  37  60  86 115 149 192 236 278 335
#     4  10  21  37  59  85 115 151 191 235 281 335
#     4  11  23  39  59  83 115 156 196 232 279 343
#     4  10  20  35  58  86 116 151 191 233 280 341
#
# _framework density 18.609518000000001
#
# number of rings (size 3 to 8) (size 9 to 14) (size 15 to 20)
#    0.000    1.500    3.333    2.000    0.000    6.000 
#    0.000    0.833    0.000    0.000    0.000    0.000 
#    0.000    0.000    0.000    0.000    0.000    0.000 
#
# Total GULP energy -297748.333822 kJ/mol
# GULP energy per Si atom -12406.180576 kJ/mol
# Density = 1.856716 g / cm^3
# Si number density = 18.609518 Si / 1000 Ang^3
#
#
#
# Elastic Constant Matrix: (Units=GPa)
#
#
# Indices 1 2 3 4 5 6 
#
# 1 90.8937 34.4495 32.3225 0.0000 -8.7873 0.0000
# 2 34.4495 64.1248 38.6561 0.0000 -6.4569 0.0000
# 3 32.3225 38.6561 95.4881 0.0000 -12.1323 0.0000
# 4 0.0000 0.0000 0.0000 36.7378 0.0000 -3.4495
# 5 -8.7873 -6.4569 -12.1323 0.0000 30.0930 0.0000
# 6 0.0000 0.0000 0.0000 -3.4495 0.0000 26.5655
#
#
#
# Elastic Compliance Matrix: (Units=1/GPa)
#
#
# Indices 1 2 3 4 5 6 
#
# 1 0.014291 -0.006234 -0.002059 0.000000 0.002005 0.000000
# 2 -0.006234 0.023384 -0.007325 0.000000 0.000244 0.000000
# 3 -0.002059 -0.007325 0.014607 0.000000 0.003716 0.000000
# 4 0.000000 0.000000 0.000000 0.027556 0.000000 0.003578
# 5 0.002005 0.000244 0.003716 0.000000 0.035366 0.000000
# 6 0.000000 0.000000 0.000000 0.003578 0.000000 0.038107
#
#
# Mechanical properties :
#
#
# Convention : Reuss Voigt Hill
#
# Bulk Modulus (GPa) = 47.51681 51.26254 49.38967
# Shear Modulus (GPa) = 26.10100 28.35117 27.22609
#
# Velocity S-wave (km/s) = 3.74914 3.90741 3.82909
# Velocity P-wave (km/s) = 6.65811 6.92556 6.79315
#
# Compressibility (1/GPa) = 0.02104518
#
# Stress axis : x y z
#
# Youngs Moduli (GPa) = 69.97556 42.76374 68.46023
#
# Poissons Ratio (x) = 0.26660 0.14094
# Poissons Ratio (y) = 0.43625 0.50149
# Poissons Ratio (z) = 0.14406 0.31326
#
# Static dielectric constant tensor:
#      x y z
#    x 3.627810 0.000000 0.017130 
#    y 0.000000 3.388690 0.000000 
#    z 0.017130 0.000000 3.310530 
# 
# 
# High freq. dielectric constant tensor:
#      x y z
#    x 1.725720 0.000000 -0.001450 
#    y 0.000000 1.724640 0.000000 
#    z -0.001450 0.000000 1.720040 
# 
# From -- ./inp_files/172205.got.cif
#   From: 2010.06.25/outbox.cif.g09.slc.cpg/sg12_87_cif.got.tgz:172205.got - 2010.06.28 00:19:55.
