data_PCOD8100969
_publ_section_title
;
Structure prediction by ZEFSAII (Michael W. Deem and Ramdas Pophale) SiO2 
 PCOD8100969
Probable space group: C 2/M
;
_chemical_formula_sum "Si O2"
_cell_formula_units_Z 56
_cell_length_a 27.552580
_cell_length_b 8.861489
_cell_length_c 13.757685
_cell_angle_alpha 90.000000
_cell_angle_beta 119.160602
_cell_angle_gamma 90.000000
_cell_volume 2933.300651
_symmetry_space_group_name_H-M "C 2/M"
_symmetry_group_IT_number 12
_symmetry_cell_setting 'monoclinic'
loop_
_space_group_symop_operation_xyz
x,y,z
-x,y,-z
-x,-y,-z
x,-y,z
1/2+x,1/2+y,z
1/2-x,1/2+y,-z
1/2-x,1/2-y,-z
1/2+x,1/2-y,z
loop_
_atom_site_type_symbol
_atom_site_label
_atom_site_fract_x
_atom_site_fract_y
_atom_site_fract_z
Si Si1 0.321832 0.675069 0.981185
Si Si2 0.977216 0.176091 0.845783
Si Si3 0.877053 0.825868 0.624795
Si Si4 0.921803 0.678914 0.977428
Si Si5 0.718225 0.827605 0.382789
Si Si6 0.692961 0.825422 0.835258
Si Si7 0.676174 0.674005 0.626127
O O1 0.337825 0.500000 0.989117
O O2 0.359852 0.771656 0.945407
O O3 0.332416 0.729903 0.101353
O O4 0.258511 0.705697 0.889449
O O5 0.942151 0.200300 0.711757
O O6 0.034671 0.269953 0.895413
O O7 0.990360 0.000000 0.874400
O O8 0.940149 0.235714 0.898409
O O9 0.842515 0.748660 0.679963
O O10 0.860237 0.764098 0.501176
O O11 0.860253 0.000000 0.611155
O O12 0.923807 0.500000 0.963606
O O13 0.750000 0.750000 0.500000
O O14 0.757186 0.807920 0.326471
O O15 0.708486 0.000000 0.398684
O O16 0.661970 0.772582 0.706768
O O17 0.680290 0.000000 0.842233
O O18 0.661197 0.500000 0.632005
#
# Coordination Sequence:
#
# PCOD8100969 Si02
#       7
#     8   8   8   8   8   8   8
#     4  10  21  38  57  77 104 139 175 216 265 312
#     4  10  20  36  56  79 107 140 180 218 261 314
#     4   9  19  33  50  73 103 139 177 215 256 309
#     4  11  22  36  55  80 108 137 175 220 267 314
#     4   9  17  28  43  66  98 136 174 209 250 301
#     4  10  21  35  54  81 106 135 176 217 259 312
#     4   9  18  32  48  72 105 140 172 209 258 310
#
# _framework density 19.091123
#
# number of rings (size 3 to 8) (size 9 to 14) (size 15 to 20)
#    0.000    2.286    0.000    4.714    2.000    5.714 
#    0.000    0.000    0.000    0.857    0.000    6.000 
#    0.000    0.000    0.000    0.000    0.000    0.000 
#
# Total GULP energy -347054.811230 kJ/mol
# GULP energy per Si atom -12394.814687 kJ/mol
# Density = 1.904767 g / cm^3
# Si number density = 19.091123 Si / 1000 Ang^3
#
#
#
# Elastic Constant Matrix: (Units=GPa)
#
#
# Indices 1 2 3 4 5 6 
#
# 1 38.2902 9.6123 -1.5369 0.0000 0.3411 0.0000
# 2 9.6123 66.2361 8.1562 0.0000 -3.5209 0.0000
# 3 -1.5369 8.1562 70.8453 0.0000 -0.0415 0.0000
# 4 0.0000 0.0000 0.0000 22.6740 0.0000 -0.1028
# 5 0.3411 -3.5209 -0.0415 0.0000 21.4212 0.0000
# 6 0.0000 0.0000 0.0000 -0.1028 0.0000 31.0042
#
#
#
# Elastic Compliance Matrix: (Units=1/GPa)
#
#
# Indices 1 2 3 4 5 6 
#
# 1 0.027208 -0.004139 0.001066 0.000000 -0.001112 0.000000
# 2 -0.004139 0.016081 -0.001940 0.000000 0.002705 0.000000
# 3 0.001066 -0.001940 0.014362 0.000000 -0.000308 0.000000
# 4 0.000000 0.000000 0.000000 0.044104 0.000000 0.000146
# 5 -0.001112 0.002705 -0.000308 0.000000 0.047145 0.000000
# 6 0.000000 0.000000 0.000000 0.000146 0.000000 0.032254
#
#
# Mechanical properties :
#
#
# Convention : Reuss Voigt Hill
#
# Bulk Modulus (GPa) = 20.99705 23.09275 22.04490
# Shear Modulus (GPa) = 24.14840 25.62920 24.88880
#
# Velocity S-wave (km/s) = 3.56040 3.66794 3.61457
# Velocity P-wave (km/s) = 5.28433 5.48277 5.38446
#
# Compressibility (1/GPa) = 0.04762574
#
# Stress axis : x y z
#
# Youngs Moduli (GPa) = 36.75384 62.18605 69.63056
#
# Poissons Ratio (x) = 0.25738 -0.07423
# Poissons Ratio (y) = 0.15212 0.13505
# Poissons Ratio (z) = -0.03918 0.12061
#
# Static dielectric constant tensor:
#      x y z
#    x 3.531400 0.000000 0.233360 
#    y 0.000000 3.668820 0.000000 
#    z 0.233360 0.000000 3.571410 
# 
# 
# High freq. dielectric constant tensor:
#      x y z
#    x 1.708560 0.000000 0.006610 
#    y 0.000000 1.750140 0.000000 
#    z 0.006610 0.000000 1.738660 
# 
# From -- ./inp_files/248582.got.cif
#   From: 2010.06.25/outbox.cif.g09.slc.cpg/sg12_125_cif.got.tgz:248582.got - 2010.06.28 00:19:55.
