data_PCOD8100665
_publ_section_title
;
Structure prediction by ZEFSAII (Michael W. Deem and Ramdas Pophale) SiO2 
 PCOD8100665
Probable space group: C 2/M
;
_chemical_formula_sum "Si O2"
_cell_formula_units_Z 48
_cell_length_a 18.919680
_cell_length_b 11.909820
_cell_length_c 8.399690
_cell_angle_alpha 90.000000
_cell_angle_beta 81.392499
_cell_angle_gamma 90.000000
_cell_volume 1871.384118
_symmetry_space_group_name_H-M "C 2/M"
_symmetry_group_IT_number 12
_symmetry_cell_setting 'monoclinic'
loop_
_space_group_symop_operation_xyz
x,y,z
-x,y,-z
-x,-y,-z
x,-y,z
1/2+x,1/2+y,z
1/2-x,1/2+y,-z
1/2-x,1/2-y,-z
1/2+x,1/2-y,z
loop_
_atom_site_type_symbol
_atom_site_label
_atom_site_fract_x
_atom_site_fract_y
_atom_site_fract_z
Si Si1 0.569273 0.830712 0.552562
Si Si2 0.271731 0.632515 0.891029
Si Si3 0.277465 0.124177 0.429593
Si Si4 0.042237 0.186339 0.828525
Si Si5 0.415777 0.621478 0.674713
Si Si6 0.296663 0.628925 0.230832
O O1 0.500000 0.894960 0.500000
O O2 0.643784 0.895941 0.522148
O O3 0.552081 0.807753 0.742646
O O4 0.580428 0.710206 0.467189
O O5 0.257436 0.500000 0.916205
O O6 0.223523 0.678517 0.753203
O O7 0.354001 0.656834 0.819278
O O8 0.258546 0.681519 0.080019
O O9 0.226708 0.183970 0.585771
O O10 0.244628 0.000000 0.412186
O O11 0.118587 0.127777 0.825865
O O12 0.990949 0.108905 0.739148
O O13 0.000000 0.213775 0.000000
O O14 0.398150 0.500000 0.604432
O O15 0.270602 0.500000 0.252431
#
# Coordination Sequence:
#
# PCOD8100665 Si02
#       6
#     8   8   8   8   8   8
#     4  10  24  42  60  86 118 150 209 256 301 363
#     4   9  18  34  57  89 122 153 198 245 292 356
#     4  10  22  43  65  85 116 157 204 262 310 348
#     4  11  21  35  56  87 127 166 197 236 288 359
#     4  10  20  36  58  85 124 165 196 235 290 355
#     4  10  20  35  60  93 122 157 205 243 291 363
#
# _framework density 25.649466
#
# number of rings (size 3 to 8) (size 9 to 14) (size 15 to 20)
#    0.000    2.000    1.667    1.500    0.000    8.667 
#    6.000    1.667    0.000    0.500    0.000    0.000 
#    0.000    0.000    0.000    0.000    0.000    0.000 
#
# Total GULP energy -297373.315910 kJ/mol
# GULP energy per Si atom -12390.554830 kJ/mol
# Density = 2.559109 g / cm^3
# Si number density = 25.649466 Si / 1000 Ang^3
#
#
#
# Elastic Constant Matrix: (Units=GPa)
#
#
# Indices 1 2 3 4 5 6 
#
# 1 174.2944 10.7027 62.8771 0.0000 11.4153 0.0000
# 2 10.7027 60.0259 78.7346 0.0000 4.9116 0.0000
# 3 62.8771 78.7346 213.8714 0.0000 -6.4851 0.0000
# 4 0.0000 0.0000 0.0000 22.6143 0.0000 4.4374
# 5 11.4153 4.9116 -6.4851 0.0000 49.7904 0.0000
# 6 0.0000 0.0000 0.0000 4.4374 0.0000 10.3736
#
#
#
# Elastic Compliance Matrix: (Units=1/GPa)
#
#
# Indices 1 2 3 4 5 6 
#
# 1 0.006882 0.003308 -0.003312 0.000000 -0.002336 0.000000
# 2 0.003308 0.034961 -0.014026 0.000000 -0.006034 0.000000
# 3 -0.003312 -0.014026 0.010921 0.000000 0.003565 0.000000
# 4 0.000000 0.000000 0.000000 0.048272 0.000000 -0.020649
# 5 -0.002336 -0.006034 0.003565 0.000000 0.021679 0.000000
# 6 0.000000 0.000000 0.000000 -0.020649 0.000000 0.105231
#
#
# Mechanical properties :
#
#
# Convention : Reuss Voigt Hill
#
# Bulk Modulus (GPa) = 40.47823 83.64674 62.06248
# Shear Modulus (GPa) = 18.92208 36.28079 27.60143
#
# Velocity S-wave (km/s) = 2.71904 3.76504 3.28396
# Velocity P-wave (km/s) = 5.06687 7.18213 6.21515
#
# Compressibility (1/GPa) = 0.02470464
#
# Stress axis : x y z
#
# Youngs Moduli (GPa) = 145.30518 28.60306 91.56514
#
# Poissons Ratio (x) = -0.09463 0.30327
# Poissons Ratio (y) = -0.48073 1.28432
# Poissons Ratio (z) = 0.48126 0.40119
#
# Static dielectric constant tensor:
#      x y z
#    x 4.744090 0.000000 0.120670 
#    y 0.000000 4.571820 0.000000 
#    z 0.120670 0.000000 5.312730 
# 
# 
# High freq. dielectric constant tensor:
#      x y z
#    x 2.017810 0.000000 0.009510 
#    y 0.000000 2.044040 0.000000 
#    z 0.009510 0.000000 2.056900 
# 
# From -- ./inp_files/73596.got.cif
#   From: 2010.06.25/outbox.cif.g09.slc.cpg/sg12_37_cif.got.tgz:73596.got - 2010.06.28 00:19:55.
