data_PCOD8100106
_publ_section_title
;
Structure prediction by ZEFSAII (Michael W. Deem and Ramdas Pophale) SiO2 
 PCOD8100106
Probable space group: C 2/M
;
_chemical_formula_sum "Si O2"
_cell_formula_units_Z 64
_cell_length_a 24.934866
_cell_length_b 13.807506
_cell_length_c 15.963828
_cell_angle_alpha 90.000000
_cell_angle_beta 36.284637
_cell_angle_gamma 90.000000
_cell_volume 3252.610970
_symmetry_space_group_name_H-M "C 2/M"
_symmetry_group_IT_number 12
_symmetry_cell_setting 'monoclinic'
loop_
_space_group_symop_operation_xyz
x,y,z
-x,y,-z
-x,-y,-z
x,-y,z
1/2+x,1/2+y,z
1/2-x,1/2+y,-z
1/2-x,1/2-y,-z
1/2+x,1/2-y,z
loop_
_atom_site_type_symbol
_atom_site_label
_atom_site_fract_x
_atom_site_fract_y
_atom_site_fract_z
Si Si1 0.470881 0.110442 0.885222
Si Si2 0.349256 0.608761 0.993197
Si Si3 0.436190 0.739820 0.507127
Si Si4 0.267842 0.262996 0.614952
Si Si5 0.409610 0.773550 0.807310
Si Si6 0.586449 0.277641 0.938425
Si Si7 0.320090 0.887670 0.412689
Si Si8 0.647091 0.107921 0.275567
O O1 0.420613 0.149689 0.866828
O O2 0.577996 0.126051 0.746989
O O3 0.443127 0.000000 0.931344
O O4 0.431458 0.166019 0.014791
O O5 0.378759 0.500000 0.930063
O O6 0.355016 0.676892 0.903567
O O7 0.416031 0.654473 0.976849
O O8 0.253148 0.605908 0.161772
O O9 0.500000 0.687013 0.500000
O O10 0.338967 0.696431 0.597397
O O11 0.491968 0.744918 0.351565
O O12 0.411444 0.845737 0.575760
O O13 0.178123 0.219890 0.770323
O O14 0.309286 0.172149 0.512128
O O15 0.246156 0.349358 0.577439
O O16 0.354783 0.825779 0.803822
O O17 0.500000 0.320330 0.000000
O O18 0.297538 0.000000 0.459039
O O19 0.608998 0.000000 0.307656
#
# Coordination Sequence:
#
# PCOD8100106 Si02
#       8
#     8   8   8   8   8   8   8   8
#     4  10  20  35  57  88 116 147 189 238 298 355
#     4  10  22  38  58  82 112 156 202 234 278 341
#     4  10  21  36  59  88 116 155 190 237 297 347
#     4  11  21  40  60  85 125 151 192 243 292 354
#     4  10  20  36  57  84 120 151 185 240 298 344
#     4  11  22  37  57  84 116 154 185 238 293 341
#     4  10  22  37  62  90 115 154 197 242 298 348
#     4  10  20  35  59  91 116 146 190 242 298 350
#
# _framework density 19.676499
#
# number of rings (size 3 to 8) (size 9 to 14) (size 15 to 20)
#    0.000    1.750    3.750    0.750    0.000    4.750 
#    0.000    1.875    0.000    6.750    0.000    0.000 
#    0.000    0.000    0.000    0.000    0.000    0.000 
#
# Total GULP energy -396542.542846 kJ/mol
# GULP energy per Si atom -12391.954464 kJ/mol
# Density = 1.963171 g / cm^3
# Si number density = 19.676499 Si / 1000 Ang^3
#
#
#
# Elastic Constant Matrix: (Units=GPa)
#
#
# Indices 1 2 3 4 5 6 
#
# 1 78.6740 -4.3893 -9.6134 0.0000 -11.6911 0.0000
# 2 -4.3893 74.5590 -0.1349 0.0000 -1.5212 0.0000
# 3 -9.6134 -0.1349 64.6511 0.0000 -3.9654 0.0000
# 4 0.0000 0.0000 0.0000 26.8731 0.0000 -1.9843
# 5 -11.6911 -1.5212 -3.9654 0.0000 28.8813 0.0000
# 6 0.0000 0.0000 0.0000 -1.9843 0.0000 19.6774
#
#
#
# Elastic Compliance Matrix: (Units=1/GPa)
#
#
# Indices 1 2 3 4 5 6 
#
# 1 0.013960 0.000949 0.002448 0.000000 0.006037 0.000000
# 2 0.000949 0.013492 0.000238 0.000000 0.001128 0.000000
# 3 0.002448 0.000238 0.016029 0.000000 0.003204 0.000000
# 4 0.000000 0.000000 0.000000 0.037491 0.000000 0.003781
# 5 0.006037 0.001128 0.003204 0.000000 0.037568 0.000000
# 6 0.000000 0.000000 0.000000 0.003781 0.000000 0.051201
#
#
# Mechanical properties :
#
#
# Convention : Reuss Voigt Hill
#
# Bulk Modulus (GPa) = 19.70362 21.06766 20.38564
# Shear Modulus (GPa) = 27.87298 30.55447 29.21373
#
# Velocity S-wave (km/s) = 3.76781 3.94489 3.85736
# Velocity P-wave (km/s) = 5.38182 5.61068 5.49744
#
# Compressibility (1/GPa) = 0.05075209
#
# Stress axis : x y z
#
# Youngs Moduli (GPa) = 71.63367 74.12061 62.38809
#
# Poissons Ratio (x) = -0.07037 -0.15273
# Poissons Ratio (y) = -0.06801 -0.01488
# Poissons Ratio (z) = -0.17536 -0.01768
#
# Static dielectric constant tensor:
#      x y z
#    x 3.809930 0.000000 -0.011390 
#    y 0.000000 3.453390 0.000000 
#    z -0.011390 0.000000 3.582550 
# 
# 
# High freq. dielectric constant tensor:
#      x y z
#    x 1.778540 0.000000 -0.001390 
#    y 0.000000 1.740230 0.000000 
#    z -0.001390 0.000000 1.771370 
# 
# From -- ./inp_files/240659.got.cif
#   From: 2010.06.25/outbox.cif.g09.slc.cpg/sg12_121_cif.got.tgz:240659.got - 2010.06.28 00:19:55.
