data_PCOD8100170
_publ_section_title
;
Structure prediction by ZEFSAII (Michael W. Deem and Ramdas Pophale) SiO2 
 PCOD8100170
Probable space group: C 2/M
;
_chemical_formula_sum "Si O2"
_cell_formula_units_Z 48
_cell_length_a 23.420175
_cell_length_b 9.084596
_cell_length_c 12.400259
_cell_angle_alpha 90.000000
_cell_angle_beta 88.917715
_cell_angle_gamma 90.000000
_cell_volume 2637.843499
_symmetry_space_group_name_H-M "C 2/M"
_symmetry_group_IT_number 12
_symmetry_cell_setting 'monoclinic'
loop_
_space_group_symop_operation_xyz
x,y,z
-x,y,-z
-x,-y,-z
x,-y,z
1/2+x,1/2+y,z
1/2-x,1/2+y,-z
1/2-x,1/2-y,-z
1/2+x,1/2-y,z
loop_
_atom_site_type_symbol
_atom_site_label
_atom_site_fract_x
_atom_site_fract_y
_atom_site_fract_z
Si Si1 0.810440 0.827999 0.494779
Si Si2 0.698734 0.169907 0.129162
Si Si3 0.813359 0.672069 0.115208
Si Si4 0.882988 0.169391 0.282524
Si Si5 0.003842 0.172279 0.374599
Si Si6 0.883171 0.672513 0.674080
O O1 0.750000 0.750000 0.500000
O O2 0.836823 0.801389 0.376800
O O3 0.852331 0.758943 0.580275
O O4 0.803219 0.000000 0.520154
O O5 0.754242 0.261480 0.161783
O O6 0.647711 0.206279 0.212062
O O7 0.716833 0.000000 0.133877
O O8 0.677939 0.213672 0.010385
O O9 0.811246 0.500000 0.134851
O O10 0.866788 0.737027 0.178219
O O11 0.945091 0.219093 0.320324
O O12 0.883651 0.000000 0.248693
O O13 0.052782 0.267943 0.316303
O O14 0.000000 0.213486 0.500000
O O15 0.017382 0.000000 0.359845
O O16 0.883028 0.500000 0.647054
#
# Coordination Sequence:
#
# PCOD8100170 Si02
#       6
#     8   8   8   8   8   8
#     4  11  22  36  53  79 113 145 177 222 277 329
#     4   9  20  38  56  79 114 148 177 220 279 327
#     4  10  20  35  58  84 109 142 185 227 268 322
#     4  10  21  37  56  77 109 146 179 221 277 327
#     4  10  20  39  59  77 106 149 187 223 274 325
#     4  11  22  36  56  82 110 143 183 226 273 326
#
# _framework density 18.196681999999999
#
# number of rings (size 3 to 8) (size 9 to 14) (size 15 to 20)
#    0.000    1.833    1.667    2.500    0.000    8.333 
#    0.000    0.833    0.000    5.000    0.000    0.000 
#    0.000    0.000    0.000    0.000    0.000    0.000 
#
# Total GULP energy -297714.174046 kJ/mol
# GULP energy per Si atom -12404.757252 kJ/mol
# Density = 1.815527 g / cm^3
# Si number density = 18.196682 Si / 1000 Ang^3
#
#
#
# Elastic Constant Matrix: (Units=GPa)
#
#
# Indices 1 2 3 4 5 6 
#
# 1 109.5357 49.9883 44.3062 0.0000 18.2498 0.0000
# 2 49.9883 80.3132 47.0630 0.0000 8.0463 0.0000
# 3 44.3062 47.0630 89.1643 0.0000 19.4850 0.0000
# 4 0.0000 0.0000 0.0000 32.4047 0.0000 3.9938
# 5 18.2498 8.0463 19.4850 0.0000 30.8069 0.0000
# 6 0.0000 0.0000 0.0000 3.9938 0.0000 37.7041
#
#
#
# Elastic Compliance Matrix: (Units=1/GPa)
#
#
# Indices 1 2 3 4 5 6 
#
# 1 0.014035 -0.006937 -0.002195 0.000000 -0.005114 0.000000
# 2 -0.006937 0.021517 -0.008796 0.000000 0.004053 0.000000
# 3 -0.002195 -0.008796 0.018755 0.000000 -0.008264 0.000000
# 4 0.000000 0.000000 0.000000 0.031268 0.000000 -0.003312
# 5 -0.005114 0.004053 -0.008264 0.000000 0.039659 0.000000
# 6 0.000000 0.000000 0.000000 -0.003312 0.000000 0.026873
#
#
# Mechanical properties :
#
#
# Convention : Reuss Voigt Hill
#
# Bulk Modulus (GPa) = 54.19718 62.41424 58.30571
# Shear Modulus (GPa) = 25.75813 29.36020 27.55916
#
# Velocity S-wave (km/s) = 3.76645 4.02119 3.89590
# Velocity P-wave (km/s) = 6.98309 7.47892 7.23525
#
# Compressibility (1/GPa) = 0.01845115
#
# Stress axis : x y z
#
# Youngs Moduli (GPa) = 71.24915 46.47401 53.32002
#
# Poissons Ratio (x) = 0.32240 0.11704
# Poissons Ratio (y) = 0.49427 0.46900
# Poissons Ratio (z) = 0.15639 0.40878
#
# Static dielectric constant tensor:
#      x y z
#    x 4.040890 0.000000 0.201260 
#    y 0.000000 3.052380 0.000000 
#    z 0.201260 0.000000 3.482120 
# 
# 
# High freq. dielectric constant tensor:
#      x y z
#    x 1.706720 0.000000 0.004930 
#    y 0.000000 1.711400 0.000000 
#    z 0.004930 0.000000 1.705080 
# 
# From -- ./inp_files/172241.got.cif
#   From: 2010.06.25/outbox.cif.g09.slc.cpg/sg12_87_cif.got.tgz:172241.got - 2010.06.28 00:19:55.
