data_PCOD8100757
_publ_section_title
;
Structure prediction by ZEFSAII (Michael W. Deem and Ramdas Pophale) SiO2 
 PCOD8100757
Probable space group: C 2/M
;
_chemical_formula_sum "Si O2"
_cell_formula_units_Z 56
_cell_length_a 17.659096
_cell_length_b 13.883589
_cell_length_c 15.478709
_cell_angle_alpha 90.000000
_cell_angle_beta 47.194928
_cell_angle_gamma 90.000000
_cell_volume 2784.232792
_symmetry_space_group_name_H-M "C 2/M"
_symmetry_group_IT_number 12
_symmetry_cell_setting 'monoclinic'
loop_
_space_group_symop_operation_xyz
x,y,z
-x,y,-z
-x,-y,-z
x,-y,z
1/2+x,1/2+y,z
1/2-x,1/2+y,-z
1/2-x,1/2-y,-z
1/2+x,1/2-y,z
loop_
_atom_site_type_symbol
_atom_site_label
_atom_site_fract_x
_atom_site_fract_y
_atom_site_fract_z
Si Si1 0.700085 0.107245 0.565690
Si Si2 0.746446 0.283571 0.643209
Si Si3 0.578216 0.278007 0.374784
Si Si4 0.749018 0.388738 0.939013
Si Si5 0.377860 0.268563 0.102084
Si Si6 0.526458 0.107409 0.305082
Si Si7 0.264682 0.613350 0.854865
O O1 0.749519 0.179133 0.595801
O O2 0.738237 0.133016 0.439086
O O3 0.576265 0.110807 0.673712
O O4 0.741115 0.000000 0.553815
O O5 0.836224 0.284814 0.643586
O O6 0.644532 0.300819 0.781063
O O7 0.500000 0.333463 0.500000
O O8 0.509448 0.194802 0.383976
O O9 0.627057 0.355865 0.272488
O O10 0.720017 0.500000 0.955442
O O11 0.727862 0.350196 0.052106
O O12 0.677085 0.337350 0.924939
O O13 0.870451 0.370680 0.829041
O O14 0.331745 0.161908 0.120201
O O15 0.500000 0.269411 0.000000
O O16 0.534445 0.000000 0.341676
O O17 0.247932 0.500000 0.861160
#
# Coordination Sequence:
#
# PCOD8100757 Si02
#       7
#     8   8   8   8   8   8   8
#     4  10  22  39  61  87 120 158 195 242 296 346
#     4  10  22  39  57  89 123 154 195 242 293 354
#     4  11  21  38  63  90 122 156 196 244 294 357
#     4  10  21  40  63  91 120 152 196 245 300 358
#     4  11  24  39  63  88 119 158 195 247 298 350
#     4  10  20  35  65  96 116 146 193 251 301 348
#     4  10  23  41  61  87 119 157 201 246 290 350
#
# _framework density 20.113261999999999
#
# number of rings (size 3 to 8) (size 9 to 14) (size 15 to 20)
#    0.000    1.714    4.286    0.429    2.000    4.571 
#    0.000    0.000    0.000    0.000    0.000    0.000 
#    0.000    0.000    0.000    0.000    0.000    0.000 
#
# Total GULP energy -347077.282313 kJ/mol
# GULP energy per Si atom -12395.617225 kJ/mol
# Density = 2.006748 g / cm^3
# Si number density = 20.113262 Si / 1000 Ang^3
#
#
#
# Elastic Constant Matrix: (Units=GPa)
#
#
# Indices 1 2 3 4 5 6 
#
# 1 32.2481 17.0107 19.8436 0.0000 -1.1149 0.0000
# 2 17.0107 69.6191 27.1563 0.0000 -5.5778 0.0000
# 3 19.8436 27.1563 148.5424 0.0000 -3.3509 0.0000
# 4 0.0000 0.0000 0.0000 23.6198 0.0000 -1.6459
# 5 -1.1149 -5.5778 -3.3509 0.0000 30.1388 0.0000
# 6 0.0000 0.0000 0.0000 -1.6459 0.0000 23.6620
#
#
#
# Elastic Compliance Matrix: (Units=1/GPa)
#
#
# Indices 1 2 3 4 5 6 
#
# 1 0.037282 -0.007752 -0.003573 0.000000 -0.000453 0.000000
# 2 -0.007752 0.017277 -0.002063 0.000000 0.002681 0.000000
# 3 -0.003573 -0.002063 0.007594 0.000000 0.000330 0.000000
# 4 0.000000 0.000000 0.000000 0.042544 0.000000 0.002959
# 5 -0.000453 0.002681 0.000330 0.000000 0.033696 0.000000
# 6 0.000000 0.000000 0.000000 0.002959 0.000000 0.042468
#
#
# Mechanical properties :
#
#
# Convention : Reuss Voigt Hill
#
# Bulk Modulus (GPa) = 28.26659 42.04786 35.15722
# Shear Modulus (GPa) = 22.78643 27.91071 25.34857
#
# Velocity S-wave (km/s) = 3.36952 3.72919 3.55391
# Velocity P-wave (km/s) = 5.40578 6.28438 5.86156
#
# Compressibility (1/GPa) = 0.03537746
#
# Stress axis : x y z
#
# Youngs Moduli (GPa) = 26.82267 57.87930 131.68305
#
# Poissons Ratio (x) = 0.44867 0.47057
# Poissons Ratio (y) = 0.20792 0.27160
# Poissons Ratio (z) = 0.09585 0.11938
#
# Static dielectric constant tensor:
#      x y z
#    x 3.478500 0.000000 0.057350 
#    y 0.000000 3.651030 0.000000 
#    z 0.057350 0.000000 4.054190 
# 
# 
# High freq. dielectric constant tensor:
#      x y z
#    x 1.770010 0.000000 0.001300 
#    y 0.000000 1.782710 0.000000 
#    z 0.001300 0.000000 1.800040 
# 
# From -- ./inp_files/225190.got.cif
#   From: 2010.06.25/outbox.cif.g09.slc.cpg/sg12_113_cif.got.tgz:225190.got - 2010.06.28 00:19:55.
