data_PCOD8100519
_publ_section_title
;
Structure prediction by ZEFSAII (Michael W. Deem and Ramdas Pophale) SiO2 
 PCOD8100519
Probable space group: C 2/M
;
_chemical_formula_sum "Si O2"
_cell_formula_units_Z 56
_cell_length_a 30.881791
_cell_length_b 8.891597
_cell_length_c 11.654782
_cell_angle_alpha 90.000000
_cell_angle_beta 115.826255
_cell_angle_gamma 90.000000
_cell_volume 2880.623164
_symmetry_space_group_name_H-M "C 2/M"
_symmetry_group_IT_number 12
_symmetry_cell_setting 'monoclinic'
loop_
_space_group_symop_operation_xyz
x,y,z
-x,y,-z
-x,-y,-z
x,-y,z
1/2+x,1/2+y,z
1/2-x,1/2+y,-z
1/2-x,1/2-y,-z
1/2+x,1/2-y,z
loop_
_atom_site_type_symbol
_atom_site_label
_atom_site_fract_x
_atom_site_fract_y
_atom_site_fract_z
Si Si1 0.912722 0.673804 0.699696
Si Si2 0.984432 0.825130 0.178189
Si Si3 0.547547 0.324510 0.611258
Si Si4 0.905408 0.672910 0.952292
Si Si5 0.189596 0.323851 0.027340
Si Si6 0.864711 0.821424 0.435175
Si Si7 0.214225 0.675913 0.799430
O O1 0.913447 0.500000 0.664733
O O2 0.892602 0.695899 0.804631
O O3 0.876559 0.763535 0.575949
O O4 0.966412 0.736039 0.752336
O O5 0.951849 0.793086 0.252687
O O6 0.996832 0.000000 0.178268
O O7 0.953163 0.769022 0.034630
O O8 0.500000 0.250175 0.500000
O O9 0.546943 0.500000 0.582049
O O10 0.594884 0.256675 0.606004
O O11 0.917391 0.500000 0.993924
O O12 0.860691 0.729668 0.976560
O O13 0.198610 0.500000 0.057801
O O14 0.231241 0.233427 0.140117
O O15 0.189495 0.283241 0.892561
O O16 0.813786 0.757512 0.335414
O O17 0.862113 0.000000 0.433689
O O18 0.213810 0.500000 0.775318
#
# Coordination Sequence:
#
# PCOD8100519 Si02
#       7
#     8   8   8   8   8   8   8
#     4  11  23  38  54  76 111 150 187 228 272 317
#     4  11  21  35  57  82 109 145 187 228 272 326
#     4   9  17  32  52  77 109 140 175 221 268 314
#     4  10  22  39  57  78 109 147 185 228 273 320
#     4   9  19  38  61  84 111 143 181 222 271 329
#     4  11  21  36  58  81 111 148 185 223 272 329
#     4  10  20  35  59  89 116 138 172 224 279 331
#
# _framework density 19.440238000000001
#
# number of rings (size 3 to 8) (size 9 to 14) (size 15 to 20)
#    0.000    1.857    1.429    3.000    0.000    4.000 
#    0.000    3.571    0.000    0.000    0.000    0.000 
#    0.000    0.000    0.000    0.000    0.000    0.000 
#
# Total GULP energy -347302.744867 kJ/mol
# GULP energy per Si atom -12403.669460 kJ/mol
# Density = 1.939599 g / cm^3
# Si number density = 19.440238 Si / 1000 Ang^3
#
#
#
# Elastic Constant Matrix: (Units=GPa)
#
#
# Indices 1 2 3 4 5 6 
#
# 1 52.5011 28.4435 33.3722 0.0000 8.6711 0.0000
# 2 28.4435 75.4781 47.3161 0.0000 11.5748 0.0000
# 3 33.3722 47.3161 124.4781 0.0000 22.6375 0.0000
# 4 0.0000 0.0000 0.0000 35.2727 0.0000 3.5460
# 5 8.6711 11.5748 22.6375 0.0000 26.8904 0.0000
# 6 0.0000 0.0000 0.0000 3.5460 0.0000 25.5457
#
#
#
# Elastic Compliance Matrix: (Units=1/GPa)
#
#
# Indices 1 2 3 4 5 6 
#
# 1 0.025580 -0.006907 -0.003865 0.000000 -0.002022 0.000000
# 2 -0.006907 0.019376 -0.005198 0.000000 -0.001738 0.000000
# 3 -0.003865 -0.005198 0.012294 0.000000 -0.006866 0.000000
# 4 0.000000 0.000000 0.000000 0.028752 0.000000 -0.003991
# 5 -0.002022 -0.001738 -0.006866 0.000000 0.044368 0.000000
# 6 0.000000 0.000000 0.000000 -0.003991 0.000000 0.039700
#
#
# Mechanical properties :
#
#
# Convention : Reuss Voigt Hill
#
# Bulk Modulus (GPa) = 39.50705 52.30235 45.90470
# Shear Modulus (GPa) = 23.75918 27.09680 25.42799
#
# Velocity S-wave (km/s) = 3.49974 3.73748 3.62056
# Velocity P-wave (km/s) = 6.05783 6.75186 6.41424
#
# Compressibility (1/GPa) = 0.02531193
#
# Stress axis : x y z
#
# Youngs Moduli (GPa) = 39.09366 51.60918 81.34029
#
# Poissons Ratio (x) = 0.35645 0.31436
# Poissons Ratio (y) = 0.27001 0.42277
# Poissons Ratio (z) = 0.15109 0.26824
#
# Static dielectric constant tensor:
#      x y z
#    x 3.518360 0.000000 -0.050730 
#    y 0.000000 3.429450 0.000000 
#    z -0.050730 0.000000 3.554400 
# 
# 
# High freq. dielectric constant tensor:
#      x y z
#    x 1.746490 0.000000 0.001860 
#    y 0.000000 1.749980 0.000000 
#    z 0.001860 0.000000 1.762230 
# 
# From -- ./inp_files/180684.got.cif
#   From: 2010.06.25/outbox.cif.g09.slc.cpg/sg12_91_cif.got.tgz:180684.got - 2010.06.28 00:19:55.
