data_PCOD8100185
_publ_section_title
;
Structure prediction by ZEFSAII (Michael W. Deem and Ramdas Pophale) SiO2 
 PCOD8100185
Probable space group: C 2/M
;
_chemical_formula_sum "Si O2"
_cell_formula_units_Z 64
_cell_length_a 18.709354
_cell_length_b 9.098274
_cell_length_c 30.022701
_cell_angle_alpha 90.000000
_cell_angle_beta 39.312608
_cell_angle_gamma 90.000000
_cell_volume 3237.794217
_symmetry_space_group_name_H-M "C 2/M"
_symmetry_group_IT_number 12
_symmetry_cell_setting 'monoclinic'
loop_
_space_group_symop_operation_xyz
x,y,z
-x,y,-z
-x,-y,-z
x,-y,z
1/2+x,1/2+y,z
1/2-x,1/2+y,-z
1/2-x,1/2-y,-z
1/2+x,1/2-y,z
loop_
_atom_site_type_symbol
_atom_site_label
_atom_site_fract_x
_atom_site_fract_y
_atom_site_fract_z
Si Si1 0.544878 0.827936 0.301755
Si Si2 0.669089 0.668316 0.073524
Si Si3 0.548769 0.167363 0.840033
Si Si4 0.783736 0.327631 0.438461
Si Si5 0.814400 0.168760 0.832997
Si Si6 0.698022 0.674509 0.301454
Si Si7 0.373133 0.674459 0.566453
Si Si8 0.576619 0.832237 0.925901
O O1 0.413261 0.790470 0.366621
O O2 0.584849 0.769111 0.234198
O O3 0.609772 0.748209 0.310591
O O4 0.567978 0.000000 0.294415
O O5 0.663396 0.500000 0.060955
O O6 0.542889 0.731366 0.139164
O O7 0.715692 0.686634 0.100665
O O8 0.750000 0.750000 0.000000
O O9 0.674533 0.225876 0.770393
O O10 0.516792 0.178661 0.907411
O O11 0.536959 0.000000 0.828589
O O12 0.763303 0.500000 0.454194
O O13 0.750000 0.250000 0.500000
O O14 0.707152 0.266041 0.434547
O O15 0.703045 0.230973 0.861619
O O16 0.843372 0.000000 0.807060
O O17 0.686072 0.500000 0.301306
O O18 0.672629 0.727929 0.363765
O O19 0.500000 0.736703 0.500000
O O20 0.373666 0.500000 0.564599
O O21 0.593688 0.000000 0.933434
O O22 0.500000 0.750175 0.000000
#
# Coordination Sequence:
#
# PCOD8100185 Si02
#       8
#     8   8   8   8   8   8   8   8
#     4  11  23  37  58  88 124 155 187 246 305 344
#     4  11  24  40  60  85 117 155 197 248 301 357
#     4  10  20  35  58  84 112 152 197 241 291 346
#     4  10  22  39  60  89 120 155 196 240 295 349
#     4  10  21  39  60  83 113 157 205 237 283 356
#     4  10  20  37  62  85 113 159 203 237 282 351
#     4   9  18  34  59  88 114 148 196 241 278 335
#     4   9  16  31  56  81 105 140 191 240 276 327
#
# _framework density 19.766542999999999
#
# number of rings (size 3 to 8) (size 9 to 14) (size 15 to 20)
#    0.000    2.000    1.250    2.250    1.750    5.500 
#    0.000    0.625    0.000    3.750    0.000    0.000 
#    0.000    0.000    0.000    0.000    0.000    0.000 
#
# Total GULP energy -396746.116451 kJ/mol
# GULP energy per Si atom -12398.316139 kJ/mol
# Density = 1.972155 g / cm^3
# Si number density = 19.766543 Si / 1000 Ang^3
#
#
#
# Elastic Constant Matrix: (Units=GPa)
#
#
# Indices 1 2 3 4 5 6 
#
# 1 106.9353 35.2621 45.2215 0.0000 -5.7324 -0.0118
# 2 35.2621 58.0786 40.0081 -0.0019 -5.6678 -0.0040
# 3 45.2215 40.0081 134.8834 0.0011 1.8928 -0.0004
# 4 0.0000 -0.0019 0.0011 28.1249 0.0005 -0.7565
# 5 -5.7324 -5.6678 1.8928 0.0005 38.2514 -0.0030
# 6 -0.0118 -0.0040 -0.0004 -0.7565 -0.0030 28.0039
#
#
#
# Elastic Compliance Matrix: (Units=1/GPa)
#
#
# Indices 1 2 3 4 5 6 
#
# 1 0.012326 -0.005676 -0.002465 0.000000 0.001128 0.000004
# 2 -0.005676 0.024739 -0.005478 0.000002 0.003086 0.000001
# 3 -0.002465 -0.005478 0.009889 -0.000001 -0.001670 -0.000002
# 4 0.000000 0.000002 -0.000001 0.035582 0.000000 0.000961
# 5 0.001128 0.003086 -0.001670 0.000000 0.026852 0.000004
# 6 0.000004 0.000001 -0.000002 0.000961 0.000004 0.035735
#
#
# Mechanical properties :
#
#
# Convention : Reuss Voigt Hill
#
# Bulk Modulus (GPa) = 50.72054 60.09784 55.40919
# Shear Modulus (GPa) = 27.94370 30.83642 29.39006
#
# Velocity S-wave (km/s) = 3.76398 3.95401 3.86016
# Velocity P-wave (km/s) = 6.67874 7.16348 6.92535
#
# Compressibility (1/GPa) = 0.01971588
#
# Stress axis : x y z
#
# Youngs Moduli (GPa) = 81.13086 40.42208 101.12688
#
# Poissons Ratio (x) = 0.22942 0.24926
# Poissons Ratio (y) = 0.46046 0.55401
# Poissons Ratio (z) = 0.19997 0.22145
#
# Static dielectric constant tensor:
#      x y z
#    x 3.702710 0.000000 -0.049750 
#    y 0.000000 3.304470 0.000000 
#    z -0.049750 0.000000 3.828690 
# 
# 
# High freq. dielectric constant tensor:
#      x y z
#    x 1.781090 0.000000 -0.001200 
#    y 0.000000 1.732280 0.000000 
#    z -0.001200 0.000000 1.788680 
# 
# From -- ./inp_files/378228.got.cif
#   From: 2010.06.25/outbox.cif.g09.slc.cpg/sg12_190_cif.got.tgz:378228.got - 2010.06.28 00:19:55.
