data_PCOD8100119
_publ_section_title
;
Structure prediction by ZEFSAII (Michael W. Deem and Ramdas Pophale) SiO2 
 PCOD8100119
Probable space group: C 2/M
;
_chemical_formula_sum "Si O2"
_cell_formula_units_Z 64
_cell_length_a 21.376597
_cell_length_b 20.221034
_cell_length_c 12.320912
_cell_angle_alpha 90.000000
_cell_angle_beta 141.274309
_cell_angle_gamma 90.000000
_cell_volume 3331.780186
_symmetry_space_group_name_H-M "C 2/M"
_symmetry_group_IT_number 12
_symmetry_cell_setting 'monoclinic'
loop_
_space_group_symop_operation_xyz
x,y,z
-x,y,-z
-x,-y,-z
x,-y,z
1/2+x,1/2+y,z
1/2-x,1/2+y,-z
1/2-x,1/2-y,-z
1/2+x,1/2-y,z
loop_
_atom_site_type_symbol
_atom_site_label
_atom_site_fract_x
_atom_site_fract_y
_atom_site_fract_z
Si Si1 0.099720 0.866393 0.363654
Si Si2 0.295606 0.364228 0.699783
Si Si3 0.612255 0.426665 0.612976
Si Si4 0.196685 0.848737 0.915749
Si Si5 0.383035 0.216053 0.090860
Si Si6 0.386518 0.770484 0.852791
Si Si7 0.612745 0.211388 0.381788
Si Si8 0.107200 0.925310 0.972593
O O1 0.180842 0.894108 0.386844
O O2 0.116062 0.908773 0.492428
O O3 0.119654 0.789221 0.416977
O O4 0.988893 0.877174 0.162934
O O5 0.377840 0.307711 0.830052
O O6 0.183752 0.332366 0.556363
O O7 0.319583 0.417299 0.824691
O O8 0.500000 0.429115 0.500000
O O9 0.660638 0.500000 0.693391
O O10 0.666582 0.368882 0.753392
O O11 0.129393 0.789454 0.875523
O O12 0.179212 0.912149 0.967494
O O13 0.314124 0.830713 0.072146
O O14 0.497538 0.191022 0.248003
O O15 0.341718 0.210025 0.909937
O O16 0.343703 0.802493 0.682506
O O17 0.500000 0.791879 0.000000
O O18 0.067597 0.000000 0.915157
#
# Coordination Sequence:
#
# PCOD8100119 Si02
#       8
#     8   8   8   8   8   8   8   8
#     4  11  21  37  58  88 117 153 192 241 297 354
#     4  11  22  34  58  86 119 153 193 241 293 348
#     4  11  22  36  55  81 115 150 187 234 288 349
#     4  11  22  36  58  84 118 152 194 241 292 353
#     4  10  20  36  59  85 114 152 193 242 296 344
#     4   9  16  32  55  82 116 150 181 233 305 357
#     4  10  20  35  57  89 120 148 189 245 301 346
#     4  12  23  40  60  83 122 164 201 240 286 352
#
# _framework density 19.208950000000002
#
# number of rings (size 3 to 8) (size 9 to 14) (size 15 to 20)
#    0.000    1.375    3.750    4.125    3.500    1.500 
#    0.000    1.875    0.000    2.250    0.000    0.875 
#    0.000    0.000    0.000    0.000    0.000    0.000 
#
# Total GULP energy -396423.001561 kJ/mol
# GULP energy per Si atom -12388.218799 kJ/mol
# Density = 1.916523 g / cm^3
# Si number density = 19.208950 Si / 1000 Ang^3
#
#
#
# Elastic Constant Matrix: (Units=GPa)
#
#
# Indices 1 2 3 4 5 6 
#
# 1 102.7202 33.7904 45.5162 0.0000 -1.8861 0.0000
# 2 33.7904 54.9579 39.9445 0.0000 6.4105 0.0000
# 3 45.5162 39.9445 84.8354 0.0000 -7.4840 0.0000
# 4 0.0000 0.0000 0.0000 27.9469 0.0000 -20.0298
# 5 -1.8861 6.4105 -7.4840 0.0000 23.6151 0.0000
# 6 0.0000 0.0000 0.0000 -20.0298 0.0000 55.7948
#
#
#
# Elastic Compliance Matrix: (Units=1/GPa)
#
#
# Indices 1 2 3 4 5 6 
#
# 1 0.013514 -0.004853 -0.004891 0.000000 0.000847 0.000000
# 2 -0.004853 0.033139 -0.014225 0.000000 -0.013892 0.000000
# 3 -0.004891 -0.014225 0.022032 0.000000 0.010453 0.000000
# 4 0.000000 0.000000 0.000000 0.048178 0.000000 0.017295
# 5 0.000847 -0.013892 0.010453 0.000000 0.049497 0.000000
# 6 0.000000 0.000000 0.000000 0.017295 0.000000 0.024132
#
#
# Mechanical properties :
#
#
# Convention : Reuss Voigt Hill
#
# Bulk Modulus (GPa) = 48.20048 53.44618 50.82333
# Shear Modulus (GPa) = 20.37939 29.68887 25.03413
#
# Velocity S-wave (km/s) = 3.26073 3.93564 3.61398
# Velocity P-wave (km/s) = 6.27086 6.96681 6.62797
#
# Compressibility (1/GPa) = 0.02074668
#
# Stress axis : x y z
#
# Youngs Moduli (GPa) = 73.99488 30.17591 45.38920
#
# Poissons Ratio (x) = 0.14645 0.22200
# Poissons Ratio (y) = 0.35910 0.64567
# Poissons Ratio (z) = 0.36191 0.42925
#
# Static dielectric constant tensor:
#      x y z
#    x 3.860590 0.000000 -0.333750 
#    y 0.000000 3.218920 0.000000 
#    z -0.333750 0.000000 3.637140 
# 
# 
# High freq. dielectric constant tensor:
#      x y z
#    x 1.758030 0.000000 -0.014790 
#    y 0.000000 1.706250 0.000000 
#    z -0.014790 0.000000 1.740610 
# 
# From -- ./inp_files/169698.got.cif
#   From: 2010.06.25/outbox.cif.g09.slc.cpg/sg12_85_cif.got.tgz:169698.got - 2010.06.28 00:19:55.
