data_PCOD8100915
_publ_section_title
;
Structure prediction by ZEFSAII (Michael W. Deem and Ramdas Pophale) SiO2 
 PCOD8100915
Probable space group: C 2/M
;
_chemical_formula_sum "Si O2"
_cell_formula_units_Z 56
_cell_length_a 17.995731
_cell_length_b 36.334164
_cell_length_c 7.854846
_cell_angle_alpha 90.000000
_cell_angle_beta 145.134096
_cell_angle_gamma 90.000000
_cell_volume 2936.015912
_symmetry_space_group_name_H-M "C 2/M"
_symmetry_group_IT_number 12
_symmetry_cell_setting 'monoclinic'
loop_
_space_group_symop_operation_xyz
x,y,z
-x,y,-z
-x,-y,-z
x,-y,z
1/2+x,1/2+y,z
1/2-x,1/2+y,-z
1/2-x,1/2-y,-z
1/2+x,1/2-y,z
loop_
_atom_site_type_symbol
_atom_site_label
_atom_site_fract_x
_atom_site_fract_y
_atom_site_fract_z
Si Si1 0.518943 0.203101 0.844208
Si Si2 0.649676 0.590938 0.472031
Si Si3 0.845713 0.958920 0.210399
Si Si4 0.477209 0.282718 0.268987
Si Si5 0.256321 0.172517 0.288929
Si Si6 0.780727 0.171936 0.387485
Si Si7 0.654629 0.407782 0.096264
O O1 0.512194 0.247221 0.830653
O O2 0.404310 0.183917 0.518571
O O3 0.500000 0.188986 0.000000
O O4 0.661990 0.189412 0.055530
O O5 0.700437 0.560756 0.701983
O O6 0.726848 0.628290 0.654418
O O7 0.679628 0.577316 0.335407
O O8 0.497962 0.599817 0.213031
O O9 0.000000 0.960951 0.500000
O O10 0.786199 0.000000 0.095121
O O11 0.796088 0.937584 0.948697
O O12 0.500000 0.267558 0.500000
O O13 0.583213 0.313041 0.422058
O O14 0.337232 0.302011 0.999028
O O15 0.226225 0.182295 0.427618
O O16 0.233030 0.129608 0.207010
#
# Coordination Sequence:
#
# PCOD8100915 Si02
#       7
#     8   8   8   8   8   8   8
#     4  10  22  38  54  74 104 137 179 230 273 312
#     4   9  17  30  51  76 102 137 177 214 259 317
#     4   9  18  30  48  77 110 138 165 208 265 317
#     4  12  24  34  52  76 104 141 178 223 274 320
#     4  10  20  36  56  76 100 139 183 222 267 317
#     4  10  20  36  56  76 100 139 183 222 267 317
#     4   9  17  30  51  76 102 137 177 214 259 317
#
# _framework density 19.073466
#
# number of rings (size 3 to 8) (size 9 to 14) (size 15 to 20)
#    0.000    2.143    1.429    2.143    2.000    5.143 
#    0.000    2.857    0.000    0.000    0.000    2.000 
#    0.000    5.714    0.000    0.000    0.000    0.000 
#
# Total GULP energy -347187.385825 kJ/mol
# GULP energy per Si atom -12399.549494 kJ/mol
# Density = 1.903005 g / cm^3
# Si number density = 19.073466 Si / 1000 Ang^3
#
#
#
# Elastic Constant Matrix: (Units=GPa)
#
#
# Indices 1 2 3 4 5 6 
#
# 1 44.1898 40.4808 35.8910 0.0000 -17.3193 0.0000
# 2 40.4808 132.2729 56.3473 0.0000 -12.7571 0.0000
# 3 35.8910 56.3473 102.9683 0.0000 2.3293 0.0000
# 4 0.0000 0.0000 0.0000 19.0644 0.0000 -11.8834
# 5 -17.3193 -12.7571 2.3293 0.0000 23.7157 0.0000
# 6 0.0000 0.0000 0.0000 -11.8834 0.0000 18.0650
#
#
#
# Elastic Compliance Matrix: (Units=1/GPa)
#
#
# Indices 1 2 3 4 5 6 
#
# 1 0.059903 -0.006490 -0.018280 0.000000 0.042051 0.000000
# 2 -0.006490 0.011442 -0.004040 0.000000 0.001812 0.000000
# 3 -0.018280 -0.004040 0.018687 0.000000 -0.017358 0.000000
# 4 0.000000 0.000000 0.000000 0.088910 0.000000 0.058486
# 5 0.042051 0.001812 -0.017358 0.000000 0.075555 0.000000
# 6 0.000000 0.000000 0.000000 0.058486 0.000000 0.093829
#
#
# Mechanical properties :
#
#
# Convention : Reuss Voigt Hill
#
# Bulk Modulus (GPa) = 30.85284 60.54103 45.69694
# Shear Modulus (GPa) = 11.99760 21.94981 16.97371
#
# Velocity S-wave (km/s) = 2.51075 3.39603 2.98638
# Velocity P-wave (km/s) = 4.96146 6.86930 5.99180
#
# Compressibility (1/GPa) = 0.03241192
#
# Stress axis : x y z
#
# Youngs Moduli (GPa) = 16.69378 87.39512 53.51318
#
# Poissons Ratio (x) = 0.56720 0.97820
# Poissons Ratio (y) = 0.10834 0.21621
# Poissons Ratio (z) = 0.30515 0.35311
#
# Static dielectric constant tensor:
#      x y z
#    x 3.389970 0.000000 -0.122830 
#    y 0.000000 3.417580 0.000000 
#    z -0.122830 0.000000 3.559110 
# 
# 
# High freq. dielectric constant tensor:
#      x y z
#    x 1.725870 0.000000 -0.018850 
#    y 0.000000 1.731810 0.000000 
#    z -0.018850 0.000000 1.726580 
# 
# From -- ./inp_files/91646.got.cif
#   From: 2010.06.25/outbox.cif.g09.slc.cpg/sg12_46_cif.got.tgz:91646.got - 2010.06.28 00:19:55.
