data_PCOD8100801
_publ_section_title
;
Structure prediction by ZEFSAII (Michael W. Deem and Ramdas Pophale) SiO2 
 PCOD8100801
Probable space group: C 2/M
;
_chemical_formula_sum "Si O2"
_cell_formula_units_Z 64
_cell_length_a 14.833167
_cell_length_b 8.626358
_cell_length_c 26.210212
_cell_angle_alpha 90.000000
_cell_angle_beta 90.321817
_cell_angle_gamma 90.000000
_cell_volume 3353.706458
_symmetry_space_group_name_H-M "C 2/M"
_symmetry_group_IT_number 12
_symmetry_cell_setting 'monoclinic'
loop_
_space_group_symop_operation_xyz
x,y,z
-x,y,-z
-x,-y,-z
x,-y,z
1/2+x,1/2+y,z
1/2-x,1/2+y,-z
1/2-x,1/2-y,-z
1/2+x,1/2-y,z
loop_
_atom_site_type_symbol
_atom_site_label
_atom_site_fract_x
_atom_site_fract_y
_atom_site_fract_z
Si Si1 0.016876 0.317755 0.944437
Si Si2 0.381034 0.182707 0.234258
Si Si3 0.228368 0.184098 0.309095
Si Si4 0.603011 0.683375 0.503803
Si Si5 0.828776 0.318313 0.124647
Si Si6 0.747251 0.817175 0.575187
Si Si7 0.415056 0.818013 0.762614
Si Si8 0.625986 0.320160 0.129670
O O1 0.025878 0.500000 0.951464
O O2 0.936572 0.284105 0.905459
O O3 0.108461 0.248017 0.920020
O O4 0.000000 0.240541 0.000000
O O5 0.314422 0.246086 0.277620
O O6 0.355132 0.257117 0.179329
O O7 0.482306 0.229659 0.248726
O O8 0.368900 0.000000 0.231169
O O9 0.240361 0.239276 0.367035
O O10 0.139968 0.267222 0.287110
O O11 0.216146 0.000000 0.305116
O O12 0.500000 0.749803 0.500000
O O13 0.598113 0.500000 0.506763
O O14 0.654157 0.744090 0.554264
O O15 0.663771 0.738059 0.455702
O O16 0.848327 0.500000 0.128923
O O17 0.726201 0.283819 0.110275
O O18 0.736271 0.000000 0.571357
O O19 0.379736 0.724868 0.811308
O O20 0.405596 0.000000 0.773482
O O21 0.601112 0.500000 0.123353
#
# Coordination Sequence:
#
# PCOD8100801 Si02
#       8
#     8   8   8   8   8   8   8   8
#     4  10  21  38  58  79 105 137 173 216 262 310
#     4   9  17  32  53  73 101 139 171 205 258 317
#     4  10  20  36  54  76 108 141 175 216 264 310
#     4   9  18  34  55  77 106 143 177 215 269 313
#     4   9  17  33  55  76 102 138 170 202 259 316
#     4   9  19  34  53  78 106 139 179 220 257 310
#     4  11  21  34  54  79 105 137 178 215 256 312
#     4  11  21  35  57  79 104 138 174 213 261 312
#
# _framework density 19.083364
#
# number of rings (size 3 to 8) (size 9 to 14) (size 15 to 20)
#    0.000    2.250    2.500    0.750    0.000    2.500 
#    0.000    3.750    0.000    0.000    0.000    0.000 
#    0.000    0.000    0.000    0.000    0.000    0.000 
#
# Total GULP energy -396756.861308 kJ/mol
# GULP energy per Si atom -12398.651916 kJ/mol
# Density = 1.903993 g / cm^3
# Si number density = 19.083364 Si / 1000 Ang^3
#
#
#
# Elastic Constant Matrix: (Units=GPa)
#
#
# Indices 1 2 3 4 5 6 
#
# 1 106.9887 9.4243 20.3004 0.0000 -5.1280 0.0000
# 2 9.4243 10.4328 -1.0252 0.0000 -3.2276 0.0000
# 3 20.3004 -1.0252 85.2306 0.0000 -9.5483 0.0000
# 4 0.0000 0.0000 0.0000 20.8341 0.0000 6.9430
# 5 -5.1280 -3.2276 -9.5483 0.0000 27.9853 0.0000
# 6 0.0000 0.0000 0.0000 6.9430 0.0000 23.3520
#
#
#
# Elastic Compliance Matrix: (Units=1/GPa)
#
#
# Indices 1 2 3 4 5 6 
#
# 1 0.010732 -0.009990 -0.002688 0.000000 -0.000103 0.000000
# 2 -0.009990 0.109246 0.005095 0.000000 0.012507 0.000000
# 3 -0.002688 0.005095 0.012940 0.000000 0.004510 0.000000
# 4 0.000000 0.000000 0.000000 0.053277 0.000000 -0.015840
# 5 -0.000103 0.012507 0.004510 0.000000 0.038695 0.000000
# 6 0.000000 0.000000 0.000000 -0.015840 0.000000 0.047533
#
#
# Mechanical properties :
#
#
# Convention : Reuss Voigt Hill
#
# Bulk Modulus (GPa) = 8.49248 28.89456 18.69352
# Shear Modulus (GPa) = 15.29801 26.03114 20.66457
#
# Velocity S-wave (km/s) = 2.83440 3.69735 3.29425
# Velocity P-wave (km/s) = 3.89508 5.77938 4.92813
#
# Compressibility (1/GPa) = 0.11775118
#
# Stress axis : x y z
#
# Youngs Moduli (GPa) = 93.18042 9.15362 77.28212
#
# Poissons Ratio (x) = 0.09145 0.20772
# Poissons Ratio (y) = 0.93091 -0.39374
# Poissons Ratio (z) = 0.25045 -0.04664
#
# Static dielectric constant tensor:
#      x y z
#    x 3.769470 0.000000 -0.208670 
#    y 0.000000 3.135860 0.000000 
#    z -0.208670 0.000000 3.642480 
# 
# 
# High freq. dielectric constant tensor:
#      x y z
#    x 1.755550 0.000000 -0.002090 
#    y 0.000000 1.709550 0.000000 
#    z -0.002090 0.000000 1.741950 
# 
# From -- ./inp_files/359888.got.cif
#   From: 2010.06.25/outbox.cif.g09.slc.cpg/sg12_180_cif.got.tgz:359888.got - 2010.06.28 00:19:55.
