data_PCOD8100699
_publ_section_title
;
Structure prediction by ZEFSAII (Michael W. Deem and Ramdas Pophale) SiO2 
 PCOD8100699
Probable space group: C 2/M
;
_chemical_formula_sum "Si O2"
_cell_formula_units_Z 64
_cell_length_a 17.544635
_cell_length_b 14.412144
_cell_length_c 12.392945
_cell_angle_alpha 90.000000
_cell_angle_beta 81.117855
_cell_angle_gamma 90.000000
_cell_volume 3096.049723
_symmetry_space_group_name_H-M "C 2/M"
_symmetry_group_IT_number 12
_symmetry_cell_setting 'monoclinic'
loop_
_space_group_symop_operation_xyz
x,y,z
-x,y,-z
-x,-y,-z
x,-y,z
1/2+x,1/2+y,z
1/2-x,1/2+y,-z
1/2-x,1/2-y,-z
1/2+x,1/2-y,z
loop_
_atom_site_type_symbol
_atom_site_label
_atom_site_fract_x
_atom_site_fract_y
_atom_site_fract_z
Si Si1 0.832463 0.108672 0.410617
Si Si2 0.304411 0.607465 0.884543
Si Si3 0.988686 0.792653 0.318286
Si Si4 0.663755 0.107381 0.060670
Si Si5 0.060441 0.775564 0.078206
Si Si6 0.697832 0.891632 0.290940
Si Si7 0.473074 0.101791 0.625784
Si Si8 0.133733 0.892093 0.358955
O O1 0.762801 0.152909 0.354735
O O2 0.818432 0.127144 0.541518
O O3 0.909510 0.156445 0.354052
O O4 0.841450 0.000000 0.386104
O O5 0.324048 0.500000 0.895910
O O6 0.361778 0.664212 0.949580
O O7 0.313651 0.637327 0.756267
O O8 0.218042 0.628416 0.945795
O O9 0.017244 0.811316 0.192641
O O10 0.974360 0.681777 0.333889
O O11 0.054526 0.833235 0.383742
O O12 0.585287 0.167209 0.071169
O O13 0.708719 0.134538 0.162149
O O14 0.638434 0.000000 0.069677
O O15 0.000000 0.798036 0.000000
O O16 0.613928 0.858022 0.348738
O O17 0.703101 0.000000 0.307855
O O18 0.500000 0.086815 0.500000
O O19 0.479961 0.000000 0.682912
O O20 0.110875 0.000000 0.354763
#
# Coordination Sequence:
#
# PCOD8100699 Si02
#       8
#     8   8   8   8   8   8   8   8
#     4  10  20  35  61  92 120 148 189 239 289 350
#     4   9  20  38  62  86 114 155 191 235 294 350
#     4  11  21  36  56  83 119 156 195 231 292 350
#     4  10  20  40  65  84 112 153 197 239 291 345
#     4  11  24  38  57  86 118 151 194 246 290 341
#     4   9  19  36  59  86 113 148 192 240 286 334
#     4  10  20  37  60  81 110 154 199 238 286 340
#     4   9  18  35  57  86 123 154 185 231 294 356
#
# _framework density 20.671503000000001
#
# number of rings (size 3 to 8) (size 9 to 14) (size 15 to 20)
#    0.000    2.125    1.250    1.875    1.750    2.000 
#    0.000    3.750    0.000    3.000    0.000    0.875 
#    0.000    0.000    0.000    0.000    0.000    0.000 
#
# Total GULP energy -396658.243708 kJ/mol
# GULP energy per Si atom -12395.570116 kJ/mol
# Density = 2.062445 g / cm^3
# Si number density = 20.671503 Si / 1000 Ang^3
#
#
#
# Elastic Constant Matrix: (Units=GPa)
#
#
# Indices 1 2 3 4 5 6 
#
# 1 61.1326 16.5507 38.1450 0.0000 -12.8239 0.0000
# 2 16.5507 53.3607 16.9959 0.0000 -5.3453 0.0000
# 3 38.1450 16.9959 75.6653 0.0000 -10.8811 0.0000
# 4 0.0000 0.0000 0.0000 28.5183 0.0000 -5.8812
# 5 -12.8239 -5.3453 -10.8811 0.0000 31.4295 0.0000
# 6 0.0000 0.0000 0.0000 -5.8812 0.0000 29.8221
#
#
#
# Elastic Compliance Matrix: (Units=1/GPa)
#
#
# Indices 1 2 3 4 5 6 
#
# 1 0.025624 -0.003781 -0.011216 0.000000 0.005929 0.000000
# 2 -0.003781 0.020858 -0.002621 0.000000 0.001097 0.000000
# 3 -0.011216 -0.002621 0.019718 0.000000 0.001805 0.000000
# 4 0.000000 0.000000 0.000000 0.036552 0.000000 0.007208
# 5 0.005929 0.001097 0.001805 0.000000 0.035048 0.000000
# 6 0.000000 0.000000 0.000000 0.007208 0.000000 0.034954
#
#
# Mechanical properties :
#
#
# Convention : Reuss Voigt Hill
#
# Bulk Modulus (GPa) = 32.29560 37.06020 34.67790
# Shear Modulus (GPa) = 22.90317 25.85178 24.37747
#
# Velocity S-wave (km/s) = 3.33221 3.54022 3.43779
# Velocity P-wave (km/s) = 5.51924 5.88880 5.70701
#
# Compressibility (1/GPa) = 0.03096397
#
# Stress axis : x y z
#
# Youngs Moduli (GPa) = 39.02659 47.94336 50.71397
#
# Poissons Ratio (x) = 0.18129 0.56879
# Poissons Ratio (y) = 0.14757 0.13292
# Poissons Ratio (z) = 0.43771 0.12566
#
# Static dielectric constant tensor:
#      x y z
#    x 3.811920 0.000000 -0.005950 
#    y 0.000000 3.922680 0.000000 
#    z -0.005950 0.000000 3.900590 
# 
# 
# High freq. dielectric constant tensor:
#      x y z
#    x 1.783130 0.000000 -0.018210 
#    y 0.000000 1.818450 0.000000 
#    z -0.018210 0.000000 1.809880 
# 
# From -- ./inp_files/156612.got.cif
#   From: 2010.06.25/outbox.cif.g09.slc.cpg/sg12_79_cif.got.tgz:156612.got - 2010.06.28 00:19:55.
