data_PCOD8100144
_publ_section_title
;
Structure prediction by ZEFSAII (Michael W. Deem and Ramdas Pophale) SiO2 
 PCOD8100144
Probable space group: C 2/M
;
_chemical_formula_sum "Si O2"
_cell_formula_units_Z 48
_cell_length_a 28.726031
_cell_length_b 9.191726
_cell_length_c 9.820780
_cell_angle_alpha 90.000000
_cell_angle_beta 80.548646
_cell_angle_gamma 90.000000
_cell_volume 2557.896180
_symmetry_space_group_name_H-M "C 2/M"
_symmetry_group_IT_number 12
_symmetry_cell_setting 'monoclinic'
loop_
_space_group_symop_operation_xyz
x,y,z
-x,y,-z
-x,-y,-z
x,-y,z
1/2+x,1/2+y,z
1/2-x,1/2+y,-z
1/2-x,1/2-y,-z
1/2+x,1/2-y,z
loop_
_atom_site_type_symbol
_atom_site_label
_atom_site_fract_x
_atom_site_fract_y
_atom_site_fract_z
Si Si1 0.713901 0.331467 0.611955
Si Si2 0.236569 0.331541 0.141894
Si Si3 0.113159 0.827919 0.546621
Si Si4 0.959066 0.828893 0.196447
Si Si5 0.063821 0.827801 0.092119
Si Si6 0.369136 0.827836 0.738192
O O1 0.722758 0.500000 0.580781
O O2 0.750000 0.250000 0.500000
O O3 0.724162 0.292565 0.764123
O O4 0.660849 0.285626 0.602813
O O5 0.236244 0.500000 0.105542
O O6 0.185624 0.283892 0.223471
O O7 0.250000 0.250000 0.000000
O O8 0.070471 0.768827 0.661353
O O9 0.109353 0.744446 0.406730
O O10 0.109746 0.000000 0.520109
O O11 0.013957 0.788372 0.187801
O O12 0.953214 0.000000 0.193141
O O13 0.938302 0.772061 0.062888
O O14 0.104747 0.736980 0.143582
O O15 0.074299 0.000000 0.097678
O O16 0.376548 0.000000 0.727545
#
# Coordination Sequence:
#
# PCOD8100144 Si02
#       6
#     8   8   8   8   8   8
#     4  10  20  36  57  80 109 144 180 222 268 319
#     4  10  23  39  55  80 112 144 180 224 269 319
#     4  10  20  35  58  83 106 142 188 227 267 319
#     4   8  17  35  59  86 108 134 182 235 273 312
#     4   9  18  36  61  83 108 142 180 226 275 322
#     4  11  23  38  53  79 117 147 177 222 272 323
#
# _framework density 18.765421
#
# number of rings (size 3 to 8) (size 9 to 14) (size 15 to 20)
#    0.000    2.333    1.667    1.500    2.333    2.667 
#    0.000    6.667    0.000    0.000    0.000    0.000 
#    0.000    0.000    0.000    0.000    0.000    0.000 
#
# Total GULP energy -297602.798874 kJ/mol
# GULP energy per Si atom -12400.116620 kJ/mol
# Density = 1.872271 g / cm^3
# Si number density = 18.765421 Si / 1000 Ang^3
#
#
#
# Elastic Constant Matrix: (Units=GPa)
#
#
# Indices 1 2 3 4 5 6 
#
# 1 47.7387 20.4720 14.1702 0.0000 1.8579 0.0000
# 2 20.4720 39.6642 27.8747 0.0000 -1.0715 0.0000
# 3 14.1702 27.8747 92.5071 0.0000 -10.5166 0.0000
# 4 0.0000 0.0000 0.0000 28.0083 0.0000 3.1240
# 5 1.8579 -1.0715 -10.5166 0.0000 39.3377 0.0000
# 6 0.0000 0.0000 0.0000 3.1240 0.0000 26.1323
#
#
#
# Elastic Compliance Matrix: (Units=1/GPa)
#
#
# Indices 1 2 3 4 5 6 
#
# 1 0.027011 -0.013884 -0.000146 0.000000 -0.001693 0.000000
# 2 -0.013884 0.039240 -0.009799 0.000000 -0.000895 0.000000
# 3 -0.000146 -0.009799 0.014187 0.000000 0.003533 0.000000
# 4 0.000000 0.000000 0.000000 0.036186 0.000000 -0.004326
# 5 -0.001693 -0.000895 0.003533 0.000000 0.026421 0.000000
# 6 0.000000 0.000000 0.000000 -0.004326 0.000000 0.038784
#
#
# Mechanical properties :
#
#
# Convention : Reuss Voigt Hill
#
# Bulk Modulus (GPa) = 30.50773 33.88264 32.19518
# Shear Modulus (GPa) = 20.79756 26.52188 23.65972
#
# Velocity S-wave (km/s) = 3.33271 3.76352 3.55465
# Velocity P-wave (km/s) = 5.57692 6.08116 5.83449
#
# Compressibility (1/GPa) = 0.03277858
#
# Stress axis : x y z
#
# Youngs Moduli (GPa) = 37.02245 25.48432 70.48868
#
# Poissons Ratio (x) = 0.35382 0.01032
# Poissons Ratio (y) = 0.51402 0.69071
# Poissons Ratio (z) = 0.00542 0.24972
#
# Static dielectric constant tensor:
#      x y z
#    x 3.667010 0.000000 -0.089720 
#    y 0.000000 3.206410 0.000000 
#    z -0.089720 0.000000 3.597810 
# 
# 
# High freq. dielectric constant tensor:
#      x y z
#    x 1.736020 0.000000 0.002010 
#    y 0.000000 1.702540 0.000000 
#    z 0.002010 0.000000 1.738660 
# 
# From -- ./inp_files/108584.got.cif
#   From: 2010.06.25/outbox.cif.g09.slc.cpg/sg12_55_cif.got.tgz:108584.got - 2010.06.28 00:19:55.
