data_PCOD8100776
_publ_section_title
;
Structure prediction by ZEFSAII (Michael W. Deem and Ramdas Pophale) SiO2 
 PCOD8100776
Probable space group: C 2/M
;
_chemical_formula_sum "Si O2"
_cell_formula_units_Z 56
_cell_length_a 17.615892
_cell_length_b 20.027862
_cell_length_c 16.470160
_cell_angle_alpha 90.000000
_cell_angle_beta 32.314893
_cell_angle_gamma 90.000000
_cell_volume 3106.299229
_symmetry_space_group_name_H-M "C 2/M"
_symmetry_group_IT_number 12
_symmetry_cell_setting 'monoclinic'
loop_
_space_group_symop_operation_xyz
x,y,z
-x,y,-z
-x,-y,-z
x,-y,z
1/2+x,1/2+y,z
1/2-x,1/2+y,-z
1/2-x,1/2-y,-z
1/2+x,1/2-y,z
loop_
_atom_site_type_symbol
_atom_site_label
_atom_site_fract_x
_atom_site_fract_y
_atom_site_fract_z
Si Si1 0.312405 0.652276 0.896621
Si Si2 0.870073 0.925150 0.571071
Si Si3 0.838699 0.261506 0.654518
Si Si4 0.165432 0.364013 0.864481
Si Si5 0.299389 0.810859 0.512813
Si Si6 0.379762 0.198243 0.789599
Si Si7 0.899352 0.920726 0.366687
O O1 0.204442 0.628377 0.923721
O O2 0.379779 0.723627 0.813688
O O3 0.435947 0.597906 0.796946
O O4 0.224928 0.655726 0.059299
O O5 0.728687 0.924709 0.753977
O O6 0.851849 0.893859 0.498717
O O7 0.000000 0.888142 0.500000
O O8 0.918619 0.000000 0.509039
O O9 0.735082 0.200160 0.761201
O O10 0.786265 0.294949 0.619716
O O11 0.828619 0.310403 0.742233
O O12 0.000000 0.236115 0.500000
O O13 0.000000 0.361285 0.000000
O O14 0.250000 0.750000 0.500000
O O15 0.460977 0.828981 0.343057
O O16 0.203753 0.877335 0.596142
O O17 0.877309 0.000000 0.371202
#
# Coordination Sequence:
#
# PCOD8100776 Si02
#       7
#     8   8   8   8   8   8   8
#     4  10  20  36  54  80 119 151 185 231 287 348
#     4  10  20  36  53  71 105 151 191 219 265 338
#     4   9  20  36  56  83 112 145 183 233 288 340
#     4  11  22  30  52  84 115 145 185 231 281 334
#     4  11  20  34  63  88 111 144 191 244 283 333
#     4   9  20  36  56  84 112 146 187 237 292 329
#     4  11  23  38  58  84 115 155 194 235 285 345
#
# _framework density 18.027882999999999
#
# number of rings (size 3 to 8) (size 9 to 14) (size 15 to 20)
#    0.000    1.857    2.857    1.286    6.000    1.429 
#    0.000    0.714    0.000    5.571    0.000    0.000 
#    0.000    0.000    0.000    0.000    0.000    0.000 
#
# Total GULP energy -347059.488123 kJ/mol
# GULP energy per Si atom -12394.981719 kJ/mol
# Density = 1.798685 g / cm^3
# Si number density = 18.027883 Si / 1000 Ang^3
#
#
#
# Elastic Constant Matrix: (Units=GPa)
#
#
# Indices 1 2 3 4 5 6 
#
# 1 131.3416 45.3225 65.3932 0.0008 3.5598 -0.0044
# 2 45.3225 72.2782 32.4505 0.0022 -4.4198 -0.0059
# 3 65.3932 32.4505 127.5376 0.0077 0.9344 -0.0111
# 4 0.0008 0.0022 0.0077 19.6046 0.0019 -10.0072
# 5 3.5598 -4.4198 0.9344 0.0019 38.5083 0.0043
# 6 -0.0044 -0.0059 -0.0111 -10.0072 0.0043 8.8983
#
#
#
# Elastic Compliance Matrix: (Units=1/GPa)
#
#
# Indices 1 2 3 4 5 6 
#
# 1 0.011868 -0.005434 -0.004691 0.000002 -0.001607 -0.000001
# 2 -0.005434 0.018247 -0.001876 0.000004 0.002642 0.000010
# 3 -0.004691 -0.001876 0.010723 0.000003 -0.000042 0.000013
# 4 0.000002 0.000004 0.000003 0.119755 -0.000021 0.134679
# 5 -0.001607 0.002642 -0.000042 -0.000021 0.026421 -0.000035
# 6 -0.000001 0.000010 0.000013 0.134679 -0.000035 0.263845
#
#
# Mechanical properties :
#
#
# Convention : Reuss Voigt Hill
#
# Bulk Modulus (GPa) = 59.39326 68.60998 64.00162
# Shear Modulus (GPa) = 10.40641 25.93498 18.17069
#
# Velocity S-wave (km/s) = 2.40519 3.79701 3.17822
# Velocity P-wave (km/s) = 6.38200 7.57386 7.00333
#
# Compressibility (1/GPa) = 0.01683693
#
# Stress axis : x y z
#
# Youngs Moduli (GPa) = 84.26087 54.80451 93.25334
#
# Poissons Ratio (x) = 0.29782 0.43742
# Poissons Ratio (y) = 0.45789 0.17492
# Poissons Ratio (z) = 0.39524 0.10280
#
# Static dielectric constant tensor:
#      x y z
#    x 3.535780 -0.000010 0.151300 
#    y -0.000010 3.044090 -0.000030 
#    z 0.151300 -0.000030 3.705170 
# 
# 
# High freq. dielectric constant tensor:
#      x y z
#    x 1.704240 0.000000 0.003610 
#    y 0.000000 1.665150 0.000000 
#    z 0.003610 0.000000 1.704720 
# 
# From -- ./inp_files/75863.got.cif
#   From: 2010.06.25/outbox.cif.g09.slc.cpg/sg12_38_cif.got.tgz:75863.got - 2010.06.28 00:19:55.
