data_PCOD8100317
_publ_section_title
;
Structure prediction by ZEFSAII (Michael W. Deem and Ramdas Pophale) SiO2 
 PCOD8100317
Probable space group: C 2/M
;
_chemical_formula_sum "Si O2"
_cell_formula_units_Z 52
_cell_length_a 19.145845
_cell_length_b 12.023666
_cell_length_c 15.199556
_cell_angle_alpha 90.000000
_cell_angle_beta 129.488856
_cell_angle_gamma 90.000000
_cell_volume 2700.337313
_symmetry_space_group_name_H-M "C 2/M"
_symmetry_group_IT_number 12
_symmetry_cell_setting 'monoclinic'
loop_
_space_group_symop_operation_xyz
x,y,z
-x,y,-z
-x,-y,-z
x,-y,z
1/2+x,1/2+y,z
1/2-x,1/2+y,-z
1/2-x,1/2-y,-z
1/2+x,1/2-y,z
loop_
_atom_site_type_symbol
_atom_site_label
_atom_site_fract_x
_atom_site_fract_y
_atom_site_fract_z
Si Si1 0.628469 0.000000 0.794415
Si Si2 0.293710 0.000000 0.323147
Si Si3 0.153029 0.704730 0.942225
Si Si4 0.230937 0.770267 0.341999
Si Si5 0.569057 0.368433 0.761664
Si Si6 0.564360 0.000000 0.420991
Si Si7 0.891625 0.741060 0.597711
Si Si8 0.259305 0.870776 0.820925
O O1 0.629439 0.106465 0.856604
O O2 0.707760 0.000000 0.784806
O O3 0.543144 0.000000 0.661027
O O4 0.239626 0.893832 0.312685
O O5 0.394035 0.000000 0.447528
O O6 0.082519 0.805903 0.867168
O O7 0.250000 0.750000 0.000000
O O8 0.158718 0.662593 0.046940
O O9 0.142433 0.771345 0.332270
O O10 0.317768 0.726459 0.465486
O O11 0.217812 0.687879 0.251127
O O12 0.556139 0.500000 0.765780
O O13 0.481008 0.313474 0.645680
O O14 0.657911 0.340832 0.774036
O O15 0.594568 0.891266 0.391427
O O16 0.265045 0.000000 0.808277
#
# Coordination Sequence:
#
# PCOD8100317 Si02
#       8
#     4   4   8   8   8   4   8   8
#     4  12  19  36  63  87 115 151 185 251 297 338
#     4  10  21  36  56  89 117 147 195 240 291 350
#     4  10  20  35  58  87 117 152 188 235 297 345
#     4  10  23  39  59  84 121 154 196 236 288 344
#     4  10  21  37  61  87 117 151 195 238 291 349
#     4  10  21  36  59  86 112 151 198 241 292 343
#     4  10  22  40  60  83 115 163 192 235 290 349
#     4  10  21  39  59  90 114 150 198 244 281 341
#
# _framework density 19.256854000000001
#
# number of rings (size 3 to 8) (size 9 to 14) (size 15 to 20)
#    0.000    1.846    2.308    2.077    3.231    1.231 
#    1.385    2.308    0.000    2.769    0.000    0.000 
#    0.000    0.000    0.000    0.000    0.000    0.000 
#
# Total GULP energy -322256.864776 kJ/mol
# GULP energy per Si atom -12394.494799 kJ/mol
# Density = 1.921302 g / cm^3
# Si number density = 19.256854 Si / 1000 Ang^3
#
#
#
# Elastic Constant Matrix: (Units=GPa)
#
#
# Indices 1 2 3 4 5 6 
#
# 1 37.0059 6.0846 26.4196 0.0000 -23.2531 0.0000
# 2 6.0846 95.2743 37.4022 0.0000 -16.5098 0.0000
# 3 26.4196 37.4022 86.5898 0.0000 -22.5730 0.0000
# 4 0.0000 0.0000 0.0000 27.8483 0.0000 13.0026
# 5 -23.2531 -16.5098 -22.5730 0.0000 32.3450 0.0000
# 6 0.0000 0.0000 0.0000 13.0026 0.0000 5.3706
#
#
#
# Elastic Compliance Matrix: (Units=1/GPa)
#
#
# Indices 1 2 3 4 5 6 
#
# 1 0.056643 0.006959 -0.010692 0.000000 0.036811 0.000000
# 2 0.006959 0.013776 -0.006034 0.000000 0.007823 0.000000
# 3 -0.010692 -0.006034 0.017860 0.000000 0.001697 0.000000
# 4 0.000000 0.000000 0.000000 -0.275357 0.000000 0.666653
# 5 0.036811 0.007823 0.001697 0.000000 0.062559 0.000000
# 6 0.000000 0.000000 0.000000 0.666653 0.000000 -1.427803
#
#
# Mechanical properties :
#
#
# Convention : Reuss Voigt Hill
#
# Bulk Modulus (GPa) = 14.54672 39.85365 27.20019
# Shear Modulus (GPa) = -3.31154 23.04368 9.86607
#
# Velocity S-wave (km/s) = -1.31278 3.46301 2.26595
# Velocity P-wave (km/s) = 2.29621 6.06059 4.58276
#
# Compressibility (1/GPa) = 0.06874400
#
# Stress axis : x y z
#
# Youngs Moduli (GPa) = 17.65449 72.58905 55.99105
#
# Poissons Ratio (x) = -0.50514 0.59865
# Poissons Ratio (y) = -0.12285 0.33787
# Poissons Ratio (z) = 0.18876 0.43803
#
# Static dielectric constant tensor:
#      x y z
#    x 3.246520 0.000000 0.096240 
#    y 0.000000 3.793130 0.000000 
#    z 0.096240 0.000000 4.087520 
# 
# 
# High freq. dielectric constant tensor:
#      x y z
#    x 1.717820 0.000000 0.001840 
#    y 0.000000 1.766610 0.000000 
#    z 0.001840 0.000000 1.756030 
# 
# From -- ./inp_files/232361.got.cif
#   From: 2010.06.25/outbox.cif.g09.slc.cpg/sg12_117_cif.got.tgz:232361.got - 2010.06.28 00:19:55.
