data_PCOD8100178
_publ_section_title
;
Structure prediction by ZEFSAII (Michael W. Deem and Ramdas Pophale) SiO2 
 PCOD8100178
Probable space group: C 2/M
;
_chemical_formula_sum "Si O2"
_cell_formula_units_Z 64
_cell_length_a 32.993463
_cell_length_b 9.137772
_cell_length_c 19.025270
_cell_angle_alpha 90.000000
_cell_angle_beta 36.342545
_cell_angle_gamma 90.000000
_cell_volume 3399.140312
_symmetry_space_group_name_H-M "C 2/M"
_symmetry_group_IT_number 12
_symmetry_cell_setting 'monoclinic'
loop_
_space_group_symop_operation_xyz
x,y,z
-x,y,-z
-x,-y,-z
x,-y,z
1/2+x,1/2+y,z
1/2-x,1/2+y,-z
1/2-x,1/2-y,-z
1/2+x,1/2-y,z
loop_
_atom_site_type_symbol
_atom_site_label
_atom_site_fract_x
_atom_site_fract_y
_atom_site_fract_z
Si Si1 0.328498 0.171963 0.964722
Si Si2 0.033737 0.837306 0.877584
Si Si3 0.429457 0.165192 0.558153
Si Si4 0.203723 0.668187 0.465968
Si Si5 0.581302 0.672248 0.567718
Si Si6 0.040745 0.170176 0.159106
Si Si7 0.668273 0.167238 0.676653
Si Si8 0.190644 0.329231 0.168977
O O1 0.392429 0.237481 0.916758
O O2 0.335504 0.211059 0.872577
O O3 0.326825 0.000000 0.980364
O O4 0.258792 0.239934 0.093025
O O5 0.092581 0.718369 0.799228
O O6 0.979065 0.795512 0.893850
O O7 0.063212 0.000000 0.818940
O O8 0.000000 0.837267 0.000000
O O9 0.500000 0.169717 0.500000
O O10 0.437910 0.278228 0.483245
O O11 0.368368 0.216826 0.694452
O O12 0.415471 0.000000 0.550166
O O13 0.207514 0.500000 0.438098
O O14 0.152030 0.750398 0.487542
O O15 0.278605 0.737948 0.352094
O O16 0.179343 0.690680 0.579068
O O17 0.592569 0.500000 0.555169
O O18 0.521637 0.721699 0.704164
O O19 0.057287 0.000000 0.148187
O O20 0.677257 0.000000 0.686610
O O21 0.208248 0.500000 0.149277
#
# Coordination Sequence:
#
# PCOD8100178 Si02
#       8
#     8   8   8   8   8   8   8   8
#     4  10  20  35  60  87 110 146 192 235 276 327
#     4  10  21  39  60  81 110 151 193 232 281 344
#     4  10  21  38  59  84 117 155 191 228 277 340
#     4  10  20  35  58  84 111 148 188 227 279 341
#     4  11  22  36  57  85 116 147 186 239 288 332
#     4  10  21  37  57  82 112 145 186 234 284 338
#     4  10  20  35  58  85 113 144 183 235 285 332
#     4   9  19  37  58  82 115 151 187 228 276 334
#
# _framework density 18.828289999999999
#
# number of rings (size 3 to 8) (size 9 to 14) (size 15 to 20)
#    0.000    2.000    1.250    2.250    0.000    5.000 
#    2.250    0.000    0.000    0.000    0.000    0.000 
#    0.000    0.000    0.000    0.000    0.000    0.000 
#
# Total GULP energy -396913.406277 kJ/mol
# GULP energy per Si atom -12403.543946 kJ/mol
# Density = 1.878544 g / cm^3
# Si number density = 18.828290 Si / 1000 Ang^3
#
#
#
# Elastic Constant Matrix: (Units=GPa)
#
#
# Indices 1 2 3 4 5 6 
#
# 1 112.2344 47.4818 55.4107 -0.0060 -11.3937 0.0110
# 2 47.4818 73.8036 45.3078 -0.0108 -5.0442 0.0081
# 3 55.4107 45.3078 91.1142 -0.0168 -3.0934 0.0332
# 4 -0.0060 -0.0108 -0.0168 29.0118 0.0029 -3.9281
# 5 -11.3937 -5.0442 -3.0934 0.0029 29.1138 -0.0092
# 6 0.0110 0.0081 0.0332 -3.9281 -0.0092 31.4095
#
#
#
# Elastic Compliance Matrix: (Units=1/GPa)
#
#
# Indices 1 2 3 4 5 6 
#
# 1 0.014602 -0.005392 -0.006058 -0.000002 0.004137 0.000004
# 2 -0.005392 0.021657 -0.007461 0.000003 0.000849 0.000005
# 3 -0.006058 -0.007461 0.018311 0.000005 -0.001718 -0.000015
# 4 -0.000002 0.000003 0.000005 0.035062 -0.000002 0.004385
# 5 0.004137 0.000849 -0.001718 -0.000002 0.035931 0.000010
# 6 0.000004 0.000005 -0.000015 0.004385 0.000010 0.032386
#
#
# Mechanical properties :
#
#
# Convention : Reuss Voigt Hill
#
# Bulk Modulus (GPa) = 59.71239 63.72810 61.72025
# Shear Modulus (GPa) = 24.83154 26.50380 25.66767
#
# Velocity S-wave (km/s) = 3.63553 3.75595 3.69623
# Velocity P-wave (km/s) = 7.02892 7.26154 7.14618
#
# Compressibility (1/GPa) = 0.01674694
#
# Stress axis : x y z
#
# Youngs Moduli (GPa) = 68.48257 46.17417 54.61075
#
# Poissons Ratio (x) = 0.24899 0.33085
# Poissons Ratio (y) = 0.36929 0.40745
# Poissons Ratio (z) = 0.41489 0.34451
#
# Static dielectric constant tensor:
#      x y z
#    x 3.182230 -0.000870 -0.833330 
#    y -0.000870 3.537930 -0.002720 
#    z -0.833330 -0.002720 0.818220 
# 
# 
# High freq. dielectric constant tensor:
#      x y z
#    x 1.733990 0.000000 -0.010400 
#    y 0.000000 1.735930 0.000000 
#    z -0.010400 0.000000 1.725190 
# 
# From -- ./inp_files/295541.got.cif
#   From: 2010.06.25/outbox.cif.g09.slc.cpg/sg12_148_cif.got.tgz:295541.got - 2010.06.28 00:19:55.
