data_PCOD8100329
_publ_section_title
;
Structure prediction by ZEFSAII (Michael W. Deem and Ramdas Pophale) SiO2 
 PCOD8100329
Probable space group: C 2/M
;
_chemical_formula_sum "Si O2"
_cell_formula_units_Z 64
_cell_length_a 30.005594
_cell_length_b 8.779806
_cell_length_c 16.754675
_cell_angle_alpha 90.000000
_cell_angle_beta 136.538705
_cell_angle_gamma 90.000000
_cell_volume 3036.169366
_symmetry_space_group_name_H-M "C 2/M"
_symmetry_group_IT_number 12
_symmetry_cell_setting 'monoclinic'
loop_
_space_group_symop_operation_xyz
x,y,z
-x,y,-z
-x,-y,-z
x,-y,z
1/2+x,1/2+y,z
1/2-x,1/2+y,-z
1/2-x,1/2-y,-z
1/2+x,1/2-y,z
loop_
_atom_site_type_symbol
_atom_site_label
_atom_site_fract_x
_atom_site_fract_y
_atom_site_fract_z
Si Si1 0.549177 0.321227 0.497779
Si Si2 0.756951 0.177299 0.880172
Si Si3 0.192509 0.179367 0.654518
Si Si4 0.976385 0.319233 0.081715
Si Si5 0.596834 0.319626 0.150285
Si Si6 0.738371 0.679756 0.398478
Si Si7 0.161531 0.671874 0.893280
Si Si8 0.517597 0.827654 0.729066
O O1 0.500000 0.246851 0.500000
O O2 0.545590 0.500000 0.502798
O O3 0.623641 0.266015 0.602757
O O4 0.529968 0.278016 0.382787
O O5 0.749028 0.269340 0.788155
O O6 0.699375 0.228898 0.864646
O O7 0.756604 0.000000 0.858721
O O8 0.823586 0.223742 0.010186
O O9 0.205343 0.258188 0.586218
O O10 0.193910 0.000000 0.642938
O O11 0.967879 0.500000 0.061215
O O12 0.974705 0.267313 0.171212
O O13 0.045696 0.267728 0.138920
O O14 0.917055 0.235845 0.958506
O O15 0.586093 0.500000 0.142334
O O16 0.668392 0.272357 0.272005
O O17 0.744550 0.500000 0.413237
O O18 0.750000 0.750000 0.500000
O O19 0.182721 0.500000 0.942365
O O20 0.086521 0.682495 0.774790
O O21 0.490838 0.000000 0.693942
#
# Coordination Sequence:
#
# PCOD8100329 Si02
#       8
#     8   8   8   8   8   8   8   8
#     4  10  23  42  63  89 122 162 208 256 307 363
#     4  10  20  35  58  87 119 158 202 246 296 358
#     4  11  24  41  63  90 122 162 206 252 308 366
#     4  10  21  37  61  93 123 156 198 244 301 363
#     4  10  22  41  63  88 120 157 199 246 301 359
#     4  11  26  45  66  93 125 162 207 253 306 367
#     4   9  19  36  56  84 123 160 196 243 300 361
#     4  10  22  37  58  89 119 154 199 247 302 361
#
# _framework density 21.079191999999999
#
# number of rings (size 3 to 8) (size 9 to 14) (size 15 to 20)
#    0.000    1.875    0.000    3.375    3.500    5.250 
#    0.000    0.000    0.000    0.000    0.000    0.000 
#    0.000    0.000    0.000    0.000    0.000    0.000 
#
# Total GULP energy -396817.104790 kJ/mol
# GULP energy per Si atom -12400.534525 kJ/mol
# Density = 2.103122 g / cm^3
# Si number density = 21.079192 Si / 1000 Ang^3
#
#
#
# Elastic Constant Matrix: (Units=GPa)
#
#
# Indices 1 2 3 4 5 6 
#
# 1 68.6666 30.2809 37.3689 0.0000 -9.2122 0.0000
# 2 30.2809 53.7816 35.5750 0.0000 1.8045 0.0000
# 3 37.3689 35.5750 116.0414 0.0000 -8.0145 0.0000
# 4 0.0000 0.0000 0.0000 39.5652 0.0000 -4.3052
# 5 -9.2122 1.8045 -8.0145 0.0000 34.2634 0.0000
# 6 0.0000 0.0000 0.0000 -4.3052 0.0000 27.2689
#
#
#
# Elastic Compliance Matrix: (Units=1/GPa)
#
#
# Indices 1 2 3 4 5 6 
#
# 1 0.021647 -0.010054 -0.003507 0.000000 0.005529 0.000000
# 2 -0.010054 0.028290 -0.005819 0.000000 -0.005554 0.000000
# 3 -0.003507 -0.005819 0.011675 0.000000 0.002095 0.000000
# 4 0.000000 0.000000 0.000000 0.025717 0.000000 0.004060
# 5 0.005529 -0.005554 0.002095 0.000000 0.031455 0.000000
# 6 0.000000 0.000000 0.000000 0.004060 0.000000 0.037313
#
#
# Mechanical properties :
#
#
# Convention : Reuss Voigt Hill
#
# Bulk Modulus (GPa) = 43.75761 49.43768 46.59765
# Shear Modulus (GPa) = 24.69469 29.23716 26.96592
#
# Velocity S-wave (km/s) = 3.42646 3.72831 3.58056
# Velocity P-wave (km/s) = 6.03804 6.48366 6.26482
#
# Compressibility (1/GPa) = 0.02285317
#
# Stress axis : x y z
#
# Youngs Moduli (GPa) = 46.19589 35.34865 85.64964
#
# Poissons Ratio (x) = 0.35539 0.30036
# Poissons Ratio (y) = 0.46444 0.49837
# Poissons Ratio (z) = 0.16200 0.20569
#
# Static dielectric constant tensor:
#      x y z
#    x 3.934070 0.000000 0.006820 
#    y 0.000000 3.698410 0.000000 
#    z 0.006820 0.000000 3.829980 
# 
# 
# High freq. dielectric constant tensor:
#      x y z
#    x 1.828910 0.000000 -0.003630 
#    y 0.000000 1.821460 0.000000 
#    z -0.003630 0.000000 1.830630 
# 
# From -- ./inp_files/249940.got.cif
#   From: 2010.06.25/outbox.cif.g09.slc.cpg/sg12_125_cif.got.tgz:249940.got - 2010.06.28 00:19:55.
