data_PCOD8100583
_publ_section_title
;
Structure prediction by ZEFSAII (Michael W. Deem and Ramdas Pophale) SiO2 
 PCOD8100583
Probable space group: C 2/M
;
_chemical_formula_sum "Si O2"
_cell_formula_units_Z 56
_cell_length_a 17.201096
_cell_length_b 20.298940
_cell_length_c 8.607022
_cell_angle_alpha 90.000000
_cell_angle_beta 120.137049
_cell_angle_gamma 90.000000
_cell_volume 2599.031882
_symmetry_space_group_name_H-M "C 2/M"
_symmetry_group_IT_number 12
_symmetry_cell_setting 'monoclinic'
loop_
_space_group_symop_operation_xyz
x,y,z
-x,y,-z
-x,-y,-z
x,-y,z
1/2+x,1/2+y,z
1/2-x,1/2+y,-z
1/2-x,1/2-y,-z
1/2+x,1/2-y,z
loop_
_atom_site_type_symbol
_atom_site_label
_atom_site_fract_x
_atom_site_fract_y
_atom_site_fract_z
Si Si1 0.826243 0.424659 0.466062
Si Si2 0.095571 0.205510 0.517830
Si Si3 0.667039 0.853636 0.046460
Si Si4 0.774242 0.690648 0.204446
Si Si5 0.196686 0.925393 0.614499
Si Si6 0.902791 0.236194 0.839176
Si Si7 0.996431 0.427479 0.181416
O O1 0.836620 0.500000 0.418081
O O2 0.819281 0.376226 0.313386
O O3 0.738442 0.418599 0.485584
O O4 0.912041 0.400760 0.652186
O O5 0.175730 0.243753 0.684985
O O6 0.116063 0.127298 0.548019
O O7 0.095225 0.231501 0.343105
O O8 0.000000 0.220230 0.500000
O O9 0.726901 0.911509 0.179730
O O10 0.623892 0.810476 0.141239
O O11 0.724324 0.809698 0.982491
O O12 0.587060 0.881617 0.857591
O O13 0.671361 0.688647 0.159043
O O14 0.160669 0.000000 0.605549
O O15 0.000000 0.215501 0.000000
O O16 0.978057 0.500000 0.229373
O O17 0.000000 0.428932 0.000000
#
# Coordination Sequence:
#
# PCOD8100583 Si02
#       7
#     8   8   8   8   8   8   8
#     4  10  22  41  67  97 135 183 223 272 341 401
#     4  12  27  45  71 102 134 173 230 284 336 396
#     4  12  24  38  66 100 139 175 224 268 335 402
#     4  12  26  44  67 100 138 178 223 278 332 400
#     4  11  23  44  71  95 130 182 230 279 339 397
#     4  12  26  44  69  97 134 176 217 279 342 398
#     4  10  20  35  59  95 134 174 220 267 327 404
#
# _framework density 21.546485000000001
#
# number of rings (size 3 to 8) (size 9 to 14) (size 15 to 20)
#    0.000    0.714    4.286    3.429    6.000    1.429 
#    0.000    1.429    0.000    0.857    0.000    0.000 
#    0.000    0.000    0.000    0.000    0.000    0.000 
#
# Total GULP energy -347233.394814 kJ/mol
# GULP energy per Si atom -12401.192672 kJ/mol
# Density = 2.149744 g / cm^3
# Si number density = 21.546485 Si / 1000 Ang^3
#
#
#
# Elastic Constant Matrix: (Units=GPa)
#
#
# Indices 1 2 3 4 5 6 
#
# 1 130.2684 36.8399 47.9381 0.0000 -5.4417 0.0000
# 2 36.8399 123.9667 38.9583 0.0000 -1.6550 0.0000
# 3 47.9381 38.9583 84.2015 0.0000 0.9002 0.0000
# 4 0.0000 0.0000 0.0000 10.0945 0.0000 18.0691
# 5 -5.4417 -1.6550 0.9002 0.0000 34.2810 0.0000
# 6 0.0000 0.0000 0.0000 18.0691 0.0000 13.7107
#
#
#
# Elastic Compliance Matrix: (Units=1/GPa)
#
#
# Indices 1 2 3 4 5 6 
#
# 1 0.009999 -0.001351 -0.005085 0.000000 0.001656 0.000000
# 2 -0.001351 0.009633 -0.003691 0.000000 0.000347 0.000000
# 3 -0.005085 -0.003691 0.016495 0.000000 -0.001419 0.000000
# 4 0.000000 0.000000 0.000000 -0.072895 0.000000 0.096067
# 5 0.001656 0.000347 -0.001419 0.000000 0.029488 0.000000
# 6 0.000000 0.000000 0.000000 0.096067 0.000000 -0.053669
#
#
# Mechanical properties :
#
#
# Convention : Reuss Voigt Hill
#
# Bulk Modulus (GPa) = 63.00878 65.10102 64.05490
# Shear Modulus (GPa) = -141.22813 25.93058 -57.64878
#
# Velocity S-wave (km/s) = -8.10482 3.47287 -5.17819
# Velocity P-wave (km/s) = 7.63397 6.80889 2.44095
#
# Compressibility (1/GPa) = 0.01587080
#
# Stress axis : x y z
#
# Youngs Moduli (GPa) = 100.00895 103.81029 60.62617
#
# Poissons Ratio (x) = 0.14028 0.30830
# Poissons Ratio (y) = 0.13514 0.22379
# Poissons Ratio (z) = 0.50857 0.38320
#
# Static dielectric constant tensor:
#      x y z
#    x 3.886890 0.000000 0.083710 
#    y 0.000000 3.963640 0.000000 
#    z 0.083710 0.000000 3.850390 
# 
# 
# High freq. dielectric constant tensor:
#      x y z
#    x 1.842080 0.000000 -0.003450 
#    y 0.000000 1.850510 0.000000 
#    z -0.003450 0.000000 1.846030 
# 
# From -- ./inp_files/77612.got.cif
#   From: 2010.06.25/outbox.cif.g09.slc.cpg/sg12_39_cif.got.tgz:77612.got - 2010.06.28 00:19:55.
