data_PCOD8100261
_publ_section_title
;
Structure prediction by ZEFSAII (Michael W. Deem and Ramdas Pophale) SiO2 
 PCOD8100261
Probable space group: C 2/M
;
_chemical_formula_sum "Si O2"
_cell_formula_units_Z 64
_cell_length_a 26.771450
_cell_length_b 9.261149
_cell_length_c 15.106253
_cell_angle_alpha 90.000000
_cell_angle_beta 121.031494
_cell_angle_gamma 90.000000
_cell_volume 3209.338957
_symmetry_space_group_name_H-M "C 2/M"
_symmetry_group_IT_number 12
_symmetry_cell_setting 'monoclinic'
loop_
_space_group_symop_operation_xyz
x,y,z
-x,y,-z
-x,-y,-z
x,-y,z
1/2+x,1/2+y,z
1/2-x,1/2+y,-z
1/2-x,1/2-y,-z
1/2+x,1/2-y,z
loop_
_atom_site_type_symbol
_atom_site_label
_atom_site_fract_x
_atom_site_fract_y
_atom_site_fract_z
Si Si1 0.614212 0.663121 0.222309
Si Si2 0.706005 0.330072 0.894031
Si Si3 0.918629 0.164311 0.136893
Si Si4 0.059308 0.668017 0.510596
Si Si5 0.744812 0.337372 0.406036
Si Si6 0.936751 0.330116 0.975947
Si Si7 0.458681 0.333695 0.678417
Si Si8 0.316808 0.169225 0.303623
O O1 0.596696 0.500000 0.180170
O O2 0.679198 0.671385 0.314922
O O3 0.610620 0.763198 0.133143
O O4 0.570487 0.722450 0.257581
O O5 0.721226 0.500000 0.904020
O O6 0.640595 0.302195 0.866459
O O7 0.711017 0.261060 0.801328
O O8 0.750000 0.250000 0.000000
O O9 0.971808 0.190957 0.253367
O O10 0.920228 0.000000 0.102550
O O11 0.924478 0.273424 0.061974
O O12 0.053032 0.500000 0.483819
O O13 0.069603 0.746227 0.427266
O O14 0.113901 0.698384 0.624995
O O15 0.000000 0.728850 0.500000
O O16 0.763973 0.500000 0.445097
O O17 0.750000 0.250000 0.500000
O O18 0.786454 0.276923 0.366479
O O19 0.929340 0.500000 0.970075
O O20 0.000000 0.280797 0.000000
O O21 0.442215 0.500000 0.648388
O O22 0.303648 0.000000 0.274531
#
# Coordination Sequence:
#
# PCOD8100261 Si02
#       8
#     8   8   8   8   8   8   8   8
#     4  10  21  37  58  83 115 155 196 236 292 358
#     4  11  25  43  64  89 118 158 206 255 305 359
#     4  10  22  40  61  84 117 159 200 243 299 358
#     4  10  21  36  57  84 115 152 190 236 300 354
#     4  10  22  39  61  89 120 159 201 245 300 357
#     4  11  23  37  57  90 123 154 195 245 299 354
#     4  10  20  35  58  86 113 147 192 240 286 347
#     4  10  22  41  61  86 123 160 200 251 301 358
#
# _framework density 19.941801000000002
#
# number of rings (size 3 to 8) (size 9 to 14) (size 15 to 20)
#    0.000    1.750    1.250    2.250    1.750    4.250 
#    0.000    0.000    0.000    0.000    0.000    0.000 
#    0.000    0.000    0.000    0.000    0.000    0.000 
#
# Total GULP energy -396932.481168 kJ/mol
# GULP energy per Si atom -12404.140037 kJ/mol
# Density = 1.989641 g / cm^3
# Si number density = 19.941801 Si / 1000 Ang^3
#
#
#
# Elastic Constant Matrix: (Units=GPa)
#
#
# Indices 1 2 3 4 5 6 
#
# 1 99.6045 36.0171 34.8044 0.0000 -3.1634 0.0000
# 2 36.0171 80.3388 59.2214 0.0000 -13.8610 0.0000
# 3 34.8044 59.2214 114.8320 0.0000 -16.4372 0.0000
# 4 0.0000 0.0000 0.0000 38.5432 0.0000 -8.8152
# 5 -3.1634 -13.8610 -16.4372 0.0000 32.7783 0.0000
# 6 0.0000 0.0000 0.0000 -8.8152 0.0000 27.9223
#
#
#
# Elastic Compliance Matrix: (Units=1/GPa)
#
#
# Indices 1 2 3 4 5 6 
#
# 1 0.012192 -0.004590 -0.001549 0.000000 -0.001541 0.000000
# 2 -0.004590 0.022201 -0.009457 0.000000 0.004203 0.000000
# 3 -0.001549 -0.009457 0.014502 0.000000 0.003124 0.000000
# 4 0.000000 0.000000 0.000000 0.027964 0.000000 0.008828
# 5 -0.001541 0.004203 0.003124 0.000000 0.033703 0.000000
# 6 0.000000 0.000000 0.000000 0.008828 0.000000 0.038601
#
#
# Mechanical properties :
#
#
# Convention : Reuss Voigt Hill
#
# Bulk Modulus (GPa) = 56.48451 61.65125 59.06788
# Shear Modulus (GPa) = 26.84489 30.83093 28.83791
#
# Velocity S-wave (km/s) = 3.67299 3.93624 3.80689
# Velocity P-wave (km/s) = 6.80984 7.18619 7.00055
#
# Compressibility (1/GPa) = 0.01770397
#
# Stress axis : x y z
#
# Youngs Moduli (GPa) = 82.02343 45.04232 68.95602
#
# Poissons Ratio (x) = 0.20675 0.10678
# Poissons Ratio (y) = 0.37649 0.65211
# Poissons Ratio (z) = 0.12702 0.42596
#
# Static dielectric constant tensor:
#      x y z
#    x 3.780550 0.000000 0.086270 
#    y 0.000000 3.636250 0.000000 
#    z 0.086270 0.000000 3.505480 
# 
# 
# High freq. dielectric constant tensor:
#      x y z
#    x 1.787620 0.000000 0.003410 
#    y 0.000000 1.771560 0.000000 
#    z 0.003410 0.000000 1.783300 
# 
# From -- ./inp_files/249927.got.cif
#   From: 2010.06.25/outbox.cif.g09.slc.cpg/sg12_125_cif.got.tgz:249927.got - 2010.06.28 00:19:55.
