data_PCOD8100283
_publ_section_title
;
Structure prediction by ZEFSAII (Michael W. Deem and Ramdas Pophale) SiO2 
 PCOD8100283
Probable space group: C 2/M
;
_chemical_formula_sum "Si O2"
_cell_formula_units_Z 64
_cell_length_a 28.673490
_cell_length_b 8.798437
_cell_length_c 12.732666
_cell_angle_alpha 90.000000
_cell_angle_beta 78.754793
_cell_angle_gamma 90.000000
_cell_volume 3150.551596
_symmetry_space_group_name_H-M "C 2/M"
_symmetry_group_IT_number 12
_symmetry_cell_setting 'monoclinic'
loop_
_space_group_symop_operation_xyz
x,y,z
-x,y,-z
-x,-y,-z
x,-y,z
1/2+x,1/2+y,z
1/2-x,1/2+y,-z
1/2-x,1/2-y,-z
1/2+x,1/2-y,z
loop_
_atom_site_type_symbol
_atom_site_label
_atom_site_fract_x
_atom_site_fract_y
_atom_site_fract_z
Si Si1 0.071224 0.669858 0.881497
Si Si2 0.934518 0.825522 0.689741
Si Si3 0.300967 0.678500 0.460629
Si Si4 0.390004 0.821396 0.508783
Si Si5 0.321082 0.829119 0.237717
Si Si6 0.543022 0.674257 0.690041
Si Si7 0.292005 0.321076 0.047409
Si Si8 0.102469 0.822401 0.069263
O O1 0.050036 0.500000 0.894350
O O2 0.125510 0.667901 0.824097
O O3 0.041577 0.768057 0.810756
O O4 0.068413 0.741260 0.999034
O O5 0.914967 0.720896 0.606222
O O6 0.912592 0.766427 0.808777
O O7 0.991025 0.808653 0.664391
O O8 0.919751 0.000000 0.675344
O O9 0.297595 0.500000 0.476379
O O10 0.250000 0.750000 0.500000
O O11 0.338222 0.743652 0.529040
O O12 0.319364 0.720390 0.337801
O O13 0.420998 0.771385 0.395378
O O14 0.382923 0.000000 0.504238
O O15 0.288108 0.756268 0.162896
O O16 0.303144 0.000000 0.271935
O O17 0.560069 0.500000 0.680797
O O18 0.284804 0.500000 0.062486
O O19 0.250000 0.250000 0.000000
O O20 0.342198 0.281683 0.970710
O O21 0.093009 0.000000 0.060338
#
# Coordination Sequence:
#
# PCOD8100283 Si02
#       8
#     8   8   8   8   8   8   8   8
#     4  10  20  35  60  89 121 156 198 250 304 365
#     4  10  23  42  62  88 122 165 211 258 311 372
#     4  12  25  42  65  92 123 159 202 252 307 365
#     4  12  25  42  63  90 125 163 206 257 312 371
#     4  10  20  37  59  85 118 155 197 248 302 361
#     4  11  22  38  64  91 119 160 211 258 310 373
#     4  10  20  35  58  86 116 156 203 252 307 368
#     4   9  20  39  60  83 118 159 203 250 306 369
#
# _framework density 20.313903
#
# number of rings (size 3 to 8) (size 9 to 14) (size 15 to 20)
#    0.000    1.500    1.250    4.125    0.000    6.000 
#    0.000    6.250    0.000    0.000    0.000    0.000 
#    0.000    0.000    0.000    0.000    0.000    0.000 
#
# Total GULP energy -396942.348592 kJ/mol
# GULP energy per Si atom -12404.448394 kJ/mol
# Density = 2.026767 g / cm^3
# Si number density = 20.313903 Si / 1000 Ang^3
#
#
#
# Elastic Constant Matrix: (Units=GPa)
#
#
# Indices 1 2 3 4 5 6 
#
# 1 74.4589 47.7055 30.3997 0.0000 16.5684 0.0000
# 2 47.7055 144.6549 43.7562 0.0000 13.4002 0.0000
# 3 30.3997 43.7562 101.4424 0.0000 18.0737 0.0000
# 4 0.0000 0.0000 0.0000 37.7341 0.0000 6.7331
# 5 16.5684 13.4002 18.0737 0.0000 35.0927 0.0000
# 6 0.0000 0.0000 0.0000 6.7331 0.0000 29.5089
#
#
#
# Elastic Compliance Matrix: (Units=1/GPa)
#
#
# Indices 1 2 3 4 5 6 
#
# 1 0.018899 -0.004942 -0.002509 0.000000 -0.005744 0.000000
# 2 -0.004942 0.009305 -0.002549 0.000000 0.000093 0.000000
# 3 -0.002509 -0.002549 0.012469 0.000000 -0.004264 0.000000
# 4 0.000000 0.000000 0.000000 0.027626 0.000000 -0.006303
# 5 -0.005744 0.000093 -0.004264 0.000000 0.033368 0.000000
# 6 0.000000 0.000000 0.000000 -0.006303 0.000000 0.035326
#
#
# Mechanical properties :
#
#
# Convention : Reuss Voigt Hill
#
# Bulk Modulus (GPa) = 48.37098 62.69765 55.53432
# Shear Modulus (GPa) = 30.50942 33.71346 32.11144
#
# Velocity S-wave (km/s) = 3.87964 4.07827 3.98019
# Velocity P-wave (km/s) = 6.62814 7.28751 6.96563
#
# Compressibility (1/GPa) = 0.02067355
#
# Stress axis : x y z
#
# Youngs Moduli (GPa) = 52.91409 107.46613 80.19942
#
# Poissons Ratio (x) = 0.53106 0.20118
# Poissons Ratio (y) = 0.26148 0.20446
# Poissons Ratio (z) = 0.13274 0.27397
#
# Static dielectric constant tensor:
#      x y z
#    x 0.000000 0.000000 0.000000 
#    y 0.000000 0.000000 0.000000 
#    z 0.000000 0.000000 0.000000 
# 
# 
# High freq. dielectric constant tensor:
#      x y z
#    x 1.792900 0.000000 0.009890 
#    y 0.000000 1.802130 0.000000 
#    z 0.009890 0.000000 1.799710 
# 
# From -- ./inp_files/187489.got.cif
#   From: 2010.06.25/outbox.cif.g09.slc.cpg/sg12_94_cif.got.tgz:187489.got - 2010.06.28 00:19:55.
