data_PCOD8100968
_publ_section_title
;
Structure prediction by ZEFSAII (Michael W. Deem and Ramdas Pophale) SiO2 
 PCOD8100968
Probable space group: C 2/M
;
_chemical_formula_sum "Si O2"
_cell_formula_units_Z 48
_cell_length_a 30.753464
_cell_length_b 9.090036
_cell_length_c 9.048145
_cell_angle_alpha 90.000000
_cell_angle_beta 91.591839
_cell_angle_gamma 90.000000
_cell_volume 2528.433648
_symmetry_space_group_name_H-M "C 2/M"
_symmetry_group_IT_number 12
_symmetry_cell_setting 'monoclinic'
loop_
_space_group_symop_operation_xyz
x,y,z
-x,y,-z
-x,-y,-z
x,-y,z
1/2+x,1/2+y,z
1/2-x,1/2+y,-z
1/2-x,1/2-y,-z
1/2+x,1/2-y,z
loop_
_atom_site_type_symbol
_atom_site_label
_atom_site_fract_x
_atom_site_fract_y
_atom_site_fract_z
Si Si1 0.332242 0.171722 0.833799
Si Si2 0.495037 0.665815 0.324542
Si Si3 0.742751 0.675027 0.343540
Si Si4 0.325641 0.174051 0.167752
Si Si5 0.909703 0.326657 0.345826
Si Si6 0.420768 0.169097 0.683370
O O1 0.302514 0.269468 0.725790
O O2 0.381964 0.198779 0.793188
O O3 0.319695 0.000000 0.815364
O O4 0.326365 0.230178 0.999702
O O5 0.500000 0.674132 0.500000
O O6 0.491347 0.500000 0.266002
O O7 0.451639 0.752437 0.273763
O O8 0.537726 0.738923 0.256374
O O9 0.742015 0.500000 0.362226
O O10 0.750000 0.750000 0.500000
O O11 0.781316 0.728519 0.239148
O O12 0.366914 0.237270 0.261240
O O13 0.328390 0.000000 0.171320
O O14 0.914289 0.500000 0.323927
O O15 0.905602 0.283789 0.517740
O O16 0.435121 0.000000 0.683351
#
# Coordination Sequence:
#
# PCOD8100968 Si02
#       6
#     8   8   8   8   8   8
#     4  10  20  36  56  79 107 138 173 214 262 312
#     4   9  17  29  47  73 102 130 167 217 264 302
#     4  11  22  37  57  81 107 137 175 216 259 307
#     4   9  19  35  55  78 106 139 174 214 259 312
#     4   9  16  30  51  73  98 132 174 214 254 304
#     4   9  17  30  51  75 100 134 174 213 255 307
#
# _framework density 18.984086000000001
#
# number of rings (size 3 to 8) (size 9 to 14) (size 15 to 20)
#    0.000    2.500    0.000    2.500    0.000    5.333 
#    0.000    7.500    0.000    5.000    0.000    0.000 
#    0.000    0.000    0.000    0.000    0.000    0.000 
#
# Total GULP energy -297637.914626 kJ/mol
# GULP energy per Si atom -12401.579776 kJ/mol
# Density = 1.894088 g / cm^3
# Si number density = 18.984086 Si / 1000 Ang^3
#
#
#
# Elastic Constant Matrix: (Units=GPa)
#
#
# Indices 1 2 3 4 5 6 
#
# 1 96.4239 37.1751 26.3503 0.0000 -18.8558 0.0000
# 2 37.1751 62.0668 24.7820 0.0000 -8.7515 0.0000
# 3 26.3503 24.7820 84.7286 0.0000 -20.5504 0.0000
# 4 0.0000 0.0000 0.0000 19.2086 0.0000 0.9490
# 5 -18.8558 -8.7515 -20.5504 0.0000 24.0597 0.0000
# 6 0.0000 0.0000 0.0000 0.9490 0.0000 29.1990
#
#
#
# Elastic Compliance Matrix: (Units=1/GPa)
#
#
# Indices 1 2 3 4 5 6 
#
# 1 0.015149 -0.007704 -0.000326 0.000000 0.008792 0.000000
# 2 -0.007704 0.022292 -0.004568 0.000000 -0.001831 0.000000
# 3 -0.000326 -0.004568 0.016113 0.000000 0.011846 0.000000
# 4 0.000000 0.000000 0.000000 0.052144 0.000000 -0.001695
# 5 0.008792 -0.001831 0.011846 0.000000 0.057906 0.000000
# 6 0.000000 0.000000 0.000000 -0.001695 0.000000 0.034303
#
#
# Mechanical properties :
#
#
# Convention : Reuss Voigt Hill
#
# Bulk Modulus (GPa) = 35.26285 46.64821 40.95553
# Shear Modulus (GPa) = 21.50022 24.82089 23.16056
#
# Velocity S-wave (km/s) = 3.36897 3.61980 3.49664
# Velocity P-wave (km/s) = 5.80935 6.48816 6.15812
#
# Compressibility (1/GPa) = 0.02835845
#
# Stress axis : x y z
#
# Youngs Moduli (GPa) = 66.00921 44.85939 62.06175
#
# Poissons Ratio (x) = 0.34560 0.02020
# Poissons Ratio (y) = 0.50854 0.28352
# Poissons Ratio (z) = 0.02149 0.20493
#
# Static dielectric constant tensor:
#      x y z
#    x 3.651200 0.000000 -0.044370 
#    y 0.000000 3.311230 0.000000 
#    z -0.044370 0.000000 3.457150 
# 
# 
# High freq. dielectric constant tensor:
#      x y z
#    x 1.753100 0.000000 -0.003860 
#    y 0.000000 1.717770 0.000000 
#    z -0.003860 0.000000 1.721000 
# 
# From -- ./inp_files/108571.got.cif
#   From: 2010.06.25/outbox.cif.g09.slc.cpg/sg12_55_cif.got.tgz:108571.got - 2010.06.28 00:19:55.
