data_PCOD8100745
_publ_section_title
;
Structure prediction by ZEFSAII (Michael W. Deem and Ramdas Pophale) SiO2 
 PCOD8100745
Probable space group: C 2/M
;
_chemical_formula_sum "Si O2"
_cell_formula_units_Z 56
_cell_length_a 17.061962
_cell_length_b 25.525397
_cell_length_c 8.730588
_cell_angle_alpha 90.000000
_cell_angle_beta 137.404200
_cell_angle_gamma 90.000000
_cell_volume 2573.471973
_symmetry_space_group_name_H-M "C 2/M"
_symmetry_group_IT_number 12
_symmetry_cell_setting 'monoclinic'
loop_
_space_group_symop_operation_xyz
x,y,z
-x,y,-z
-x,-y,-z
x,-y,z
1/2+x,1/2+y,z
1/2-x,1/2+y,-z
1/2-x,1/2-y,-z
1/2+x,1/2-y,z
loop_
_atom_site_type_symbol
_atom_site_label
_atom_site_fract_x
_atom_site_fract_y
_atom_site_fract_z
Si Si1 0.993196 0.441387 0.655108
Si Si2 0.294733 0.898698 0.523607
Si Si3 0.378582 0.644805 0.253688
Si Si4 0.379509 0.330327 0.909251
Si Si5 0.095607 0.700581 0.262118
Si Si6 0.786129 0.438094 0.849145
Si Si7 0.707900 0.266571 0.652509
O O1 0.036055 0.500000 0.686038
O O2 0.859719 0.443810 0.521465
O O3 0.000000 0.411071 0.500000
O O4 0.084583 0.420739 0.914428
O O5 0.181946 0.875987 0.277309
O O6 0.406829 0.858160 0.678356
O O7 0.261034 0.919782 0.640571
O O8 0.500000 0.631095 0.500000
O O9 0.297359 0.594964 0.161130
O O10 0.327692 0.699549 0.251237
O O11 0.403988 0.648772 0.111921
O O12 0.297215 0.280092 0.816908
O O13 0.500000 0.314509 0.000000
O O14 0.224817 0.696886 0.371742
O O15 0.094449 0.743317 0.399230
O O16 0.000000 0.714915 0.000000
O O17 0.760430 0.500000 0.826323
#
# Coordination Sequence:
#
# PCOD8100745 Si02
#       7
#     8   8   8   8   8   8   8
#     4  10  21  38  63  95 132 168 210 269 324 378
#     4  11  21  39  64  98 125 173 215 262 323 379
#     4  12  26  44  66  96 127 168 219 266 328 387
#     4  11  25  45  68  92 132 172 213 266 317 388
#     4  10  20  35  63  94 130 165 207 258 311 381
#     4  11  23  42  67  95 130 169 216 271 326 384
#     4  10  23  40  63  94 126 172 211 258 316 378
#
# _framework density 21.760484000000002
#
# number of rings (size 3 to 8) (size 9 to 14) (size 15 to 20)
#    0.000    1.286    1.429    4.286    6.000    1.429 
#    0.000    2.143    0.000    3.000    0.000    0.000 
#    0.000    0.000    0.000    0.000    0.000    0.000 
#
# Total GULP energy -346957.555865 kJ/mol
# GULP energy per Si atom -12391.341281 kJ/mol
# Density = 2.171096 g / cm^3
# Si number density = 21.760484 Si / 1000 Ang^3
#
#
#
# Elastic Constant Matrix: (Units=GPa)
#
#
# Indices 1 2 3 4 5 6 
#
# 1 85.8777 26.8236 25.7955 0.0000 -14.0979 0.0000
# 2 26.8236 87.1708 42.4631 0.0000 0.0928 0.0000
# 3 25.7955 42.4631 135.0020 0.0000 -8.0406 0.0000
# 4 0.0000 0.0000 0.0000 23.4081 0.0000 -0.1337
# 5 -14.0979 0.0928 -8.0406 0.0000 43.7112 0.0000
# 6 0.0000 0.0000 0.0000 -0.1337 0.0000 24.3546
#
#
#
# Elastic Compliance Matrix: (Units=1/GPa)
#
#
# Indices 1 2 3 4 5 6 
#
# 1 0.013860 -0.003664 -0.001243 0.000000 0.004249 0.000000
# 2 -0.003664 0.014545 -0.003991 0.000000 -0.001947 0.000000
# 3 -0.001243 -0.003991 0.008975 0.000000 0.001259 0.000000
# 4 0.000000 0.000000 0.000000 0.042722 0.000000 0.000234
# 5 0.004249 -0.001947 0.001259 0.000000 0.024484 0.000000
# 6 0.000000 0.000000 0.000000 0.000234 0.000000 0.041061
#
#
# Mechanical properties :
#
#
# Convention : Reuss Voigt Hill
#
# Bulk Modulus (GPa) = 51.05977 55.35721 53.20849
# Shear Modulus (GPa) = 29.41694 32.49265 30.95480
#
# Velocity S-wave (km/s) = 3.68074 3.86838 3.77573
# Velocity P-wave (km/s) = 6.44819 6.74144 6.59645
#
# Compressibility (1/GPa) = 0.01958489
#
# Stress axis : x y z
#
# Youngs Moduli (GPa) = 72.15136 68.75067 111.42074
#
# Poissons Ratio (x) = 0.25190 0.13846
# Poissons Ratio (y) = 0.26436 0.44467
# Poissons Ratio (z) = 0.08966 0.27438
#
# Static dielectric constant tensor:
#      x y z
#    x 3.842880 0.000000 -0.129620 
#    y 0.000000 3.997500 0.000000 
#    z -0.129620 0.000000 4.122060 
# 
# 
# High freq. dielectric constant tensor:
#      x y z
#    x 1.843170 0.000000 -0.010540 
#    y 0.000000 1.856010 0.000000 
#    z -0.010540 0.000000 1.867360 
# 
# From -- ./inp_files/80093.got.cif
#   From: 2010.06.25/outbox.cif.g09.slc.cpg/sg12_41_cif.got.tgz:80093.got - 2010.06.28 00:19:55.
