data_PCOD8100412
_publ_section_title
;
Structure prediction by ZEFSAII (Michael W. Deem and Ramdas Pophale) SiO2 
 PCOD8100412
Probable space group: C 2/M
;
_chemical_formula_sum "Si O2"
_cell_formula_units_Z 48
_cell_length_a 16.876327
_cell_length_b 25.867059
_cell_length_c 9.812195
_cell_angle_alpha 90.000000
_cell_angle_beta 31.833637
_cell_angle_gamma 90.000000
_cell_volume 2259.312404
_symmetry_space_group_name_H-M "C 2/M"
_symmetry_group_IT_number 12
_symmetry_cell_setting 'monoclinic'
loop_
_space_group_symop_operation_xyz
x,y,z
-x,y,-z
-x,-y,-z
x,-y,z
1/2+x,1/2+y,z
1/2-x,1/2+y,-z
1/2-x,1/2-y,-z
1/2+x,1/2-y,z
loop_
_atom_site_type_symbol
_atom_site_label
_atom_site_fract_x
_atom_site_fract_y
_atom_site_fract_z
Si Si1 0.929657 0.442928 0.296971
Si Si2 0.856927 0.940240 0.458283
Si Si3 0.125778 0.208138 0.215461
Si Si4 0.337952 0.903780 0.700901
Si Si5 0.763624 0.601030 0.100650
Si Si6 0.943979 0.150944 0.938052
O O1 0.993195 0.500000 0.169735
O O2 0.804818 0.426776 0.370143
O O3 0.857765 0.446447 0.554232
O O4 0.066086 0.402067 0.089465
O O5 0.849433 0.927923 0.631017
O O6 0.978753 0.904219 0.207179
O O7 0.900855 0.000000 0.369677
O O8 0.210526 0.159841 0.161528
O O9 0.031600 0.192152 0.217738
O O10 0.000000 0.231153 0.500000
O O11 0.250000 0.250000 0.000000
O O12 0.500000 0.878978 0.500000
O O13 0.262968 0.926214 0.950976
O O14 0.234998 0.858226 0.790562
O O15 0.000000 0.173788 0.000000
#
# Coordination Sequence:
#
# PCOD8100412 Si02
#       6
#     8   8   8   8   8   8
#     4  10  20  35  58  94 136 181 221 263 322 399
#     4  11  22  37  63  97 141 183 218 265 327 396
#     4  11  25  48  74  98 129 173 229 298 362 413
#     4   9  20  35  57  87 125 176 221 273 318 379
#     4  10  21  39  63  90 129 172 222 269 335 393
#     4  11  22  43  69  97 136 176 223 276 333 407
#
# _framework density 21.245401000000001
#
# number of rings (size 3 to 8) (size 9 to 14) (size 15 to 20)
#    0.000    1.667    3.333    1.000    0.000   11.333 
#    0.000   12.500    0.000    0.000    0.000    0.000 
#    0.000    0.000    0.000    0.000    0.000    0.000 
#
# Total GULP energy -297438.698491 kJ/mol
# GULP energy per Si atom -12393.279104 kJ/mol
# Density = 2.119705 g / cm^3
# Si number density = 21.245401 Si / 1000 Ang^3
#
#
#
# Elastic Constant Matrix: (Units=GPa)
#
#
# Indices 1 2 3 4 5 6 
#
# 1 135.9387 39.1038 45.4197 0.0001 5.6259 0.0002
# 2 39.1038 80.1359 39.0828 -0.0001 3.5725 0.0000
# 3 45.4197 39.0828 103.4518 0.0001 19.2156 0.0003
# 4 0.0001 -0.0001 0.0001 33.6430 0.0000 -5.8800
# 5 5.6259 3.5725 19.2156 0.0000 35.7991 -0.0001
# 6 0.0002 0.0000 0.0003 -5.8800 -0.0001 18.5552
#
#
#
# Elastic Compliance Matrix: (Units=1/GPa)
#
#
# Indices 1 2 3 4 5 6 
#
# 1 0.009212 -0.003067 -0.002970 0.000000 0.000452 0.000000
# 2 -0.003067 0.016418 -0.005155 0.000000 0.001611 0.000000
# 3 -0.002970 -0.005155 0.014146 0.000000 -0.006612 0.000000
# 4 0.000000 0.000000 0.000000 0.031467 0.000000 0.009971
# 5 0.000452 0.001611 -0.006612 0.000000 0.031251 0.000000
# 6 0.000000 0.000000 0.000000 0.009971 0.000000 0.057053
#
#
# Mechanical properties :
#
#
# Convention : Reuss Voigt Hill
#
# Bulk Modulus (GPa) = 57.49806 62.97098 60.23452
# Shear Modulus (GPa) = 26.63437 30.66079 28.64758
#
# Velocity S-wave (km/s) = 3.54454 3.80303 3.67606
# Velocity P-wave (km/s) = 6.62376 6.99916 6.81405
#
# Compressibility (1/GPa) = 0.01739189
#
# Stress axis : x y z
#
# Youngs Moduli (GPa) = 108.55344 60.90976 70.69199
#
# Poissons Ratio (x) = 0.18681 0.20995
# Poissons Ratio (y) = 0.33293 0.36442
# Poissons Ratio (z) = 0.32239 0.31399
#
# Static dielectric constant tensor:
#      x y z
#    x 4.229320 0.000000 0.111050 
#    y 0.000000 3.329740 0.000000 
#    z 0.111050 0.000000 4.096090 
# 
# 
# High freq. dielectric constant tensor:
#      x y z
#    x 1.851450 0.000000 0.006360 
#    y 0.000000 1.776460 0.000000 
#    z 0.006360 0.000000 1.849240 
# 
# From -- ./inp_files/67329.got.cif
#   From: 2010.06.25/outbox.cif.g09.slc.cpg/sg12_34_cif.got.tgz:67329.got - 2010.06.28 00:19:55.
