data_PCOD8100691
_publ_section_title
;
Structure prediction by ZEFSAII (Michael W. Deem and Ramdas Pophale) SiO2 
 PCOD8100691
Probable space group: C 2/M
;
_chemical_formula_sum "Si O2"
_cell_formula_units_Z 48
_cell_length_a 23.172919
_cell_length_b 8.807562
_cell_length_c 12.171895
_cell_angle_alpha 90.000000
_cell_angle_beta 70.002425
_cell_angle_gamma 90.000000
_cell_volume 2334.463866
_symmetry_space_group_name_H-M "C 2/M"
_symmetry_group_IT_number 12
_symmetry_cell_setting 'monoclinic'
loop_
_space_group_symop_operation_xyz
x,y,z
-x,y,-z
-x,-y,-z
x,-y,z
1/2+x,1/2+y,z
1/2-x,1/2+y,-z
1/2-x,1/2-y,-z
1/2+x,1/2-y,z
loop_
_atom_site_type_symbol
_atom_site_label
_atom_site_fract_x
_atom_site_fract_y
_atom_site_fract_z
Si Si1 0.203262 0.320439 0.775938
Si Si2 0.148654 0.678091 0.038009
Si Si3 0.986698 0.319378 0.888138
Si Si4 0.901179 0.320325 0.327586
Si Si5 0.929568 0.820287 0.535502
Si Si6 0.326154 0.178111 0.738443
O O1 0.211839 0.500000 0.776882
O O2 0.157154 0.274427 0.708734
O O3 0.269034 0.245173 0.707437
O O4 0.178913 0.252488 0.908378
O O5 0.143052 0.500000 0.020980
O O6 0.186146 0.715960 0.124379
O O7 0.080064 0.742062 0.102336
O O8 0.991115 0.500000 0.885868
O O9 0.037468 0.257269 0.770881
O O10 0.000000 0.254618 0.000000
O O11 0.903227 0.500000 0.344920
O O12 0.896764 0.237995 0.446615
O O13 0.890309 0.753214 0.661387
O O14 0.000000 0.762215 0.500000
O O15 0.926839 0.000000 0.541180
O O16 0.331492 0.000000 0.713866
#
# Coordination Sequence:
#
# PCOD8100691 Si02
#       6
#     8   8   8   8   8   8
#     4  10  20  36  58  87 122 156 191 233 289 346
#     4   9  17  31  54  86 120 152 189 236 286 340
#     4   9  14  26  52  86 116 142 180 231 283 334
#     4  10  20  35  61  91 118 152 194 239 284 338
#     4  11  25  44  63  83 113 151 190 237 294 349
#     4  11  23  38  59  86 116 154 199 241 282 335
#
# _framework density 20.561467
#
# number of rings (size 3 to 8) (size 9 to 14) (size 15 to 20)
#    0.000    2.000    1.667    2.500    0.000    4.000 
#    0.000    0.833    0.000    1.500    0.000    0.000 
#    0.000    0.000    0.000    0.000    0.000    0.000 
#
# Total GULP energy -297583.789821 kJ/mol
# GULP energy per Si atom -12399.324576 kJ/mol
# Density = 2.051467 g / cm^3
# Si number density = 20.561467 Si / 1000 Ang^3
#
#
#
# Elastic Constant Matrix: (Units=GPa)
#
#
# Indices 1 2 3 4 5 6 
#
# 1 140.2125 37.6152 36.0387 0.0000 -2.2565 0.0000
# 2 37.6152 46.0211 28.2987 0.0000 3.3318 0.0000
# 3 36.0387 28.2987 94.0853 0.0000 5.9382 0.0000
# 4 0.0000 0.0000 0.0000 18.0697 0.0000 0.0220
# 5 -2.2565 3.3318 5.9382 0.0000 33.8791 0.0000
# 6 0.0000 0.0000 0.0000 0.0220 0.0000 25.1254
#
#
#
# Elastic Compliance Matrix: (Units=1/GPa)
#
#
# Indices 1 2 3 4 5 6 
#
# 1 0.009403 -0.006778 -0.001663 0.000000 0.001584 0.000000
# 2 -0.006778 0.031596 -0.006757 0.000000 -0.002374 0.000000
# 3 -0.001663 -0.006757 0.013412 0.000000 -0.001797 0.000000
# 4 0.000000 0.000000 0.000000 0.055341 0.000000 -0.000048
# 5 0.001584 -0.002374 -0.001797 0.000000 0.030171 0.000000
# 6 0.000000 0.000000 0.000000 -0.000048 0.000000 0.039800
#
#
# Mechanical properties :
#
#
# Convention : Reuss Voigt Hill
#
# Bulk Modulus (GPa) = 41.64199 53.80267 47.72233
# Shear Modulus (GPa) = 22.92269 27.30594 25.11431
#
# Velocity S-wave (km/s) = 3.34254 3.64815 3.49868
# Velocity P-wave (km/s) = 5.93238 6.63090 6.29134
#
# Compressibility (1/GPa) = 0.02401422
#
# Stress axis : x y z
#
# Youngs Moduli (GPa) = 106.34543 31.64969 74.56216
#
# Poissons Ratio (x) = 0.21451 0.12402
# Poissons Ratio (y) = 0.72078 0.50384
# Poissons Ratio (z) = 0.17688 0.21387
#
# Static dielectric constant tensor:
#      x y z
#    x 3.848530 0.000000 -0.050770 
#    y 0.000000 3.218440 0.000000 
#    z -0.050770 0.000000 3.776220 
# 
# 
# High freq. dielectric constant tensor:
#      x y z
#    x 1.818430 0.000000 -0.000420 
#    y 0.000000 1.758880 0.000000 
#    z -0.000420 0.000000 1.809370 
# 
# From -- ./inp_files/172942.got.cif
#   From: 2010.06.25/outbox.cif.g09.slc.cpg/sg12_87_cif.got.tgz:172942.got - 2010.06.28 00:19:55.
