data_PCOD8100001
_publ_section_title
;
Structure prediction by ZEFSAII (Michael W. Deem and Ramdas Pophale) SiO2 
 PCOD8100001
Probable space group: C 2/M
;
_chemical_formula_sum "Si O2"
_cell_formula_units_Z 56
_cell_length_a 18.230915
_cell_length_b 8.863954
_cell_length_c 24.050015
_cell_angle_alpha 90.000000
_cell_angle_beta 133.572265
_cell_angle_gamma 90.000000
_cell_volume 2815.743286
_symmetry_space_group_name_H-M "C 2/M"
_symmetry_group_IT_number 12
_symmetry_cell_setting 'monoclinic'
loop_
_space_group_symop_operation_xyz
x,y,z
-x,y,-z
-x,-y,-z
x,-y,z
1/2+x,1/2+y,z
1/2-x,1/2+y,-z
1/2-x,1/2-y,-z
1/2+x,1/2-y,z
loop_
_atom_site_type_symbol
_atom_site_label
_atom_site_fract_x
_atom_site_fract_y
_atom_site_fract_z
Si Si1 0.281563 0.824951 0.598467
Si Si2 0.490795 0.676414 0.131681
Si Si3 0.409303 0.674757 0.573459
Si Si4 0.700344 0.177819 0.264701
Si Si5 0.683207 0.825852 0.011622
Si Si6 0.388364 0.823410 0.303114
Si Si7 0.132978 0.827407 0.822061
O O1 0.361909 0.724628 0.607399
O O2 0.168666 0.793254 0.517169
O O3 0.285521 0.773299 0.664093
O O4 0.310575 0.000000 0.605503
O O5 0.500729 0.500000 0.127534
O O6 0.600618 0.749027 0.187170
O O7 0.435246 0.716222 0.160495
O O8 0.426169 0.744459 0.046012
O O9 0.438463 0.500000 0.592780
O O10 0.509656 0.770156 0.612591
O O11 0.794796 0.234795 0.279340
O O12 0.692506 0.000000 0.254472
O O13 0.746577 0.807513 0.102007
O O14 0.667574 0.000000 0.988634
O O15 0.750000 0.750000 0.000000
O O16 0.398398 0.784592 0.243251
O O17 0.373126 0.000000 0.303695
O O18 0.111192 0.000000 0.792976
#
# Coordination Sequence:
#
# PCOD8100001 Si02
#       7
#     8   8   8   8   8   8   8
#     4   9  20  38  61  87 110 140 182 225 271 323
#     4  10  20  35  57  85 114 143 180 225 274 328
#     4  10  20  37  61  86 113 142 177 224 274 324
#     4  11  23  39  57  78 110 148 186 227 272 324
#     4   9  17  31  54  83 111 141 180 226 274 322
#     4  12  25  38  54  79 112 148 187 227 271 325
#     4   9  19  36  58  83 111 144 182 225 273 323
#
# _framework density 19.888176999999999
#
# number of rings (size 3 to 8) (size 9 to 14) (size 15 to 20)
#    0.000    2.000    0.000    4.714    0.000    8.000 
#    0.000    3.571    0.000    4.286    0.000    0.000 
#    0.000    0.000    0.000    0.000    0.000    0.000 
#
# Total GULP energy -347243.361296 kJ/mol
# GULP energy per Si atom -12401.548618 kJ/mol
# Density = 1.984291 g / cm^3
# Si number density = 19.888177 Si / 1000 Ang^3
#
#
#
# Elastic Constant Matrix: (Units=GPa)
#
#
# Indices 1 2 3 4 5 6 
#
# 1 55.9211 17.0575 22.4003 0.0000 26.9523 0.0000
# 2 17.0575 84.6200 26.9187 0.0000 12.6878 0.0000
# 3 22.4003 26.9187 77.2881 0.0000 32.5311 0.0000
# 4 0.0000 0.0000 0.0000 34.0538 0.0000 6.8352
# 5 26.9523 12.6878 32.5311 0.0000 29.5304 0.0000
# 6 0.0000 0.0000 0.0000 6.8352 0.0000 33.2903
#
#
#
# Elastic Compliance Matrix: (Units=1/GPa)
#
#
# Indices 1 2 3 4 5 6 
#
# 1 0.034200 -0.003530 0.007117 0.000000 -0.037539 0.000000
# 2 -0.003530 0.013675 -0.004890 0.000000 0.002733 0.000000
# 3 0.007117 -0.004890 0.026903 0.000000 -0.034032 0.000000
# 4 0.000000 0.000000 0.000000 0.030628 0.000000 -0.006288
# 5 -0.037539 0.002733 -0.034032 0.000000 0.104440 0.000000
# 6 0.000000 0.000000 0.000000 -0.006288 0.000000 0.031330
#
#
# Mechanical properties :
#
#
# Convention : Reuss Voigt Hill
#
# Bulk Modulus (GPa) = 13.85553 38.95358 26.40455
# Shear Modulus (GPa) = 18.66791 29.47175 24.06983
#
# Velocity S-wave (km/s) = 3.06705 3.85369 3.48265
# Velocity P-wave (km/s) = 4.41863 6.27933 5.42929
#
# Compressibility (1/GPa) = 0.07217337
#
# Stress axis : x y z
#
# Youngs Moduli (GPa) = 29.23934 73.12679 37.17025
#
# Poissons Ratio (x) = 0.25812 -0.26455
# Poissons Ratio (y) = 0.10321 0.18177
# Poissons Ratio (z) = -0.20811 0.35761
#
# Static dielectric constant tensor:
#      x y z
#    x 3.360010 0.000000 0.228390 
#    y 0.000000 3.742640 0.000000 
#    z 0.228390 0.000000 4.017590 
# 
# 
# High freq. dielectric constant tensor:
#      x y z
#    x 1.750270 0.000000 0.019710 
#    y 0.000000 1.783540 0.000000 
#    z 0.019710 0.000000 1.790420 
# 
# From -- ./inp_files/342609.got.cif
#   From: 2010.06.25/outbox.cif.g09.slc.cpg/sg12_172_cif.got.tgz:342609.got - 2010.06.28 00:19:55.
