data_PCOD8100225
_publ_section_title
;
Structure prediction by ZEFSAII (Michael W. Deem and Ramdas Pophale) SiO2 
 PCOD8100225
Probable space group: C 2/M
;
_chemical_formula_sum "Si O2"
_cell_formula_units_Z 40
_cell_length_a 17.752470
_cell_length_b 13.818951
_cell_length_c 14.182153
_cell_angle_alpha 90.000000
_cell_angle_beta 143.626443
_cell_angle_gamma 90.000000
_cell_volume 2063.314361
_symmetry_space_group_name_H-M "C 2/M"
_symmetry_group_IT_number 12
_symmetry_cell_setting 'monoclinic'
loop_
_space_group_symop_operation_xyz
x,y,z
-x,y,-z
-x,-y,-z
x,-y,z
1/2+x,1/2+y,z
1/2-x,1/2+y,-z
1/2-x,1/2-y,-z
1/2+x,1/2-y,z
loop_
_atom_site_type_symbol
_atom_site_label
_atom_site_fract_x
_atom_site_fract_y
_atom_site_fract_z
Si Si1 0.800642 0.250513 0.945435
Si Si2 0.638120 0.608305 0.657980
Si Si3 0.349985 0.607994 0.840430
Si Si4 0.285789 0.392489 0.474740
Si Si5 0.590166 0.736108 0.267711
O O1 0.724328 0.335269 0.818269
O O2 0.784127 0.150537 0.869520
O O3 0.750000 0.250000 0.000000
O O4 0.951233 0.270702 0.097174
O O5 0.500000 0.656846 0.500000
O O6 0.617545 0.500000 0.678554
O O7 0.711331 0.603745 0.634109
O O8 0.292682 0.500000 0.764623
O O9 0.327447 0.683976 0.732605
O O10 0.500000 0.597629 0.000000
O O11 0.274481 0.500000 0.505969
O O12 0.410878 0.341401 0.646857
O O13 0.161286 0.331512 0.376708
#
# Coordination Sequence:
#
# PCOD8100225 Si02
#       5
#     8   8   8   8   8
#     4  11  22  36  56  84 117 153 193 239 284 342
#     4  10  21  37  57  83 115 151 189 234 289 344
#     4   9  18  34  56  81 110 146 191 234 281 339
#     4  10  20  35  58  85 113 146 188 237 288 344
#     4  10  20  36  58  85 113 151 190 239 290 341
#
# _framework density 19.386284
#
# number of rings (size 3 to 8) (size 9 to 14) (size 15 to 20)
#    0.000    2.000    2.000    1.800    0.000    2.400 
#    0.000    2.000    0.000    0.600    0.000    0.000 
#    0.000    0.000    0.000    0.000    0.000    0.000 
#
# Total GULP energy -247847.441670 kJ/mol
# GULP energy per Si atom -12392.372083 kJ/mol
# Density = 1.934216 g / cm^3
# Si number density = 19.386284 Si / 1000 Ang^3
#
#
#
# Elastic Constant Matrix: (Units=GPa)
#
#
# Indices 1 2 3 4 5 6 
#
# 1 90.2879 39.9068 25.9639 0.0000 -14.9358 0.0000
# 2 39.9068 133.1195 66.1433 0.0000 3.4017 0.0000
# 3 25.9639 66.1433 129.3399 0.0000 -0.3975 0.0000
# 4 0.0000 0.0000 0.0000 28.6873 0.0000 -3.9231
# 5 -14.9358 3.4017 -0.3975 0.0000 29.6899 0.0000
# 6 0.0000 0.0000 0.0000 -3.9231 0.0000 20.6746
#
#
#
# Elastic Compliance Matrix: (Units=1/GPa)
#
#
# Indices 1 2 3 4 5 6 
#
# 1 0.014396 -0.004141 -0.000749 0.000000 0.007706 0.000000
# 2 -0.004141 0.011307 -0.004961 0.000000 -0.003445 0.000000
# 3 -0.000749 -0.004961 0.010420 0.000000 0.000331 0.000000
# 4 0.000000 0.000000 0.000000 0.035787 0.000000 0.006791
# 5 0.007706 -0.003445 0.000331 0.000000 0.037957 0.000000
# 6 0.000000 0.000000 0.000000 0.006791 0.000000 0.049657
#
#
# Mechanical properties :
#
#
# Convention : Reuss Voigt Hill
#
# Bulk Modulus (GPa) = 60.89724 68.53059 64.71391
# Shear Modulus (GPa) = 27.07100 30.52593 28.79847
#
# Velocity S-wave (km/s) = 3.74090 3.97245 3.85841
# Velocity P-wave (km/s) = 7.08095 7.51447 7.30093
#
# Compressibility (1/GPa) = 0.01642111
#
# Stress axis : x y z
#
# Youngs Moduli (GPa) = 69.46408 88.44427 95.96798
#
# Poissons Ratio (x) = 0.36621 0.07185
# Poissons Ratio (y) = 0.28762 0.47614
# Poissons Ratio (z) = 0.05201 0.43881
#
# Static dielectric constant tensor:
#      x y z
#    x 3.399180 0.000000 -0.214420 
#    y 0.000000 3.914210 0.000000 
#    z -0.214420 0.000000 3.565040 
# 
# 
# High freq. dielectric constant tensor:
#      x y z
#    x 1.735140 0.000000 -0.022870 
#    y 0.000000 1.756730 0.000000 
#    z -0.022870 0.000000 1.754890 
# 
# From -- ./inp_files/142537.got.cif
#   From: 2010.06.25/outbox.cif.g09.slc.cpg/sg12_72_cif.got.tgz:142537.got - 2010.06.28 00:19:55.
