data_PCOD8100702
_publ_section_title
;
Structure prediction by ZEFSAII (Michael W. Deem and Ramdas Pophale) SiO2 
 PCOD8100702
Probable space group: C 2/M
;
_chemical_formula_sum "Si O2"
_cell_formula_units_Z 64
_cell_length_a 8.671786
_cell_length_b 21.019350
_cell_length_c 19.635734
_cell_angle_alpha 90.000000
_cell_angle_beta 61.309960
_cell_angle_gamma 90.000000
_cell_volume 3139.700819
_symmetry_space_group_name_H-M "C 2/M"
_symmetry_group_IT_number 12
_symmetry_cell_setting 'monoclinic'
loop_
_space_group_symop_operation_xyz
x,y,z
-x,y,-z
-x,-y,-z
x,-y,z
1/2+x,1/2+y,z
1/2-x,1/2+y,-z
1/2-x,1/2-y,-z
1/2+x,1/2-y,z
loop_
_atom_site_type_symbol
_atom_site_label
_atom_site_fract_x
_atom_site_fract_y
_atom_site_fract_z
Si Si1 0.842544 0.071918 0.984894
Si Si2 0.845194 0.888366 0.838007
Si Si3 0.533604 0.857999 0.112212
Si Si4 0.405569 0.835670 0.754830
Si Si5 0.043687 0.766871 0.809091
Si Si6 0.472903 0.425821 0.667403
Si Si7 0.188831 0.573624 0.477826
Si Si8 0.660994 0.073588 0.638567
O O1 0.901587 0.073009 0.893428
O O2 0.787294 0.000000 0.016561
O O3 0.679699 0.120945 0.026607
O O4 0.000000 0.095334 0.000000
O O5 0.640389 0.899304 0.865132
O O6 0.961065 0.912228 0.749978
O O7 0.878147 0.813894 0.843831
O O8 0.611737 0.875084 0.170440
O O9 0.484622 0.781994 0.120866
O O10 0.218026 0.809013 0.772013
O O11 0.535830 0.775409 0.741369
O O12 0.485386 0.883298 0.682013
O O13 0.477816 0.500000 0.650732
O O14 0.652979 0.394797 0.599694
O O15 0.303514 0.399290 0.662328
O O16 0.175911 0.500000 0.459900
O O17 0.236392 0.582248 0.546954
O O18 0.000000 0.605809 0.500000
O O19 0.610996 0.000000 0.662839
#
# Coordination Sequence:
#
# PCOD8100702 Si02
#       8
#     8   8   8   8   8   8   8   8
#     4  11  26  44  62  90 130 167 203 255 317 375
#     4  12  22  39  65  91 121 164 212 257 310 367
#     4  10  21  41  61  90 118 162 204 258 308 363
#     4  10  20  39  62  93 122 164 204 266 301 373
#     4  10  21  39  61  91 120 162 209 257 307 355
#     4  10  20  36  59  91 129 165 206 251 309 379
#     4   9  19  35  54  88 130 165 206 253 306 370
#     4  10  20  35  61  92 125 165 205 254 318 375
#
# _framework density 20.384108999999999
#
# number of rings (size 3 to 8) (size 9 to 14) (size 15 to 20)
#    0.750    1.000    2.500    1.875    1.750    4.000 
#    0.000    0.625    0.000    0.750    3.250    0.000 
#    0.000    0.000    0.000    0.000    0.000    0.000 
#
# Total GULP energy -396592.844584 kJ/mol
# GULP energy per Si atom -12393.526393 kJ/mol
# Density = 2.033771 g / cm^3
# Si number density = 20.384109 Si / 1000 Ang^3
#
#
#
# Elastic Constant Matrix: (Units=GPa)
#
#
# Indices 1 2 3 4 5 6 
#
# 1 109.6021 27.8206 56.3497 0.0000 -9.5612 0.0000
# 2 27.8206 61.1441 32.9845 0.0000 -17.2054 0.0000
# 3 56.3497 32.9845 129.5349 0.0000 -10.5484 0.0000
# 4 0.0000 0.0000 0.0000 22.0406 0.0000 -8.2987
# 5 -9.5612 -17.2054 -10.5484 0.0000 30.1863 0.0000
# 6 0.0000 0.0000 0.0000 -8.2987 0.0000 23.6029
#
#
#
# Elastic Compliance Matrix: (Units=1/GPa)
#
#
# Indices 1 2 3 4 5 6 
#
# 1 0.012257 -0.002962 -0.004528 0.000000 0.000612 0.000000
# 2 -0.002962 0.022667 -0.003610 0.000000 0.010720 0.000000
# 3 -0.004528 -0.003610 0.010627 0.000000 0.000222 0.000000
# 4 0.000000 0.000000 0.000000 0.052294 0.000000 0.018386
# 5 0.000612 0.010720 0.000222 0.000000 0.039509 0.000000
# 6 0.000000 0.000000 0.000000 0.018386 0.000000 0.048832
#
#
# Mechanical properties :
#
#
# Convention : Reuss Voigt Hill
#
# Bulk Modulus (GPa) = 42.82681 59.39897 51.11289
# Shear Modulus (GPa) = 23.13002 27.37438 25.25220
#
# Velocity S-wave (km/s) = 3.37220 3.66857 3.52350
# Velocity P-wave (km/s) = 6.01812 6.86642 6.45622
#
# Compressibility (1/GPa) = 0.02334986
#
# Stress axis : x y z
#
# Youngs Moduli (GPa) = 81.58513 44.11783 94.10003
#
# Poissons Ratio (x) = 0.13069 0.42608
# Poissons Ratio (y) = 0.24168 0.33972
# Poissons Ratio (z) = 0.36941 0.15928
#
# Static dielectric constant tensor:
#      x y z
#    x 3.751840 0.000000 -0.037760 
#    y 0.000000 3.410460 0.000000 
#    z -0.037760 0.000000 3.504840 
# 
# 
# High freq. dielectric constant tensor:
#      x y z
#    x 1.808260 0.000000 -0.002020 
#    y 0.000000 1.764570 0.000000 
#    z -0.002020 0.000000 1.782010 
# 
# From -- ./inp_files/302324.got.cif
#   From: 2010.06.25/outbox.cif.g09.slc.cpg/sg12_152_cif.got.tgz:302324.got - 2010.06.28 00:19:55.
