data_PCOD8100684
_publ_section_title
;
Structure prediction by ZEFSAII (Michael W. Deem and Ramdas Pophale) SiO2 
 PCOD8100684
Probable space group: C 2/M
;
_chemical_formula_sum "Si O2"
_cell_formula_units_Z 64
_cell_length_a 19.459629
_cell_length_b 8.936197
_cell_length_c 31.270880
_cell_angle_alpha 90.000000
_cell_angle_beta 36.640741
_cell_angle_gamma 90.000000
_cell_volume 3245.286109
_symmetry_space_group_name_H-M "C 2/M"
_symmetry_group_IT_number 12
_symmetry_cell_setting 'monoclinic'
loop_
_space_group_symop_operation_xyz
x,y,z
-x,y,-z
-x,-y,-z
x,-y,z
1/2+x,1/2+y,z
1/2-x,1/2+y,-z
1/2-x,1/2-y,-z
1/2+x,1/2-y,z
loop_
_atom_site_type_symbol
_atom_site_label
_atom_site_fract_x
_atom_site_fract_y
_atom_site_fract_z
Si Si1 0.967186 0.170345 0.230061
Si Si2 0.842218 0.176415 0.985005
Si Si3 0.425191 0.177449 0.498126
Si Si4 0.985402 0.323235 0.373884
Si Si5 0.834551 0.823640 0.380439
Si Si6 0.269096 0.329048 0.883841
Si Si7 0.937154 0.329166 0.160612
Si Si8 0.795409 0.828415 0.774713
O O1 0.919627 0.222996 0.299558
O O2 0.914607 0.276759 0.220243
O O3 0.104125 0.185294 0.159851
O O4 0.928219 0.000000 0.240625
O O5 0.817691 0.226612 0.045819
O O6 0.831966 0.000000 0.985766
O O7 0.750000 0.250000 0.000000
O O8 0.970006 0.225410 0.908820
O O9 0.500000 0.246213 0.500000
O O10 0.478288 0.231431 0.426572
O O11 0.293382 0.233407 0.567214
O O12 0.428304 0.000000 0.499620
O O13 0.975979 0.500000 0.375413
O O14 0.878201 0.255076 0.401610
O O15 0.106260 0.271645 0.294733
O O16 0.836227 0.000000 0.387905
O O17 0.225487 0.500000 0.907875
O O18 0.268043 0.270042 0.835924
O O19 0.980676 0.500000 0.138488
O O20 0.817765 0.310893 0.196385
O O21 0.839275 0.000000 0.755156
#
# Coordination Sequence:
#
# PCOD8100684 Si02
#       8
#     8   8   8   8   8   8   8   8
#     4  10  20  35  61  89 114 154 202 246 293 350
#     4  12  24  39  61  88 120 156 197 244 296 351
#     4   9  20  37  58  88 122 158 201 244 293 351
#     4  11  22  36  61  91 119 154 199 252 294 343
#     4  10  20  38  63  85 117 163 202 242 294 356
#     4  10  20  39  63  86 115 153 202 244 288 351
#     4  11  24  40  61  88 120 156 195 244 299 353
#     4  10  23  43  63  86 120 161 197 237 297 362
#
# _framework density 19.720911000000001
#
# number of rings (size 3 to 8) (size 9 to 14) (size 15 to 20)
#    0.000    1.625    2.500    2.250    1.750    2.500 
#    0.000    3.125    0.000    1.875    0.000    0.000 
#    0.000    0.000    0.000    0.000    0.000    0.000 
#
# Total GULP energy -396936.346619 kJ/mol
# GULP energy per Si atom -12404.260832 kJ/mol
# Density = 1.967603 g / cm^3
# Si number density = 19.720911 Si / 1000 Ang^3
#
#
#
# Elastic Constant Matrix: (Units=GPa)
#
#
# Indices 1 2 3 4 5 6 
#
# 1 128.8013 47.9060 60.2631 0.0134 14.7830 0.0667
# 2 47.9060 85.3336 43.5020 0.0099 6.4974 0.0235
# 3 60.2631 43.5020 94.9998 0.0036 16.1030 0.0092
# 4 0.0134 0.0099 0.0036 24.5481 -0.0019 3.5538
# 5 14.7830 6.4974 16.1030 -0.0019 33.5391 0.0039
# 6 0.0667 0.0235 0.0092 3.5538 0.0039 29.8664
#
#
#
# Elastic Compliance Matrix: (Units=1/GPa)
#
#
# Indices 1 2 3 4 5 6 
#
# 1 0.011975 -0.003743 -0.005563 -0.000001 -0.001882 -0.000022
# 2 -0.003743 0.016463 -0.005338 -0.000003 0.001023 -0.000003
# 3 -0.005563 -0.005338 0.017318 0.000001 -0.004829 0.000012
# 4 -0.000001 -0.000003 0.000001 0.041450 0.000004 -0.004932
# 5 -0.001882 0.001023 -0.004829 0.000004 0.032766 0.000000
# 6 -0.000022 -0.000003 0.000012 -0.004932 0.000000 0.034069
#
#
# Mechanical properties :
#
#
# Convention : Reuss Voigt Hill
#
# Bulk Modulus (GPa) = 60.72411 68.05300 64.38855
# Shear Modulus (GPa) = 26.48025 28.08831 27.28428
#
# Velocity S-wave (km/s) = 3.66833 3.77807 3.72361
# Velocity P-wave (km/s) = 6.98576 7.32221 7.15596
#
# Compressibility (1/GPa) = 0.01646792
#
# Stress axis : x y z
#
# Youngs Moduli (GPa) = 83.50632 60.74069 57.74308
#
# Poissons Ratio (x) = 0.22738 0.32124
# Poissons Ratio (y) = 0.31260 0.30822
# Poissons Ratio (z) = 0.46457 0.32422
#
# Static dielectric constant tensor:
#      x y z
#    x 3.752490 -0.000050 0.063860 
#    y -0.000050 3.496920 0.000060 
#    z 0.063860 0.000060 3.879020 
# 
# 
# High freq. dielectric constant tensor:
#      x y z
#    x 1.776440 0.000000 0.007730 
#    y 0.000000 1.750440 0.000000 
#    z 0.007730 0.000000 1.779520 
# 
# From -- ./inp_files/378249.got.cif
#   From: 2010.06.25/outbox.cif.g09.slc.cpg/sg12_190_cif.got.tgz:378249.got - 2010.06.28 00:19:55.
