data_PCOD8100150
_publ_section_title
;
Structure prediction by ZEFSAII (Michael W. Deem and Ramdas Pophale) SiO2 
 PCOD8100150
Probable space group: C 2/M
;
_chemical_formula_sum "Si O2"
_cell_formula_units_Z 64
_cell_length_a 27.874425
_cell_length_b 20.221697
_cell_length_c 18.919415
_cell_angle_alpha 90.000000
_cell_angle_beta 164.043858
_cell_angle_gamma 90.000000
_cell_volume 2931.624000
_symmetry_space_group_name_H-M "C 2/M"
_symmetry_group_IT_number 12
_symmetry_cell_setting 'monoclinic'
loop_
_space_group_symop_operation_xyz
x,y,z
-x,y,-z
-x,-y,-z
x,-y,z
1/2+x,1/2+y,z
1/2-x,1/2+y,-z
1/2-x,1/2-y,-z
1/2+x,1/2-y,z
loop_
_atom_site_type_symbol
_atom_site_label
_atom_site_fract_x
_atom_site_fract_y
_atom_site_fract_z
Si Si1 0.719366 0.357929 0.662010
Si Si2 0.200858 0.073725 0.501561
Si Si3 0.148477 0.187218 0.326599
Si Si4 0.816357 0.676959 0.944498
Si Si5 0.875387 0.923305 0.228857
Si Si6 0.744058 0.811744 0.793607
Si Si7 0.207022 0.927738 0.041598
Si Si8 0.356405 0.786101 0.496543
O O1 0.802702 0.401884 0.716951
O O2 0.860171 0.341929 0.923772
O O3 0.567388 0.396010 0.487692
O O4 0.645191 0.292680 0.517431
O O5 0.232065 0.120662 0.478580
O O6 0.998680 0.075532 0.236494
O O7 0.263414 0.000000 0.569908
O O8 0.250000 0.250000 0.500000
O O9 0.181788 0.187903 0.289242
O O10 0.945916 0.192109 0.057027
O O11 0.709281 0.618164 0.828173
O O12 0.700434 0.744390 0.774822
O O13 0.985740 0.692425 0.229951
O O14 0.758972 0.915098 0.993145
O O15 0.885436 0.000000 0.266031
O O16 0.630187 0.820177 0.561254
O O17 0.693646 0.873199 0.771446
O O18 0.278208 0.000000 0.164721
#
# Coordination Sequence:
#
# PCOD8100150 Si02
#       8
#     8   8   8   8   8   8   8   8
#     4  10  20  35  58  83 109 148 192 239 280 335
#     4   9  17  32  57  85 110 143 191 238 278 330
#     4  11  18  36  61  84 114 153 190 238 281 337
#     4  11  22  35  54  83 116 145 186 238 286 332
#     4  10  21  38  60  83 112 152 192 231 285 346
#     4  10  21  36  59  85 114 151 191 235 285 336
#     4   8  16  34  59  83 106 142 194 238 274 329
#     4  11  22  37  55  86 116 149 191 238 286 337
#
# _framework density 21.830902999999999
#
# number of rings (size 3 to 8) (size 9 to 14) (size 15 to 20)
#    0.000    2.000    2.500    3.375    0.000    3.500 
#    0.000    4.375    0.000    5.250    0.000    0.000 
#    0.000    0.000    0.000    0.000    0.000    0.000 
#
# Total GULP energy -396574.856949 kJ/mol
# GULP energy per Si atom -12392.964280 kJ/mol
# Density = 2.178122 g / cm^3
# Si number density = 21.830903 Si / 1000 Ang^3
#
#
#
# Elastic Constant Matrix: (Units=GPa)
#
#
# Indices 1 2 3 4 5 6 
#
# 1 101.6771 76.3657 27.1707 0.0000 -26.5007 0.0000
# 2 76.3657 177.5615 29.0783 0.0000 -30.2238 0.0000
# 3 27.1707 29.0783 64.7997 0.0000 -26.5714 0.0000
# 4 0.0000 0.0000 0.0000 17.4465 0.0000 -2.1221
# 5 -26.5007 -30.2238 -26.5714 0.0000 34.9052 0.0000
# 6 0.0000 0.0000 0.0000 -2.1221 0.0000 40.8525
#
#
#
# Elastic Compliance Matrix: (Units=1/GPa)
#
#
# Indices 1 2 3 4 5 6 
#
# 1 0.016083 -0.005604 -0.001762 0.000000 0.006017 0.000000
# 2 -0.005604 0.008595 -0.000291 0.000000 0.002966 0.000000
# 3 -0.001762 -0.000291 0.022752 0.000000 0.015730 0.000000
# 4 0.000000 0.000000 0.000000 0.057682 0.000000 0.002996
# 5 0.006017 0.002966 0.015730 0.000000 0.047760 0.000000
# 6 0.000000 0.000000 0.000000 0.002996 0.000000 0.024634
#
#
# Mechanical properties :
#
#
# Convention : Reuss Voigt Hill
#
# Bulk Modulus (GPa) = 31.13703 67.69640 49.41671
# Shear Modulus (GPa) = 24.56707 32.73576 28.65141
#
# Velocity S-wave (km/s) = 3.35824 3.87656 3.62667
# Velocity P-wave (km/s) = 5.41579 7.14938 6.34210
#
# Compressibility (1/GPa) = 0.03211610
#
# Stress axis : x y z
#
# Youngs Moduli (GPa) = 62.17629 116.35192 43.95297
#
# Poissons Ratio (x) = 0.65209 0.07742
# Poissons Ratio (y) = 0.34846 0.01278
# Poissons Ratio (z) = 0.10953 0.03383
#
# Static dielectric constant tensor:
#      x y z
#    x 4.363330 0.000000 -0.253030 
#    y 0.000000 4.198150 0.000000 
#    z -0.253030 0.000000 3.655010 
# 
# 
# High freq. dielectric constant tensor:
#      x y z
#    x 1.862570 0.000000 -0.026430 
#    y 0.000000 1.861430 0.000000 
#    z -0.026430 0.000000 1.830500 
# 
# From -- ./inp_files/294190.got.cif
#   From: 2010.06.25/outbox.cif.g09.slc.cpg/sg12_148_cif.got.tgz:294190.got - 2010.06.28 00:19:55.
