data_PCOD8100733
_publ_section_title
;
Structure prediction by ZEFSAII (Michael W. Deem and Ramdas Pophale) SiO2 
 PCOD8100733
Probable space group: C 2/M
;
_chemical_formula_sum "Si O2"
_cell_formula_units_Z 48
_cell_length_a 18.058643
_cell_length_b 13.389105
_cell_length_c 17.487289
_cell_angle_alpha 90.000000
_cell_angle_beta 147.594007
_cell_angle_gamma 90.000000
_cell_volume 2265.975170
_symmetry_space_group_name_H-M "C 2/M"
_symmetry_group_IT_number 12
_symmetry_cell_setting 'monoclinic'
loop_
_space_group_symop_operation_xyz
x,y,z
-x,y,-z
-x,-y,-z
x,-y,z
1/2+x,1/2+y,z
1/2-x,1/2+y,-z
1/2-x,1/2-y,-z
1/2+x,1/2-y,z
loop_
_atom_site_type_symbol
_atom_site_label
_atom_site_fract_x
_atom_site_fract_y
_atom_site_fract_z
Si Si1 0.654846 0.613609 0.151467
Si Si2 0.712864 0.854130 0.430326
Si Si3 0.539177 0.314496 0.449718
Si Si4 0.672606 0.895159 0.558146
Si Si5 0.713612 0.253559 0.852159
Si Si6 0.597063 0.119010 0.883542
O O1 0.679196 0.500000 0.144071
O O2 0.688828 0.625658 0.271355
O O3 0.751232 0.691668 0.192574
O O4 0.500000 0.646737 0.000000
O O5 0.750000 0.750000 0.500000
O O6 0.830735 0.878241 0.469691
O O7 0.712526 0.922352 0.505092
O O8 0.566433 0.859176 0.259650
O O9 0.500000 0.354211 0.500000
O O10 0.567310 0.195329 0.476142
O O11 0.412734 0.327165 0.280331
O O12 0.604614 0.000000 0.528558
O O13 0.672699 0.170012 0.878119
O O14 0.838497 0.326269 0.986234
O O15 0.625676 0.000000 0.909407
#
# Coordination Sequence:
#
# PCOD8100733 Si02
#       6
#     8   8   8   8   8   8
#     4  10  22  36  58  97 136 168 204 263 341 403
#     4  10  21  38  63  92 125 168 216 256 322 384
#     4  11  22  39  62  97 125 167 210 264 327 385
#     4  10  20  35  62  95 124 159 208 266 328 391
#     4  11  23  38  66  94 133 168 212 273 325 389
#     4  11  24  42  65  93 128 176 222 265 320 389
#
# _framework density 21.182932999999998
#
# number of rings (size 3 to 8) (size 9 to 14) (size 15 to 20)
#    0.000    1.500    5.000    1.000    4.667    1.000 
#    0.000    3.333    0.000    8.000    0.000    0.000 
#    0.000    0.000    0.000    0.000    0.000    0.000 
#
# Total GULP energy -297328.439093 kJ/mol
# GULP energy per Si atom -12388.684962 kJ/mol
# Density = 2.113472 g / cm^3
# Si number density = 21.182933 Si / 1000 Ang^3
#
#
#
# Elastic Constant Matrix: (Units=GPa)
#
#
# Indices 1 2 3 4 5 6 
#
# 1 114.4706 13.0334 52.4945 0.0000 2.5528 0.0001
# 2 13.0334 73.5861 37.7356 -0.0004 4.9756 -0.0001
# 3 52.4945 37.7356 183.8335 -0.0004 -2.5868 -0.0001
# 4 0.0000 -0.0004 -0.0004 12.8465 -0.0003 0.2275
# 5 2.5528 4.9756 -2.5868 -0.0003 30.8932 -0.0001
# 6 0.0001 -0.0001 -0.0001 0.2275 -0.0001 12.5320
#
#
#
# Elastic Compliance Matrix: (Units=1/GPa)
#
#
# Indices 1 2 3 4 5 6 
#
# 1 0.010092 -0.000260 -0.002843 0.000000 -0.001030 0.000000
# 2 -0.000260 0.015425 -0.003130 0.000000 -0.002725 0.000000
# 3 -0.002843 -0.003130 0.006913 0.000000 0.001318 0.000000
# 4 0.000000 0.000000 0.000000 0.077868 0.000001 -0.001414
# 5 -0.001030 -0.002725 0.001318 0.000001 0.033004 0.000000
# 6 0.000000 0.000000 0.000000 -0.001414 0.000000 0.079821
#
#
# Mechanical properties :
#
#
# Convention : Reuss Voigt Hill
#
# Bulk Modulus (GPa) = 50.09211 64.26859 57.18035
# Shear Modulus (GPa) = 20.64036 29.16278 24.90157
#
# Velocity S-wave (km/s) = 3.12490 3.71443 3.43235
# Velocity P-wave (km/s) = 6.05960 6.98582 6.53913
#
# Compressibility (1/GPa) = 0.01996322
#
# Stress axis : x y z
#
# Youngs Moduli (GPa) = 99.08649 64.82923 144.66182
#
# Poissons Ratio (x) = 0.01685 0.41128
# Poissons Ratio (y) = 0.02576 0.45286
# Poissons Ratio (z) = 0.28170 0.20294
#
# Static dielectric constant tensor:
#      x y z
#    x 9.388440 0.000060 -1.194230 
#    y 0.000060 3.828510 -0.000010 
#    z -1.194230 -0.000010 4.244120 
# 
# 
# High freq. dielectric constant tensor:
#      x y z
#    x 1.816000 0.000000 -0.009690 
#    y 0.000000 1.820160 0.000000 
#    z -0.009690 0.000000 1.843900 
# 
# From -- ./inp_files/278237.got.cif
#   From: 2010.06.25/outbox.cif.g09.slc.cpg/sg12_140_cif.got.tgz:278237.got - 2010.06.28 00:19:55.
