data_PCOD8100663
_publ_section_title
;
Structure prediction by ZEFSAII (Michael W. Deem and Ramdas Pophale) SiO2 
 PCOD8100663
Probable space group: C 2/M
;
_chemical_formula_sum "Si O2"
_cell_formula_units_Z 48
_cell_length_a 16.640795
_cell_length_b 15.445960
_cell_length_c 18.074088
_cell_angle_alpha 90.000000
_cell_angle_beta 32.398380
_cell_angle_gamma 90.000000
_cell_volume 2489.146434
_symmetry_space_group_name_H-M "C 2/M"
_symmetry_group_IT_number 12
_symmetry_cell_setting 'monoclinic'
loop_
_space_group_symop_operation_xyz
x,y,z
-x,y,-z
-x,-y,-z
x,-y,z
1/2+x,1/2+y,z
1/2-x,1/2+y,-z
1/2-x,1/2-y,-z
1/2+x,1/2-y,z
loop_
_atom_site_type_symbol
_atom_site_label
_atom_site_fract_x
_atom_site_fract_y
_atom_site_fract_z
Si Si1 0.233338 0.598534 0.955059
Si Si2 0.013700 0.901229 0.831631
Si Si3 0.500000 0.671212 0.000000
Si Si4 0.733546 0.819033 0.802623
Si Si5 0.253801 0.262420 0.409072
Si Si6 0.896936 0.598557 0.226662
Si Si7 0.000000 0.761005 0.500000
O O1 0.240827 0.500000 0.923558
O O2 0.349284 0.620563 0.928967
O O3 0.277664 0.653774 0.849800
O O4 0.068438 0.620390 0.113770
O O5 0.128088 0.835816 0.704169
O O6 0.062789 0.000000 0.775626
O O7 0.995370 0.890469 0.933076
O O8 0.650524 0.727115 0.872698
O O9 0.623402 0.886562 0.846005
O O10 0.886209 0.817292 0.637025
O O11 0.250000 0.250000 0.500000
O O12 0.295127 0.166546 0.349066
O O13 0.099334 0.290748 0.485587
O O14 0.854053 0.500000 0.281690
#
# Coordination Sequence:
#
# PCOD8100663 Si02
#       7
#     8   8   4   8   8   8   4
#     4  10  20  35  60  93 121 155 203 257 313 369
#     4  11  24  41  61  90 125 165 217 262 301 359
#     4  12  21  40  65  86 120 168 211 254 311 354
#     4  11  19  37  61  92 122 163 197 251 316 374
#     4  11  23  42  62  87 124 169 206 261 312 376
#     4  10  20  37  60  92 125 153 198 256 318 379
#     4  10  22  38  58  88 124 158 210 248 310 376
#
# _framework density 19.283718
#
# number of rings (size 3 to 8) (size 9 to 14) (size 15 to 20)
#    0.000    1.333    5.000    1.750    0.000    6.000 
#    0.000   12.500    0.000    0.000    0.000    0.000 
#    0.000    0.000    0.000    0.000    0.000    0.000 
#
# Total GULP energy -297427.019218 kJ/mol
# GULP energy per Si atom -12392.792467 kJ/mol
# Density = 1.923983 g / cm^3
# Si number density = 19.283718 Si / 1000 Ang^3
#
#
#
# Elastic Constant Matrix: (Units=GPa)
#
#
# Indices 1 2 3 4 5 6 
#
# 1 150.6066 36.3404 47.5971 -0.0023 2.4184 0.0011
# 2 36.3404 81.0047 46.4801 -0.0023 3.2114 0.0007
# 3 47.5971 46.4801 83.7206 -0.0004 -6.8618 0.0003
# 4 -0.0023 -0.0023 -0.0004 21.1911 0.0006 -1.9644
# 5 2.4184 3.2114 -6.8618 0.0006 36.6582 -0.0002
# 6 0.0011 0.0007 0.0003 -1.9644 -0.0002 25.2933
#
#
#
# Elastic Compliance Matrix: (Units=1/GPa)
#
#
# Indices 1 2 3 4 5 6 
#
# 1 0.008262 -0.001333 -0.004054 0.000001 -0.001187 0.000000
# 2 -0.001333 0.018791 -0.009955 0.000002 -0.003422 0.000000
# 3 -0.004054 -0.009955 0.020179 -0.000001 0.004917 0.000000
# 4 0.000001 0.000002 -0.000001 0.047532 -0.000001 0.003692
# 5 -0.001187 -0.003422 0.004917 -0.000001 0.028577 0.000000
# 6 0.000000 0.000000 0.000000 0.003692 0.000000 0.039823
#
#
# Mechanical properties :
#
#
# Convention : Reuss Voigt Hill
#
# Bulk Modulus (GPa) = 60.43238 64.01857 62.22547
# Shear Modulus (GPa) = 25.07981 28.95615 27.01798
#
# Velocity S-wave (km/s) = 3.61025 3.87923 3.74716
# Velocity P-wave (km/s) = 6.98464 7.30308 7.14563
#
# Compressibility (1/GPa) = 0.01654742
#
# Stress axis : x y z
#
# Youngs Moduli (GPa) = 121.03852 53.21803 49.55621
#
# Poissons Ratio (x) = 0.07094 0.20091
# Poissons Ratio (y) = 0.16135 0.49332
# Poissons Ratio (z) = 0.49072 0.52977
#
# Static dielectric constant tensor:
#      x y z
#    x 4.076230 0.000000 -0.256510 
#    y 0.000000 3.383590 0.000000 
#    z -0.256510 0.000000 3.615620 
# 
# 
# High freq. dielectric constant tensor:
#      x y z
#    x 1.770760 0.000000 -0.006590 
#    y 0.000000 1.735550 0.000000 
#    z -0.006590 0.000000 1.747380 
# 
# From -- ./inp_files/271642.got.cif
#   From: 2010.06.25/outbox.cif.g09.slc.cpg/sg12_136_cif.got.tgz:271642.got - 2010.06.28 00:19:55.
