data_PCOD8100447
_publ_section_title
;
Structure prediction by ZEFSAII (Michael W. Deem and Ramdas Pophale) SiO2 
 PCOD8100447
Probable space group: C 2/M
;
_chemical_formula_sum "Si O2"
_cell_formula_units_Z 64
_cell_length_a 16.308753
_cell_length_b 9.161511
_cell_length_c 26.949805
_cell_angle_alpha 90.000000
_cell_angle_beta 126.488515
_cell_angle_gamma 90.000000
_cell_volume 3237.327348
_symmetry_space_group_name_H-M "C 2/M"
_symmetry_group_IT_number 12
_symmetry_cell_setting 'monoclinic'
loop_
_space_group_symop_operation_xyz
x,y,z
-x,y,-z
-x,-y,-z
x,-y,z
1/2+x,1/2+y,z
1/2-x,1/2+y,-z
1/2-x,1/2-y,-z
1/2+x,1/2-y,z
loop_
_atom_site_type_symbol
_atom_site_label
_atom_site_fract_x
_atom_site_fract_y
_atom_site_fract_z
Si Si1 0.806384 0.828663 0.720397
Si Si2 0.705441 0.170216 0.131448
Si Si3 0.147813 0.829492 0.726345
Si Si4 0.308262 0.326674 0.065115
Si Si5 0.474085 0.161548 0.623377
Si Si6 0.543649 0.670838 0.137778
Si Si7 0.779039 0.337046 0.614242
Si Si8 0.917250 0.159134 0.510520
O O1 0.705773 0.746040 0.701888
O O2 0.900234 0.790064 0.790584
O O3 0.826977 0.768109 0.673192
O O4 0.786898 0.000000 0.711904
O O5 0.796591 0.204439 0.202105
O O6 0.750566 0.224130 0.094858
O O7 0.601340 0.251227 0.111913
O O8 0.678095 0.000000 0.120029
O O9 0.036879 0.756612 0.686293
O O10 0.138582 0.000000 0.712969
O O11 0.301376 0.500000 0.057673
O O12 0.426870 0.276655 0.103849
O O13 0.250000 0.250000 0.000000
O O14 0.359738 0.150654 0.599982
O O15 0.470426 0.235835 0.568801
O O16 0.522929 0.000000 0.636136
O O17 0.548162 0.500000 0.127641
O O18 0.755716 0.500000 0.627465
O O19 0.679953 0.268048 0.551997
O O20 0.000000 0.127318 0.500000
O O21 0.886190 0.000000 0.522666
#
# Coordination Sequence:
#
# PCOD8100447 Si02
#       8
#     8   8   8   8   8   8   8   8
#     4  10  20  35  59  86 112 145 187 233 284 343
#     4   9  20  38  61  86 117 155 199 244 289 347
#     4  10  20  36  59  82 110 148 188 232 286 344
#     4  10  22  40  60  87 121 158 198 241 287 346
#     4  11  23  36  53  81 114 145 184 236 283 332
#     4   9  20  38  60  86 121 156 194 244 295 346
#     4  10  22  37  53  80 116 147 182 232 284 337
#     4  10  21  38  58  76 101 145 192 232 282 341
#
# _framework density 19.769394999999999
#
# number of rings (size 3 to 8) (size 9 to 14) (size 15 to 20)
#    0.000    2.125    0.000    2.250    1.750    5.250 
#    0.000    2.500    0.000    0.000    0.000    0.000 
#    0.000    0.000    0.000    0.000    0.000    0.000 
#
# Total GULP energy -396689.831648 kJ/mol
# GULP energy per Si atom -12396.557239 kJ/mol
# Density = 1.972440 g / cm^3
# Si number density = 19.769395 Si / 1000 Ang^3
#
#
#
# Elastic Constant Matrix: (Units=GPa)
#
#
# Indices 1 2 3 4 5 6 
#
# 1 99.0098 34.6893 41.3271 0.0000 -1.2050 0.0000
# 2 34.6893 83.1611 45.2205 0.0000 -5.2836 0.0000
# 3 41.3271 45.2205 100.1227 0.0000 1.5609 0.0000
# 4 0.0000 0.0000 0.0000 72.2875 0.0000 -32.7398
# 5 -1.2050 -5.2836 1.5609 0.0000 35.9469 0.0000
# 6 0.0000 0.0000 0.0000 -32.7398 0.0000 58.2774
#
#
#
# Elastic Compliance Matrix: (Units=1/GPa)
#
#
# Indices 1 2 3 4 5 6 
#
# 1 0.012844 -0.003269 -0.003827 0.000000 0.000116 0.000000
# 2 -0.003269 0.017029 -0.006383 0.000000 0.002671 0.000000
# 3 -0.003827 -0.006383 0.014477 0.000000 -0.001695 0.000000
# 4 0.000000 0.000000 0.000000 0.018555 0.000000 0.010424
# 5 0.000116 0.002671 -0.001695 0.000000 0.028289 0.000000
# 6 0.000000 0.000000 0.000000 0.010424 0.000000 0.023015
#
#
# Mechanical properties :
#
#
# Convention : Reuss Voigt Hill
#
# Bulk Modulus (GPa) = 57.50087 58.30749 57.90418
# Shear Modulus (GPa) = 34.02144 44.03947 39.03046
#
# Velocity S-wave (km/s) = 4.15289 4.72493 4.44812
# Velocity P-wave (km/s) = 7.22110 7.70224 7.46555
#
# Compressibility (1/GPa) = 0.01739104
#
# Stress axis : x y z
#
# Youngs Moduli (GPa) = 77.85585 58.72168 69.07583
#
# Poissons Ratio (x) = 0.19199 0.26434
# Poissons Ratio (y) = 0.25455 0.44094
# Poissons Ratio (z) = 0.29794 0.37485
#
# Static dielectric constant tensor:
#      x y z
#    x 3.623360 0.000000 0.105790 
#    y 0.000000 3.683310 0.000000 
#    z 0.105790 0.000000 3.549180 
# 
# 
# High freq. dielectric constant tensor:
#      x y z
#    x 1.771670 0.000000 0.007090 
#    y 0.000000 1.768350 0.000000 
#    z 0.007090 0.000000 1.771400 
# 
# From -- ./inp_files/375530.got.cif
#   From: 2010.06.25/outbox.cif.g09.slc.cpg/sg12_188_cif.got.tgz:375530.got - 2010.06.28 00:19:55.
