data_PCOD8100038
_publ_section_title
;
Structure prediction by ZEFSAII (Michael W. Deem and Ramdas Pophale) SiO2 
 PCOD8100038
Probable space group: C 2/M
;
_chemical_formula_sum "Si O2"
_cell_formula_units_Z 64
_cell_length_a 15.386068
_cell_length_b 8.892236
_cell_length_c 23.850006
_cell_angle_alpha 90.000000
_cell_angle_beta 90.729891
_cell_angle_gamma 90.000000
_cell_volume 3262.810719
_symmetry_space_group_name_H-M "C 2/M"
_symmetry_group_IT_number 12
_symmetry_cell_setting 'monoclinic'
loop_
_space_group_symop_operation_xyz
x,y,z
-x,y,-z
-x,-y,-z
x,-y,z
1/2+x,1/2+y,z
1/2-x,1/2+y,-z
1/2-x,1/2-y,-z
1/2+x,1/2-y,z
loop_
_atom_site_type_symbol
_atom_site_label
_atom_site_fract_x
_atom_site_fract_y
_atom_site_fract_z
Si Si1 0.003584 0.821139 0.937092
Si Si2 0.600801 0.825192 0.247057
Si Si3 0.853423 0.174471 0.357605
Si Si4 0.834148 0.821977 0.132931
Si Si5 0.102165 0.674987 0.755473
Si Si6 0.841725 0.822074 0.863746
Si Si7 0.510081 0.677828 0.437463
Si Si8 0.842194 0.672966 0.630046
O O1 0.090661 0.762538 0.907810
O O2 0.921660 0.760197 0.901340
O O3 0.002130 0.000000 0.938025
O O4 0.000000 0.755680 0.000000
O O5 0.499369 0.788366 0.245860
O O6 0.648176 0.728232 0.200290
O O7 0.639782 0.772002 0.306539
O O8 0.620002 0.000000 0.235729
O O9 0.856372 0.275375 0.302526
O O10 0.927396 0.232891 0.400673
O O11 0.759220 0.196945 0.385535
O O12 0.867783 0.000000 0.341490
O O13 0.852708 0.770945 0.196073
O O14 0.744880 0.749231 0.110607
O O15 0.826396 0.000000 0.131422
O O16 0.120958 0.500000 0.765869
O O17 0.835069 0.000000 0.866232
O O18 0.500000 0.743461 0.500000
O O19 0.513305 0.500000 0.438947
O O20 0.600583 0.733831 0.412863
O O21 0.870261 0.500000 0.624880
#
# Coordination Sequence:
#
# PCOD8100038 Si02
#       8
#     8   8   8   8   8   8   8   8
#     4   9  20  39  60  82 113 154 197 239 285 340
#     4  10  20  35  57  85 119 149 182 236 294 345
#     4  10  21  37  59  84 115 153 190 230 285 346
#     4  11  22  38  60  86 117 154 190 231 289 345
#     4  11  21  35  59  89 118 147 187 237 286 343
#     4  11  22  37  60  89 117 151 195 237 283 342
#     4  10  22  39  57  81 114 151 192 237 282 333
#     4  10  21  38  58  83 111 146 188 232 284 340
#
# _framework density 19.614989999999999
#
# number of rings (size 3 to 8) (size 9 to 14) (size 15 to 20)
#    0.000    1.750    2.500    1.875    0.000    3.750 
#    0.000    0.000    0.000    5.250    0.000    0.000 
#    0.000    0.000    0.000    0.000    0.000    0.000 
#
# Total GULP energy -396945.584603 kJ/mol
# GULP energy per Si atom -12404.549519 kJ/mol
# Density = 1.957035 g / cm^3
# Si number density = 19.614990 Si / 1000 Ang^3
#
#
#
# Elastic Constant Matrix: (Units=GPa)
#
#
# Indices 1 2 3 4 5 6 
#
# 1 142.6354 33.2224 55.6260 0.0000 -16.3268 0.0000
# 2 33.2224 45.1353 24.3441 0.0000 -5.6189 0.0000
# 3 55.6260 24.3441 131.9026 0.0000 -14.6083 0.0000
# 4 0.0000 0.0000 0.0000 8.1599 0.0000 -7.5721
# 5 -16.3268 -5.6189 -14.6083 0.0000 16.0653 0.0000
# 6 0.0000 0.0000 0.0000 -7.5721 0.0000 30.8114
#
#
#
# Elastic Compliance Matrix: (Units=1/GPa)
#
#
# Indices 1 2 3 4 5 6 
#
# 1 0.009889 -0.005161 -0.002563 0.000000 0.005915 0.000000
# 2 -0.005161 0.027661 -0.002711 0.000000 0.001965 0.000000
# 3 -0.002563 -0.002711 0.009751 0.000000 0.005314 0.000000
# 4 0.000000 0.000000 0.000000 0.158756 0.000000 0.039015
# 5 0.005915 0.001965 0.005314 0.000000 0.073776 0.000000
# 6 0.000000 0.000000 0.000000 0.039015 0.000000 0.042044
#
#
# Mechanical properties :
#
#
# Convention : Reuss Voigt Hill
#
# Bulk Modulus (GPa) = 37.83309 60.67315 49.25312
# Shear Modulus (GPa) = 14.22241 24.77269 19.49755
#
# Velocity S-wave (km/s) = 2.69565 3.55765 3.15622
# Velocity P-wave (km/s) = 5.38687 6.91918 6.20054
#
# Compressibility (1/GPa) = 0.02643189
#
# Stress axis : x y z
#
# Youngs Moduli (GPa) = 101.11746 36.15199 102.55204
#
# Poissons Ratio (x) = 0.18656 0.26285
# Poissons Ratio (y) = 0.52182 0.27804
# Poissons Ratio (z) = 0.25917 0.09802
#
# Static dielectric constant tensor:
#      x y z
#    x 3.822580 0.000000 0.070630 
#    y 0.000000 3.371150 0.000000 
#    z 0.070630 0.000000 3.621420 
# 
# 
# High freq. dielectric constant tensor:
#      x y z
#    x 1.782650 0.000000 0.000380 
#    y 0.000000 1.747510 0.000000 
#    z 0.000380 0.000000 1.758880 
# 
# From -- ./inp_files/338717.got.cif
#   From: 2010.06.25/outbox.cif.g09.slc.cpg/sg12_170_cif.got.tgz:338717.got - 2010.06.28 00:19:55.
