data_PCOD8100020
_publ_section_title
;
Structure prediction by ZEFSAII (Michael W. Deem and Ramdas Pophale) SiO2 
 PCOD8100020
Probable space group: C 2/M
;
_chemical_formula_sum "Si O2"
_cell_formula_units_Z 64
_cell_length_a 18.243870
_cell_length_b 13.141116
_cell_length_c 24.537361
_cell_angle_alpha 90.000000
_cell_angle_beta 31.264979
_cell_angle_gamma 90.000000
_cell_volume 3053.104731
_symmetry_space_group_name_H-M "C 2/M"
_symmetry_group_IT_number 12
_symmetry_cell_setting 'monoclinic'
loop_
_space_group_symop_operation_xyz
x,y,z
-x,y,-z
-x,-y,-z
x,-y,z
1/2+x,1/2+y,z
1/2-x,1/2+y,-z
1/2-x,1/2-y,-z
1/2+x,1/2-y,z
loop_
_atom_site_type_symbol
_atom_site_label
_atom_site_fract_x
_atom_site_fract_y
_atom_site_fract_z
Si Si1 0.677887 0.882921 0.459158
Si Si2 0.501230 0.300982 0.438658
Si Si3 0.756907 0.618986 0.463237
Si Si4 0.757424 0.381395 0.212845
Si Si5 0.197483 0.806032 0.131188
Si Si6 0.047858 0.114644 0.784724
Si Si7 0.472656 0.883784 0.775327
Si Si8 0.015419 0.691223 0.113052
O O1 0.539453 0.818450 0.531169
O O2 0.734212 0.835344 0.480982
O O3 0.797017 0.867158 0.338177
O O4 0.631305 0.000000 0.493698
O O5 0.500000 0.348927 0.500000
O O6 0.391102 0.359096 0.470733
O O7 0.655180 0.313789 0.315235
O O8 0.769678 0.500000 0.463041
O O9 0.886438 0.657147 0.343832
O O10 0.724301 0.500000 0.242377
O O11 0.740562 0.352787 0.160976
O O12 0.916295 0.355582 0.129608
O O13 0.065136 0.867695 0.191445
O O14 0.156605 0.686778 0.162582
O O15 0.324793 0.816671 0.008187
O O16 0.023581 0.191052 0.850366
O O17 0.032535 0.000000 0.816683
O O18 0.499845 0.874251 0.822413
O O19 0.436141 0.000000 0.783492
#
# Coordination Sequence:
#
# PCOD8100020 Si02
#       8
#     8   8   8   8   8   8   8   8
#     4  10  21  38  61  87 118 156 194 234 284 346
#     4  12  23  37  59  87 122 154 188 235 287 348
#     4  10  20  35  57  85 116 151 189 233 288 345
#     4  12  26  42  60  85 118 156 197 242 296 357
#     4  11  23  39  61  87 116 153 201 249 295 346
#     4  10  20  38  64  92 120 154 199 246 292 345
#     4  10  20  37  62  89 118 151 192 244 297 351
#     4  11  24  40  58  85 119 156 200 249 296 346
#
# _framework density 20.962268999999999
#
# number of rings (size 3 to 8) (size 9 to 14) (size 15 to 20)
#    0.000    1.250    0.000    7.875    0.000    7.250 
#    0.000    1.250    0.000    1.500    0.000    0.000 
#    0.000    0.000    0.000    0.000    0.000    0.000 
#
# Total GULP energy -396930.012467 kJ/mol
# GULP energy per Si atom -12404.062890 kJ/mol
# Density = 2.091456 g / cm^3
# Si number density = 20.962269 Si / 1000 Ang^3
#
#
#
# Elastic Constant Matrix: (Units=GPa)
#
#
# Indices 1 2 3 4 5 6 
#
# 1 76.4830 19.4602 -3.6681 -0.0007 1.1635 0.0001
# 2 19.4602 99.8530 27.9774 0.0029 -5.1665 0.0000
# 3 -3.6681 27.9774 77.7275 0.0035 -0.4049 0.0005
# 4 -0.0007 0.0029 0.0035 24.4439 0.0005 2.1002
# 5 1.1635 -5.1665 -0.4049 0.0005 33.8693 -0.0003
# 6 0.0001 0.0000 0.0005 2.1002 -0.0003 23.6681
#
#
#
# Elastic Compliance Matrix: (Units=1/GPa)
#
#
# Indices 1 2 3 4 5 6 
#
# 1 0.014017 -0.003298 0.001844 0.000001 -0.000963 0.000000
# 2 -0.003298 0.012007 -0.004468 -0.000001 0.001891 0.000000
# 3 0.001844 -0.004468 0.014558 -0.000001 -0.000571 0.000000
# 4 0.000001 -0.000001 -0.000001 0.041224 -0.000001 -0.003658
# 5 -0.000963 0.001891 -0.000571 -0.000001 0.029840 0.000000
# 6 0.000000 0.000000 0.000000 -0.003658 0.000000 0.042575
#
#
# Mechanical properties :
#
#
# Convention : Reuss Voigt Hill
#
# Bulk Modulus (GPa) = 34.79787 37.95584 36.37686
# Shear Modulus (GPa) = 28.46649 30.41586 29.44117
#
# Velocity S-wave (km/s) = 3.68909 3.81331 3.75171
# Velocity P-wave (km/s) = 5.89763 6.12654 6.01317
#
# Compressibility (1/GPa) = 0.02873739
#
# Stress axis : x y z
#
# Youngs Moduli (GPa) = 71.34177 83.28380 68.69271
#
# Poissons Ratio (x) = 0.27468 -0.12664
# Poissons Ratio (y) = 0.23529 0.30690
# Poissons Ratio (z) = -0.13153 0.37208
#
# Static dielectric constant tensor:
#      x y z
#    x 3.710340 0.000000 0.122870 
#    y 0.000000 3.939900 0.000000 
#    z 0.122870 0.000000 3.925690 
# 
# 
# High freq. dielectric constant tensor:
#      x y z
#    x 1.813910 0.000000 0.004580 
#    y 0.000000 1.834000 0.000000 
#    z 0.004580 0.000000 1.826440 
# 
# From -- ./inp_files/344025.got.cif
#   From: 2010.06.25/outbox.cif.g09.slc.cpg/sg12_173_cif.got.tgz:344025.got - 2010.06.28 00:19:55.
