data_PCOD8100765
_publ_section_title
;
Structure prediction by ZEFSAII (Michael W. Deem and Ramdas Pophale) SiO2 
 PCOD8100765
Probable space group: C 2/M
;
_chemical_formula_sum "Si O2"
_cell_formula_units_Z 40
_cell_length_a 28.101508
_cell_length_b 17.207311
_cell_length_c 5.187491
_cell_angle_alpha 90.000000
_cell_angle_beta 67.110114
_cell_angle_gamma 90.000000
_cell_volume 2310.890753
_symmetry_space_group_name_H-M "C 2/M"
_symmetry_group_IT_number 12
_symmetry_cell_setting 'monoclinic'
loop_
_space_group_symop_operation_xyz
x,y,z
-x,y,-z
-x,-y,-z
x,-y,z
1/2+x,1/2+y,z
1/2-x,1/2+y,-z
1/2-x,1/2-y,-z
1/2+x,1/2-y,z
loop_
_atom_site_type_symbol
_atom_site_label
_atom_site_fract_x
_atom_site_fract_y
_atom_site_fract_z
Si Si1 0.213620 0.823480 0.541365
Si Si2 0.253989 0.588593 0.030254
Si Si3 0.139202 0.412177 0.421341
Si Si4 0.388546 0.767260 0.246940
Si Si5 0.440036 0.808063 0.629287
O O1 0.250000 0.750000 0.500000
O O2 0.224670 0.886881 0.736074
O O3 0.154039 0.799216 0.688489
O O4 0.222091 0.858095 0.240688
O O5 0.270519 0.500000 0.946515
O O6 0.192229 0.597596 0.153036
O O7 0.132262 0.500000 0.538397
O O8 0.138954 0.352476 0.664573
O O9 0.092078 0.388960 0.329194
O O10 0.424435 0.751904 0.422920
O O11 0.425164 0.764516 0.922219
O O12 0.500000 0.828688 0.500000
#
# Coordination Sequence:
#
# PCOD8100765 Si02
#       5
#     8   8   8   8   8
#     4  12  20  36  57  78 111 145 187 217 275 322
#     4  11  23  36  54  82 115 148 182 221 263 324
#     4   9  21  34  50  75 110 148 184 216 258 306
#     4  10  21  34  53  77  99 142 182 223 261 316
#     4  10  20  36  51  74 105 139 184 229 265 304
#
# _framework density 17.309343999999999
#
# number of rings (size 3 to 8) (size 9 to 14) (size 15 to 20)
#    1.200    0.400    2.000    4.200    0.000    1.200 
#    0.000    1.000    0.000    0.000    0.000    0.000 
#    0.000   56.000    0.000    0.000    0.000    0.000 
#
# Total GULP energy -247914.038895 kJ/mol
# GULP energy per Si atom -12395.701945 kJ/mol
# Density = 1.726995 g / cm^3
# Si number density = 17.309344 Si / 1000 Ang^3
#
#
#
# Elastic Constant Matrix: (Units=GPa)
#
#
# Indices 1 2 3 4 5 6 
#
# 1 97.8129 32.7328 40.0125 0.0000 -12.5208 0.0000
# 2 32.7328 59.5324 26.4205 0.0000 -10.0274 0.0000
# 3 40.0125 26.4205 112.0589 0.0000 2.8508 0.0000
# 4 0.0000 0.0000 0.0000 22.0201 0.0000 3.3396
# 5 -12.5208 -10.0274 2.8508 0.0000 32.2072 0.0000
# 6 0.0000 0.0000 0.0000 3.3396 0.0000 18.5528
#
#
#
# Elastic Compliance Matrix: (Units=1/GPa)
#
#
# Indices 1 2 3 4 5 6 
#
# 1 0.014140 -0.005342 -0.003896 0.000000 0.004179 0.000000
# 2 -0.005342 0.022122 -0.003439 0.000000 0.005115 0.000000
# 3 -0.003896 -0.003439 0.011217 0.000000 -0.003578 0.000000
# 4 0.000000 0.000000 0.000000 0.046688 0.000000 -0.008404
# 5 0.004179 0.005115 -0.003578 0.000000 0.034583 0.000000
# 6 0.000000 0.000000 0.000000 -0.008404 0.000000 0.055413
#
#
# Mechanical properties :
#
#
# Convention : Reuss Voigt Hill
#
# Bulk Modulus (GPa) = 45.19450 51.97065 48.58258
# Shear Modulus (GPa) = 23.05321 25.90525 24.47923
#
# Velocity S-wave (km/s) = 3.65339 3.87279 3.76469
# Velocity P-wave (km/s) = 6.63046 7.07728 6.85751
#
# Compressibility (1/GPa) = 0.02212658
#
# Stress axis : x y z
#
# Youngs Moduli (GPa) = 70.72285 45.20324 89.15305
#
# Poissons Ratio (x) = 0.24146 0.34731
# Poissons Ratio (y) = 0.37778 0.30657
# Poissons Ratio (z) = 0.27551 0.15544
#
# Static dielectric constant tensor:
#      x y z
#    x 3.190970 0.000000 0.086800 
#    y 0.000000 3.068490 0.000000 
#    z 0.086800 0.000000 3.230890 
# 
# 
# High freq. dielectric constant tensor:
#      x y z
#    x 1.664070 0.000000 0.008400 
#    y 0.000000 1.639760 0.000000 
#    z 0.008400 0.000000 1.674210 
# 
# From -- ./inp_files/24053.got.cif
#   From: 2010.06.25/outbox.cif.g09.slc.cpg/sg12_13_cif.got.tgz:24053.got - 2010.06.28 00:19:55.
