data_PCOD8100167
_publ_section_title
;
Structure prediction by ZEFSAII (Michael W. Deem and Ramdas Pophale) SiO2 
 PCOD8100167
Probable space group: C 2/M
;
_chemical_formula_sum "Si O2"
_cell_formula_units_Z 48
_cell_length_a 21.523577
_cell_length_b 16.097347
_cell_length_c 20.909071
_cell_angle_alpha 90.000000
_cell_angle_beta 160.893920
_cell_angle_gamma 90.000000
_cell_volume 2371.229601
_symmetry_space_group_name_H-M "C 2/M"
_symmetry_group_IT_number 12
_symmetry_cell_setting 'monoclinic'
loop_
_space_group_symop_operation_xyz
x,y,z
-x,y,-z
-x,-y,-z
x,-y,z
1/2+x,1/2+y,z
1/2-x,1/2+y,-z
1/2-x,1/2-y,-z
1/2+x,1/2-y,z
loop_
_atom_site_type_symbol
_atom_site_label
_atom_site_fract_x
_atom_site_fract_y
_atom_site_fract_z
Si Si1 0.202616 0.901108 0.208548
Si Si2 0.243239 0.594182 0.418232
Si Si3 0.450382 0.839322 0.224146
Si Si4 0.656145 0.659398 0.832044
Si Si5 0.488814 0.094073 0.584707
Si Si6 0.962633 0.403524 0.035741
O O1 0.333116 0.864677 0.278298
O O2 0.290466 0.870388 0.362482
O O3 0.178756 0.000000 0.182695
O O4 0.000000 0.857883 0.000000
O O5 0.196661 0.500000 0.395099
O O6 0.469212 0.604974 0.639176
O O7 0.139445 0.660053 0.364320
O O8 0.159996 0.608668 0.266189
O O9 0.410881 0.753166 0.221458
O O10 0.492685 0.903313 0.321608
O O11 0.271162 0.869746 0.007401
O O12 0.792957 0.649583 0.903592
O O13 0.491295 0.000000 0.564253
O O14 0.899518 0.500000 0.974453
O O15 0.000000 0.371778 0.000000
#
# Coordination Sequence:
#
# PCOD8100167 Si02
#       6
#     8   8   8   8   8   8
#     4   8  15  29  47  68  96 129 166 211 258 300
#     4  10  20  35  58  84 108 140 184 228 270 323
#     4  10  21  36  53  77 111 145 176 220 272 324
#     4  10  21  37  55  77 110 148 178 217 278 332
#     4   9  17  30  48  70  98 132 172 216 257 301
#     4   9  19  37  59  83 111 141 180 230 274 319
#
# _framework density 20.242663
#
# number of rings (size 3 to 8) (size 9 to 14) (size 15 to 20)
#    0.000    2.667    0.000    2.500    0.000    4.000 
#    0.000    8.333    0.000    0.000    0.000    0.000 
#    0.000    0.000    0.000    0.000    0.000    0.000 
#
# Total GULP energy -297361.622168 kJ/mol
# GULP energy per Si atom -12390.067590 kJ/mol
# Density = 2.019659 g / cm^3
# Si number density = 20.242663 Si / 1000 Ang^3
#
#
#
# Elastic Constant Matrix: (Units=GPa)
#
#
# Indices 1 2 3 4 5 6 
#
# 1 152.9234 35.0852 78.3255 -0.0046 -13.4257 -0.0086
# 2 35.0852 43.5140 25.8107 -0.0133 2.3450 -0.0185
# 3 78.3255 25.8107 179.1977 -0.0075 1.6241 -0.0020
# 4 -0.0046 -0.0133 -0.0075 22.3059 -0.0042 4.4574
# 5 -13.4257 2.3450 1.6241 -0.0042 26.7401 -0.0062
# 6 -0.0086 -0.0185 -0.0020 4.4574 -0.0062 18.9176
#
#
#
# Elastic Compliance Matrix: (Units=1/GPa)
#
#
# Indices 1 2 3 4 5 6 
#
# 1 0.010467 -0.006582 -0.003682 -0.000002 0.006056 0.000000
# 2 -0.006582 0.029372 -0.001301 0.000010 -0.005801 0.000021
# 3 -0.003682 -0.001301 0.007397 0.000001 -0.002184 -0.000003
# 4 -0.000002 0.000010 0.000001 0.047046 0.000003 -0.011085
# 5 0.006056 -0.005801 -0.002184 0.000003 0.041079 0.000010
# 6 0.000000 0.000021 -0.000003 -0.011085 0.000010 0.055473
#
#
# Mechanical properties :
#
#
# Convention : Reuss Voigt Hill
#
# Bulk Modulus (GPa) = 41.48259 72.67532 57.07895
# Shear Modulus (GPa) = 22.52258 29.35362 25.93810
#
# Velocity S-wave (km/s) = 3.33923 3.81213 3.58349
# Velocity P-wave (km/s) = 5.95016 7.44019 6.73650
#
# Compressibility (1/GPa) = 0.02410650
#
# Stress axis : x y z
#
# Youngs Moduli (GPa) = 95.54104 34.04551 135.19150
#
# Poissons Ratio (x) = 0.22408 0.49774
# Poissons Ratio (y) = 0.62883 0.17592
# Poissons Ratio (z) = 0.35176 0.04430
#
# Static dielectric constant tensor:
#      x y z
#    x 3.552570 -0.000030 -0.072420 
#    y -0.000030 3.284130 -0.000070 
#    z -0.072420 -0.000070 3.923980 
# 
# 
# High freq. dielectric constant tensor:
#      x y z
#    x 1.785700 0.000000 -0.009670 
#    y 0.000000 1.755050 0.000000 
#    z -0.009670 0.000000 1.804970 
# 
# From -- ./inp_files/322581.got.cif
#   From: 2010.06.25/outbox.cif.g09.slc.cpg/sg12_162_cif.got.tgz:322581.got - 2010.06.28 00:19:55.
