data_PCOD8100846
_publ_section_title
;
Structure prediction by ZEFSAII (Michael W. Deem and Ramdas Pophale) SiO2 
 PCOD8100846
Probable space group: C 2/M
;
_chemical_formula_sum "Si O2"
_cell_formula_units_Z 48
_cell_length_a 28.489711
_cell_length_b 9.577812
_cell_length_c 9.751965
_cell_angle_alpha 90.000000
_cell_angle_beta 99.884495
_cell_angle_gamma 90.000000
_cell_volume 2621.509354
_symmetry_space_group_name_H-M "C 2/M"
_symmetry_group_IT_number 12
_symmetry_cell_setting 'monoclinic'
loop_
_space_group_symop_operation_xyz
x,y,z
-x,y,-z
-x,-y,-z
x,-y,z
1/2+x,1/2+y,z
1/2-x,1/2+y,-z
1/2-x,1/2-y,-z
1/2+x,1/2-y,z
loop_
_atom_site_type_symbol
_atom_site_label
_atom_site_fract_x
_atom_site_fract_y
_atom_site_fract_z
Si Si1 0.295655 0.160451 0.175813
Si Si2 0.687853 0.338141 0.070667
Si Si3 0.010569 0.162673 0.161378
Si Si4 0.036364 0.662225 0.636094
Si Si5 0.381422 0.663719 0.721829
Si Si6 0.135693 0.660995 0.549607
O O1 0.239816 0.195590 0.158817
O O2 0.318461 0.194478 0.334376
O O3 0.304595 0.000000 0.140202
O O4 0.321069 0.252190 0.072178
O O5 0.682449 0.500000 0.030423
O O6 0.648679 0.290996 0.160772
O O7 0.064170 0.207182 0.225540
O O8 0.973595 0.249145 0.233415
O O9 0.001948 0.000000 0.185404
O O10 0.000000 0.201219 0.000000
O O11 0.029958 0.500000 0.668934
O O12 0.089180 0.698734 0.613923
O O13 0.000000 0.709336 0.500000
O O14 0.375948 0.500000 0.690591
O O15 0.360361 0.744533 0.581999
O O16 0.134100 0.500000 0.502231
#
# Coordination Sequence:
#
# PCOD8100846 Si02
#       6
#     8   8   8   8   8   8
#     4   9  19  36  56  79 105 136 173 213 260 310
#     4   9  19  36  56  78 107 137 170 215 260 307
#     4  10  22  37  53  77 107 138 174 215 259 307
#     4  10  20  36  55  76 105 139 174 213 256 305
#     4  10  21  36  53  77 107 138 173 214 260 308
#     4  10  21  36  54  78 107 138 174 215 258 306
#
# _framework density 18.310063
#
# number of rings (size 3 to 8) (size 9 to 14) (size 15 to 20)
#    0.000    2.333    1.667    0.000    2.333    3.333 
#    0.000    0.000    0.000    0.000    0.000    0.000 
#    0.000    0.000    0.000    0.000    0.000    0.000 
#
# Total GULP energy -297710.260013 kJ/mol
# GULP energy per Si atom -12404.594167 kJ/mol
# Density = 1.826839 g / cm^3
# Si number density = 18.310063 Si / 1000 Ang^3
#
#
#
# Elastic Constant Matrix: (Units=GPa)
#
#
# Indices 1 2 3 4 5 6 
#
# 1 39.4211 16.9059 13.9305 0.0000 -4.2437 0.0000
# 2 16.9059 50.9458 46.6025 0.0000 -7.7979 0.0000
# 3 13.9305 46.6025 93.8158 0.0000 -3.8798 0.0000
# 4 0.0000 0.0000 0.0000 39.7880 0.0000 -4.7806
# 5 -4.2437 -7.7979 -3.8798 0.0000 32.6929 0.0000
# 6 0.0000 0.0000 0.0000 -4.7806 0.0000 22.1869
#
#
#
# Elastic Compliance Matrix: (Units=1/GPa)
#
#
# Indices 1 2 3 4 5 6 
#
# 1 0.029685 -0.010352 0.000796 0.000000 0.001478 0.000000
# 2 -0.010352 0.041012 -0.018577 0.000000 0.006234 0.000000
# 3 0.000796 -0.018577 0.019687 0.000000 -0.001991 0.000000
# 4 0.000000 0.000000 0.000000 0.025801 0.000000 0.005559
# 5 0.001478 0.006234 -0.001991 0.000000 0.032030 0.000000
# 6 0.000000 0.000000 0.000000 0.005559 0.000000 0.046269
#
#
# Mechanical properties :
#
#
# Convention : Reuss Voigt Hill
#
# Bulk Modulus (GPa) = 29.31210 37.67337 33.49274
# Shear Modulus (GPa) = 19.07497 26.04982 22.56239
#
# Velocity S-wave (km/s) = 3.23116 3.77597 3.51414
# Velocity P-wave (km/s) = 5.47394 6.29527 5.89892
#
# Compressibility (1/GPa) = 0.03411560
#
# Stress axis : x y z
#
# Youngs Moduli (GPa) = 33.68742 24.38324 50.79521
#
# Poissons Ratio (x) = 0.25242 -0.04042
# Poissons Ratio (y) = 0.34874 0.94364
# Poissons Ratio (z) = -0.02681 0.45298
#
# Static dielectric constant tensor:
#      x y z
#    x 3.473820 0.000000 0.069590 
#    y 0.000000 3.303790 0.000000 
#    z 0.069590 0.000000 3.305920 
# 
# 
# High freq. dielectric constant tensor:
#      x y z
#    x 1.716100 0.000000 0.003400 
#    y 0.000000 1.704740 0.000000 
#    z 0.003400 0.000000 1.710180 
# 
# From -- ./inp_files/108636.got.cif
#   From: 2010.06.25/outbox.cif.g09.slc.cpg/sg12_55_cif.got.tgz:108636.got - 2010.06.28 00:19:55.
