data_PCOD8100327
_publ_section_title
;
Structure prediction by ZEFSAII (Michael W. Deem and Ramdas Pophale) SiO2 
 PCOD8100327
Probable space group: C 2/M
;
_chemical_formula_sum "Si O2"
_cell_formula_units_Z 40
_cell_length_a 21.956627
_cell_length_b 9.270757
_cell_length_c 18.666512
_cell_angle_alpha 90.000000
_cell_angle_beta 150.013796
_cell_angle_gamma 90.000000
_cell_volume 1899.034374
_symmetry_space_group_name_H-M "C 2/M"
_symmetry_group_IT_number 12
_symmetry_cell_setting 'monoclinic'
loop_
_space_group_symop_operation_xyz
x,y,z
-x,y,-z
-x,-y,-z
x,-y,z
1/2+x,1/2+y,z
1/2-x,1/2+y,-z
1/2-x,1/2-y,-z
1/2+x,1/2-y,z
loop_
_atom_site_type_symbol
_atom_site_label
_atom_site_fract_x
_atom_site_fract_y
_atom_site_fract_z
Si Si1 0.981949 0.830654 0.063988
Si Si2 0.874505 0.338660 0.414063
Si Si3 0.753872 0.829992 0.170274
Si Si4 0.642063 0.662253 0.355031
Si Si5 0.998529 0.163098 0.343477
O O1 0.101725 0.789925 0.233587
O O2 0.952815 0.000000 0.041558
O O3 0.870691 0.740391 0.984707
O O4 0.000000 0.784779 0.000000
O O5 0.820209 0.500000 0.369956
O O6 0.779697 0.242178 0.273658
O O7 0.000000 0.346336 0.500000
O O8 0.900259 0.265308 0.516609
O O9 0.860562 0.790667 0.222293
O O10 0.738061 0.000000 0.164163
O O11 0.690349 0.500000 0.401913
O O12 0.750000 0.750000 0.500000
O O13 0.520841 0.674860 0.281332
O O14 0.019487 0.000000 0.393176
#
# Coordination Sequence:
#
# PCOD8100327 Si02
#       5
#     8   8   8   8   8
#     4  10  23  42  61  85 120 158 197 246 300 352
#     4   9  17  30  52  84 118 153 192 234 286 347
#     4  10  20  35  58  87 119 154 195 244 297 354
#     4  10  23  42  62  86 119 159 199 245 297 352
#     4   9  19  36  57  85 120 155 194 244 300 350
#
# _framework density 21.063336
#
# number of rings (size 3 to 8) (size 9 to 14) (size 15 to 20)
#    0.000    2.400    0.000    1.200    2.800    6.000 
#    0.000    0.000    0.000    0.000    0.000    0.000 
#    0.000    0.000    0.000    0.000    0.000    0.000 
#
# Total GULP energy -247956.539409 kJ/mol
# GULP energy per Si atom -12397.826970 kJ/mol
# Density = 2.101540 g / cm^3
# Si number density = 21.063336 Si / 1000 Ang^3
#
#
#
# Elastic Constant Matrix: (Units=GPa)
#
#
# Indices 1 2 3 4 5 6 
#
# 1 79.1137 30.6232 50.2888 0.0000 -12.7136 0.0000
# 2 30.6232 98.0224 65.0355 0.0000 1.3297 0.0000
# 3 50.2888 65.0355 152.1976 0.0000 -6.6496 0.0000
# 4 0.0000 0.0000 0.0000 39.5305 0.0000 5.5129
# 5 -12.7136 1.3297 -6.6496 0.0000 32.0483 0.0000
# 6 0.0000 0.0000 0.0000 5.5129 0.0000 22.9628
#
#
#
# Elastic Compliance Matrix: (Units=1/GPa)
#
#
# Indices 1 2 3 4 5 6 
#
# 1 0.017413 -0.002628 -0.004364 0.000000 0.006111 0.000000
# 2 -0.002628 0.014747 -0.005556 0.000000 -0.002807 0.000000
# 3 -0.004364 -0.005556 0.010415 0.000000 0.000660 0.000000
# 4 0.000000 0.000000 0.000000 0.026173 0.000000 -0.006284
# 5 0.006111 -0.002807 0.000660 0.000000 0.033881 0.000000
# 6 0.000000 0.000000 0.000000 -0.006284 0.000000 0.045057
#
#
# Mechanical properties :
#
#
# Convention : Reuss Voigt Hill
#
# Bulk Modulus (GPa) = 57.20647 69.02540 63.11594
# Shear Modulus (GPa) = 27.99426 31.13408 29.56417
#
# Velocity S-wave (km/s) = 3.64957 3.84880 3.75051
# Velocity P-wave (km/s) = 6.70652 7.25207 6.98462
#
# Compressibility (1/GPa) = 0.01748054
#
# Stress axis : x y z
#
# Youngs Moduli (GPa) = 57.42815 67.81059 96.01338
#
# Poissons Ratio (x) = 0.17819 0.41898
# Poissons Ratio (y) = 0.15090 0.53344
# Poissons Ratio (z) = 0.25060 0.37675
#
# Static dielectric constant tensor:
#      x y z
#    x 3.894980 0.000000 -0.040450 
#    y 0.000000 3.832600 0.000000 
#    z -0.040450 0.000000 3.708710 
# 
# 
# High freq. dielectric constant tensor:
#      x y z
#    x 1.828340 0.000000 0.003320 
#    y 0.000000 1.820730 0.000000 
#    z 0.003320 0.000000 1.813910 
# 
# From -- ./inp_files/288648.got.cif
#   From: 2010.06.25/outbox.cif.g09.slc.cpg/sg12_145_cif.got.tgz:288648.got - 2010.06.28 00:19:55.
