data_PCOD8100689
_publ_section_title
;
Structure prediction by ZEFSAII (Michael W. Deem and Ramdas Pophale) SiO2 
 PCOD8100689
Probable space group: C 2/M
;
_chemical_formula_sum "Si O2"
_cell_formula_units_Z 64
_cell_length_a 16.900772
_cell_length_b 13.847516
_cell_length_c 24.692340
_cell_angle_alpha 90.000000
_cell_angle_beta 32.024677
_cell_angle_gamma 90.000000
_cell_volume 3064.429055
_symmetry_space_group_name_H-M "C 2/M"
_symmetry_group_IT_number 12
_symmetry_cell_setting 'monoclinic'
loop_
_space_group_symop_operation_xyz
x,y,z
-x,y,-z
-x,-y,-z
x,-y,z
1/2+x,1/2+y,z
1/2-x,1/2+y,-z
1/2-x,1/2-y,-z
1/2+x,1/2-y,z
loop_
_atom_site_type_symbol
_atom_site_label
_atom_site_fract_x
_atom_site_fract_y
_atom_site_fract_z
Si Si1 0.561041 0.107903 0.296648
Si Si2 0.383927 0.688034 0.116316
Si Si3 0.345721 0.103857 0.119291
Si Si4 0.122162 0.112233 0.768643
Si Si5 0.788749 0.609403 0.387524
Si Si6 0.354589 0.275429 0.619228
Si Si7 0.541569 0.390615 0.243418
Si Si8 0.553254 0.291916 0.595304
O O1 0.728101 0.142523 0.186841
O O2 0.466269 0.110451 0.295441
O O3 0.472750 0.175827 0.390556
O O4 0.564648 0.000000 0.318924
O O5 0.353346 0.800238 0.152092
O O6 0.450598 0.633225 0.130070
O O7 0.500000 0.679663 0.000000
O O8 0.219109 0.121084 0.146824
O O9 0.314629 0.000000 0.167787
O O10 0.500000 0.093429 0.000000
O O11 0.273155 0.174626 0.679344
O O12 0.007644 0.144225 0.787853
O O13 0.164197 0.000000 0.739415
O O14 0.725652 0.500000 0.428272
O O15 0.756283 0.651304 0.347010
O O16 0.710891 0.677199 0.478468
O O17 0.500000 0.249080 0.500000
O O18 0.415259 0.330815 0.638075
O O19 0.489612 0.500000 0.282616
O O20 0.456522 0.328075 0.337659
#
# Coordination Sequence:
#
# PCOD8100689 Si02
#       8
#     8   8   8   8   8   8   8   8
#     4  11  22  38  61  88 122 162 208 260 309 365
#     4  11  23  42  67  94 119 166 210 257 320 369
#     4   9  18  36  63  91 118 151 196 248 308 371
#     4  11  23  40  60  89 127 163 212 261 304 365
#     4  10  23  40  62  92 127 162 206 261 310 370
#     4  10  22  37  60  90 123 164 205 253 308 366
#     4  10  20  35  61  90 120 160 203 253 305 363
#     4  11  20  38  62  88 121 165 206 248 307 375
#
# _framework density 20.884803999999999
#
# number of rings (size 3 to 8) (size 9 to 14) (size 15 to 20)
#    0.000    1.625    2.500    1.875    0.000    5.000 
#    0.000    7.500    2.750    0.750    0.000    0.000 
#    0.000    0.000    0.000    0.000    0.000    0.000 
#
# Total GULP energy -396537.661020 kJ/mol
# GULP energy per Si atom -12391.801907 kJ/mol
# Density = 2.083727 g / cm^3
# Si number density = 20.884804 Si / 1000 Ang^3
#
#
#
# Elastic Constant Matrix: (Units=GPa)
#
#
# Indices 1 2 3 4 5 6 
#
# 1 126.4640 37.1419 41.4125 0.0003 2.1700 0.0000
# 2 37.1419 134.7493 37.5312 0.0008 2.0808 0.0000
# 3 41.4125 37.5312 75.0565 0.0000 -4.2309 0.0003
# 4 0.0003 0.0008 0.0000 26.5707 0.0002 -0.4590
# 5 2.1700 2.0808 -4.2309 0.0002 30.7335 -0.0002
# 6 0.0000 0.0000 0.0003 -0.4590 -0.0002 31.2288
#
#
#
# Elastic Compliance Matrix: (Units=1/GPa)
#
#
# Indices 1 2 3 4 5 6 
#
# 1 0.009922 -0.001360 -0.004867 0.000000 -0.001279 0.000000
# 2 -0.001360 0.008851 -0.003733 0.000000 -0.001017 0.000000
# 3 -0.004867 -0.003733 0.018049 0.000000 0.003081 0.000000
# 4 0.000000 0.000000 0.000000 0.037645 0.000000 0.000553
# 5 -0.001279 -0.001017 0.003081 0.000000 0.033121 0.000000
# 6 0.000000 0.000000 0.000000 0.000553 0.000000 0.032030
#
#
# Mechanical properties :
#
#
# Convention : Reuss Voigt Hill
#
# Bulk Modulus (GPa) = 59.15984 63.16010 61.15997
# Shear Modulus (GPa) = 30.27133 32.38555 31.32844
#
# Velocity S-wave (km/s) = 3.81129 3.94213 3.87726
# Velocity P-wave (km/s) = 6.91058 7.14341 7.02796
#
# Compressibility (1/GPa) = 0.01690336
#
# Stress axis : x y z
#
# Youngs Moduli (GPa) = 100.78225 112.97549 55.40470
#
# Poissons Ratio (x) = 0.15361 0.26965
# Poissons Ratio (y) = 0.13703 0.20684
# Poissons Ratio (z) = 0.49049 0.42176
#
# Static dielectric constant tensor:
#      x y z
#    x 4.130860 0.000000 -0.138770 
#    y 0.000000 4.254420 0.000000 
#    z -0.138770 0.000000 3.491690 
# 
# 
# High freq. dielectric constant tensor:
#      x y z
#    x 1.826160 0.000000 -0.020750 
#    y 0.000000 1.833000 0.000000 
#    z -0.020750 0.000000 1.787700 
# 
# From -- ./inp_files/340155.got.cif
#   From: 2010.06.25/outbox.cif.g09.slc.cpg/sg12_171_cif.got.tgz:340155.got - 2010.06.28 00:19:55.
