data_PCOD8100678
_publ_section_title
;
Structure prediction by ZEFSAII (Michael W. Deem and Ramdas Pophale) SiO2 
 PCOD8100678
Probable space group: C 2/M
;
_chemical_formula_sum "Si O2"
_cell_formula_units_Z 56
_cell_length_a 20.866550
_cell_length_b 29.497170
_cell_length_c 8.785814
_cell_angle_alpha 90.000000
_cell_angle_beta 149.723630
_cell_angle_gamma 90.000000
_cell_volume 2726.410821
_symmetry_space_group_name_H-M "C 2/M"
_symmetry_group_IT_number 12
_symmetry_cell_setting 'monoclinic'
loop_
_space_group_symop_operation_xyz
x,y,z
-x,y,-z
-x,-y,-z
x,-y,z
1/2+x,1/2+y,z
1/2-x,1/2+y,-z
1/2-x,1/2-y,-z
1/2+x,1/2-y,z
loop_
_atom_site_type_symbol
_atom_site_label
_atom_site_fract_x
_atom_site_fract_y
_atom_site_fract_z
Si Si1 0.613151 0.640044 0.329982
Si Si2 0.952915 0.359687 0.742670
Si Si3 0.177835 0.596155 0.063195
Si Si4 0.696981 0.000000 0.764872
Si Si5 0.760333 0.903055 0.890524
Si Si6 0.245045 0.293474 0.596260
Si Si7 0.421021 0.000000 0.142989
Si Si8 0.557258 0.322053 0.775654
O O1 0.689198 0.602355 0.577702
O O2 0.705710 0.664871 0.403235
O O3 0.555692 0.676005 0.332975
O O4 0.500000 0.616873 0.000000
O O5 0.837974 0.389289 0.441620
O O6 0.899223 0.307577 0.650125
O O7 0.000000 0.379332 0.000000
O O8 0.076264 0.363630 0.888238
O O9 0.194769 0.601795 0.918949
O O10 0.132411 0.547306 0.032103
O O11 0.788421 0.043363 0.925093
O O12 0.570130 0.000000 0.401482
O O13 0.624800 0.000000 0.777461
O O14 0.887219 0.872807 0.140201
O O15 0.250000 0.250000 0.500000
O O16 0.332874 0.289089 0.928974
O O17 0.500000 0.302350 0.500000
#
# Coordination Sequence:
#
# PCOD8100678 Si02
#       8
#     8   8   8   4   8   8   4   8
#     4  10  21  39  62  82 118 164 198 239 304 364
#     4  11  21  34  60  89 117 153 196 244 306 366
#     4  11  19  37  60  89 122 156 204 243 300 350
#     4   9  16  32  52  89 122 156 197 249 300 337
#     4  10  20  35  61  87 121 158 205 247 290 352
#     4  10  23  42  65  87 115 151 197 249 312 369
#     4   9  18  30  56  86 124 160 194 244 302 350
#     4  10  20  39  64  88 114 163 203 241 291 360
#
# _framework density 20.539825
#
# number of rings (size 3 to 8) (size 9 to 14) (size 15 to 20)
#    0.000    1.857    4.286    0.429    0.000    1.714 
#    0.000    3.571    3.143    0.000    0.000    0.000 
#    0.000    0.000    0.000    0.000    0.000    0.000 
#
# Total GULP energy -346901.533170 kJ/mol
# GULP energy per Si atom -12389.340470 kJ/mol
# Density = 2.049308 g / cm^3
# Si number density = 20.539825 Si / 1000 Ang^3
#
#
#
# Elastic Constant Matrix: (Units=GPa)
#
#
# Indices 1 2 3 4 5 6 
#
# 1 68.2793 20.8204 32.9449 0.0000 -11.4584 0.0000
# 2 20.8204 98.0299 45.5783 0.0000 -4.8363 0.0000
# 3 32.9449 45.5783 130.7432 0.0000 -24.0522 0.0000
# 4 0.0000 0.0000 0.0000 14.6097 0.0000 1.3735
# 5 -11.4584 -4.8363 -24.0522 0.0000 38.0690 0.0000
# 6 0.0000 0.0000 0.0000 1.3735 0.0000 25.1822
#
#
#
# Elastic Compliance Matrix: (Units=1/GPa)
#
#
# Indices 1 2 3 4 5 6 
#
# 1 0.017268 -0.002092 -0.003072 0.000000 0.002991 0.000000
# 2 -0.002092 0.012483 -0.004129 0.000000 -0.001652 0.000000
# 3 -0.003072 -0.004129 0.010857 0.000000 0.005411 0.000000
# 4 0.000000 0.000000 0.000000 0.068800 0.000000 -0.003752
# 5 0.002991 -0.001652 0.005411 0.000000 0.030377 0.000000
# 6 0.000000 0.000000 0.000000 -0.003752 0.000000 0.039915
#
#
# Mechanical properties :
#
#
# Convention : Reuss Voigt Hill
#
# Bulk Modulus (GPa) = 45.40503 55.08217 50.24360
# Shear Modulus (GPa) = 24.31597 28.75276 26.53437
#
# Velocity S-wave (km/s) = 3.44444 3.74552 3.59813
# Velocity P-wave (km/s) = 6.16220 6.75135 6.46349
#
# Compressibility (1/GPa) = 0.02202399
#
# Stress axis : x y z
#
# Youngs Moduli (GPa) = 57.91196 80.10696 92.10436
#
# Poissons Ratio (x) = 0.16756 0.28292
# Poissons Ratio (y) = 0.12114 0.38027
# Poissons Ratio (z) = 0.17789 0.33074
#
# Static dielectric constant tensor:
#      x y z
#    x 3.841590 0.000000 -0.039430 
#    y 0.000000 3.575140 0.000000 
#    z -0.039430 0.000000 3.985430 
# 
# 
# High freq. dielectric constant tensor:
#      x y z
#    x 1.801160 0.000000 -0.005810 
#    y 0.000000 1.765800 0.000000 
#    z -0.005810 0.000000 1.813450 
# 
# From -- ./inp_files/91660.got.cif
#   From: 2010.06.25/outbox.cif.g09.slc.cpg/sg12_46_cif.got.tgz:91660.got - 2010.06.28 00:19:55.
