data_PCOD8100644
_publ_section_title
;
Structure prediction by ZEFSAII (Michael W. Deem and Ramdas Pophale) SiO2 
 PCOD8100644
Probable space group: C 2/M
;
_chemical_formula_sum "Si O2"
_cell_formula_units_Z 48
_cell_length_a 20.442766
_cell_length_b 8.527565
_cell_length_c 20.751882
_cell_angle_alpha 90.000000
_cell_angle_beta 137.649249
_cell_angle_gamma 90.000000
_cell_volume 2437.068368
_symmetry_space_group_name_H-M "C 2/M"
_symmetry_group_IT_number 12
_symmetry_cell_setting 'monoclinic'
loop_
_space_group_symop_operation_xyz
x,y,z
-x,y,-z
-x,-y,-z
x,-y,z
1/2+x,1/2+y,z
1/2-x,1/2+y,-z
1/2-x,1/2-y,-z
1/2+x,1/2-y,z
loop_
_atom_site_type_symbol
_atom_site_label
_atom_site_fract_x
_atom_site_fract_y
_atom_site_fract_z
Si Si1 0.165278 0.819739 0.221740
Si Si2 0.757736 0.181278 0.409260
Si Si3 0.587940 0.682505 0.797380
Si Si4 0.541712 0.816828 0.900859
Si Si5 0.713771 0.683440 0.110120
Si Si6 0.595076 0.818364 0.392779
O O1 0.234893 0.719533 0.318769
O O2 0.199701 0.785673 0.175010
O O3 0.053419 0.775888 0.147537
O O4 0.177688 0.000000 0.249855
O O5 0.664093 0.228289 0.383324
O O6 0.851351 0.278123 0.501257
O O7 0.782559 0.000000 0.435821
O O8 0.591734 0.500000 0.817649
O O9 0.570109 0.781933 0.848431
O O10 0.687585 0.734805 0.838384
O O11 0.502462 0.716891 0.684165
O O12 0.520637 0.000000 0.892839
O O13 0.627246 0.765738 0.009732
O O14 0.715820 0.500000 0.094522
O O15 0.566789 0.000000 0.371118
#
# Coordination Sequence:
#
# PCOD8100644 Si02
#       6
#     8   8   8   8   8   8
#     4  11  23  40  63  90 122 160 200 247 300 356
#     4  10  20  35  60  91 122 156 196 246 296 351
#     4  12  24  40  63  90 122 159 201 249 300 356
#     4  12  24  40  63  90 120 158 204 251 297 352
#     4  11  25  43  61  86 123 162 201 247 302 358
#     4  10  20  36  60  90 122 156 196 246 298 351
#
# _framework density 19.695796000000001
#
# number of rings (size 3 to 8) (size 9 to 14) (size 15 to 20)
#    0.000    1.000    1.667    6.000    0.000    6.000 
#    0.000    0.833    0.000    5.000    0.000    0.000 
#    0.000    0.000    0.000    0.000    0.000    0.000 
#
# Total GULP energy -297775.800367 kJ/mol
# GULP energy per Si atom -12407.325015 kJ/mol
# Density = 1.965097 g / cm^3
# Si number density = 19.695796 Si / 1000 Ang^3
#
#
#
# Elastic Constant Matrix: (Units=GPa)
#
#
# Indices 1 2 3 4 5 6 
#
# 1 126.7729 9.8321 36.8082 0.0000 9.2525 0.0000
# 2 9.8321 53.4501 24.5618 0.0000 -11.8662 0.0000
# 3 36.8082 24.5618 241.2145 0.0000 10.5630 0.0000
# 4 0.0000 0.0000 0.0000 40.4053 0.0000 0.2258
# 5 9.2525 -11.8662 10.5630 0.0000 -22.5898 0.0000
# 6 0.0000 0.0000 0.0000 0.2258 0.0000 28.9237
#
#
#
# Elastic Compliance Matrix: (Units=1/GPa)
#
#
# Indices 1 2 3 4 5 6 
#
# 1 0.008088 -0.000249 -0.001332 0.000000 0.002821 0.000000
# 2 -0.000249 0.017185 -0.001286 0.000000 -0.009731 0.000000
# 3 -0.001332 -0.001286 0.004384 0.000000 0.002180 0.000000
# 4 0.000000 0.000000 0.000000 0.024750 0.000000 -0.000193
# 5 0.002821 -0.009731 0.002180 0.000000 -0.036982 0.000000
# 6 0.000000 0.000000 0.000000 -0.000193 0.000000 0.034575
#
#
# Mechanical properties :
#
#
# Convention : Reuss Voigt Hill
#
# Bulk Modulus (GPa) = 41.80008 62.64908 52.22458
# Shear Modulus (GPa) = 76.08997 32.69688 54.39343
#
# Velocity S-wave (km/s) = 6.22226 4.07885 5.26087
# Velocity P-wave (km/s) = 8.53761 7.35255 7.96715
#
# Compressibility (1/GPa) = 0.02392340
#
# Stress axis : x y z
#
# Youngs Moduli (GPa) = 123.63327 58.18868 228.07779
#
# Poissons Ratio (x) = 0.01451 0.30389
# Poissons Ratio (y) = 0.03083 0.29325
# Poissons Ratio (z) = 0.16473 0.07482
#
# Static dielectric constant tensor:
#      x y z
#    x 3.639440 0.000000 0.167080 
#    y 0.000000 3.754770 0.000000 
#    z 0.167080 0.000000 3.907710 
# 
# 
# High freq. dielectric constant tensor:
#      x y z
#    x 1.750680 0.000000 0.000580 
#    y 0.000000 1.784410 0.000000 
#    z 0.000580 0.000000 1.786030 
# 
# From -- ./inp_files/320326.got.cif
#   From: 2010.06.25/outbox.cif.g09.slc.cpg/sg12_161_cif.got.tgz:320326.got - 2010.06.28 00:19:55.
