data_PCOD8100629
_publ_section_title
;
Structure prediction by ZEFSAII (Michael W. Deem and Ramdas Pophale) SiO2 
 PCOD8100629
Probable space group: C 2/M
;
_chemical_formula_sum "Si O2"
_cell_formula_units_Z 48
_cell_length_a 20.396898
_cell_length_b 13.285853
_cell_length_c 19.916410
_cell_angle_alpha 90.000000
_cell_angle_beta 25.692053
_cell_angle_gamma 90.000000
_cell_volume 2339.849304
_symmetry_space_group_name_H-M "C 2/M"
_symmetry_group_IT_number 12
_symmetry_cell_setting 'monoclinic'
loop_
_space_group_symop_operation_xyz
x,y,z
-x,y,-z
-x,-y,-z
x,-y,z
1/2+x,1/2+y,z
1/2-x,1/2+y,-z
1/2-x,1/2-y,-z
1/2+x,1/2-y,z
loop_
_atom_site_type_symbol
_atom_site_label
_atom_site_fract_x
_atom_site_fract_y
_atom_site_fract_z
Si Si1 0.178130 0.111404 0.331623
Si Si2 0.227007 0.215768 0.421367
Si Si3 0.851353 0.386720 0.600727
Si Si4 0.506192 0.260485 0.252891
Si Si5 0.339809 0.289271 0.120316
Si Si6 0.774919 0.120469 0.038906
O O1 0.241212 0.137795 0.347298
O O2 0.233359 0.190528 0.224455
O O3 0.000000 0.115878 0.500000
O O4 0.235167 0.000000 0.259184
O O5 0.188001 0.326661 0.429873
O O6 0.389655 0.215923 0.306347
O O7 0.090650 0.188111 0.597985
O O8 0.878488 0.500000 0.552397
O O9 0.717609 0.378900 0.778449
O O10 0.000000 0.341903 0.500000
O O11 0.607660 0.166166 0.183527
O O12 0.613922 0.348038 0.124196
O O13 0.347587 0.331089 0.038337
O O14 0.500000 0.253451 0.000000
O O15 0.764153 0.000000 0.053772
#
# Coordination Sequence:
#
# PCOD8100629 Si02
#       6
#     8   8   8   8   8   8
#     4  10  21  38  61  85 111 148 191 237 288 337
#     4  10  20  38  60  82 115 150 192 242 279 327
#     4  10  20  35  60  90 116 147 188 237 292 340
#     4  10  23  39  57  84 115 154 196 233 275 332
#     4  11  22  37  59  88 118 145 182 236 291 344
#     4  11  23  40  59  82 117 154 187 228 284 345
#
# _framework density 20.514143000000001
#
# number of rings (size 3 to 8) (size 9 to 14) (size 15 to 20)
#    0.000    1.667    0.000    6.500    0.000    7.000 
#    0.000    8.333    0.000    0.000    0.000    0.000 
#    0.000    0.000    0.000    0.000    0.000    0.000 
#
# Total GULP energy -297595.564729 kJ/mol
# GULP energy per Si atom -12399.815197 kJ/mol
# Density = 2.046745 g / cm^3
# Si number density = 20.514143 Si / 1000 Ang^3
#
#
#
# Elastic Constant Matrix: (Units=GPa)
#
#
# Indices 1 2 3 4 5 6 
#
# 1 89.8664 34.0846 13.3012 0.0001 -9.4044 0.0004
# 2 34.0846 137.6405 23.0140 -0.0024 -2.9134 0.0032
# 3 13.3012 23.0140 77.5554 -0.0039 -7.5768 0.0034
# 4 0.0001 -0.0024 -0.0039 16.9717 0.0018 5.2828
# 5 -9.4044 -2.9134 -7.5768 0.0018 37.6245 -0.0018
# 6 0.0004 0.0032 0.0034 5.2828 -0.0018 7.8037
#
#
#
# Elastic Compliance Matrix: (Units=1/GPa)
#
#
# Indices 1 2 3 4 5 6 
#
# 1 0.012670 -0.002905 -0.001044 -0.000002 0.002732 0.000003
# 2 -0.002905 0.008311 -0.002016 0.000002 -0.000489 -0.000004
# 3 -0.001044 -0.002016 0.013904 0.000005 0.002383 -0.000008
# 4 -0.000002 0.000002 0.000005 0.074652 -0.000005 -0.050537
# 5 0.002732 -0.000489 0.002383 -0.000005 0.027703 0.000009
# 6 0.000003 -0.000004 -0.000008 -0.050537 0.000009 0.162357
#
#
# Mechanical properties :
#
#
# Convention : Reuss Voigt Hill
#
# Bulk Modulus (GPa) = 43.56270 49.54021 46.55145
# Shear Modulus (GPa) = 15.66516 28.12414 21.89465
#
# Velocity S-wave (km/s) = 2.76638 3.70667 3.27049
# Velocity P-wave (km/s) = 5.61118 6.52081 6.08302
#
# Compressibility (1/GPa) = 0.02295542
#
# Stress axis : x y z
#
# Youngs Moduli (GPa) = 78.92739 120.31624 71.92149
#
# Poissons Ratio (x) = 0.34953 0.07509
# Poissons Ratio (y) = 0.22929 0.14498
# Poissons Ratio (z) = 0.08240 0.24254
#
# Static dielectric constant tensor:
#      x y z
#    x 3.849780 -0.000010 0.178450 
#    y -0.000010 3.600610 -0.000020 
#    z 0.178450 -0.000020 4.585350 
# 
# 
# High freq. dielectric constant tensor:
#      x y z
#    x 1.808020 0.000000 -0.005660 
#    y 0.000000 1.787920 0.000000 
#    z -0.005660 0.000000 1.812950 
# 
# From -- ./inp_files/111474.got.cif
#   From: 2010.06.25/outbox.cif.g09.slc.cpg/sg12_56_cif.got.tgz:111474.got - 2010.06.28 00:19:55.
