data_PCOD8100388
_publ_section_title
;
Structure prediction by ZEFSAII (Michael W. Deem and Ramdas Pophale) SiO2 
 PCOD8100388
Probable space group: C 2/M
;
_chemical_formula_sum "Si O2"
_cell_formula_units_Z 56
_cell_length_a 27.615024
_cell_length_b 8.714049
_cell_length_c 11.939485
_cell_angle_alpha 90.000000
_cell_angle_beta 71.135287
_cell_angle_gamma 90.000000
_cell_volume 2718.772211
_symmetry_space_group_name_H-M "C 2/M"
_symmetry_group_IT_number 12
_symmetry_cell_setting 'monoclinic'
loop_
_space_group_symop_operation_xyz
x,y,z
-x,y,-z
-x,-y,-z
x,-y,z
1/2+x,1/2+y,z
1/2-x,1/2+y,-z
1/2-x,1/2-y,-z
1/2+x,1/2-y,z
loop_
_atom_site_type_symbol
_atom_site_label
_atom_site_fract_x
_atom_site_fract_y
_atom_site_fract_z
Si Si1 0.744095 0.677953 0.125420
Si Si2 0.498408 0.179455 0.129595
Si Si3 0.693291 0.319412 0.527766
Si Si4 0.603759 0.673279 0.758308
Si Si5 0.341875 0.671409 0.063972
Si Si6 0.155229 0.680313 0.330268
Si Si7 0.909087 0.177722 0.804847
O O1 0.727809 0.500000 0.137711
O O2 0.800446 0.702782 0.135400
O O3 0.705109 0.779004 0.223260
O O4 0.750000 0.750000 0.000000
O O5 0.444390 0.217618 0.230371
O O6 0.540864 0.254300 0.176053
O O7 0.508248 0.000000 0.122046
O O8 0.500000 0.242404 0.000000
O O9 0.701227 0.500000 0.510504
O O10 0.750000 0.250000 0.500000
O O11 0.656553 0.274955 0.659231
O O12 0.661864 0.258843 0.445085
O O13 0.589948 0.500000 0.731518
O O14 0.610878 0.683551 0.886833
O O15 0.317843 0.500000 0.087766
O O16 0.360942 0.703832 0.923666
O O17 0.150148 0.500000 0.350771
O O18 0.104737 0.741190 0.302768
O O19 0.918767 0.000000 0.773909
#
# Coordination Sequence:
#
# PCOD8100388 Si02
#       7
#     8   8   8   8   8   8   8
#     4  12  23  35  55  85 122 161 204 255 315 382
#     4  11  23  38  61  95 133 169 211 261 317 381
#     4  11  24  44  70  98 129 169 218 266 319 382
#     4  10  22  41  65  92 124 165 212 261 315 379
#     4  10  20  35  58  89 124 161 204 255 315 380
#     4  12  25  42  63  88 127 170 214 266 321 381
#     4  11  22  38  63  91 126 165 208 259 317 381
#
# _framework density 20.597532000000001
#
# number of rings (size 3 to 8) (size 9 to 14) (size 15 to 20)
#    0.000    1.000    2.857    4.714    0.000    4.000 
#    0.000    0.714    0.000    4.286    0.000    0.000 
#    0.000    0.000    0.000    0.000    0.000    0.000 
#
# Total GULP energy -347144.768798 kJ/mol
# GULP energy per Si atom -12398.027457 kJ/mol
# Density = 2.055065 g / cm^3
# Si number density = 20.597532 Si / 1000 Ang^3
#
#
#
# Elastic Constant Matrix: (Units=GPa)
#
#
# Indices 1 2 3 4 5 6 
#
# 1 131.2848 55.3760 33.6761 0.0000 8.5151 0.0000
# 2 55.3760 96.1807 36.5264 0.0000 2.2246 0.0000
# 3 33.6761 36.5264 71.6805 0.0000 11.2428 0.0000
# 4 0.0000 0.0000 0.0000 28.4536 0.0000 0.8953
# 5 8.5151 2.2246 11.2428 0.0000 36.2132 0.0000
# 6 0.0000 0.0000 0.0000 0.8953 0.0000 41.7354
#
#
#
# Elastic Compliance Matrix: (Units=1/GPa)
#
#
# Indices 1 2 3 4 5 6 
#
# 1 0.010426 -0.005205 -0.002009 0.000000 -0.001508 0.000000
# 2 -0.005205 0.015550 -0.005803 0.000000 0.002070 0.000000
# 3 -0.002009 -0.005803 0.018629 0.000000 -0.004955 0.000000
# 4 0.000000 0.000000 0.000000 0.035169 0.000000 -0.000754
# 5 -0.001508 0.002070 -0.004955 0.000000 0.029380 0.000000
# 6 0.000000 0.000000 0.000000 -0.000754 0.000000 0.023977
#
#
# Mechanical properties :
#
#
# Convention : Reuss Voigt Hill
#
# Bulk Modulus (GPa) = 53.85051 61.14478 57.49765
# Shear Modulus (GPa) = 30.23819 32.85159 31.54489
#
# Velocity S-wave (km/s) = 3.83567 3.99799 3.91767
# Velocity P-wave (km/s) = 6.76885 7.14575 6.95986
#
# Compressibility (1/GPa) = 0.01856993
#
# Stress axis : x y z
#
# Youngs Moduli (GPa) = 95.91841 64.31034 53.67933
#
# Poissons Ratio (x) = 0.33470 0.10786
# Poissons Ratio (y) = 0.49921 0.31151
# Poissons Ratio (z) = 0.19274 0.37321
#
# Static dielectric constant tensor:
#      x y z
#    x 3.996730 0.000000 -0.062030 
#    y 0.000000 4.307330 0.000000 
#    z -0.062030 0.000000 3.640440 
# 
# 
# High freq. dielectric constant tensor:
#      x y z
#    x 1.818760 0.000000 0.008800 
#    y 0.000000 1.807780 0.000000 
#    z 0.008800 0.000000 1.789020 
# 
# From -- ./inp_files/187231.got.cif
#   From: 2010.06.25/outbox.cif.g09.slc.cpg/sg12_94_cif.got.tgz:187231.got - 2010.06.28 00:19:55.
