data_PCOD8100199
_publ_section_title
;
Structure prediction by ZEFSAII (Michael W. Deem and Ramdas Pophale) SiO2 
 PCOD8100199
Probable space group: C 2/M
;
_chemical_formula_sum "Si O2"
_cell_formula_units_Z 56
_cell_length_a 29.614842
_cell_length_b 9.120909
_cell_length_c 18.860547
_cell_angle_alpha 90.000000
_cell_angle_beta 37.547862
_cell_angle_gamma 90.000000
_cell_volume 3104.712143
_symmetry_space_group_name_H-M "C 2/M"
_symmetry_group_IT_number 12
_symmetry_cell_setting 'monoclinic'
loop_
_space_group_symop_operation_xyz
x,y,z
-x,y,-z
-x,-y,-z
x,-y,z
1/2+x,1/2+y,z
1/2-x,1/2+y,-z
1/2-x,1/2-y,-z
1/2+x,1/2-y,z
loop_
_atom_site_type_symbol
_atom_site_label
_atom_site_fract_x
_atom_site_fract_y
_atom_site_fract_z
Si Si1 0.187238 0.667695 0.932535
Si Si2 0.380789 0.830447 0.598735
Si Si3 0.853940 0.828024 0.763977
Si Si4 0.918658 0.828164 0.833557
Si Si5 0.060869 0.665330 0.620043
Si Si6 0.760664 0.330600 0.281365
Si Si7 0.271492 0.828438 0.545006
O O1 0.172831 0.500000 0.971692
O O2 0.268018 0.715362 0.860732
O O3 0.179859 0.688790 0.856314
O O4 0.124576 0.766150 0.045446
O O5 0.404828 0.766392 0.645477
O O6 0.444167 0.817927 0.459582
O O7 0.315609 0.724847 0.655724
O O8 0.354859 0.000000 0.637304
O O9 0.877453 0.779113 0.813087
O O10 0.867644 0.000000 0.733399
O O11 0.002731 0.771494 0.729750
O O12 0.921197 0.000000 0.838378
O O13 0.041167 0.500000 0.666808
O O14 0.142939 0.705637 0.544651
O O15 0.752938 0.500000 0.312865
O O16 0.779965 0.237157 0.327662
O O17 0.250000 0.750000 0.500000
O O18 0.255409 0.000000 0.559301
#
# Coordination Sequence:
#
# PCOD8100199 Si02
#       7
#     8   8   8   8   8   8   8
#     4   9  18  33  51  69  97 136 173 209 250 293
#     4   9  17  30  49  71  95 129 170 211 252 297
#     4   9  19  33  47  69  98 131 173 217 258 296
#     4  11  22  32  47  71  99 134 175 215 252 290
#     4   9  20  36  50  70 102 134 164 197 247 308
#     4   9  17  31  52  77 103 131 162 201 249 297
#     4  10  20  35  58  85 107 129 158 197 244 298
#
# _framework density 18.037099000000001
#
# number of rings (size 3 to 8) (size 9 to 14) (size 15 to 20)
#    0.000    2.571    0.000    3.857    0.000    8.000 
#    0.000    2.857    0.000    0.857    0.000    6.000 
#    0.000    0.000    0.000    0.000    0.000    0.000 
#
# Total GULP energy -347077.938409 kJ/mol
# GULP energy per Si atom -12395.640657 kJ/mol
# Density = 1.799605 g / cm^3
# Si number density = 18.037099 Si / 1000 Ang^3
#
#
#
# Elastic Constant Matrix: (Units=GPa)
#
#
# Indices 1 2 3 4 5 6 
#
# 1 62.4969 49.1188 53.3603 0.0028 22.9036 -0.0009
# 2 49.1188 101.0316 63.6452 0.0098 14.8424 -0.0016
# 3 53.3603 63.6452 102.0668 -0.0036 15.4764 0.0002
# 4 0.0028 0.0098 -0.0036 34.9940 -0.0016 7.2656
# 5 22.9036 14.8424 15.4764 -0.0016 24.3878 -0.0001
# 6 -0.0009 -0.0016 0.0002 7.2656 -0.0001 26.5859
#
#
#
# Elastic Compliance Matrix: (Units=1/GPa)
#
#
# Indices 1 2 3 4 5 6 
#
# 1 0.045236 -0.009297 -0.013575 -0.000004 -0.028211 0.000002
# 2 -0.009297 0.018544 -0.006988 -0.000006 0.001880 0.000002
# 3 -0.013575 -0.006988 0.020662 0.000006 0.003889 -0.000003
# 4 -0.000004 -0.000006 0.000006 0.030295 0.000005 -0.008279
# 5 -0.028211 0.001880 0.003889 0.000005 0.063886 -0.000002
# 6 0.000002 0.000002 -0.000003 -0.008279 -0.000002 0.039877
#
#
# Mechanical properties :
#
#
# Convention : Reuss Voigt Hill
#
# Bulk Modulus (GPa) = 40.44790 66.42711 53.43751
# Shear Modulus (GPa) = 17.45451 23.82493 20.63972
#
# Velocity S-wave (km/s) = 3.11416 3.63834 3.38641
# Velocity P-wave (km/s) = 5.95014 7.38634 6.70680
#
# Compressibility (1/GPa) = 0.02472316
#
# Stress axis : x y z
#
# Youngs Moduli (GPa) = 22.10620 53.92708 48.39819
#
# Poissons Ratio (x) = 0.50135 0.65699
# Poissons Ratio (y) = 0.20552 0.33820
# Poissons Ratio (z) = 0.30008 0.37683
#
# Static dielectric constant tensor:
#      x y z
#    x 3.191240 0.000000 0.395970 
#    y 0.000000 3.411150 0.000010 
#    z 0.395970 0.000010 3.456620 
# 
# 
# High freq. dielectric constant tensor:
#      x y z
#    x 1.665360 0.000000 0.025360 
#    y 0.000000 1.709220 0.000000 
#    z 0.025360 0.000000 1.693340 
# 
# From -- ./inp_files/288376.got.cif
#   From: 2010.06.25/outbox.cif.g09.slc.cpg/sg12_145_cif.got.tgz:288376.got - 2010.06.28 00:19:55.
