data_PCOD8100352
_publ_section_title
;
Structure prediction by ZEFSAII (Michael W. Deem and Ramdas Pophale) SiO2 
 PCOD8100352
Probable space group: C 2/M
;
_chemical_formula_sum "Si O2"
_cell_formula_units_Z 32
_cell_length_a 16.284326
_cell_length_b 24.328562
_cell_length_c 9.168198
_cell_angle_alpha 90.000000
_cell_angle_beta 26.439988
_cell_angle_gamma 90.000000
_cell_volume 1617.275831
_symmetry_space_group_name_H-M "C 2/M"
_symmetry_group_IT_number 12
_symmetry_cell_setting 'monoclinic'
loop_
_space_group_symop_operation_xyz
x,y,z
-x,y,-z
-x,-y,-z
x,-y,z
1/2+x,1/2+y,z
1/2-x,1/2+y,-z
1/2-x,1/2-y,-z
1/2+x,1/2-y,z
loop_
_atom_site_type_symbol
_atom_site_label
_atom_site_fract_x
_atom_site_fract_y
_atom_site_fract_z
Si Si1 0.981457 0.500000 0.857657
Si Si2 0.149412 0.385628 0.887896
Si Si3 0.678058 0.811415 0.117529
Si Si4 0.047494 0.098567 0.258639
Si Si5 0.207441 0.500000 0.240202
O O1 0.177254 0.500000 0.462968
O O2 0.877734 0.443321 0.979750
O O3 0.000000 0.500000 0.000000
O O4 0.351079 0.390701 0.491081
O O5 0.136751 0.335165 0.021372
O O6 0.000000 0.376048 0.000000
O O7 0.500000 0.816631 0.500000
O O8 0.750000 0.750000 0.000000
O O9 0.842126 0.845058 0.930221
O O10 0.000000 0.082613 0.500000
O O11 0.171767 0.052387 0.989076
O O12 0.000000 0.500000 0.500000
#
# Coordination Sequence:
#
# PCOD8100352 Si02
#       5
#     4   8   8   8   4
#     4  10  21  37  55  84 125 158 188 239 296 352
#     4  10  21  40  61  86 121 158 195 246 301 356
#     4  11  22  40  61  85 116 155 199 249 298 351
#     4  10  20  35  58  88 118 153 199 253 299 350
#     4  12  20  33  60  90 116 160 209 245 291 358
#
# _framework density 19.786356999999999
#
# number of rings (size 3 to 8) (size 9 to 14) (size 15 to 20)
#    0.000    1.500    0.000    8.625    0.000    0.000 
#    0.000   21.250    0.000    0.000    0.000    0.000 
#    0.000    0.000    0.000    0.000    0.000    0.000 
#
# Total GULP energy -198287.564882 kJ/mol
# GULP energy per Si atom -12392.972805 kJ/mol
# Density = 1.974132 g / cm^3
# Si number density = 19.786357 Si / 1000 Ang^3
#
#
#
# Elastic Constant Matrix: (Units=GPa)
#
#
# Indices 1 2 3 4 5 6 
#
# 1 91.4198 59.3698 75.9135 0.0021 -16.0465 -0.0012
# 2 59.3698 188.2303 84.3362 -0.0003 -0.7966 0.0000
# 3 75.9135 84.3362 212.0715 0.0043 -6.7559 -0.0039
# 4 0.0021 -0.0003 0.0043 46.4479 -0.0021 -0.1997
# 5 -16.0465 -0.7966 -6.7559 -0.0021 42.7510 0.0014
# 6 -0.0012 0.0000 -0.0039 -0.1997 0.0014 25.1539
#
#
#
# Elastic Compliance Matrix: (Units=1/GPa)
#
#
# Indices 1 2 3 4 5 6 
#
# 1 0.018470 -0.003558 -0.005003 0.000000 0.006076 0.000000
# 2 -0.003558 0.007154 -0.001617 0.000000 -0.001458 0.000000
# 3 -0.005003 -0.001617 0.007125 0.000000 -0.000782 0.000001
# 4 0.000000 0.000000 0.000000 0.021530 0.000001 0.000171
# 5 0.006076 -0.001458 -0.000782 0.000001 0.025521 -0.000001
# 6 0.000000 0.000000 0.000001 0.000171 -0.000001 0.039757
#
#
# Mechanical properties :
#
#
# Convention : Reuss Voigt Hill
#
# Bulk Modulus (GPa) = 80.70597 103.44005 92.07301
# Shear Modulus (GPa) = 34.71148 41.01068 37.86108
#
# Velocity S-wave (km/s) = 4.19300 4.55760 4.37910
# Velocity P-wave (km/s) = 8.01990 8.94917 8.49725
#
# Compressibility (1/GPa) = 0.01239066
#
# Stress axis : x y z
#
# Youngs Moduli (GPa) = 54.14080 139.79082 140.35891
#
# Poissons Ratio (x) = 0.49744 0.70222
# Poissons Ratio (y) = 0.19266 0.22703
# Poissons Ratio (z) = 0.27087 0.22611
#
# Static dielectric constant tensor:
#      x y z
#    x 3.411980 0.000000 -0.088820 
#    y 0.000000 3.900820 0.000000 
#    z -0.088820 0.000000 4.348430 
# 
# 
# High freq. dielectric constant tensor:
#      x y z
#    x 1.745350 0.000000 -0.005140 
#    y 0.000000 1.778900 0.000000 
#    z -0.005140 0.000000 1.799600 
# 
# From -- ./inp_files/169570.got.cif
#   From: 2010.06.25/outbox.cif.g09.slc.cpg/sg12_85_cif.got.tgz:169570.got - 2010.06.28 00:19:55.
