data_PCOD8100729
_publ_section_title
;
Structure prediction by ZEFSAII (Michael W. Deem and Ramdas Pophale) SiO2 
 PCOD8100729
Probable space group: C 2/M
;
_chemical_formula_sum "Si O2"
_cell_formula_units_Z 48
_cell_length_a 14.054973
_cell_length_b 19.239896
_cell_length_c 12.744463
_cell_angle_alpha 90.000000
_cell_angle_beta 137.311731
_cell_angle_gamma 90.000000
_cell_volume 2336.629495
_symmetry_space_group_name_H-M "C 2/M"
_symmetry_group_IT_number 12
_symmetry_cell_setting 'monoclinic'
loop_
_space_group_symop_operation_xyz
x,y,z
-x,y,-z
-x,-y,-z
x,-y,z
1/2+x,1/2+y,z
1/2-x,1/2+y,-z
1/2-x,1/2-y,-z
1/2+x,1/2-y,z
loop_
_atom_site_type_symbol
_atom_site_label
_atom_site_fract_x
_atom_site_fract_y
_atom_site_fract_z
Si Si1 0.301787 0.324501 0.580760
Si Si2 0.675945 0.152692 0.911337
Si Si3 0.360774 0.423012 0.451361
Si Si4 0.342322 0.081495 0.891862
Si Si5 0.460954 0.079070 0.588512
Si Si6 0.542431 0.721659 0.917215
O O1 0.250000 0.250000 0.500000
O O2 0.386558 0.365387 0.559962
O O3 0.170361 0.371525 0.502742
O O4 0.407594 0.319267 0.764114
O O5 0.590404 0.102226 0.765828
O O6 0.575340 0.216277 0.862966
O O7 0.722072 0.114838 0.055796
O O8 0.817197 0.174585 0.964525
O O9 0.500000 0.431449 0.500000
O O10 0.319731 0.500000 0.462656
O O11 0.240128 0.393164 0.277486
O O12 0.327553 0.000000 0.893915
O O13 0.500000 0.106088 0.000000
O O14 0.500000 0.084592 0.500000
O O15 0.423078 0.000000 0.589141
O O16 0.500000 0.746779 0.000000
#
# Coordination Sequence:
#
# PCOD8100729 Si02
#       6
#     8   8   8   8   8   8
#     4  12  24  41  63  96 130 172 212 263 322 385
#     4  11  22  41  65  91 127 171 211 267 321 389
#     4  10  22  40  62  91 125 161 205 260 317 377
#     4  10  20  35  62  94 122 156 203 258 318 378
#     4  11  24  44  68  95 129 172 221 267 316 383
#     4  11  25  42  61  92 132 167 214 266 324 385
#
# _framework density 20.54241
#
# number of rings (size 3 to 8) (size 9 to 14) (size 15 to 20)
#    0.000    1.167    1.667    4.500    2.333    2.000 
#    0.000    2.500    0.000    6.000    0.000    0.000 
#    0.000    0.000    0.000    0.000    0.000    0.000 
#
# Total GULP energy -297614.254556 kJ/mol
# GULP energy per Si atom -12400.593940 kJ/mol
# Density = 2.049565 g / cm^3
# Si number density = 20.542410 Si / 1000 Ang^3
#
#
#
# Elastic Constant Matrix: (Units=GPa)
#
#
# Indices 1 2 3 4 5 6 
#
# 1 91.1728 41.9585 23.8958 0.0000 2.5582 0.0000
# 2 41.9585 120.6282 50.9669 0.0000 -2.2015 0.0000
# 3 23.8958 50.9669 113.5835 0.0000 4.2615 0.0000
# 4 0.0000 0.0000 0.0000 32.9925 0.0000 -2.0741
# 5 2.5582 -2.2015 4.2615 0.0000 35.4465 0.0000
# 6 0.0000 0.0000 0.0000 -2.0741 0.0000 33.7564
#
#
#
# Elastic Compliance Matrix: (Units=1/GPa)
#
#
# Indices 1 2 3 4 5 6 
#
# 1 0.013173 -0.004256 -0.000820 0.000000 -0.001116 0.000000
# 2 -0.004256 0.011655 -0.004393 0.000000 0.001559 0.000000
# 3 -0.000820 -0.004393 0.011005 0.000000 -0.001537 0.000000
# 4 0.000000 0.000000 0.000000 0.030427 0.000000 0.001870
# 5 -0.001116 0.001559 -0.001537 0.000000 0.028574 0.000000
# 6 0.000000 0.000000 0.000000 0.001870 0.000000 0.029739
#
#
# Mechanical properties :
#
#
# Convention : Reuss Voigt Hill
#
# Bulk Modulus (GPa) = 59.18552 62.11409 60.64980
# Shear Modulus (GPa) = 33.52500 34.34328 33.93414
#
# Velocity S-wave (km/s) = 4.04417 4.09323 4.06877
# Velocity P-wave (km/s) = 7.11906 7.25548 7.18760
#
# Compressibility (1/GPa) = 0.01689602
#
# Stress axis : x y z
#
# Youngs Moduli (GPa) = 75.91271 85.80153 90.86497
#
# Poissons Ratio (x) = 0.36518 0.07448
# Poissons Ratio (y) = 0.32309 0.39915
# Poissons Ratio (z) = 0.06223 0.37691
#
# Static dielectric constant tensor:
#      x y z
#    x 3.680130 0.000000 0.034610 
#    y 0.000000 3.853540 0.000000 
#    z 0.034610 0.000000 3.703270 
# 
# 
# High freq. dielectric constant tensor:
#      x y z
#    x 1.807490 0.000000 0.002920 
#    y 0.000000 1.809780 0.000000 
#    z 0.002920 0.000000 1.812900 
# 
# From -- ./inp_files/148019.got.cif
#   From: 2010.06.25/outbox.cif.g09.slc.cpg/sg12_75_cif.got.tgz:148019.got - 2010.06.28 00:19:55.
