data_PCOD8100865
_publ_section_title
;
Structure prediction by ZEFSAII (Michael W. Deem and Ramdas Pophale) SiO2 
 PCOD8100865
Probable space group: C 2/M
;
_chemical_formula_sum "Si O2"
_cell_formula_units_Z 56
_cell_length_a 19.132764
_cell_length_b 8.564374
_cell_length_c 25.548281
_cell_angle_alpha 90.000000
_cell_angle_beta 44.674381
_cell_angle_gamma 90.000000
_cell_volume 2943.322130
_symmetry_space_group_name_H-M "C 2/M"
_symmetry_group_IT_number 12
_symmetry_cell_setting 'monoclinic'
loop_
_space_group_symop_operation_xyz
x,y,z
-x,y,-z
-x,-y,-z
x,-y,z
1/2+x,1/2+y,z
1/2-x,1/2+y,-z
1/2-x,1/2-y,-z
1/2+x,1/2-y,z
loop_
_atom_site_type_symbol
_atom_site_label
_atom_site_fract_x
_atom_site_fract_y
_atom_site_fract_z
Si Si1 0.080830 0.820856 0.918890
Si Si2 0.359345 0.814076 0.429705
Si Si3 0.300442 0.178198 0.802574
Si Si4 0.803207 0.823364 0.694391
Si Si5 0.989716 0.682437 0.260416
Si Si6 0.602688 0.683800 0.789554
Si Si7 0.502824 0.180010 0.441974
O O1 0.190775 0.805747 0.887278
O O2 0.073411 0.753106 0.863258
O O3 0.049988 0.000000 0.929775
O O4 0.000000 0.736752 0.000000
O O5 0.250000 0.750000 0.500000
O O6 0.412206 0.758864 0.347060
O O7 0.426750 0.744906 0.440872
O O8 0.356616 0.000000 0.431496
O O9 0.293057 0.307342 0.761729
O O10 0.394906 0.218662 0.787983
O O11 0.312576 0.000000 0.774549
O O12 0.703058 0.772146 0.718319
O O13 0.886032 0.698585 0.636105
O O14 0.831260 0.000000 0.663849
O O15 0.973190 0.500000 0.259814
O O16 0.976190 0.774313 0.213258
O O17 0.622372 0.500000 0.780954
O O18 0.500000 0.264384 0.500000
O O19 0.474172 0.000000 0.462856
#
# Coordination Sequence:
#
# PCOD8100865 Si02
#       7
#     8   8   8   8   8   8   8
#     4   8  15  31  57  85 108 137 180 224 264 316
#     4  10  22  38  54  76 108 143 181 227 275 323
#     4   9  17  34  58  79 106 144 180 216 266 323
#     4  11  21  34  54  79 106 137 179 228 269 319
#     4  10  20  36  55  77 110 146 182 224 270 324
#     4  10  21  35  55  80 109 144 182 222 268 323
#     4  10  21  38  57  76 102 139 182 225 272 327
#
# _framework density 19.026119000000001
#
# number of rings (size 3 to 8) (size 9 to 14) (size 15 to 20)
#    0.000    2.286    1.429    2.571    2.000    2.000 
#    0.000    0.714    0.000   10.714    0.000    0.000 
#    0.000    0.000    0.000    0.000    0.000    0.000 
#
# Total GULP energy -346873.212852 kJ/mol
# GULP energy per Si atom -12388.329030 kJ/mol
# Density = 1.898281 g / cm^3
# Si number density = 19.026119 Si / 1000 Ang^3
#
#
#
# Elastic Constant Matrix: (Units=GPa)
#
#
# Indices 1 2 3 4 5 6 
#
# 1 144.5415 21.1663 72.7973 -0.0001 0.2460 -0.0002
# 2 21.1663 29.9194 11.3649 0.0001 2.5155 -0.0018
# 3 72.7973 11.3649 122.6504 0.0000 -10.8108 -0.0001
# 4 -0.0001 0.0001 0.0000 8.7764 0.0001 13.5666
# 5 0.2460 2.5155 -10.8108 0.0001 27.8432 0.0000
# 6 -0.0002 -0.0018 -0.0001 13.5666 0.0000 -0.3428
#
#
#
# Elastic Compliance Matrix: (Units=1/GPa)
#
#
# Indices 1 2 3 4 5 6 
#
# 1 0.010727 -0.005117 -0.006068 -0.000001 -0.001989 0.000000
# 2 -0.005117 0.037644 -0.000773 0.000005 -0.003656 -0.000003
# 3 -0.006068 -0.000773 0.012257 0.000000 0.004883 0.000000
# 4 -0.000001 0.000005 0.000000 0.001833 -0.000001 0.072525
# 5 -0.001989 -0.003656 0.004883 -0.000001 0.038159 0.000000
# 6 0.000000 -0.000003 0.000000 0.072525 0.000000 -0.046917
#
#
# Mechanical properties :
#
#
# Convention : Reuss Voigt Hill
#
# Bulk Modulus (GPa) = 27.23934 56.41870 41.82902
# Shear Modulus (GPa) = 55.64427 20.04087 37.84257
#
# Velocity S-wave (km/s) = 5.41385 3.24903 4.46464
# Velocity P-wave (km/s) = 7.30942 6.61760 6.97209
#
# Compressibility (1/GPa) = 0.03671160
#
# Stress axis : x y z
#
# Youngs Moduli (GPa) = 93.22012 26.56463 81.58624
#
# Poissons Ratio (x) = 0.13592 0.49508
# Poissons Ratio (y) = 0.47698 0.06310
# Poissons Ratio (z) = 0.56568 0.02055
#
# Static dielectric constant tensor:
#      x y z
#    x 3.689760 0.000000 0.026210 
#    y 0.000000 3.173390 0.000000 
#    z 0.026210 0.000000 3.944030 
# 
# 
# High freq. dielectric constant tensor:
#      x y z
#    x 1.745980 0.000000 -0.008590 
#    y 0.000000 1.711560 0.000000 
#    z -0.008590 0.000000 1.728370 
# 
# From -- ./inp_files/342257.got.cif
#   From: 2010.06.25/outbox.cif.g09.slc.cpg/sg12_172_cif.got.tgz:342257.got - 2010.06.28 00:19:55.
