data_PCOD8100831
_publ_section_title
;
Structure prediction by ZEFSAII (Michael W. Deem and Ramdas Pophale) SiO2 
 PCOD8100831
Probable space group: C 2/M
;
_chemical_formula_sum "Si O2"
_cell_formula_units_Z 64
_cell_length_a 27.847791
_cell_length_b 9.131465
_cell_length_c 18.145283
_cell_angle_alpha 90.000000
_cell_angle_beta 45.608009
_cell_angle_gamma 90.000000
_cell_volume 3297.160003
_symmetry_space_group_name_H-M "C 2/M"
_symmetry_group_IT_number 12
_symmetry_cell_setting 'monoclinic'
loop_
_space_group_symop_operation_xyz
x,y,z
-x,y,-z
-x,-y,-z
x,-y,z
1/2+x,1/2+y,z
1/2-x,1/2+y,-z
1/2-x,1/2-y,-z
1/2+x,1/2-y,z
loop_
_atom_site_type_symbol
_atom_site_label
_atom_site_fract_x
_atom_site_fract_y
_atom_site_fract_z
Si Si1 0.847288 0.667705 0.172543
Si Si2 0.790472 0.831551 0.744315
Si Si3 0.907497 0.336938 0.841592
Si Si4 0.927727 0.173858 0.960151
Si Si5 0.946439 0.331215 0.364738
Si Si6 0.277295 0.835771 0.901943
Si Si7 0.932657 0.826424 0.529671
Si Si8 0.432866 0.170074 0.217396
O O1 0.864669 0.500000 0.132964
O O2 0.766357 0.691825 0.257600
O O3 0.870459 0.704108 0.230875
O O4 0.887684 0.772427 0.074408
O O5 0.759820 0.743253 0.845316
O O6 0.864248 0.772864 0.643120
O O7 0.796503 0.000000 0.761135
O O8 0.911558 0.500000 0.871849
O O9 0.888042 0.227041 0.929168
O O10 0.857167 0.333528 0.827255
O O11 0.976605 0.290221 0.730943
O O12 0.003015 0.237545 0.878141
O O13 0.931378 0.000000 0.957769
O O14 0.935327 0.500000 0.398571
O O15 0.923337 0.232455 0.457166
O O16 0.909718 0.291725 0.326347
O O17 0.247929 0.000000 0.931030
O O18 0.250000 0.750000 0.000000
O O19 0.000000 0.767857 0.500000
O O20 0.935612 0.000000 0.521860
O O21 0.454429 0.000000 0.191633
#
# Coordination Sequence:
#
# PCOD8100831 Si02
#       8
#     8   8   8   8   8   8   8   8
#     4  10  20  36  55  72 101 147 187 218 258 315
#     4  10  22  38  55  78 107 141 183 223 262 317
#     4   9  19  35  52  73 104 142 180 214 257 320
#     4  11  21  31  50  82 113 139 174 222 270 313
#     4   9  18  34  56  79 100 127 172 222 260 306
#     4  11  22  35  53  77 107 143 179 216 261 313
#     4  10  21  37  57  81 109 138 168 212 272 326
#     4   9  19  36  56  77 104 142 184 219 258 314
#
# _framework density 19.410643
#
# number of rings (size 3 to 8) (size 9 to 14) (size 15 to 20)
#    0.000    2.125    0.000    4.125    0.000    9.250 
#    0.000    0.625    0.000    0.000    0.000    0.000 
#    0.000    0.000    0.000    0.000    0.000    0.000 
#
# Total GULP energy -396663.149706 kJ/mol
# GULP energy per Si atom -12395.723428 kJ/mol
# Density = 1.936646 g / cm^3
# Si number density = 19.410643 Si / 1000 Ang^3
#
#
#
# Elastic Constant Matrix: (Units=GPa)
#
#
# Indices 1 2 3 4 5 6 
#
# 1 101.7014 26.0278 41.6110 0.0448 7.2825 -0.0102
# 2 26.0278 77.7731 42.4247 0.0538 5.9867 -0.0353
# 3 41.6110 42.4247 96.1207 0.0406 11.7623 -0.0271
# 4 0.0448 0.0538 0.0406 26.9054 -0.0197 8.7035
# 5 7.2825 5.9867 11.7623 -0.0197 25.3631 0.0067
# 6 -0.0102 -0.0353 -0.0271 8.7035 0.0067 20.6678
#
#
#
# Elastic Compliance Matrix: (Units=1/GPa)
#
#
# Indices 1 2 3 4 5 6 
#
# 1 0.012120 -0.001558 -0.004429 -0.000012 -0.001058 0.000003
# 2 -0.001558 0.017143 -0.006840 -0.000032 -0.000427 0.000033
# 3 -0.004429 -0.006840 0.015888 -0.000010 -0.004482 0.000013
# 4 -0.000012 -0.000032 -0.000010 0.043029 0.000054 -0.018120
# 5 -0.001058 -0.000427 -0.004482 0.000054 0.041911 -0.000044
# 6 0.000003 0.000033 0.000013 -0.018120 -0.000044 0.056015
#
#
# Mechanical properties :
#
#
# Convention : Reuss Voigt Hill
#
# Bulk Modulus (GPa) = 51.29096 55.08026 53.18561
# Shear Modulus (GPa) = 22.90850 25.62271 24.26561
#
# Velocity S-wave (km/s) = 3.43914 3.63717 3.53954
# Velocity P-wave (km/s) = 6.50013 6.78797 6.64561
#
# Compressibility (1/GPa) = 0.01949661
#
# Stress axis : x y z
#
# Youngs Moduli (GPa) = 82.51135 58.33170 62.93924
#
# Poissons Ratio (x) = 0.09090 0.27878
# Poissons Ratio (y) = 0.12858 0.43048
# Poissons Ratio (z) = 0.36547 0.39897
#
# Static dielectric constant tensor:
#      x y z
#    x 4.206750 0.000020 0.032630 
#    y 0.000020 3.518760 0.000030 
#    z 0.032630 0.000030 3.422480 
# 
# 
# High freq. dielectric constant tensor:
#      x y z
#    x 1.768460 0.000000 0.002560 
#    y 0.000000 1.747200 0.000000 
#    z 0.002560 0.000000 1.734380 
# 
# From -- ./inp_files/295490.got.cif
#   From: 2010.06.25/outbox.cif.g09.slc.cpg/sg12_148_cif.got.tgz:295490.got - 2010.06.28 00:19:55.
