data_PCOD8100638
_publ_section_title
;
Structure prediction by ZEFSAII (Michael W. Deem and Ramdas Pophale) SiO2 
 PCOD8100638
Probable space group: C 2/M
;
_chemical_formula_sum "Si O2"
_cell_formula_units_Z 48
_cell_length_a 14.623193
_cell_length_b 18.233015
_cell_length_c 11.262484
_cell_angle_alpha 90.000000
_cell_angle_beta 120.906416
_cell_angle_gamma 90.000000
_cell_volume 2576.474916
_symmetry_space_group_name_H-M "C 2/M"
_symmetry_group_IT_number 12
_symmetry_cell_setting 'monoclinic'
loop_
_space_group_symop_operation_xyz
x,y,z
-x,y,-z
-x,-y,-z
x,-y,z
1/2+x,1/2+y,z
1/2-x,1/2+y,-z
1/2-x,1/2-y,-z
1/2+x,1/2-y,z
loop_
_atom_site_type_symbol
_atom_site_label
_atom_site_fract_x
_atom_site_fract_y
_atom_site_fract_z
Si Si1 0.859969 0.321135 0.652889
Si Si2 0.788544 0.173589 0.079787
Si Si3 0.748873 0.179763 0.661204
Si Si4 0.378860 0.083757 0.882800
Si Si5 0.124325 0.085249 0.081422
Si Si6 0.942458 0.253100 0.343977
O O1 0.808715 0.257616 0.699547
O O2 0.782575 0.342871 0.493040
O O3 0.869932 0.393124 0.739408
O O4 0.974884 0.294937 0.684635
O O5 0.691452 0.135167 0.081057
O O6 0.886925 0.186697 0.235919
O O7 0.750000 0.250000 0.000000
O O8 0.826051 0.120965 0.001205
O O9 0.825411 0.118044 0.765133
O O10 0.644789 0.186874 0.674507
O O11 0.340640 0.000000 0.869640
O O12 0.500000 0.094182 0.000000
O O13 0.150807 0.000000 0.096557
O O14 0.000000 0.101840 0.000000
O O15 0.000000 0.220006 0.500000
#
# Coordination Sequence:
#
# PCOD8100638 Si02
#       6
#     8   8   8   8   8   8
#     4  10  20  37  62  87 118 148 197 238 289 343
#     4  12  21  38  65  88 114 153 196 242 288 337
#     4  10  20  38  60  89 113 153 194 244 285 338
#     4  11  24  39  57  86 123 157 190 233 290 349
#     4  11  24  40  58  85 120 155 193 236 288 346
#     4  10  20  35  60  91 115 143 193 248 288 335
#
# _framework density 18.630106000000001
#
# number of rings (size 3 to 8) (size 9 to 14) (size 15 to 20)
#    0.000    1.333    3.333    2.500    0.000    2.000 
#    0.000    0.000    0.000    4.000    0.000    0.000 
#    0.000    0.000    0.000    0.000    0.000    0.000 
#
# Total GULP energy -297691.277945 kJ/mol
# GULP energy per Si atom -12403.803248 kJ/mol
# Density = 1.858770 g / cm^3
# Si number density = 18.630106 Si / 1000 Ang^3
#
#
#
# Elastic Constant Matrix: (Units=GPa)
#
#
# Indices 1 2 3 4 5 6 
#
# 1 115.4423 66.8041 48.6606 0.0000 -3.6096 0.0000
# 2 66.8041 101.0734 78.9624 0.0000 6.9948 0.0000
# 3 48.6606 78.9624 133.6949 0.0000 5.0516 0.0000
# 4 0.0000 0.0000 0.0000 4.1719 0.0000 3.1371
# 5 -3.6096 6.9948 5.0516 0.0000 28.0079 0.0000
# 6 0.0000 0.0000 0.0000 3.1371 0.0000 30.5639
#
#
#
# Elastic Compliance Matrix: (Units=1/GPa)
#
#
# Indices 1 2 3 4 5 6 
#
# 1 0.014569 -0.010509 0.000739 0.000000 0.004369 0.000000
# 2 -0.010509 0.026148 -0.011398 0.000000 -0.005829 0.000000
# 3 0.000739 -0.011398 0.013926 0.000000 0.000430 0.000000
# 4 0.000000 0.000000 0.000000 0.259746 0.000000 -0.026661
# 5 0.004369 -0.005829 0.000430 0.000000 0.037645 0.000000
# 6 0.000000 0.000000 0.000000 -0.026661 0.000000 0.035455
#
#
# Mechanical properties :
#
#
# Convention : Reuss Voigt Hill
#
# Bulk Modulus (GPa) = 81.25495 82.11832 81.68663
# Shear Modulus (GPa) = 11.52268 22.93431 17.22849
#
# Velocity S-wave (km/s) = 2.48966 3.51242 3.04430
# Velocity P-wave (km/s) = 7.20931 7.78610 7.50325
#
# Compressibility (1/GPa) = 0.01230694
#
# Stress axis : x y z
#
# Youngs Moduli (GPa) = 68.64050 38.24441 71.80633
#
# Poissons Ratio (x) = 0.40191 -0.05307
# Poissons Ratio (y) = 0.72133 0.81845
# Poissons Ratio (z) = -0.05073 0.43591
#
# Static dielectric constant tensor:
#      x y z
#    x 3.638210 0.000000 0.048430 
#    y 0.000000 3.457180 0.000000 
#    z 0.048430 0.000000 3.720180 
# 
# 
# High freq. dielectric constant tensor:
#      x y z
#    x 1.742130 0.000000 -0.001730 
#    y 0.000000 1.699800 0.000000 
#    z -0.001730 0.000000 1.741660 
# 
# From -- ./inp_files/142759.got.cif
#   From: 2010.06.25/outbox.cif.g09.slc.cpg/sg12_72_cif.got.tgz:142759.got - 2010.06.28 00:19:55.
