data_PCOD8100011
_publ_section_title
;
Structure prediction by ZEFSAII (Michael W. Deem and Ramdas Pophale) SiO2 
 PCOD8100011
Probable space group: C 2/M
;
_chemical_formula_sum "Si O2"
_cell_formula_units_Z 64
_cell_length_a 22.041009
_cell_length_b 9.151300
_cell_length_c 23.915223
_cell_angle_alpha 90.000000
_cell_angle_beta 45.985042
_cell_angle_gamma 90.000000
_cell_volume 3469.071663
_symmetry_space_group_name_H-M "C 2/M"
_symmetry_group_IT_number 12
_symmetry_cell_setting 'monoclinic'
loop_
_space_group_symop_operation_xyz
x,y,z
-x,y,-z
-x,-y,-z
x,-y,z
1/2+x,1/2+y,z
1/2-x,1/2+y,-z
1/2-x,1/2-y,-z
1/2+x,1/2-y,z
loop_
_atom_site_type_symbol
_atom_site_label
_atom_site_fract_x
_atom_site_fract_y
_atom_site_fract_z
Si Si1 0.003812 0.668269 0.342540
Si Si2 0.835129 0.834889 0.960639
Si Si3 0.406858 0.827754 0.213429
Si Si4 0.685938 0.168512 0.502075
Si Si5 0.483566 0.327478 0.945668
Si Si6 0.275877 0.662548 0.632111
Si Si7 0.057256 0.837011 0.411834
Si Si8 0.023710 0.832954 0.220405
O O1 0.024762 0.500000 0.316791
O O2 0.904885 0.695606 0.413023
O O3 0.049883 0.716778 0.369063
O O4 0.042043 0.768454 0.269455
O O5 0.891647 0.778273 0.978341
O O6 0.891381 0.823072 0.869479
O O7 0.807541 0.000000 0.990854
O O8 0.750000 0.750000 0.000000
O O9 0.441790 0.751642 0.135378
O O10 0.309289 0.785537 0.283085
O O11 0.451749 0.766819 0.239698
O O12 0.422425 0.000000 0.198732
O O13 0.750000 0.250000 0.500000
O O14 0.692108 0.229035 0.435807
O O15 0.709703 0.000000 0.484571
O O16 0.492569 0.500000 0.929721
O O17 0.500000 0.286299 0.000000
O O18 0.262887 0.500000 0.614457
O O19 0.345018 0.658924 0.635857
O O20 0.000000 0.784763 0.500000
O O21 0.027404 0.000000 0.411783
O O22 0.992260 0.000000 0.244643
#
# Coordination Sequence:
#
# PCOD8100011 Si02
#       8
#     8   8   8   8   8   8   8   8
#     4  11  23  37  54  80 110 140 182 233 276 317
#     4   9  19  36  59  86 114 147 184 227 277 332
#     4  10  20  35  57  85 115 142 178 232 281 321
#     4  11  23  35  52  78 107 138 178 226 273 322
#     4   9  19  38  61  84 115 152 191 228 273 339
#     4  10  21  37  55  78 108 141 182 226 272 327
#     4  10  20  37  59  76 102 149 189 221 272 333
#     4  10  21  38  59  82 111 148 186 221 270 334
#
# _framework density 18.448740000000001
#
# number of rings (size 3 to 8) (size 9 to 14) (size 15 to 20)
#    0.000    2.000    1.250    3.000    0.000    9.000 
#    2.250    0.000    0.000    0.000    0.000    0.000 
#    0.000    0.000    0.000    0.000    0.000    0.000 
#
# Total GULP energy -396759.718582 kJ/mol
# GULP energy per Si atom -12398.741206 kJ/mol
# Density = 1.840675 g / cm^3
# Si number density = 18.448740 Si / 1000 Ang^3
#
#
#
# Elastic Constant Matrix: (Units=GPa)
#
#
# Indices 1 2 3 4 5 6 
#
# 1 90.1304 33.3936 38.9468 0.0000 5.4267 0.0001
# 2 33.3936 75.4388 40.8180 0.0000 5.0089 0.0003
# 3 38.9468 40.8180 74.6967 -0.0001 8.4205 0.0000
# 4 0.0000 0.0000 -0.0001 32.5490 0.0000 2.6523
# 5 5.4267 5.0089 8.4205 0.0000 34.3239 0.0000
# 6 0.0001 0.0003 0.0000 2.6523 0.0000 32.6754
#
#
#
# Elastic Compliance Matrix: (Units=1/GPa)
#
#
# Indices 1 2 3 4 5 6 
#
# 1 0.014917 -0.003397 -0.005874 0.000000 -0.000422 0.000000
# 2 -0.003397 0.019596 -0.008922 0.000000 -0.000134 0.000000
# 3 -0.005874 -0.008922 0.021673 0.000000 -0.003086 0.000000
# 4 0.000000 0.000000 0.000000 0.030927 0.000000 -0.002510
# 5 -0.000422 -0.000134 -0.003086 0.000000 0.029978 0.000000
# 6 0.000000 0.000000 0.000000 -0.002510 0.000000 0.030808
#
#
# Mechanical properties :
#
#
# Convention : Reuss Voigt Hill
#
# Bulk Modulus (GPa) = 50.50304 51.84252 51.17278
# Shear Modulus (GPa) = 26.19374 28.38349 27.28862
#
# Velocity S-wave (km/s) = 3.77213 3.92663 3.85016
# Velocity P-wave (km/s) = 6.81221 6.97996 6.89659
#
# Compressibility (1/GPa) = 0.01980079
#
# Stress axis : x y z
#
# Youngs Moduli (GPa) = 67.03628 51.03156 46.13941
#
# Poissons Ratio (x) = 0.17335 0.27103
# Poissons Ratio (y) = 0.22772 0.41165
# Poissons Ratio (z) = 0.39378 0.45529
#
# Static dielectric constant tensor:
#      x y z
#    x 3.215070 0.000000 0.022490 
#    y 0.000000 3.544090 0.000000 
#    z 0.022490 0.000000 3.545080 
# 
# 
# High freq. dielectric constant tensor:
#      x y z
#    x 1.717530 0.000000 0.000220 
#    y 0.000000 1.722020 0.000000 
#    z 0.000220 0.000000 1.710350 
# 
# From -- ./inp_files/346098.got.cif
#   From: 2010.06.25/outbox.cif.g09.slc.cpg/sg12_174_cif.got.tgz:346098.got - 2010.06.28 00:19:55.
