data_PCOD8100650
_publ_section_title
;
Structure prediction by ZEFSAII (Michael W. Deem and Ramdas Pophale) SiO2 
 PCOD8100650
Probable space group: C 2/M
;
_chemical_formula_sum "Si O2"
_cell_formula_units_Z 64
_cell_length_a 15.382588
_cell_length_b 8.560214
_cell_length_c 23.749782
_cell_angle_alpha 90.000000
_cell_angle_beta 90.356662
_cell_angle_gamma 90.000000
_cell_volume 3127.269025
_symmetry_space_group_name_H-M "C 2/M"
_symmetry_group_IT_number 12
_symmetry_cell_setting 'monoclinic'
loop_
_space_group_symop_operation_xyz
x,y,z
-x,y,-z
-x,-y,-z
x,-y,z
1/2+x,1/2+y,z
1/2-x,1/2+y,-z
1/2-x,1/2-y,-z
1/2+x,1/2-y,z
loop_
_atom_site_type_symbol
_atom_site_label
_atom_site_fract_x
_atom_site_fract_y
_atom_site_fract_z
Si Si1 0.998855 0.182769 0.437576
Si Si2 0.096409 0.179868 0.260279
Si Si3 0.843584 0.818629 0.360765
Si Si4 0.348325 0.177290 0.629197
Si Si5 0.590470 0.316330 0.133284
Si Si6 0.097069 0.319592 0.871267
Si Si7 0.253783 0.183197 0.937981
Si Si8 0.414798 0.179181 0.256673
O O1 0.089489 0.212615 0.406656
O O2 0.000000 0.258933 0.500000
O O3 0.918094 0.252282 0.401787
O O4 0.983962 0.000000 0.443233
O O5 0.149610 0.284305 0.304322
O O6 0.119360 0.230908 0.196673
O O7 0.994512 0.206606 0.270609
O O8 0.119176 0.000000 0.271271
O O9 0.750850 0.795947 0.391044
O O10 0.841804 0.721774 0.302219
O O11 0.859936 0.000000 0.346978
O O12 0.378302 0.000000 0.619712
O O13 0.572419 0.500000 0.129389
O O14 0.501981 0.228495 0.115853
O O15 0.667389 0.268855 0.092609
O O16 0.109594 0.500000 0.887941
O O17 0.162117 0.215360 0.907774
O O18 0.121229 0.290499 0.806056
O O19 0.272174 0.000000 0.939009
O O20 0.250000 0.250000 0.000000
O O21 0.445082 0.000000 0.262567
#
# Coordination Sequence:
#
# PCOD8100650 Si02
#       8
#     8   8   8   8   8   8   8   8
#     4  10  22  42  64  84 115 163 210 254 307 365
#     4  10  20  36  60  88 124 162 198 246 306 364
#     4  10  22  38  57  86 123 160 198 248 305 363
#     4  11  23  37  57  89 122 157 202 251 303 360
#     4  10  22  41  64  93 126 164 208 257 312 370
#     4  10  22  41  63  93 128 163 207 257 309 371
#     4  12  26  44  66  92 125 167 213 260 311 369
#     4  10  20  35  60  91 124 159 200 248 301 363
#
# _framework density 20.465140000000002
#
# number of rings (size 3 to 8) (size 9 to 14) (size 15 to 20)
#    0.000    1.625    1.250    3.000    1.750    5.250 
#    0.000    2.500    0.000    0.000    0.000    0.000 
#    0.000    0.000    0.000    0.000    0.000    0.000 
#
# Total GULP energy -396896.431491 kJ/mol
# GULP energy per Si atom -12403.013484 kJ/mol
# Density = 2.041856 g / cm^3
# Si number density = 20.465140 Si / 1000 Ang^3
#
#
#
# Elastic Constant Matrix: (Units=GPa)
#
#
# Indices 1 2 3 4 5 6 
#
# 1 103.1205 10.8485 57.4577 0.0000 -5.0349 0.0000
# 2 10.8485 42.2314 19.6660 0.0000 4.1849 0.0000
# 3 57.4577 19.6660 123.6820 0.0000 -3.2947 0.0000
# 4 0.0000 0.0000 0.0000 25.0387 0.0000 -2.6267
# 5 -5.0349 4.1849 -3.2947 0.0000 22.7680 0.0000
# 6 0.0000 0.0000 0.0000 -2.6267 0.0000 33.2214
#
#
#
# Elastic Compliance Matrix: (Units=1/GPa)
#
#
# Indices 1 2 3 4 5 6 
#
# 1 0.013205 -0.000845 -0.005941 0.000000 0.002216 0.000000
# 2 -0.000845 0.026282 -0.003935 0.000000 -0.005587 0.000000
# 3 -0.005941 -0.003935 0.011500 0.000000 0.001074 0.000000
# 4 0.000000 0.000000 0.000000 0.040272 0.000000 0.003184
# 5 0.002216 -0.005587 0.001074 0.000000 0.045594 0.000000
# 6 0.000000 0.000000 0.000000 0.003184 0.000000 0.030353
#
#
# Mechanical properties :
#
#
# Convention : Reuss Voigt Hill
#
# Bulk Modulus (GPa) = 33.84787 49.44204 41.64495
# Shear Modulus (GPa) = 25.18941 28.27638 26.73290
#
# Velocity S-wave (km/s) = 3.51215 3.72114 3.61815
# Velocity P-wave (km/s) = 5.74648 6.53254 6.15208
#
# Compressibility (1/GPa) = 0.02954396
#
# Stress axis : x y z
#
# Youngs Moduli (GPa) = 75.73030 38.04831 86.96001
#
# Poissons Ratio (x) = 0.03215 0.51663
# Poissons Ratio (y) = 0.06400 0.34221
# Poissons Ratio (z) = 0.44991 0.14973
#
# Static dielectric constant tensor:
#      x y z
#    x 3.613560 0.000000 0.097270 
#    y 0.000000 3.644250 0.000000 
#    z 0.097270 0.000000 3.852020 
# 
# 
# High freq. dielectric constant tensor:
#      x y z
#    x 1.801090 0.000000 0.000210 
#    y 0.000000 1.799940 0.000000 
#    z 0.000210 0.000000 1.798340 
# 
# From -- ./inp_files/338759.got.cif
#   From: 2010.06.25/outbox.cif.g09.slc.cpg/sg12_170_cif.got.tgz:338759.got - 2010.06.28 00:19:55.
