data_PCOD8100134
_publ_section_title
;
Structure prediction by ZEFSAII (Michael W. Deem and Ramdas Pophale) SiO2 
 PCOD8100134
Probable space group: C 2/M
;
_chemical_formula_sum "Si O2"
_cell_formula_units_Z 52
_cell_length_a 25.631843
_cell_length_b 16.819257
_cell_length_c 12.998865
_cell_angle_alpha 90.000000
_cell_angle_beta 29.008127
_cell_angle_gamma 90.000000
_cell_volume 2717.530438
_symmetry_space_group_name_H-M "C 2/M"
_symmetry_group_IT_number 12
_symmetry_cell_setting 'monoclinic'
loop_
_space_group_symop_operation_xyz
x,y,z
-x,y,-z
-x,-y,-z
x,-y,z
1/2+x,1/2+y,z
1/2-x,1/2+y,-z
1/2-x,1/2-y,-z
1/2+x,1/2-y,z
loop_
_atom_site_type_symbol
_atom_site_label
_atom_site_fract_x
_atom_site_fract_y
_atom_site_fract_z
Si Si1 0.000000 0.203654 0.000000
Si Si2 0.219578 0.410592 0.367196
Si Si3 0.663246 0.593225 0.620481
Si Si4 0.591204 0.211904 0.270379
Si Si5 0.979973 0.593599 0.770252
Si Si6 0.168280 0.678437 0.819340
Si Si7 0.719785 0.295468 0.896946
O O1 0.946178 0.146056 0.180819
O O2 0.905070 0.258348 0.116618
O O3 0.203734 0.500000 0.361923
O O4 0.280797 0.399668 0.366644
O O5 0.290120 0.374303 0.153267
O O6 0.100550 0.372350 0.581166
O O7 0.637955 0.500000 0.637618
O O8 0.746925 0.630324 0.395591
O O9 0.500000 0.247017 0.500000
O O10 0.561736 0.129599 0.265156
O O11 0.690767 0.194597 0.171392
O O12 0.610691 0.277953 0.148290
O O13 0.976236 0.500000 0.764537
O O14 0.910206 0.616066 0.990175
O O15 0.239939 0.723273 0.781878
#
# Coordination Sequence:
#
# PCOD8100134 Si02
#       7
#     4   8   8   8   8   8   8
#     4  12  23  36  63  88 112 158 210 234 275 346
#     4  10  20  36  58  84 118 148 185 234 290 344
#     4  11  24  41  59  86 124 160 194 239 289 346
#     4  10  20  35  58  79 112 145 189 238 284 341
#     4  10  21  36  59  90 116 148 186 234 297 353
#     4  11  23  37  61  85 121 153 195 242 286 340
#     4  10  21  36  54  84 111 149 189 237 289 336
#
# _framework density 19.135020000000001
#
# number of rings (size 3 to 8) (size 9 to 14) (size 15 to 20)
#    0.000    1.538    3.077    2.077    2.154    0.923 
#    0.000    3.077    0.000    0.462    0.000    0.000 
#    0.000    0.000    0.000    0.000    0.000    0.000 
#
# Total GULP energy -322209.393153 kJ/mol
# GULP energy per Si atom -12392.668967 kJ/mol
# Density = 1.909147 g / cm^3
# Si number density = 19.135020 Si / 1000 Ang^3
#
#
#
# Elastic Constant Matrix: (Units=GPa)
#
#
# Indices 1 2 3 4 5 6 
#
# 1 40.4988 34.1070 13.8212 0.0000 7.7389 0.0000
# 2 34.1070 75.2715 60.6572 0.0000 5.0497 0.0000
# 3 13.8212 60.6572 140.3693 0.0000 22.3497 0.0000
# 4 0.0000 0.0000 0.0000 34.9236 0.0000 -3.5948
# 5 7.7389 5.0497 22.3497 0.0000 28.9756 0.0000
# 6 0.0000 0.0000 0.0000 -3.5948 0.0000 23.4523
#
#
#
# Elastic Compliance Matrix: (Units=1/GPa)
#
#
# Indices 1 2 3 4 5 6 
#
# 1 0.049201 -0.029729 0.010567 0.000000 -0.016111 0.000000
# 2 -0.029729 0.038699 -0.015944 0.000000 0.013494 0.000000
# 3 0.010567 -0.015944 0.014798 0.000000 -0.011458 0.000000
# 4 0.000000 0.000000 0.000000 0.029093 0.000000 0.004459
# 5 -0.016111 0.013494 -0.011458 0.000000 0.045301 0.000000
# 6 0.000000 0.000000 0.000000 0.004459 0.000000 0.043323
#
#
# Mechanical properties :
#
#
# Convention : Reuss Voigt Hill
#
# Bulk Modulus (GPa) = 30.78192 52.59005 41.68598
# Shear Modulus (GPa) = 16.58618 27.30725 21.94672
#
# Velocity S-wave (km/s) = 2.94734 3.78177 3.39032
# Velocity P-wave (km/s) = 5.26346 6.82733 6.09575
#
# Compressibility (1/GPa) = 0.03248661
#
# Stress axis : x y z
#
# Youngs Moduli (GPa) = 20.32473 25.84025 67.57740
#
# Poissons Ratio (x) = 0.76820 -0.71411
# Poissons Ratio (y) = 0.60423 1.07748
# Poissons Ratio (z) = -0.21478 0.41201
#
# Static dielectric constant tensor:
#      x y z
#    x 3.613870 0.000000 -0.002470 
#    y 0.000000 3.621660 0.000000 
#    z -0.002470 0.000000 4.000740 
# 
# 
# High freq. dielectric constant tensor:
#      x y z
#    x 1.744530 0.000000 0.005540 
#    y 0.000000 1.739380 0.000000 
#    z 0.005540 0.000000 1.755560 
# 
# From -- ./inp_files/184313.got.cif
#   From: 2010.06.25/outbox.cif.g09.slc.cpg/sg12_93_cif.got.tgz:184313.got - 2010.06.28 00:19:55.
