data_PCOD8100510
_publ_section_title
;
Structure prediction by ZEFSAII (Michael W. Deem and Ramdas Pophale) SiO2 
 PCOD8100510
Probable space group: C 2/M
;
_chemical_formula_sum "Si O2"
_cell_formula_units_Z 64
_cell_length_a 15.512255
_cell_length_b 8.759618
_cell_length_c 23.632253
_cell_angle_alpha 90.000000
_cell_angle_beta 89.685657
_cell_angle_gamma 90.000000
_cell_volume 3211.135960
_symmetry_space_group_name_H-M "C 2/M"
_symmetry_group_IT_number 12
_symmetry_cell_setting 'monoclinic'
loop_
_space_group_symop_operation_xyz
x,y,z
-x,y,-z
-x,-y,-z
x,-y,z
1/2+x,1/2+y,z
1/2-x,1/2+y,-z
1/2-x,1/2-y,-z
1/2+x,1/2-y,z
loop_
_atom_site_type_symbol
_atom_site_label
_atom_site_fract_x
_atom_site_fract_y
_atom_site_fract_z
Si Si1 0.106006 0.822739 0.370285
Si Si2 0.086606 0.172455 0.242088
Si Si3 0.239053 0.181538 0.561577
Si Si4 0.153534 0.178887 0.863362
Si Si5 0.326835 0.324178 0.872560
Si Si6 0.410767 0.175751 0.244074
Si Si7 0.420127 0.181105 0.372490
Si Si8 0.505470 0.682093 0.063750
O O1 0.127038 0.802391 0.303753
O O2 0.178683 0.728483 0.401999
O O3 0.012222 0.756564 0.386197
O O4 0.109674 0.000000 0.388243
O O5 0.159059 0.199911 0.194707
O O6 0.010294 0.290179 0.230574
O O7 0.048989 0.000000 0.236780
O O8 0.250000 0.250000 0.500000
O O9 0.150832 0.249700 0.586161
O O10 0.232159 0.000000 0.559251
O O11 0.242012 0.233899 0.891428
O O12 0.149791 0.231258 0.798140
O O13 0.074581 0.248125 0.899948
O O14 0.150016 0.000000 0.865583
O O15 0.312460 0.500000 0.887513
O O16 0.406977 0.257680 0.907764
O O17 0.390852 0.222155 0.308801
O O18 0.391384 0.000000 0.233377
O O19 0.427862 0.000000 0.381148
O O20 0.503571 0.500000 0.064794
O O21 0.500000 0.745188 0.000000
#
# Coordination Sequence:
#
# PCOD8100510 Si02
#       8
#     8   8   8   8   8   8   8   8
#     4  10  21  39  63  92 125 160 201 249 303 364
#     4   9  18  35  59  86 120 158 195 238 297 360
#     4  12  26  44  65  91 123 162 208 252 300 359
#     4  11  22  36  56  86 118 153 199 246 297 356
#     4  10  20  36  57  85 118 156 196 240 299 357
#     4  10  20  35  59  88 122 157 195 242 299 356
#     4  10  22  41  63  91 124 161 203 251 303 359
#     4   9  19  38  61  81 112 159 203 245 297 356
#
# _framework density 19.930641000000001
#
# number of rings (size 3 to 8) (size 9 to 14) (size 15 to 20)
#    0.000    1.875    1.250    2.625    1.750    3.500 
#    0.000    2.500    0.000    2.625    0.000    0.000 
#    0.000    0.000    0.000    0.000    0.000    0.000 
#
# Total GULP energy -396855.533529 kJ/mol
# GULP energy per Si atom -12401.735423 kJ/mol
# Density = 1.988528 g / cm^3
# Si number density = 19.930641 Si / 1000 Ang^3
#
#
#
# Elastic Constant Matrix: (Units=GPa)
#
#
# Indices 1 2 3 4 5 6 
#
# 1 116.3117 26.5404 46.0128 0.0000 6.9149 0.0000
# 2 26.5404 62.5015 26.3889 0.0000 -2.4378 0.0000
# 3 46.0128 26.3889 97.7117 0.0000 7.0069 0.0000
# 4 0.0000 0.0000 0.0000 19.6491 0.0000 2.8385
# 5 6.9149 -2.4378 7.0069 0.0000 24.0209 0.0000
# 6 0.0000 0.0000 0.0000 2.8385 0.0000 38.7891
#
#
#
# Elastic Compliance Matrix: (Units=1/GPa)
#
#
# Indices 1 2 3 4 5 6 
#
# 1 0.011100 -0.003006 -0.004253 0.000000 -0.002260 0.000000
# 2 -0.003006 0.019137 -0.004038 0.000000 0.003985 0.000000
# 3 -0.004253 -0.004038 0.013553 0.000000 -0.003139 0.000000
# 4 0.000000 0.000000 0.000000 0.051437 0.000000 -0.003764
# 5 -0.002260 0.003985 -0.003139 0.000000 0.043601 0.000000
# 6 0.000000 0.000000 0.000000 -0.003764 0.000000 0.026056
#
#
# Mechanical properties :
#
#
# Convention : Reuss Voigt Hill
#
# Bulk Modulus (GPa) = 47.18254 52.71214 49.94734
# Shear Modulus (GPa) = 25.70114 28.33069 27.01592
#
# Velocity S-wave (km/s) = 3.59490 3.77432 3.68570
# Velocity P-wave (km/s) = 6.39967 6.74531 6.57476
#
# Compressibility (1/GPa) = 0.02119428
#
# Stress axis : x y z
#
# Youngs Moduli (GPa) = 90.08610 52.25585 73.78508
#
# Poissons Ratio (x) = 0.15708 0.31384
# Poissons Ratio (y) = 0.27080 0.29798
# Poissons Ratio (z) = 0.38317 0.21103
#
# Static dielectric constant tensor:
#      x y z
#    x 3.643120 0.000000 -0.015940 
#    y 0.000000 3.544880 0.000000 
#    z -0.015940 0.000000 3.749090 
# 
# 
# High freq. dielectric constant tensor:
#      x y z
#    x 1.782050 0.000000 0.001730 
#    y 0.000000 1.768020 0.000000 
#    z 0.001730 0.000000 1.778390 
# 
# From -- ./inp_files/338896.got.cif
#   From: 2010.06.25/outbox.cif.g09.slc.cpg/sg12_170_cif.got.tgz:338896.got - 2010.06.28 00:19:55.
