data_PCOD8100999
_publ_section_title
;
Structure prediction by ZEFSAII (Michael W. Deem and Ramdas Pophale) SiO2 
 PCOD8100999
Probable space group: C 2/M
;
_chemical_formula_sum "Si O2"
_cell_formula_units_Z 64
_cell_length_a 18.627070
_cell_length_b 8.716326
_cell_length_c 30.018901
_cell_angle_alpha 90.000000
_cell_angle_beta 137.210537
_cell_angle_gamma 90.000000
_cell_volume 3310.842171
_symmetry_space_group_name_H-M "C 2/M"
_symmetry_group_IT_number 12
_symmetry_cell_setting 'monoclinic'
loop_
_space_group_symop_operation_xyz
x,y,z
-x,y,-z
-x,-y,-z
x,-y,z
1/2+x,1/2+y,z
1/2-x,1/2+y,-z
1/2-x,1/2-y,-z
1/2+x,1/2-y,z
loop_
_atom_site_type_symbol
_atom_site_label
_atom_site_fract_x
_atom_site_fract_y
_atom_site_fract_z
Si Si1 0.098925 0.817775 0.517145
Si Si2 0.396553 0.320311 0.926405
Si Si3 0.667813 0.181367 0.363652
Si Si4 0.680513 0.679400 0.832883
Si Si5 0.487305 0.179260 0.784574
Si Si6 0.939555 0.179393 0.599581
Si Si7 0.882665 0.174567 0.817963
Si Si8 0.643779 0.824766 0.722298
O O1 0.211032 0.762841 0.588991
O O2 0.097193 0.759936 0.465339
O O3 0.000000 0.747421 0.500000
O O4 0.089356 0.000000 0.513416
O O5 0.373055 0.500000 0.921585
O O6 0.297948 0.226989 0.901866
O O7 0.411960 0.278854 0.881646
O O8 0.500000 0.267798 0.000000
O O9 0.594476 0.242941 0.290100
O O10 0.626550 0.237663 0.392358
O O11 0.664626 0.000000 0.363017
O O12 0.676345 0.500000 0.820577
O O13 0.596348 0.725701 0.832250
O O14 0.646399 0.776373 0.774665
O O15 0.441257 0.208372 0.812429
O O16 0.509499 0.000000 0.788462
O O17 0.063722 0.216948 0.659347
O O18 0.921455 0.000000 0.596800
O O19 0.758177 0.194058 0.752491
O O20 0.917825 0.000000 0.824277
O O21 0.604205 0.000000 0.702552
#
# Coordination Sequence:
#
# PCOD8100999 Si02
#       8
#     8   8   8   8   8   8   8   8
#     4   9  20  37  55  78 108 143 187 238 290 346
#     4   9  19  39  65  89 118 157 193 226 275 336
#     4  10  21  37  57  77 107 150 188 232 286 345
#     4  11  21  35  58  87 118 148 188 237 278 327
#     4  11  22  35  56  84 116 153 191 233 286 344
#     4  11  21  33  57  83 106 142 189 239 286 341
#     4   9  20  36  56  83 116 148 184 234 281 326
#     4  10  20  36  56  80 112 149 187 232 287 343
#
# _framework density 19.33043
#
# number of rings (size 3 to 8) (size 9 to 14) (size 15 to 20)
#    0.000    2.000    1.250    3.375    1.750    3.250 
#    0.000    1.250    0.000    1.875    0.000    0.000 
#    0.000    0.000    0.000    0.000    0.000    0.000 
#
# Total GULP energy -396847.623183 kJ/mol
# GULP energy per Si atom -12401.488224 kJ/mol
# Density = 1.928643 g / cm^3
# Si number density = 19.330430 Si / 1000 Ang^3
#
#
#
# Elastic Constant Matrix: (Units=GPa)
#
#
# Indices 1 2 3 4 5 6 
#
# 1 122.3515 25.2707 54.3887 0.0000 12.0538 0.0000
# 2 25.2707 27.1870 17.9829 0.0000 8.7770 0.0000
# 3 54.3887 17.9829 117.1864 0.0000 17.6578 0.0000
# 4 0.0000 0.0000 0.0000 19.7702 0.0000 1.7576
# 5 12.0538 8.7770 17.6578 0.0000 23.8174 0.0000
# 6 0.0000 0.0000 0.0000 1.7576 0.0000 31.8089
#
#
#
# Elastic Compliance Matrix: (Units=1/GPa)
#
#
# Indices 1 2 3 4 5 6 
#
# 1 0.011713 -0.008166 -0.004214 0.000000 0.000206 0.000000
# 2 -0.008166 0.049771 -0.001921 0.000000 -0.012784 0.000000
# 3 -0.004214 -0.001921 0.011658 0.000000 -0.005803 0.000000
# 4 0.000000 0.000000 0.000000 0.050831 0.000000 -0.002809
# 5 0.000206 -0.012784 -0.005803 0.000000 0.050895 0.000000
# 6 0.000000 0.000000 0.000000 -0.002809 0.000000 0.031593
#
#
# Mechanical properties :
#
#
# Convention : Reuss Voigt Hill
#
# Bulk Modulus (GPa) = 22.45213 51.33437 36.89325
# Shear Modulus (GPa) = 20.00716 26.35146 23.17931
#
# Velocity S-wave (km/s) = 3.22065 3.69617 3.46657
# Velocity P-wave (km/s) = 5.04680 6.69548 5.92873
#
# Compressibility (1/GPa) = 0.04453920
#
# Stress axis : x y z
#
# Youngs Moduli (GPa) = 85.37653 20.09207 85.77509
#
# Poissons Ratio (x) = 0.16408 0.36146
# Poissons Ratio (y) = 0.69721 0.16479
# Poissons Ratio (z) = 0.35978 0.03860
#
# Static dielectric constant tensor:
#      x y z
#    x 3.546770 0.000000 0.219720 
#    y 0.000000 3.319840 0.000000 
#    z 0.219720 0.000000 3.729470 
# 
# 
# High freq. dielectric constant tensor:
#      x y z
#    x 1.754070 0.000000 0.012950 
#    y 0.000000 1.738820 0.000000 
#    z 0.012950 0.000000 1.746760 
# 
# From -- ./inp_files/378391.got.cif
#   From: 2010.06.25/outbox.cif.g09.slc.cpg/sg12_190_cif.got.tgz:378391.got - 2010.06.28 00:19:55.
