data_PCOD8100260
_publ_section_title
;
Structure prediction by ZEFSAII (Michael W. Deem and Ramdas Pophale) SiO2 
 PCOD8100260
Probable space group: C 2/M
;
_chemical_formula_sum "Si O2"
_cell_formula_units_Z 64
_cell_length_a 20.047708
_cell_length_b 8.674444
_cell_length_c 24.141864
_cell_angle_alpha 90.000000
_cell_angle_beta 128.419942
_cell_angle_gamma 90.000000
_cell_volume 3289.300469
_symmetry_space_group_name_H-M "C 2/M"
_symmetry_group_IT_number 12
_symmetry_cell_setting 'monoclinic'
loop_
_space_group_symop_operation_xyz
x,y,z
-x,y,-z
-x,-y,-z
x,-y,z
1/2+x,1/2+y,z
1/2-x,1/2+y,-z
1/2-x,1/2-y,-z
1/2+x,1/2-y,z
loop_
_atom_site_type_symbol
_atom_site_label
_atom_site_fract_x
_atom_site_fract_y
_atom_site_fract_z
Si Si1 0.035524 0.682181 0.810709
Si Si2 0.680966 0.816631 0.805914
Si Si3 0.940038 0.181239 0.564255
Si Si4 0.372587 0.316511 0.924240
Si Si5 0.014986 0.316210 0.924378
Si Si6 0.798224 0.818497 0.405295
Si Si7 0.111420 0.680928 0.346877
Si Si8 0.879644 0.681823 0.344137
O O1 0.042580 0.500000 0.816634
O O2 0.118275 0.748545 0.821328
O O3 0.031809 0.746514 0.871160
O O4 0.949971 0.731818 0.734777
O O5 0.776231 0.758561 0.866700
O O6 0.648874 0.752149 0.730289
O O7 0.678448 0.000000 0.803585
O O8 0.867451 0.241302 0.485100
O O9 0.916151 0.227532 0.613554
O O10 0.028760 0.253903 0.591197
O O11 0.949031 0.000000 0.564743
O O12 0.379843 0.500000 0.932391
O O13 0.427168 0.258057 0.900256
O O14 0.406526 0.240040 0.997956
O O15 0.007156 0.500000 0.923228
O O16 0.706371 0.770061 0.380451
O O17 0.810660 0.734659 0.353342
O O18 0.804452 0.000000 0.398840
O O19 0.102929 0.500000 0.355120
O O20 0.884745 0.500000 0.344806
#
# Coordination Sequence:
#
# PCOD8100260 Si02
#       8
#     8   8   8   8   8   8   8   8
#     4   9  18  35  58  81 109 144 183 228 274 320
#     4   9  19  36  57  81 109 144 186 230 275 323
#     4  11  22  38  57  82 117 149 183 238 290 334
#     4  10  20  36  58  82 114 149 177 221 276 323
#     4  10  20  35  58  86 113 144 182 224 266 324
#     4  10  23  38  56  84 116 148 186 235 291 338
#     4  10  20  38  61  82 110 152 192 228 280 343
#     4  11  22  38  60  83 110 150 196 235 278 340
#
# _framework density 19.457025000000002
#
# number of rings (size 3 to 8) (size 9 to 14) (size 15 to 20)
#    0.000    2.000    1.250    3.000    1.750    3.500 
#    0.000    3.125    0.000    0.000    0.000    0.000 
#    0.000    0.000    0.000    0.000    0.000    0.000 
#
# Total GULP energy -396887.737569 kJ/mol
# GULP energy per Si atom -12402.741799 kJ/mol
# Density = 1.941274 g / cm^3
# Si number density = 19.457025 Si / 1000 Ang^3
#
#
#
# Elastic Constant Matrix: (Units=GPa)
#
#
# Indices 1 2 3 4 5 6 
#
# 1 44.5895 5.0139 12.3283 0.0000 3.3685 0.0000
# 2 5.0139 29.5186 3.1993 0.0000 -0.1853 0.0000
# 3 12.3283 3.1993 82.9978 0.0000 1.9703 0.0000
# 4 0.0000 0.0000 0.0000 22.2842 0.0000 -2.4650
# 5 3.3685 -0.1853 1.9703 0.0000 47.4344 0.0000
# 6 0.0000 0.0000 0.0000 -2.4650 0.0000 31.3525
#
#
#
# Elastic Compliance Matrix: (Units=1/GPa)
#
#
# Indices 1 2 3 4 5 6 
#
# 1 0.023893 -0.003703 -0.003369 0.000000 -0.001571 0.000000
# 2 -0.003703 0.034595 -0.000794 0.000000 0.000431 0.000000
# 3 -0.003369 -0.000794 0.012586 0.000000 -0.000287 0.000000
# 4 0.000000 0.000000 0.000000 0.045268 0.000000 0.003559
# 5 -0.001571 0.000431 -0.000287 0.000000 0.021207 0.000000
# 6 0.000000 0.000000 0.000000 0.003559 0.000000 0.032175
#
#
# Mechanical properties :
#
#
# Convention : Reuss Voigt Hill
#
# Bulk Modulus (GPa) = 18.06925 22.02100 20.04512
# Shear Modulus (GPa) = 24.52131 29.31851 26.91991
#
# Velocity S-wave (km/s) = 3.55389 3.88601 3.72366
# Velocity P-wave (km/s) = 5.11343 5.61044 5.36769
#
# Compressibility (1/GPa) = 0.05534263
#
# Stress axis : x y z
#
# Youngs Moduli (GPa) = 41.85258 28.90622 79.45122
#
# Poissons Ratio (x) = 0.10704 0.26767
# Poissons Ratio (y) = 0.15499 0.06306
# Poissons Ratio (z) = 0.14100 0.02294
#
# Static dielectric constant tensor:
#      x y z
#    x 3.814520 0.000000 -0.013000 
#    y 0.000000 3.297210 0.000000 
#    z -0.013000 0.000000 3.819350 
# 
# 
# High freq. dielectric constant tensor:
#      x y z
#    x 1.771290 0.000000 -0.000060 
#    y 0.000000 1.735270 0.000000 
#    z -0.000060 0.000000 1.767530 
# 
# From -- ./inp_files/346115.got.cif
#   From: 2010.06.25/outbox.cif.g09.slc.cpg/sg12_174_cif.got.tgz:346115.got - 2010.06.28 00:19:55.
