data_PCOD8100659
_publ_section_title
;
Structure prediction by ZEFSAII (Michael W. Deem and Ramdas Pophale) SiO2 
 PCOD8100659
Probable space group: C 2/M
;
_chemical_formula_sum "Si O2"
_cell_formula_units_Z 64
_cell_length_a 26.256205
_cell_length_b 17.875716
_cell_length_c 19.578629
_cell_angle_alpha 90.000000
_cell_angle_beta 20.584934
_cell_angle_gamma 90.000000
_cell_volume 3230.881157
_symmetry_space_group_name_H-M "C 2/M"
_symmetry_group_IT_number 12
_symmetry_cell_setting 'monoclinic'
loop_
_space_group_symop_operation_xyz
x,y,z
-x,y,-z
-x,-y,-z
x,-y,z
1/2+x,1/2+y,z
1/2-x,1/2+y,-z
1/2-x,1/2-y,-z
1/2+x,1/2-y,z
loop_
_atom_site_type_symbol
_atom_site_label
_atom_site_fract_x
_atom_site_fract_y
_atom_site_fract_z
Si Si1 0.400437 0.273757 0.500591
Si Si2 0.870946 0.916270 0.961246
Si Si3 0.302557 0.810931 0.488865
Si Si4 0.857055 0.711271 0.072223
Si Si5 0.630163 0.583460 0.536389
Si Si6 0.485568 0.645316 0.095333
Si Si7 0.786074 0.726849 0.878222
Si Si8 0.941201 0.587347 0.211285
O O1 0.371111 0.231506 0.466806
O O2 0.273930 0.266471 0.714083
O O3 0.417923 0.361846 0.463743
O O4 0.546418 0.241151 0.350027
O O5 0.026339 0.901893 0.731110
O O6 0.898090 0.902181 0.007453
O O7 0.813435 0.000000 0.021318
O O8 0.748344 0.861119 0.086523
O O9 0.250000 0.750000 0.500000
O O10 0.176592 0.865992 0.673768
O O11 0.420553 0.867108 0.307842
O O12 0.811871 0.725149 0.050550
O O13 0.986928 0.766037 0.930637
O O14 0.921157 0.626815 0.999567
O O15 0.609723 0.500000 0.533557
O O16 0.796295 0.597431 0.348711
O O17 0.500000 0.617438 0.000000
O O18 0.750000 0.750000 0.000000
O O19 0.976842 0.500000 0.179244
#
# Coordination Sequence:
#
# PCOD8100659 Si02
#       8
#     8   8   8   8   8   8   8   8
#     4  12  22  39  64  90 124 168 215 263 316 373
#     4  10  21  40  64  92 127 164 209 263 319 382
#     4  12  20  35  64  92 127 165 212 263 311 379
#     4  11  24  39  60  92 129 163 210 268 316 371
#     4  10  20  35  60  92 123 162 204 251 314 383
#     4  11  20  35  61  97 126 161 204 261 325 386
#     4  11  23  42  65  90 115 168 227 265 304 374
#     4  11  23  39  61  94 134 170 207 258 321 383
#
# _framework density 19.808837
#
# number of rings (size 3 to 8) (size 9 to 14) (size 15 to 20)
#    0.000    1.000    6.250    1.125    0.000    0.750 
#    0.000    4.375    0.000    7.500    0.000    0.000 
#    0.000    0.000    0.000    0.000    0.000    0.000 
#
# Total GULP energy -396808.110293 kJ/mol
# GULP energy per Si atom -12400.253447 kJ/mol
# Density = 1.976375 g / cm^3
# Si number density = 19.808837 Si / 1000 Ang^3
#
#
#
# Elastic Constant Matrix: (Units=GPa)
#
#
# Indices 1 2 3 4 5 6 
#
# 1 78.4007 26.0092 13.1339 0.0031 -3.6736 -0.0024
# 2 26.0092 123.4138 35.4993 0.0031 -14.2719 -0.0033
# 3 13.1339 35.4993 93.0903 0.0022 -7.2031 -0.0032
# 4 0.0031 0.0031 0.0022 30.1746 0.0000 -3.5094
# 5 -3.6736 -14.2719 -7.2031 0.0000 24.2115 0.0009
# 6 -0.0024 -0.0033 -0.0032 -3.5094 0.0009 17.4320
#
#
#
# Elastic Compliance Matrix: (Units=1/GPa)
#
#
# Indices 1 2 3 4 5 6 
#
# 1 0.013788 -0.002606 -0.000930 -0.000001 0.000279 0.000001
# 2 -0.002606 0.010084 -0.003120 0.000000 0.004620 0.000001
# 3 -0.000930 -0.003120 0.012191 0.000000 0.001646 0.000001
# 4 -0.000001 0.000000 0.000000 0.033935 -0.000001 0.006832
# 5 0.000279 0.004620 0.001646 -0.000001 0.044558 -0.000001
# 6 0.000001 0.000001 0.000001 0.006832 -0.000001 0.058741
#
#
# Mechanical properties :
#
#
# Convention : Reuss Voigt Hill
#
# Bulk Modulus (GPa) = 43.95503 49.35440 46.65472
# Shear Modulus (GPa) = 25.74751 29.04780 27.39766
#
# Velocity S-wave (km/s) = 3.60918 3.83352 3.72304
# Velocity P-wave (km/s) = 6.29333 6.67562 6.48730
#
# Compressibility (1/GPa) = 0.02275052
#
# Stress axis : x y z
#
# Youngs Moduli (GPa) = 72.52463 99.16818 82.02947
#
# Poissons Ratio (x) = 0.25844 0.07628
# Poissons Ratio (y) = 0.18901 0.25595
# Poissons Ratio (z) = 0.06744 0.30943
#
# Static dielectric constant tensor:
#      x y z
#    x 3.569310 0.000000 0.059860 
#    y 0.000000 3.654220 0.000010 
#    z 0.059860 0.000010 3.675290 
# 
# 
# High freq. dielectric constant tensor:
#      x y z
#    x 1.762610 0.000000 0.009600 
#    y 0.000000 1.764900 0.000000 
#    z 0.009600 0.000000 1.772210 
# 
# From -- ./inp_files/317385.got.cif
#   From: 2010.06.25/outbox.cif.g09.slc.cpg/sg12_159_cif.got.tgz:317385.got - 2010.06.28 00:19:55.
