data_PCOD8100946
_publ_section_title
;
Structure prediction by ZEFSAII (Michael W. Deem and Ramdas Pophale) SiO2 
 PCOD8100946
Probable space group: C 2/M
;
_chemical_formula_sum "Si O2"
_cell_formula_units_Z 56
_cell_length_a 14.374801
_cell_length_b 24.295441
_cell_length_c 9.407655
_cell_angle_alpha 90.000000
_cell_angle_beta 60.054197
_cell_angle_gamma 90.000000
_cell_volume 2846.921957
_symmetry_space_group_name_H-M "C 2/M"
_symmetry_group_IT_number 12
_symmetry_cell_setting 'monoclinic'
loop_
_space_group_symop_operation_xyz
x,y,z
-x,y,-z
-x,-y,-z
x,-y,z
1/2+x,1/2+y,z
1/2-x,1/2+y,-z
1/2-x,1/2-y,-z
1/2+x,1/2-y,z
loop_
_atom_site_type_symbol
_atom_site_label
_atom_site_fract_x
_atom_site_fract_y
_atom_site_fract_z
Si Si1 0.737254 0.392203 0.064834
Si Si2 0.898252 0.298768 0.985130
Si Si3 0.372649 0.938369 0.724121
Si Si4 0.520918 0.162161 0.635371
Si Si5 0.752463 0.624765 0.575425
Si Si6 0.625412 0.321644 0.918980
Si Si7 0.123176 0.064183 0.426060
O O1 0.679835 0.425212 0.232963
O O2 0.811056 0.345503 0.078654
O O3 0.804650 0.435626 0.921362
O O4 0.654744 0.363422 0.020902
O O5 0.947657 0.299518 0.789549
O O6 0.843324 0.240388 0.060087
O O7 0.000000 0.314105 0.000000
O O8 0.476743 0.900376 0.663994
O O9 0.300966 0.921223 0.643225
O O10 0.413822 0.000000 0.670243
O O11 0.500000 0.190583 0.500000
O O12 0.648450 0.158670 0.573264
O O13 0.682441 0.666151 0.725347
O O14 0.678004 0.598484 0.511093
O O15 0.500000 0.326607 0.000000
O O16 0.000000 0.082601 0.500000
O O17 0.131625 0.000000 0.458953
#
# Coordination Sequence:
#
# PCOD8100946 Si02
#       7
#     8   8   8   8   8   8   8
#     4  10  20  36  56  78 108 142 177 217 263 315
#     4  10  20  37  57  79 108 141 175 214 266 320
#     4   9  18  33  56  82 107 140 177 213 259 319
#     4   9  19  34  54  82 112 136 170 219 266 316
#     4  10  20  36  56  79 108 139 176 220 264 310
#     4  10  21  38  57  77 104 142 185 219 253 309
#     4  11  23  37  53  77 109 142 178 222 267 307
#
# _framework density 19.670366999999999
#
# number of rings (size 3 to 8) (size 9 to 14) (size 15 to 20)
#    0.000    2.143    0.000    3.857    0.000    3.143 
#    0.000   11.429    0.000   11.571    0.000    0.000 
#    0.000    0.000    0.000    0.000    0.000    0.000 
#
# Total GULP energy -347100.073527 kJ/mol
# GULP energy per Si atom -12396.431197 kJ/mol
# Density = 1.962560 g / cm^3
# Si number density = 19.670367 Si / 1000 Ang^3
#
#
#
# Elastic Constant Matrix: (Units=GPa)
#
#
# Indices 1 2 3 4 5 6 
#
# 1 81.8439 17.2170 28.8527 0.0000 -3.8384 0.0000
# 2 17.2170 57.6724 17.4661 0.0000 -2.3068 0.0000
# 3 28.8527 17.4661 109.5325 0.0000 -6.8476 0.0000
# 4 0.0000 0.0000 0.0000 24.2586 0.0000 -6.4611
# 5 -3.8384 -2.3068 -6.8476 0.0000 33.8542 0.0000
# 6 0.0000 0.0000 0.0000 -6.4611 0.0000 38.4094
#
#
#
# Elastic Compliance Matrix: (Units=1/GPa)
#
#
# Indices 1 2 3 4 5 6 
#
# 1 0.014035 -0.003210 -0.003139 0.000000 0.000738 0.000000
# 2 -0.003210 0.018968 -0.002148 0.000000 0.000494 0.000000
# 3 -0.003139 -0.002148 0.010399 0.000000 0.001601 0.000000
# 4 0.000000 0.000000 0.000000 0.043156 0.000000 0.007260
# 5 0.000738 0.000494 0.001601 0.000000 0.029980 0.000000
# 6 0.000000 0.000000 0.000000 0.007260 0.000000 0.027256
#
#
# Mechanical properties :
#
#
# Convention : Reuss Voigt Hill
#
# Bulk Modulus (GPa) = 37.86739 41.79115 39.82927
# Shear Modulus (GPa) = 29.48275 31.67197 30.57736
#
# Velocity S-wave (km/s) = 3.87569 4.01700 3.94698
# Velocity P-wave (km/s) = 6.27062 6.54270 6.40811
#
# Compressibility (1/GPa) = 0.02640794
#
# Stress axis : x y z
#
# Youngs Moduli (GPa) = 71.25141 52.72074 96.16071
#
# Poissons Ratio (x) = 0.16922 0.30186
# Poissons Ratio (y) = 0.22869 0.20658
# Poissons Ratio (z) = 0.22366 0.11326
#
# Static dielectric constant tensor:
#      x y z
#    x 3.628870 0.000000 -0.087730 
#    y 0.000000 3.691380 0.000000 
#    z -0.087730 0.000000 3.629720 
# 
# 
# High freq. dielectric constant tensor:
#      x y z
#    x 1.773600 0.000000 -0.004510 
#    y 0.000000 1.749330 0.000000 
#    z -0.004510 0.000000 1.783540 
# 
# From -- ./inp_files/66833.got.cif
#   From: 2010.06.25/outbox.cif.g09.slc.cpg/sg12_34_cif.got.tgz:66833.got - 2010.06.28 00:19:55.
