data_PCOD8100813
_publ_section_title
;
Structure prediction by ZEFSAII (Michael W. Deem and Ramdas Pophale) SiO2 
 PCOD8100813
Probable space group: C 2/M
;
_chemical_formula_sum "Si O2"
_cell_formula_units_Z 48
_cell_length_a 8.600355
_cell_length_b 20.530199
_cell_length_c 15.084494
_cell_angle_alpha 90.000000
_cell_angle_beta 98.889939
_cell_angle_gamma 90.000000
_cell_volume 2631.428182
_symmetry_space_group_name_H-M "C 2/M"
_symmetry_group_IT_number 12
_symmetry_cell_setting 'monoclinic'
loop_
_space_group_symop_operation_xyz
x,y,z
-x,y,-z
-x,-y,-z
x,-y,z
1/2+x,1/2+y,z
1/2-x,1/2+y,-z
1/2-x,1/2-y,-z
1/2+x,1/2-y,z
loop_
_atom_site_type_symbol
_atom_site_label
_atom_site_fract_x
_atom_site_fract_y
_atom_site_fract_z
Si Si1 0.093674 0.075361 0.265775
Si Si2 0.669240 0.828886 0.780257
Si Si3 0.890769 0.926478 0.074985
Si Si4 0.824872 0.320216 0.015470
Si Si5 0.148564 0.725645 0.310338
Si Si6 0.536962 0.333617 0.603811
O O1 0.262713 0.109992 0.268612
O O2 0.988465 0.090474 0.170872
O O3 0.001721 0.102665 0.342345
O O4 0.126869 0.000000 0.283261
O O5 0.688877 0.844123 0.885119
O O6 0.769463 0.764658 0.763114
O O7 0.485467 0.820858 0.741702
O O8 0.821571 0.000000 0.074106
O O9 0.752656 0.873886 0.055638
O O10 0.000000 0.918593 0.000000
O O11 0.750000 0.250000 0.000000
O O12 0.000000 0.312536 0.000000
O O13 0.278197 0.682204 0.371171
O O14 0.070581 0.773292 0.375304
O O15 0.500000 0.350882 0.500000
#
# Coordination Sequence:
#
# PCOD8100813 Si02
#       6
#     8   8   8   8   8   8
#     4  10  22  39  59  80 111 153 192 230 277 333
#     4  10  20  36  54  80 114 151 182 230 278 338
#     4  10  21  40  59  78 111 156 196 229 275 339
#     4  12  25  33  55  86 119 148 192 239 280 325
#     4   9  20  35  58  84 116 143 182 224 291 341
#     4  10  20  36  62  87 113 144 183 233 284 341
#
# _framework density 18.241043999999999
#
# number of rings (size 3 to 8) (size 9 to 14) (size 15 to 20)
#    0.000    1.833    1.667    2.000    9.333    0.667 
#    0.000    0.833    0.000    1.000    0.000    0.000 
#    0.000    0.000    0.000    0.000    0.000    0.000 
#
# Total GULP energy -297682.480817 kJ/mol
# GULP energy per Si atom -12403.436701 kJ/mol
# Density = 1.819953 g / cm^3
# Si number density = 18.241044 Si / 1000 Ang^3
#
#
#
# Elastic Constant Matrix: (Units=GPa)
#
#
# Indices 1 2 3 4 5 6 
#
# 1 125.5683 58.5792 38.3867 0.0000 16.1100 0.0000
# 2 58.5792 113.6712 40.8465 0.0000 16.3403 0.0000
# 3 38.3867 40.8465 105.8892 0.0000 -2.4467 0.0000
# 4 0.0000 0.0000 0.0000 11.4485 0.0000 2.9257
# 5 16.1100 16.3403 -2.4467 0.0000 26.9955 0.0000
# 6 0.0000 0.0000 0.0000 2.9257 0.0000 14.7938
#
#
#
# Elastic Compliance Matrix: (Units=1/GPa)
#
#
# Indices 1 2 3 4 5 6 
#
# 1 0.011301 -0.004278 -0.002548 0.000000 -0.004386 0.000000
# 2 -0.004278 0.013137 -0.003649 0.000000 -0.005729 0.000000
# 3 -0.002548 -0.003649 0.011886 0.000000 0.004807 0.000000
# 4 0.000000 0.000000 0.000000 0.091997 0.000000 -0.018194
# 5 -0.004386 -0.005729 0.004807 0.000000 0.043564 0.000000
# 6 0.000000 0.000000 0.000000 -0.018194 0.000000 0.071194
#
#
# Mechanical properties :
#
#
# Convention : Reuss Voigt Hill
#
# Bulk Modulus (GPa) = 65.04412 68.97263 67.00837
# Shear Modulus (GPa) = 18.57676 24.46865 21.52271
#
# Velocity S-wave (km/s) = 3.19471 3.66650 3.43870
# Velocity P-wave (km/s) = 7.02451 7.47115 7.25127
#
# Compressibility (1/GPa) = 0.01537418
#
# Stress axis : x y z
#
# Youngs Moduli (GPa) = 88.48730 76.12267 84.13111
#
# Poissons Ratio (x) = 0.32564 0.21437
# Poissons Ratio (y) = 0.37853 0.30700
# Poissons Ratio (z) = 0.22547 0.27777
#
# Static dielectric constant tensor:
#      x y z
#    x 3.438610 0.000000 -0.009990 
#    y 0.000000 3.340010 0.000000 
#    z -0.009990 0.000000 3.233370 
# 
# 
# High freq. dielectric constant tensor:
#      x y z
#    x 1.711900 0.000000 -0.003270 
#    y 0.000000 1.698300 0.000000 
#    z -0.003270 0.000000 1.705890 
# 
# From -- ./inp_files/195979.got.cif
#   From: 2010.06.25/outbox.cif.g09.slc.cpg/sg12_98_cif.got.tgz:195979.got - 2010.06.28 00:19:55.
