data_PCOD8100060
_publ_section_title
;
Structure prediction by ZEFSAII (Michael W. Deem and Ramdas Pophale) SiO2 
 PCOD8100060
Probable space group: C 2/M
;
_chemical_formula_sum "Si O2"
_cell_formula_units_Z 56
_cell_length_a 19.728572
_cell_length_b 9.228509
_cell_length_c 16.108201
_cell_angle_alpha 90.000000
_cell_angle_beta 91.771269
_cell_angle_gamma 90.000000
_cell_volume 2931.343209
_symmetry_space_group_name_H-M "C 2/M"
_symmetry_group_IT_number 12
_symmetry_cell_setting 'monoclinic'
loop_
_space_group_symop_operation_xyz
x,y,z
-x,y,-z
-x,-y,-z
x,-y,z
1/2+x,1/2+y,z
1/2-x,1/2+y,-z
1/2-x,1/2-y,-z
1/2+x,1/2-y,z
loop_
_atom_site_type_symbol
_atom_site_label
_atom_site_fract_x
_atom_site_fract_y
_atom_site_fract_z
Si Si1 0.003089 0.831745 0.229414
Si Si2 0.922902 0.329498 0.486804
Si Si3 0.384859 0.832918 0.302427
Si Si4 0.448365 0.166590 0.926862
Si Si5 0.793007 0.668104 0.933133
Si Si6 0.120156 0.166970 0.359955
Si Si7 0.266128 0.667786 0.763881
O O1 0.930720 0.757177 0.240459
O O2 0.041403 0.765285 0.152597
O O3 0.048777 0.804691 0.312047
O O4 0.991644 0.000000 0.211328
O O5 0.916533 0.500000 0.498314
O O6 0.895438 0.278161 0.396693
O O7 0.876547 0.256464 0.555098
O O8 0.000000 0.276397 0.500000
O O9 0.307813 0.807262 0.275530
O O10 0.406553 0.000000 0.295337
O O11 0.372238 0.188410 0.957377
O O12 0.461841 0.000000 0.902523
O O13 0.500000 0.217434 0.000000
O O14 0.772629 0.500000 0.932878
O O15 0.775684 0.732793 0.843500
O O16 0.750000 0.750000 0.000000
O O17 0.180900 0.219885 0.303438
O O18 0.129818 0.000000 0.383355
O O19 0.278762 0.500000 0.788668
#
# Coordination Sequence:
#
# PCOD8100060 Si02
#       7
#     8   8   8   8   8   8   8
#     4  11  22  37  60  89 119 152 194 244 292 340
#     4  10  20  35  57  86 116 151 198 244 287 342
#     4  10  22  39  60  85 117 158 199 241 290 348
#     4  10  23  42  63  88 117 154 197 236 286 350
#     4  11  24  41  63  89 120 156 194 239 290 347
#     4  10  21  37  59  85 116 155 192 237 296 346
#     4  10  22  42  62  83 118 159 197 237 292 354
#
# _framework density 19.103870000000001
#
# number of rings (size 3 to 8) (size 9 to 14) (size 15 to 20)
#    0.000    1.714    2.857    0.857    2.000    4.000 
#    0.000    0.000    0.000    0.000    0.000    0.000 
#    0.000    0.000    0.000    0.000    0.000    0.000 
#
# Total GULP energy -347357.923418 kJ/mol
# GULP energy per Si atom -12405.640122 kJ/mol
# Density = 1.906039 g / cm^3
# Si number density = 19.103870 Si / 1000 Ang^3
#
#
#
# Elastic Constant Matrix: (Units=GPa)
#
#
# Indices 1 2 3 4 5 6 
#
# 1 104.5359 50.4127 54.6900 0.0000 -10.9038 0.0000
# 2 50.4127 85.1057 57.2252 0.0000 -10.9918 0.0000
# 3 54.6900 57.2252 98.7817 0.0000 -14.0041 0.0000
# 4 0.0000 0.0000 0.0000 37.2034 0.0000 -9.0712
# 5 -10.9038 -10.9918 -14.0041 0.0000 37.6091 0.0000
# 6 0.0000 0.0000 0.0000 -9.0712 0.0000 27.6758
#
#
#
# Elastic Compliance Matrix: (Units=1/GPa)
#
#
# Indices 1 2 3 4 5 6 
#
# 1 0.014841 -0.005302 -0.005020 0.000000 0.000884 0.000000
# 2 -0.005302 0.021228 -0.009186 0.000000 0.001247 0.000000
# 3 -0.005020 -0.009186 0.018620 0.000000 0.002793 0.000000
# 4 0.000000 0.000000 0.000000 0.029214 0.000000 0.009575
# 5 0.000884 0.001247 0.002793 0.000000 0.028250 0.000000
# 6 0.000000 0.000000 0.000000 0.009575 0.000000 0.039271
#
#
# Mechanical properties :
#
#
# Convention : Reuss Voigt Hill
#
# Bulk Modulus (GPa) = 63.79778 68.11992 65.95885
# Shear Modulus (GPa) = 25.55394 28.90403 27.22898
#
# Velocity S-wave (km/s) = 3.66133 3.89394 3.77943
# Velocity P-wave (km/s) = 7.16530 7.48011 7.32440
#
# Compressibility (1/GPa) = 0.01567453
#
# Stress axis : x y z
#
# Youngs Moduli (GPa) = 67.37868 47.10779 53.70535
#
# Poissons Ratio (x) = 0.24974 0.26962
# Poissons Ratio (y) = 0.35721 0.49332
# Poissons Ratio (z) = 0.33826 0.43271
#
# Static dielectric constant tensor:
#      x y z
#    x 3.735440 0.000000 -0.161130 
#    y 0.000000 3.467030 0.000000 
#    z -0.161130 0.000000 3.669610 
# 
# 
# High freq. dielectric constant tensor:
#      x y z
#    x 1.750250 0.000000 -0.004290 
#    y 0.000000 1.740490 0.000000 
#    z -0.004290 0.000000 1.748100 
# 
# From -- ./inp_files/230978.got.cif
#   From: 2010.06.25/outbox.cif.g09.slc.cpg/sg12_116_cif.got.tgz:230978.got - 2010.06.28 00:19:55.
