data_PCOD8100560
_publ_section_title
;
Structure prediction by ZEFSAII (Michael W. Deem and Ramdas Pophale) SiO2 
 PCOD8100560
Probable space group: C 2/M
;
_chemical_formula_sum "Si O2"
_cell_formula_units_Z 56
_cell_length_a 27.290689
_cell_length_b 8.770608
_cell_length_c 12.676944
_cell_angle_alpha 90.000000
_cell_angle_beta 66.813725
_cell_angle_gamma 90.000000
_cell_volume 2789.220262
_symmetry_space_group_name_H-M "C 2/M"
_symmetry_group_IT_number 12
_symmetry_cell_setting 'monoclinic'
loop_
_space_group_symop_operation_xyz
x,y,z
-x,y,-z
-x,-y,-z
x,-y,z
1/2+x,1/2+y,z
1/2-x,1/2+y,-z
1/2-x,1/2-y,-z
1/2+x,1/2-y,z
loop_
_atom_site_type_symbol
_atom_site_label
_atom_site_fract_x
_atom_site_fract_y
_atom_site_fract_z
Si Si1 0.953942 0.671010 0.623300
Si Si2 0.490869 0.179101 0.821892
Si Si3 0.195144 0.180325 0.082708
Si Si4 0.152576 0.821222 0.337675
Si Si5 0.611997 0.180213 0.762930
Si Si6 0.192654 0.818258 0.527164
Si Si7 0.392643 0.679940 0.012242
O O1 0.930746 0.500000 0.653452
O O2 0.976409 0.728265 0.715739
O O3 0.909302 0.783758 0.619527
O O4 0.000000 0.675706 0.500000
O O5 0.551380 0.229680 0.791105
O O6 0.452547 0.267264 0.934988
O O7 0.483689 0.000000 0.847749
O O8 0.183518 0.245342 0.209693
O O9 0.146915 0.231829 0.047709
O O10 0.200186 0.000000 0.078046
O O11 0.250000 0.250000 0.000000
O O12 0.175820 0.754284 0.426407
O O13 0.159350 0.000000 0.333122
O O14 0.650188 0.260914 0.647517
O O15 0.620042 0.000000 0.747250
O O16 0.628021 0.236713 0.865367
O O17 0.250000 0.750000 0.500000
O O18 0.194980 0.000000 0.528762
O O19 0.391805 0.500000 0.031065
#
# Coordination Sequence:
#
# PCOD8100560 Si02
#       7
#     8   8   8   8   8   8   8
#     4  10  20  35  59  90 123 160 204 249 296 357
#     4  10  21  38  60  90 125 164 207 251 306 364
#     4  10  23  41  62  91 123 158 202 252 307 363
#     4  10  22  42  63  89 123 158 200 250 304 362
#     4  11  24  42  64  90 126 166 208 255 304 365
#     4  11  25  44  66  92 123 162 209 256 308 366
#     4  11  23  40  63  93 127 161 204 255 308 369
#
# _framework density 20.077296
#
# number of rings (size 3 to 8) (size 9 to 14) (size 15 to 20)
#    0.000    1.571    1.429    2.571    2.000    7.143 
#    0.000    0.000    0.000    0.000    0.000    0.000 
#    0.000    0.000    0.000    0.000    0.000    0.000 
#
# Total GULP energy -347310.720745 kJ/mol
# GULP energy per Si atom -12403.954312 kJ/mol
# Density = 2.003160 g / cm^3
# Si number density = 20.077296 Si / 1000 Ang^3
#
#
#
# Elastic Constant Matrix: (Units=GPa)
#
#
# Indices 1 2 3 4 5 6 
#
# 1 119.4682 35.1683 76.9456 0.0000 -4.3890 0.0000
# 2 35.1683 42.9407 42.9451 0.0000 -0.7058 0.0000
# 3 76.9456 42.9451 174.6736 0.0000 8.9981 0.0000
# 4 0.0000 0.0000 0.0000 34.1448 0.0000 -8.1348
# 5 -4.3890 -0.7058 8.9981 0.0000 39.2630 0.0000
# 6 0.0000 0.0000 0.0000 -8.1348 0.0000 25.0419
#
#
#
# Elastic Compliance Matrix: (Units=1/GPa)
#
#
# Indices 1 2 3 4 5 6 
#
# 1 0.013126 -0.006375 -0.004335 0.000000 0.002346 0.000000
# 2 -0.006375 0.034189 -0.005659 0.000000 0.001199 0.000000
# 3 -0.004335 -0.005659 0.009164 0.000000 -0.002687 0.000000
# 4 0.000000 0.000000 0.000000 0.031744 0.000000 0.010312
# 5 0.002346 0.001199 -0.002687 0.000000 0.026369 0.000000
# 6 0.000000 0.000000 0.000000 0.010312 0.000000 0.043283
#
#
# Mechanical properties :
#
#
# Convention : Reuss Voigt Hill
#
# Bulk Modulus (GPa) = 42.12443 71.91119 57.01781
# Shear Modulus (GPa) = 25.18552 31.82483 28.50517
#
# Velocity S-wave (km/s) = 3.54563 3.98567 3.77207
# Velocity P-wave (km/s) = 6.14725 7.55484 6.88710
#
# Compressibility (1/GPa) = 0.02373920
#
# Stress axis : x y z
#
# Youngs Moduli (GPa) = 76.18653 29.24954 109.11747
#
# Poissons Ratio (x) = 0.18648 0.47307
# Poissons Ratio (y) = 0.48573 0.61748
# Poissons Ratio (z) = 0.33030 0.16552
#
# Static dielectric constant tensor:
#      x y z
#    x 3.720230 0.000000 0.094260 
#    y 0.000000 3.670160 0.000000 
#    z 0.094260 0.000000 3.856780 
# 
# 
# High freq. dielectric constant tensor:
#      x y z
#    x 1.790770 0.000000 0.004900 
#    y 0.000000 1.776580 0.000000 
#    z 0.004900 0.000000 1.804840 
# 
# From -- ./inp_files/180694.got.cif
#   From: 2010.06.25/outbox.cif.g09.slc.cpg/sg12_91_cif.got.tgz:180694.got - 2010.06.28 00:19:55.
