data_PCOD8100878
_publ_section_title
;
Structure prediction by ZEFSAII (Michael W. Deem and Ramdas Pophale) SiO2 
 PCOD8100878
Probable space group: C 2/M
;
_chemical_formula_sum "Si O2"
_cell_formula_units_Z 64
_cell_length_a 32.902424
_cell_length_b 13.330745
_cell_length_c 7.653689
_cell_angle_alpha 90.000000
_cell_angle_beta 86.466298
_cell_angle_gamma 90.000000
_cell_volume 3350.631166
_symmetry_space_group_name_H-M "C 2/M"
_symmetry_group_IT_number 12
_symmetry_cell_setting 'monoclinic'
loop_
_space_group_symop_operation_xyz
x,y,z
-x,y,-z
-x,-y,-z
x,-y,z
1/2+x,1/2+y,z
1/2-x,1/2+y,-z
1/2-x,1/2-y,-z
1/2+x,1/2-y,z
loop_
_atom_site_type_symbol
_atom_site_label
_atom_site_fract_x
_atom_site_fract_y
_atom_site_fract_z
Si Si1 0.302878 0.390164 0.715347
Si Si2 0.052243 0.886766 0.162497
Si Si3 0.125614 0.247886 0.252138
Si Si4 0.773806 0.718437 0.163352
Si Si5 0.859496 0.618492 0.070815
Si Si6 0.539103 0.614301 0.758662
Si Si7 0.679021 0.389895 0.686974
Si Si8 0.891196 0.751645 0.349633
O O1 0.302009 0.500000 0.807292
O O2 0.334289 0.317550 0.809784
O O3 0.257449 0.346251 0.713526
O O4 0.319656 0.403015 0.518769
O O5 0.084850 0.814685 0.239097
O O6 0.008495 0.865011 0.262418
O O7 0.065635 0.000000 0.200889
O O8 0.049569 0.869621 0.957690
O O9 0.126095 0.282258 0.455815
O O10 0.125577 0.342461 0.122596
O O11 0.813257 0.651175 0.119121
O O12 0.783766 0.822439 0.257053
O O13 0.750000 0.750000 0.000000
O O14 0.862506 0.500000 0.065337
O O15 0.889387 0.656829 0.218742
O O16 0.549984 0.500000 0.698129
O O17 0.564358 0.697441 0.643011
O O18 0.680571 0.500000 0.776477
O O19 0.636476 0.335636 0.740348
#
# Coordination Sequence:
#
# PCOD8100878 Si02
#       8
#     8   8   8   8   8   8   8   8
#     4  10  20  36  55  79 110 144 184 227 273 332
#     4   9  18  32  56  90 124 156 186 223 278 337
#     4  11  21  38  59  85 113 150 189 234 281 336
#     4  11  21  37  55  80 109 142 185 229 280 334
#     4  11  24  42  59  81 112 147 191 242 290 335
#     4   9  17  32  56  89 126 157 185 222 275 341
#     4   9  20  35  54  80 111 145 180 223 275 330
#     4  10  21  37  60  84 115 149 191 229 279 340
#
# _framework density 19.100877000000001
#
# number of rings (size 3 to 8) (size 9 to 14) (size 15 to 20)
#    0.000    2.000    2.500    2.250    0.000    3.500 
#    0.000    1.250    0.000    1.500    0.000    1.750 
#    0.000    0.000    0.000    0.000    0.000    0.000 
#
# Total GULP energy -396734.089733 kJ/mol
# GULP energy per Si atom -12397.940304 kJ/mol
# Density = 1.905740 g / cm^3
# Si number density = 19.100877 Si / 1000 Ang^3
#
#
#
# Elastic Constant Matrix: (Units=GPa)
#
#
# Indices 1 2 3 4 5 6 
#
# 1 94.7571 47.5477 19.5161 0.0000 -0.5784 0.0000
# 2 47.5477 144.8897 44.6640 0.0000 1.4286 0.0000
# 3 19.5161 44.6640 58.4056 0.0000 1.0365 0.0000
# 4 0.0000 0.0000 0.0000 17.5652 0.0000 -2.9292
# 5 -0.5784 1.4286 1.0365 0.0000 26.1235 0.0000
# 6 0.0000 0.0000 0.0000 -2.9292 0.0000 26.3256
#
#
#
# Elastic Compliance Matrix: (Units=1/GPa)
#
#
# Indices 1 2 3 4 5 6 
#
# 1 0.012726 -0.003752 -0.001393 0.000000 0.000542 0.000000
# 2 -0.003752 0.010138 -0.006492 0.000000 -0.000380 0.000000
# 3 -0.001393 -0.006492 0.022562 0.000000 -0.000571 0.000000
# 4 0.000000 0.000000 0.000000 0.058007 0.000000 0.006454
# 5 0.000542 -0.000380 -0.000571 0.000000 0.038335 0.000000
# 6 0.000000 0.000000 0.000000 0.006454 0.000000 0.038704
#
#
# Mechanical properties :
#
#
# Convention : Reuss Voigt Hill
#
# Bulk Modulus (GPa) = 45.14287 57.94536 51.54411
# Shear Modulus (GPa) = 23.68192 26.42450 25.05321
#
# Velocity S-wave (km/s) = 3.52495 3.72347 3.62557
# Velocity P-wave (km/s) = 6.34447 6.99199 6.67608
#
# Compressibility (1/GPa) = 0.02215189
#
# Stress axis : x y z
#
# Youngs Moduli (GPa) = 78.57732 98.63584 44.32244
#
# Poissons Ratio (x) = 0.37012 0.06172
# Poissons Ratio (y) = 0.29485 0.28776
# Poissons Ratio (z) = 0.10942 0.64038
#
# Static dielectric constant tensor:
#      x y z
#    x 4.299850 0.000000 -0.017960 
#    y 0.000000 3.401140 0.000000 
#    z -0.017960 0.000000 3.427480 
# 
# 
# High freq. dielectric constant tensor:
#      x y z
#    x 1.743530 0.000000 -0.001370 
#    y 0.000000 1.720740 0.000000 
#    z -0.001370 0.000000 1.744000 
# 
# From -- ./inp_files/110464.got.cif
#   From: 2010.06.25/outbox.cif.g09.slc.cpg/sg12_56_cif.got.tgz:110464.got - 2010.06.28 00:19:55.
