data_PCOD8100962
_publ_section_title
;
Structure prediction by ZEFSAII (Michael W. Deem and Ramdas Pophale) SiO2 
 PCOD8100962
Probable space group: C 2/M
;
_chemical_formula_sum "Si O2"
_cell_formula_units_Z 56
_cell_length_a 14.136406
_cell_length_b 13.011739
_cell_length_c 27.823540
_cell_angle_alpha 90.000000
_cell_angle_beta 146.270755
_cell_angle_gamma 90.000000
_cell_volume 2841.778129
_symmetry_space_group_name_H-M "C 2/M"
_symmetry_group_IT_number 12
_symmetry_cell_setting 'monoclinic'
loop_
_space_group_symop_operation_xyz
x,y,z
-x,y,-z
-x,-y,-z
x,-y,z
1/2+x,1/2+y,z
1/2-x,1/2+y,-z
1/2-x,1/2-y,-z
1/2+x,1/2-y,z
loop_
_atom_site_type_symbol
_atom_site_label
_atom_site_fract_x
_atom_site_fract_y
_atom_site_fract_z
Si Si1 0.474199 0.614860 0.865864
Si Si2 0.782443 0.886332 0.117428
Si Si3 0.985379 0.618518 0.774689
Si Si4 0.347335 0.318998 0.967192
Si Si5 0.997311 0.799529 0.288751
Si Si6 0.156774 0.618574 0.599525
Si Si7 0.212892 0.244944 0.714354
O O1 0.422729 0.500000 0.859765
O O2 0.546824 0.617310 0.842633
O O3 0.308378 0.685997 0.795147
O O4 0.617042 0.658862 0.962070
O O5 0.649537 0.803904 0.040578
O O6 0.843485 0.857887 0.196522
O O7 0.699087 0.000000 0.080845
O O8 0.955251 0.500000 0.748586
O O9 0.836424 0.654622 0.747946
O O10 0.167149 0.631601 0.877539
O O11 0.979064 0.685191 0.723347
O O12 0.500000 0.368328 0.000000
O O13 0.949029 0.798693 0.324812
O O14 0.171137 0.862604 0.357568
O O15 0.146215 0.500000 0.610554
O O16 0.145458 0.686416 0.642437
O O17 0.000000 0.651099 0.500000
#
# Coordination Sequence:
#
# PCOD8100962 Si02
#       7
#     8   8   8   8   8   8   8
#     4  11  20  34  58  79 108 155 200 243 291 341
#     4  10  20  36  56  78 112 155 195 243 291 339
#     4  10  22  39  55  80 116 155 197 239 290 341
#     4  11  22  36  52  77 114 152 199 252 292 339
#     4  10  21  38  61  87 120 150 192 239 284 344
#     4  10  21  40  66  93 121 150 186 235 289 350
#     4  11  22  38  62  87 116 154 192 241 290 348
#
# _framework density 19.705973
#
# number of rings (size 3 to 8) (size 9 to 14) (size 15 to 20)
#    0.000    1.571    4.286    3.429    0.000    5.429 
#    0.000    0.000    0.000    6.857    0.000    0.000 
#    0.000    0.000    0.000    0.000    0.000    0.000 
#
# Total GULP energy -347243.447922 kJ/mol
# GULP energy per Si atom -12401.551712 kJ/mol
# Density = 1.966112 g / cm^3
# Si number density = 19.705973 Si / 1000 Ang^3
#
#
#
# Elastic Constant Matrix: (Units=GPa)
#
#
# Indices 1 2 3 4 5 6 
#
# 1 118.2239 18.7353 21.5554 0.0000 -0.8113 0.0000
# 2 18.7353 103.3523 21.6653 0.0000 -5.0745 0.0000
# 3 21.5554 21.6653 70.2969 0.0000 -8.5318 0.0000
# 4 0.0000 0.0000 0.0000 20.7228 0.0000 -2.8183
# 5 -0.8113 -5.0745 -8.5318 0.0000 13.7495 0.0000
# 6 0.0000 0.0000 0.0000 -2.8183 0.0000 13.0405
#
#
#
# Elastic Compliance Matrix: (Units=1/GPa)
#
#
# Indices 1 2 3 4 5 6 
#
# 1 0.009112 -0.001178 -0.002615 0.000000 -0.001520 0.000000
# 2 -0.001178 0.010547 -0.002623 0.000000 0.002195 0.000000
# 3 -0.002615 -0.002623 0.016978 0.000000 0.009413 0.000000
# 4 0.000000 0.000000 0.000000 0.049717 0.000000 0.010745
# 5 -0.001520 0.002195 0.009413 0.000000 0.079291 0.000000
# 6 0.000000 0.000000 0.000000 0.010745 0.000000 0.079006
#
#
# Mechanical properties :
#
#
# Convention : Reuss Voigt Hill
#
# Bulk Modulus (GPa) = 42.00963 46.19837 44.10400
# Shear Modulus (GPa) = 18.83818 24.83038 21.83428
#
# Velocity S-wave (km/s) = 3.09522 3.55356 3.33228
# Velocity P-wave (km/s) = 5.84280 6.35073 6.10205
#
# Compressibility (1/GPa) = 0.02380407
#
# Stress axis : x y z
#
# Youngs Moduli (GPa) = 109.74977 94.81543 58.89947
#
# Poissons Ratio (x) = 0.11170 0.15404
# Poissons Ratio (y) = 0.12930 0.15448
# Poissons Ratio (z) = 0.28703 0.24868
#
# Static dielectric constant tensor:
#      x y z
#    x 3.495400 0.000000 0.057610 
#    y 0.000000 3.730540 0.000000 
#    z 0.057610 0.000000 3.339190 
# 
# 
# High freq. dielectric constant tensor:
#      x y z
#    x 1.766730 0.000000 0.002280 
#    y 0.000000 1.772240 0.000000 
#    z 0.002280 0.000000 1.743190 
# 
# From -- ./inp_files/269573.got.cif
#   From: 2010.06.25/outbox.cif.g09.slc.cpg/sg12_135_cif.got.tgz:269573.got - 2010.06.28 00:19:55.
