data_PCOD8100100
_publ_section_title
;
Structure prediction by ZEFSAII (Michael W. Deem and Ramdas Pophale) SiO2 
 PCOD8100100
Probable space group: C 2/M
;
_chemical_formula_sum "Si O2"
_cell_formula_units_Z 64
_cell_length_a 29.622747
_cell_length_b 9.036140
_cell_length_c 17.519508
_cell_angle_alpha 90.000000
_cell_angle_beta 37.972287
_cell_angle_gamma 90.000000
_cell_volume 2885.380982
_symmetry_space_group_name_H-M "C 2/M"
_symmetry_group_IT_number 12
_symmetry_cell_setting 'monoclinic'
loop_
_space_group_symop_operation_xyz
x,y,z
-x,y,-z
-x,-y,-z
x,-y,z
1/2+x,1/2+y,z
1/2-x,1/2+y,-z
1/2-x,1/2-y,-z
1/2+x,1/2-y,z
loop_
_atom_site_type_symbol
_atom_site_label
_atom_site_fract_x
_atom_site_fract_y
_atom_site_fract_z
Si Si1 0.423173 0.675269 0.562694
Si Si2 0.620285 0.173736 0.702398
Si Si3 0.085827 0.173068 0.601008
Si Si4 0.308165 0.333008 0.969917
Si Si5 0.953470 0.661872 0.968307
Si Si6 0.557260 0.835937 0.184752
Si Si7 0.168355 0.175191 0.781572
Si Si8 0.778000 0.332956 0.764249
O O1 0.500000 0.733875 0.500000
O O2 0.422936 0.500000 0.570307
O O3 0.411207 0.727643 0.490834
O O4 0.348808 0.739690 0.699589
O O5 0.636270 0.240791 0.595955
O O6 0.538137 0.208923 0.842322
O O7 0.676391 0.247683 0.688000
O O8 0.634560 0.000000 0.677076
O O9 0.004578 0.212862 0.734144
O O10 0.101781 0.000000 0.586722
O O11 0.320338 0.500000 0.925183
O O12 0.286185 0.329199 0.087647
O O13 0.250000 0.250000 0.000000
O O14 0.378650 0.237173 0.852622
O O15 0.949509 0.500000 0.014021
O O16 0.913894 0.647805 0.939753
O O17 0.909753 0.778595 0.077651
O O18 0.534223 0.000000 0.246913
O O19 0.238506 0.226883 0.739270
O O20 0.167813 0.000000 0.772983
O O21 0.805780 0.500000 0.714600
#
# Coordination Sequence:
#
# PCOD8100100 Si02
#       8
#     8   8   8   8   8   8   8   8
#     4  10  24  45  68  93 118 153 202 254 309 366
#     4  10  21  36  56  87 122 160 207 250 298 362
#     4  10  21  39  62  89 122 158 202 255 306 358
#     4  11  23  39  58  87 124 161 202 248 304 366
#     4   9  18  32  51  79 119 161 200 241 287 350
#     4  10  20  35  57  87 121 161 200 242 300 361
#     4  11  21  35  56  85 121 160 203 249 302 361
#     4  10  24  43  62  90 124 160 205 253 303 364
#
# _framework density 22.180778
#
# number of rings (size 3 to 8) (size 9 to 14) (size 15 to 20)
#    0.000    1.875    1.250    3.000    1.750    7.250 
#    0.000    0.625    0.000    0.000    0.000    0.000 
#    0.000    0.000    0.000    0.000    0.000    0.000 
#
# Total GULP energy -396436.149215 kJ/mol
# GULP energy per Si atom -12388.629663 kJ/mol
# Density = 2.213029 g / cm^3
# Si number density = 22.180778 Si / 1000 Ang^3
#
#
#
# Elastic Constant Matrix: (Units=GPa)
#
#
# Indices 1 2 3 4 5 6 
#
# 1 100.8911 34.3439 -2.0266 0.0034 1.7106 0.0032
# 2 34.3439 83.3078 11.2164 0.0306 3.5178 0.0049
# 3 -2.0266 11.2164 19.2884 0.0151 1.6754 0.0014
# 4 0.0034 0.0306 0.0151 24.1280 -0.0021 -0.7472
# 5 1.7106 3.5178 1.6754 -0.0021 25.2929 -0.0031
# 6 0.0032 0.0049 0.0014 -0.7472 -0.0031 33.7005
#
#
#
# Elastic Compliance Matrix: (Units=1/GPa)
#
#
# Indices 1 2 3 4 5 6 
#
# 1 0.011873 -0.005482 0.004464 0.000002 -0.000336 -0.000001
# 2 -0.005482 0.015598 -0.009545 -0.000013 -0.001166 -0.000002
# 3 0.004464 -0.009545 0.058110 -0.000025 -0.002824 -0.000002
# 4 0.000002 -0.000013 -0.000025 0.041474 0.000007 0.000920
# 5 -0.000336 -0.001166 -0.002824 0.000007 0.039909 0.000004
# 6 -0.000001 -0.000002 -0.000002 0.000920 0.000004 0.029694
#
#
# Mechanical properties :
#
#
# Convention : Reuss Voigt Hill
#
# Bulk Modulus (GPa) = 15.51447 32.28385 23.89916
# Shear Modulus (GPa) = 20.89720 27.28786 24.09253
#
# Velocity S-wave (km/s) = 3.07275 3.51129 3.29931
# Velocity P-wave (km/s) = 4.42705 5.57004 5.03111
#
# Compressibility (1/GPa) = 0.06445595
#
# Stress axis : x y z
#
# Youngs Moduli (GPa) = 84.22479 64.11150 17.20888
#
# Poissons Ratio (x) = 0.35143 -0.07682
# Poissons Ratio (y) = 0.46168 0.16426
# Poissons Ratio (z) = -0.37600 0.61194
#
# Static dielectric constant tensor:
#      x y z
#    x 4.281670 -0.000010 0.541690 
#    y -0.000010 4.065280 0.000020 
#    z 0.541690 0.000020 1.443510 
# 
# 
# High freq. dielectric constant tensor:
#      x y z
#    x 1.891010 0.000000 0.006400 
#    y 0.000000 1.869520 0.000000 
#    z 0.006400 0.000000 1.843420 
# 
# From -- ./inp_files/295605.got.cif
#   From: 2010.06.25/outbox.cif.g09.slc.cpg/sg12_148_cif.got.tgz:295605.got - 2010.06.28 00:19:55.
