data_PCOD8100499
_publ_section_title
;
Structure prediction by ZEFSAII (Michael W. Deem and Ramdas Pophale) SiO2 
 PCOD8100499
Probable space group: C 2/M
;
_chemical_formula_sum "Si O2"
_cell_formula_units_Z 56
_cell_length_a 11.280526
_cell_length_b 13.453145
_cell_length_c 24.811627
_cell_angle_alpha 90.000000
_cell_angle_beta 46.315910
_cell_angle_gamma 90.000000
_cell_volume 2722.965829
_symmetry_space_group_name_H-M "C 2/M"
_symmetry_group_IT_number 12
_symmetry_cell_setting 'monoclinic'
loop_
_space_group_symop_operation_xyz
x,y,z
-x,y,-z
-x,-y,-z
x,-y,z
1/2+x,1/2+y,z
1/2-x,1/2+y,-z
1/2-x,1/2-y,-z
1/2+x,1/2-y,z
loop_
_atom_site_type_symbol
_atom_site_label
_atom_site_fract_x
_atom_site_fract_y
_atom_site_fract_z
Si Si1 0.126282 0.113966 0.574067
Si Si2 0.982208 0.614738 0.846806
Si Si3 0.225461 0.319206 0.576619
Si Si4 0.361747 0.886741 0.689771
Si Si5 0.214346 0.885810 0.852055
Si Si6 0.226027 0.816175 0.317579
Si Si7 0.058939 0.740301 0.042996
O O1 0.240932 0.198411 0.565876
O O2 0.143285 0.128947 0.504130
O O3 0.944141 0.140299 0.651317
O O4 0.171923 0.000000 0.576222
O O5 0.950015 0.500000 0.860321
O O6 0.137891 0.634801 0.761528
O O7 0.819579 0.660740 0.868764
O O8 0.010603 0.651684 0.898459
O O9 0.260464 0.353067 0.625833
O O10 0.048894 0.363528 0.616705
O O11 0.322535 0.868876 0.764806
O O12 0.257302 0.804378 0.690035
O O13 0.316716 0.000000 0.686433
O O14 0.034515 0.838086 0.906638
O O15 0.177568 0.000000 0.872950
O O16 0.250000 0.750000 0.000000
O O17 0.000000 0.718578 0.000000
#
# Coordination Sequence:
#
# PCOD8100499 Si02
#       7
#     8   8   8   8   8   8   8
#     4  10  22  37  54  83 121 161 205 255 312 362
#     4  11  23  40  64  93 126 166 210 258 316 377
#     4  10  21  36  56  83 119 161 205 256 304 366
#     4  10  20  35  59  88 117 155 203 251 303 370
#     4  10  21  40  66  92 122 166 212 252 309 386
#     4  11  21  36  60  87 121 156 205 256 306 363
#     4  12  25  43  68  96 131 165 208 263 322 383
#
# _framework density 20.565811
#
# number of rings (size 3 to 8) (size 9 to 14) (size 15 to 20)
#    0.000    1.429    4.286    1.286    0.000    4.000 
#    0.000    0.000    0.000    7.714    0.000    0.000 
#    0.000    0.000    0.000    0.000    0.000    0.000 
#
# Total GULP energy -346978.747099 kJ/mol
# GULP energy per Si atom -12392.098111 kJ/mol
# Density = 2.051900 g / cm^3
# Si number density = 20.565811 Si / 1000 Ang^3
#
#
#
# Elastic Constant Matrix: (Units=GPa)
#
#
# Indices 1 2 3 4 5 6 
#
# 1 69.9488 11.2388 44.6003 -0.0001 -3.5174 0.0000
# 2 11.2388 76.7176 33.2551 -0.0001 0.4310 0.0000
# 3 44.6003 33.2551 106.3207 0.0000 0.1697 0.0000
# 4 -0.0001 -0.0001 0.0000 16.8509 0.0001 -4.3708
# 5 -3.5174 0.4310 0.1697 0.0001 24.0535 0.0000
# 6 0.0000 0.0000 0.0000 -4.3708 0.0000 22.8743
#
#
#
# Elastic Compliance Matrix: (Units=1/GPa)
#
#
# Indices 1 2 3 4 5 6 
#
# 1 0.019764 0.000791 -0.008543 0.000000 0.002936 0.000000
# 2 0.000791 0.015112 -0.005059 0.000000 -0.000119 0.000000
# 3 -0.008543 -0.005059 0.014573 0.000000 -0.001261 0.000000
# 4 0.000000 0.000000 0.000000 0.062439 0.000000 0.011931
# 5 0.002936 -0.000119 -0.001261 0.000000 0.042014 0.000000
# 6 0.000000 0.000000 0.000000 0.011931 0.000000 0.045997
#
#
# Mechanical properties :
#
#
# Convention : Reuss Voigt Hill
#
# Bulk Modulus (GPa) = 41.96541 47.90839 44.93690
# Shear Modulus (GPa) = 21.41669 23.68193 22.54931
#
# Velocity S-wave (km/s) = 3.23053 3.39709 3.31486
# Velocity P-wave (km/s) = 5.86215 6.22356 6.04556
#
# Compressibility (1/GPa) = 0.02382915
#
# Stress axis : x y z
#
# Youngs Moduli (GPa) = 50.59779 66.17107 68.61820
#
# Poissons Ratio (x) = -0.05236 0.58619
# Poissons Ratio (y) = -0.04004 0.34711
# Poissons Ratio (z) = 0.43225 0.33473
#
# Static dielectric constant tensor:
#      x y z
#    x 3.992810 0.000000 -0.018010 
#    y 0.000000 3.927510 0.000000 
#    z -0.018010 0.000000 3.876880 
# 
# 
# High freq. dielectric constant tensor:
#      x y z
#    x 1.779720 0.000000 -0.002750 
#    y 0.000000 1.803040 0.000000 
#    z -0.002750 0.000000 1.821560 
# 
# From -- ./inp_files/357746.got.cif
#   From: 2010.06.25/outbox.cif.g09.slc.cpg/sg12_179_cif.got.tgz:357746.got - 2010.06.28 00:19:55.
