data_PCOD8100603
_publ_section_title
;
Structure prediction by ZEFSAII (Michael W. Deem and Ramdas Pophale) SiO2 
 PCOD8100603
Probable space group: C 2/M
;
_chemical_formula_sum "Si O2"
_cell_formula_units_Z 40
_cell_length_a 29.205027
_cell_length_b 14.078651
_cell_length_c 9.366601
_cell_angle_alpha 90.000000
_cell_angle_beta 148.042435
_cell_angle_gamma 90.000000
_cell_volume 2038.427214
_symmetry_space_group_name_H-M "C 2/M"
_symmetry_group_IT_number 12
_symmetry_cell_setting 'monoclinic'
loop_
_space_group_symop_operation_xyz
x,y,z
-x,y,-z
-x,-y,-z
x,-y,z
1/2+x,1/2+y,z
1/2-x,1/2+y,-z
1/2-x,1/2-y,-z
1/2+x,1/2-y,z
loop_
_atom_site_type_symbol
_atom_site_label
_atom_site_fract_x
_atom_site_fract_y
_atom_site_fract_z
Si Si1 0.299958 0.891354 0.240435
Si Si2 0.609882 0.601808 0.676327
Si Si3 0.754491 0.766508 0.343824
Si Si4 0.415855 0.606632 0.709328
Si Si5 0.404517 0.198873 0.265859
O O1 0.281194 0.831711 0.335067
O O2 0.370759 0.839552 0.328792
O O3 0.328661 0.000000 0.353992
O O4 0.212648 0.891415 0.917023
O O5 0.589384 0.500000 0.698165
O O6 0.563363 0.607218 0.402560
O O7 0.578909 0.687843 0.691456
O O8 0.750000 0.750000 0.500000
O O9 0.829221 0.841037 0.519274
O O10 0.665330 0.814928 0.046678
O O11 0.406103 0.500000 0.743514
O O12 0.500000 0.657151 0.000000
O O13 0.500000 0.151034 0.500000
#
# Coordination Sequence:
#
# PCOD8100603 Si02
#       5
#     8   8   8   8   8
#     4  10  20  40  62  82 115 158 204 245 287 347
#     4   9  17  35  60  83 112 151 193 243 293 345
#     4  11  23  38  60  89 122 156 194 246 305 355
#     4  10  20  35  60  87 115 150 188 238 302 355
#     4  11  22  37  59  89 119 160 203 241 293 353
#
# _framework density 19.622973000000002
#
# number of rings (size 3 to 8) (size 9 to 14) (size 15 to 20)
#    0.000    1.800    4.000    1.200    2.800    1.600 
#    0.000    0.000    0.000    4.200    0.000    0.000 
#    0.000    0.000    0.000    0.000    0.000    0.000 
#
# Total GULP energy -247792.704884 kJ/mol
# GULP energy per Si atom -12389.635244 kJ/mol
# Density = 1.957831 g / cm^3
# Si number density = 19.622973 Si / 1000 Ang^3
#
#
#
# Elastic Constant Matrix: (Units=GPa)
#
#
# Indices 1 2 3 4 5 6 
#
# 1 95.0189 24.2956 56.4679 0.0000 -2.5345 0.0000
# 2 24.2956 84.8358 39.8738 0.0000 0.7965 0.0000
# 3 56.4679 39.8738 146.1102 0.0000 8.1939 0.0000
# 4 0.0000 0.0000 0.0000 20.0743 0.0000 -7.0190
# 5 -2.5345 0.7965 8.1939 0.0000 35.4311 0.0000
# 6 0.0000 0.0000 0.0000 -7.0190 0.0000 4.1726
#
#
#
# Elastic Compliance Matrix: (Units=1/GPa)
#
#
# Indices 1 2 3 4 5 6 
#
# 1 0.014034 -0.001643 -0.005100 0.000000 0.002220 0.000000
# 2 -0.001643 0.013725 -0.003127 0.000000 0.000297 0.000000
# 3 -0.005100 -0.003127 0.009812 0.000000 -0.002564 0.000000
# 4 0.000000 0.000000 0.000000 0.120962 0.000000 0.203481
# 5 0.002220 0.000297 -0.002564 0.000000 0.028969 0.000000
# 6 0.000000 0.000000 0.000000 0.203481 0.000000 0.581954
#
#
# Mechanical properties :
#
#
# Convention : Reuss Voigt Hill
#
# Bulk Modulus (GPa) = 56.08150 63.02661 59.55405
# Shear Modulus (GPa) = 6.28819 25.62409 15.95614
#
# Velocity S-wave (km/s) = 1.79206 3.61753 2.85465
# Velocity P-wave (km/s) = 5.73790 7.04537 6.42498
#
# Compressibility (1/GPa) = 0.01783119
#
# Stress axis : x y z
#
# Youngs Moduli (GPa) = 71.25332 72.85929 101.91158
#
# Poissons Ratio (x) = 0.11971 0.51976
# Poissons Ratio (y) = 0.11707 0.31871
# Poissons Ratio (z) = 0.36340 0.22785
#
# Static dielectric constant tensor:
#      x y z
#    x 4.108680 0.000000 -0.540230 
#    y 0.000000 3.834500 0.000000 
#    z -0.540230 0.000000 4.259160 
# 
# 
# High freq. dielectric constant tensor:
#      x y z
#    x 1.747060 0.000000 0.009750 
#    y 0.000000 1.762110 0.000000 
#    z 0.009750 0.000000 1.768130 
# 
# From -- ./inp_files/71221.got.cif
#   From: 2010.06.25/outbox.cif.g09.slc.cpg/sg12_36_cif.got.tgz:71221.got - 2010.06.28 00:19:55.
