data_PCOD8100466
_publ_section_title
;
Structure prediction by ZEFSAII (Michael W. Deem and Ramdas Pophale) SiO2 
 PCOD8100466
Probable space group: C 2/M
;
_chemical_formula_sum "Si O2"
_cell_formula_units_Z 56
_cell_length_a 25.172336
_cell_length_b 9.301785
_cell_length_c 17.765139
_cell_angle_alpha 90.000000
_cell_angle_beta 44.095770
_cell_angle_gamma 90.000000
_cell_volume 2894.544034
_symmetry_space_group_name_H-M "C 2/M"
_symmetry_group_IT_number 12
_symmetry_cell_setting 'monoclinic'
loop_
_space_group_symop_operation_xyz
x,y,z
-x,y,-z
-x,-y,-z
x,-y,z
1/2+x,1/2+y,z
1/2-x,1/2+y,-z
1/2-x,1/2-y,-z
1/2+x,1/2-y,z
loop_
_atom_site_type_symbol
_atom_site_label
_atom_site_fract_x
_atom_site_fract_y
_atom_site_fract_z
Si Si1 0.081074 0.832153 0.880993
Si Si2 0.418277 0.330618 0.556510
Si Si3 0.159228 0.344016 0.244149
Si Si4 0.165163 0.168345 0.509240
Si Si5 0.841576 0.331077 0.330953
Si Si6 0.661482 0.341407 0.945870
Si Si7 0.671807 0.166230 0.070309
O O1 0.100604 0.738735 0.787801
O O2 0.142075 0.787177 0.882274
O O3 0.085906 0.000000 0.853897
O O4 0.000000 0.792244 0.000000
O O5 0.500000 0.266271 0.500000
O O6 0.420328 0.500000 0.556195
O O7 0.358533 0.280377 0.679611
O O8 0.389782 0.279597 0.503345
O O9 0.131516 0.500000 0.303165
O O10 0.248557 0.348133 0.138899
O O11 0.123045 0.316062 0.197566
O O12 0.141038 0.260485 0.605921
O O13 0.253482 0.198711 0.397425
O O14 0.153621 0.000000 0.538740
O O15 0.858545 0.500000 0.318922
O O16 0.625094 0.500000 0.995255
O O17 0.626614 0.236287 0.045594
O O18 0.688562 0.000000 0.035525
O O19 0.750000 0.250000 0.000000
#
# Coordination Sequence:
#
# PCOD8100466 Si02
#       7
#     8   8   8   8   8   8   8
#     4  10  21  37  55  78 111 148 181 219 274 333
#     4  10  21  36  53  77 106 138 177 217 263 321
#     4   9  18  32  51  75 103 135 172 216 262 308
#     4   9  19  37  59  82 110 141 180 229 277 326
#     4  10  20  35  59  87 109 139 184 232 277 322
#     4   9  18  33  53  77 103 136 180 220 259 313
#     4   9  17  30  49  75 104 133 169 212 257 305
#
# _framework density 19.346741999999999
#
# number of rings (size 3 to 8) (size 9 to 14) (size 15 to 20)
#    0.000    2.571    0.000    2.571    0.000    5.143 
#    2.571    0.000    0.000    0.000    0.000    0.000 
#    0.000    0.000    0.000    0.000    0.000    0.000 
#
# Total GULP energy -347002.578966 kJ/mol
# GULP energy per Si atom -12392.949249 kJ/mol
# Density = 1.930271 g / cm^3
# Si number density = 19.346742 Si / 1000 Ang^3
#
#
#
# Elastic Constant Matrix: (Units=GPa)
#
#
# Indices 1 2 3 4 5 6 
#
# 1 101.0361 48.5097 57.4499 0.0019 25.6158 -0.0037
# 2 48.5097 78.9222 61.2032 -0.0011 20.2753 -0.0068
# 3 57.4499 61.2032 116.6561 -0.0015 29.3330 0.0001
# 4 0.0019 -0.0011 -0.0015 34.1356 0.0012 12.3703
# 5 25.6158 20.2753 29.3330 0.0012 26.6799 0.0004
# 6 -0.0037 -0.0068 0.0001 12.3703 0.0004 22.4245
#
#
#
# Elastic Compliance Matrix: (Units=1/GPa)
#
#
# Indices 1 2 3 4 5 6 
#
# 1 0.016399 -0.005592 -0.003112 -0.000002 -0.008074 0.000002
# 2 -0.005592 0.023849 -0.009054 -0.000002 -0.002800 0.000007
# 3 -0.003112 -0.009054 0.017101 0.000003 -0.008933 -0.000005
# 4 -0.000002 -0.000002 0.000003 0.036614 -0.000001 -0.020198
# 5 -0.008074 -0.002800 -0.008933 -0.000001 0.057183 -0.000003
# 6 0.000002 0.000007 -0.000005 -0.020198 -0.000003 0.055736
#
#
# Mechanical properties :
#
#
# Convention : Reuss Voigt Hill
#
# Bulk Modulus (GPa) = 45.80362 70.10443 57.95403
# Shear Modulus (GPa) = 20.02603 25.27812 22.65208
#
# Velocity S-wave (km/s) = 3.22080 3.61859 3.42548
# Velocity P-wave (km/s) = 6.12845 7.33303 6.75764
#
# Compressibility (1/GPa) = 0.02183234
#
# Stress axis : x y z
#
# Youngs Moduli (GPa) = 60.98039 41.93132 58.47552
#
# Poissons Ratio (x) = 0.23448 0.18197
# Poissons Ratio (y) = 0.34101 0.52944
# Poissons Ratio (z) = 0.18977 0.37964
#
# Static dielectric constant tensor:
#      x y z
#    x 3.859110 0.000000 0.373170 
#    y 0.000000 3.684230 -0.000010 
#    z 0.373170 -0.000010 3.511370 
# 
# 
# High freq. dielectric constant tensor:
#      x y z
#    x 1.750210 0.000000 0.025500 
#    y 0.000000 1.751020 0.000000 
#    z 0.025500 0.000000 1.738210 
# 
# From -- ./inp_files/288473.got.cif
#   From: 2010.06.25/outbox.cif.g09.slc.cpg/sg12_145_cif.got.tgz:288473.got - 2010.06.28 00:19:55.
