data_PCOD8100558
_publ_section_title
;
Structure prediction by ZEFSAII (Michael W. Deem and Ramdas Pophale) SiO2 
 PCOD8100558
Probable space group: C 2/M
;
_chemical_formula_sum "Si O2"
_cell_formula_units_Z 64
_cell_length_a 15.457887
_cell_length_b 8.978231
_cell_length_c 28.159862
_cell_angle_alpha 90.000000
_cell_angle_beta 56.128905
_cell_angle_gamma 90.000000
_cell_volume 3244.913261
_symmetry_space_group_name_H-M "C 2/M"
_symmetry_group_IT_number 12
_symmetry_cell_setting 'monoclinic'
loop_
_space_group_symop_operation_xyz
x,y,z
-x,y,-z
-x,-y,-z
x,-y,z
1/2+x,1/2+y,z
1/2-x,1/2+y,-z
1/2-x,1/2-y,-z
1/2+x,1/2-y,z
loop_
_atom_site_type_symbol
_atom_site_label
_atom_site_fract_x
_atom_site_fract_y
_atom_site_fract_z
Si Si1 0.792089 0.324775 0.873066
Si Si2 0.426081 0.829623 0.067553
Si Si3 0.307440 0.323834 0.438839
Si Si4 0.082882 0.671779 0.257425
Si Si5 0.795491 0.670768 0.627372
Si Si6 0.091125 0.831982 0.742743
Si Si7 0.975990 0.826995 0.872325
Si Si8 0.544414 0.675094 0.362992
O O1 0.793519 0.500000 0.883963
O O2 0.677047 0.261315 0.914074
O O3 0.827435 0.292631 0.808262
O O4 0.868371 0.243342 0.886684
O O5 0.487182 0.757188 0.092392
O O6 0.397232 0.000000 0.088884
O O7 0.500000 0.821290 0.000000
O O8 0.303722 0.500000 0.445832
O O9 0.250000 0.250000 0.500000
O O10 0.252164 0.271741 0.407401
O O11 0.426124 0.266719 0.400775
O O12 0.080657 0.500000 0.271956
O O13 0.104371 0.762941 0.298552
O O14 0.971910 0.715804 0.269563
O O15 0.829788 0.500000 0.612512
O O16 0.712647 0.692748 0.695427
O O17 0.897266 0.767189 0.607833
O O18 0.067672 0.807596 0.805417
O O19 0.058417 0.000000 0.737144
O O20 0.956391 0.000000 0.890004
O O21 0.549340 0.500000 0.359946
#
# Coordination Sequence:
#
# PCOD8100558 Si02
#       8
#     8   8   8   8   8   8   8   8
#     4  10  22  40  62  90 123 160 203 251 303 361
#     4  11  25  43  62  87 121 162 208 254 301 360
#     4  10  23  43  64  84 118 160 201 248 297 348
#     4  10  20  35  59  90 123 157 197 243 296 358
#     4  10  21  39  60  87 122 159 197 243 297 355
#     4   9  18  36  60  86 123 158 193 242 298 357
#     4  10  21  38  63  92 122 160 200 249 307 360
#     4  11  23  39  59  89 122 158 199 245 299 354
#
# _framework density 19.723177
#
# number of rings (size 3 to 8) (size 9 to 14) (size 15 to 20)
#    0.000    1.875    1.250    1.875    1.750    6.000 
#    0.000    2.500    0.000    0.000    0.000    0.000 
#    0.000    0.000    0.000    0.000    0.000    0.000 
#
# Total GULP energy -396901.402224 kJ/mol
# GULP energy per Si atom -12403.168820 kJ/mol
# Density = 1.967829 g / cm^3
# Si number density = 19.723177 Si / 1000 Ang^3
#
#
#
# Elastic Constant Matrix: (Units=GPa)
#
#
# Indices 1 2 3 4 5 6 
#
# 1 138.6607 51.7836 57.2642 0.0000 6.5999 0.0000
# 2 51.7836 82.0155 46.8084 0.0000 1.7086 0.0000
# 3 57.2642 46.8084 89.6056 0.0000 8.3766 0.0000
# 4 0.0000 0.0000 0.0000 31.4149 0.0000 1.1422
# 5 6.5999 1.7086 8.3766 0.0000 21.3627 0.0000
# 6 0.0000 0.0000 0.0000 1.1422 0.0000 39.2331
#
#
#
# Elastic Compliance Matrix: (Units=1/GPa)
#
#
# Indices 1 2 3 4 5 6 
#
# 1 0.010694 -0.004118 -0.004573 0.000000 -0.001182 0.000000
# 2 -0.004118 0.019063 -0.007581 0.000000 0.002720 0.000000
# 3 -0.004573 -0.007581 0.018533 0.000000 -0.005248 0.000000
# 4 0.000000 0.000000 0.000000 0.031866 0.000000 -0.000928
# 5 -0.001182 0.002720 -0.005248 0.000000 0.049016 0.000000
# 6 0.000000 0.000000 0.000000 -0.000928 0.000000 0.025516
#
#
# Mechanical properties :
#
#
# Convention : Reuss Voigt Hill
#
# Bulk Modulus (GPa) = 63.50337 69.11046 66.30692
# Shear Modulus (GPa) = 25.97681 28.69717 27.33699
#
# Velocity S-wave (km/s) = 3.63308 3.81858 3.72699
# Velocity P-wave (km/s) = 7.06161 7.38636 7.22581
#
# Compressibility (1/GPa) = 0.01574720
#
# Stress axis : x y z
#
# Youngs Moduli (GPa) = 93.50639 52.45885 53.95762
#
# Poissons Ratio (x) = 0.21602 0.24675
# Poissons Ratio (y) = 0.38504 0.40903
# Poissons Ratio (z) = 0.42760 0.39767
#
# Static dielectric constant tensor:
#      x y z
#    x 3.589850 0.000000 0.012160 
#    y 0.000000 3.652030 0.000000 
#    z 0.012160 0.000000 3.609560 
# 
# 
# High freq. dielectric constant tensor:
#      x y z
#    x 1.772710 0.000000 0.001880 
#    y 0.000000 1.773560 0.000000 
#    z 0.001880 0.000000 1.765830 
# 
# From -- ./inp_files/338783.got.cif
#   From: 2010.06.25/outbox.cif.g09.slc.cpg/sg12_170_cif.got.tgz:338783.got - 2010.06.28 00:19:55.
