data_PCOD8100775
_publ_section_title
;
Structure prediction by ZEFSAII (Michael W. Deem and Ramdas Pophale) SiO2 
 PCOD8100775
Probable space group: C 2/M
;
_chemical_formula_sum "Si O2"
_cell_formula_units_Z 56
_cell_length_a 12.191442
_cell_length_b 16.267057
_cell_length_c 17.779112
_cell_angle_alpha 90.000000
_cell_angle_beta 53.279278
_cell_angle_gamma 90.000000
_cell_volume 2826.245410
_symmetry_space_group_name_H-M "C 2/M"
_symmetry_group_IT_number 12
_symmetry_cell_setting 'monoclinic'
loop_
_space_group_symop_operation_xyz
x,y,z
-x,y,-z
-x,-y,-z
x,-y,z
1/2+x,1/2+y,z
1/2-x,1/2+y,-z
1/2-x,1/2-y,-z
1/2+x,1/2-y,z
loop_
_atom_site_type_symbol
_atom_site_label
_atom_site_fract_x
_atom_site_fract_y
_atom_site_fract_z
Si Si1 0.565057 0.903791 0.667988
Si Si2 0.788815 0.657826 0.965487
Si Si3 0.408747 0.097413 0.177268
Si Si4 0.619881 0.401818 0.725540
Si Si5 0.358148 0.902155 0.522161
Si Si6 0.261644 0.902533 0.816945
Si Si7 0.319436 0.405935 0.840143
O O1 0.639060 0.884552 0.717094
O O2 0.648537 0.869195 0.561625
O O3 0.411118 0.868550 0.732649
O O4 0.551790 0.000000 0.660104
O O5 0.718940 0.635601 0.914559
O O6 0.951766 0.645178 0.897210
O O7 0.750000 0.750000 0.000000
O O8 0.727020 0.599607 0.054819
O O9 0.291777 0.134427 0.170591
O O10 0.434803 0.000000 0.154264
O O11 0.618730 0.500000 0.723559
O O12 0.728959 0.365586 0.621028
O O13 0.657463 0.373586 0.794851
O O14 0.469732 0.365148 0.767833
O O15 0.500000 0.870909 0.500000
O O16 0.350580 0.000000 0.530472
O O17 0.264380 0.000000 0.825693
O O18 0.330901 0.500000 0.811652
#
# Coordination Sequence:
#
# PCOD8100775 Si02
#       7
#     8   8   8   8   8   8   8
#     4   8  13  23  45  75 102 129 165 208 249 292
#     4  11  22  35  51  76  99 126 173 224 268 302
#     4   9  18  35  57  74  98 140 181 209 243 306
#     4   9  17  28  46  75 108 137 164 201 253 308
#     4   9  13  21  42  74 109 135 157 198 253 303
#     4   9  16  30  50  74 103 135 170 208 256 307
#     4  10  20  36  53  71 101 142 179 208 247 305
#
# _framework density 19.814271999999999
#
# number of rings (size 3 to 8) (size 9 to 14) (size 15 to 20)
#    0.000    2.714    1.429    2.571    0.000    1.714 
#    5.143    2.857    0.000    4.286    0.000    4.000 
#    8.571    0.000    0.000    0.000    0.000    0.000 
#
# Total GULP energy -347007.444497 kJ/mol
# GULP energy per Si atom -12393.123018 kJ/mol
# Density = 1.976917 g / cm^3
# Si number density = 19.814272 Si / 1000 Ang^3
#
#
#
# Elastic Constant Matrix: (Units=GPa)
#
#
# Indices 1 2 3 4 5 6 
#
# 1 149.2658 24.3421 94.9192 0.0000 -0.8492 0.0000
# 2 24.3421 25.0243 16.4506 0.0000 3.3635 0.0000
# 3 94.9192 16.4506 163.5016 -0.0001 14.5306 0.0000
# 4 0.0000 0.0000 -0.0001 5.1962 0.0001 -0.3372
# 5 -0.8492 3.3635 14.5306 0.0001 29.5606 0.0000
# 6 0.0000 0.0000 0.0000 -0.3372 0.0000 8.4802
#
#
#
# Elastic Compliance Matrix: (Units=1/GPa)
#
#
# Indices 1 2 3 4 5 6 
#
# 1 0.012363 -0.008201 -0.006762 0.000000 0.004612 0.000000
# 2 -0.008201 0.048467 0.000413 0.000000 -0.005953 0.000000
# 3 -0.006762 0.000413 0.010479 0.000000 -0.005392 0.000000
# 4 0.000000 0.000000 0.000000 0.192948 0.000000 0.007673
# 5 0.004612 -0.005953 -0.005392 0.000000 0.037289 0.000000
# 6 0.000000 0.000000 0.000000 0.007673 0.000000 0.118226
#
#
# Mechanical properties :
#
#
# Convention : Reuss Voigt Hill
#
# Bulk Modulus (GPa) = 23.69073 67.69061 45.69067
# Shear Modulus (GPa) = 10.80050 22.11939 16.45994
#
# Velocity S-wave (km/s) = 2.33724 3.34479 2.88533
# Velocity P-wave (km/s) = 4.38930 7.01096 5.84891
#
# Compressibility (1/GPa) = 0.04221061
#
# Stress axis : x y z
#
# Youngs Moduli (GPa) = 80.88592 20.63276 95.42515
#
# Poissons Ratio (x) = 0.16920 0.64527
# Poissons Ratio (y) = 0.66332 -0.03946
# Poissons Ratio (z) = 0.54695 -0.00853
#
# Static dielectric constant tensor:
#      x y z
#    x 3.865120 0.000000 0.131490 
#    y 0.000000 2.945560 0.000000 
#    z 0.131490 0.000000 3.947650 
# 
# 
# High freq. dielectric constant tensor:
#      x y z
#    x 1.773690 0.000000 0.013300 
#    y 0.000000 1.710250 0.000000 
#    z 0.013300 0.000000 1.778930 
# 
# From -- ./inp_files/264784.got.cif
#   From: 2010.06.25/outbox.cif.g09.slc.cpg/sg12_133_cif.got.tgz:264784.got - 2010.06.28 00:19:55.
