data_PCOD8100526
_publ_section_title
;
Structure prediction by ZEFSAII (Michael W. Deem and Ramdas Pophale) SiO2 
 PCOD8100526
Probable space group: C 2/M
;
_chemical_formula_sum "Si O2"
_cell_formula_units_Z 48
_cell_length_a 29.760444
_cell_length_b 8.666471
_cell_length_c 14.793206
_cell_angle_alpha 90.000000
_cell_angle_beta 140.142449
_cell_angle_gamma 90.000000
_cell_volume 2445.239774
_symmetry_space_group_name_H-M "C 2/M"
_symmetry_group_IT_number 12
_symmetry_cell_setting 'monoclinic'
loop_
_space_group_symop_operation_xyz
x,y,z
-x,y,-z
-x,-y,-z
x,-y,z
1/2+x,1/2+y,z
1/2-x,1/2+y,-z
1/2-x,1/2-y,-z
1/2+x,1/2-y,z
loop_
_atom_site_type_symbol
_atom_site_label
_atom_site_fract_x
_atom_site_fract_y
_atom_site_fract_z
Si Si1 0.595727 0.821276 0.310244
Si Si2 0.717780 0.178558 0.636917
Si Si3 0.633782 0.820405 0.165632
Si Si4 0.350562 0.820771 0.110211
Si Si5 0.048976 0.820748 0.874822
Si Si6 0.298142 0.679118 0.203622
O O1 0.663739 0.783703 0.474186
O O2 0.613030 0.775120 0.234731
O O3 0.532990 0.716600 0.249409
O O4 0.574032 0.000000 0.284403
O O5 0.785413 0.283219 0.726054
O O6 0.682411 0.223196 0.677625
O O7 0.739677 0.000000 0.670757
O O8 0.621596 0.000000 0.126605
O O9 0.583851 0.724260 0.023319
O O10 0.417912 0.772883 0.157000
O O11 0.350161 0.727645 0.203462
O O12 0.353579 0.000000 0.138664
O O13 0.281723 0.780159 0.945895
O O14 0.060933 0.000000 0.875261
O O15 0.308286 0.500000 0.240211
#
# Coordination Sequence:
#
# PCOD8100526 Si02
#       6
#     8   8   8   8   8   8
#     4  10  24  42  59  83 120 161 198 240 295 350
#     4  11  22  38  61  89 120 155 196 243 292 348
#     4  11  22  39  62  86 116 157 201 245 291 345
#     4  10  20  36  60  87 118 153 191 240 292 345
#     4  12  24  38  60  89 120 154 197 246 293 347
#     4  10  20  35  59  89 119 152 191 239 291 345
#
# _framework density 19.629975000000002
#
# number of rings (size 3 to 8) (size 9 to 14) (size 15 to 20)
#    0.000    1.333    1.667    4.500    0.000    6.000 
#    0.000    0.833    0.000    5.000    0.000    0.000 
#    0.000    0.000    0.000    0.000    0.000    0.000 
#
# Total GULP energy -297783.137670 kJ/mol
# GULP energy per Si atom -12407.630736 kJ/mol
# Density = 1.958530 g / cm^3
# Si number density = 19.629975 Si / 1000 Ang^3
#
#
#
# Elastic Constant Matrix: (Units=GPa)
#
#
# Indices 1 2 3 4 5 6 
#
# 1 98.9223 10.4491 10.9996 0.0000 -6.3603 0.0000
# 2 10.4491 48.2499 11.6447 0.0000 -0.0526 0.0000
# 3 10.9996 11.6447 33.5422 0.0000 8.6502 0.0000
# 4 0.0000 0.0000 0.0000 29.9892 0.0000 0.8827
# 5 -6.3603 -0.0526 8.6502 0.0000 8.8815 0.0000
# 6 0.0000 0.0000 0.0000 0.8827 0.0000 35.4352
#
#
#
# Elastic Compliance Matrix: (Units=1/GPa)
#
#
# Indices 1 2 3 4 5 6 
#
# 1 0.012127 -0.000681 -0.007984 0.000000 0.016457 0.000000
# 2 -0.000681 0.023401 -0.010430 0.000000 0.009809 0.000000
# 3 -0.007984 -0.010430 0.050136 0.000000 -0.054610 0.000000
# 4 0.000000 0.000000 0.000000 0.033370 0.000000 -0.000831
# 5 0.016457 0.009809 -0.054610 0.000000 0.177625 0.000000
# 6 0.000000 0.000000 0.000000 -0.000831 0.000000 0.028241
#
#
# Mechanical properties :
#
#
# Convention : Reuss Voigt Hill
#
# Bulk Modulus (GPa) = 21.06507 27.43346 24.24926
# Shear Modulus (GPa) = 13.19553 24.70258 18.94906
#
# Velocity S-wave (km/s) = 2.59552 3.55126 3.11032
# Velocity P-wave (km/s) = 4.44260 5.55165 5.02780
#
# Compressibility (1/GPa) = 0.04747195
#
# Stress axis : x y z
#
# Youngs Moduli (GPa) = 82.46181 42.73338 19.94571
#
# Poissons Ratio (x) = 0.02912 0.15925
# Poissons Ratio (y) = 0.05618 0.20804
# Poissons Ratio (z) = 0.65840 0.44572
#
# Static dielectric constant tensor:
#      x y z
#    x 3.703330 0.000000 -0.158700 
#    y 0.000000 3.571530 0.000000 
#    z -0.158700 0.000000 3.478290 
# 
# 
# High freq. dielectric constant tensor:
#      x y z
#    x 1.779050 0.000000 -0.009480 
#    y 0.000000 1.773580 0.000000 
#    z -0.009480 0.000000 1.747980 
# 
# From -- ./inp_files/244657.got.cif
#   From: 2010.06.25/outbox.cif.g09.slc.cpg/sg12_123_cif.got.tgz:244657.got - 2010.06.28 00:19:55.
