data_PCOD8100836
_publ_section_title
;
Structure prediction by ZEFSAII (Michael W. Deem and Ramdas Pophale) SiO2 
 PCOD8100836
Probable space group: C 2/M
;
_chemical_formula_sum "Si O2"
_cell_formula_units_Z 56
_cell_length_a 20.351986
_cell_length_b 9.095261
_cell_length_c 21.128813
_cell_angle_alpha 90.000000
_cell_angle_beta 132.929457
_cell_angle_gamma 90.000000
_cell_volume 2863.667112
_symmetry_space_group_name_H-M "C 2/M"
_symmetry_group_IT_number 12
_symmetry_cell_setting 'monoclinic'
loop_
_space_group_symop_operation_xyz
x,y,z
-x,y,-z
-x,-y,-z
x,-y,z
1/2+x,1/2+y,z
1/2-x,1/2+y,-z
1/2-x,1/2-y,-z
1/2+x,1/2-y,z
loop_
_atom_site_type_symbol
_atom_site_label
_atom_site_fract_x
_atom_site_fract_y
_atom_site_fract_z
Si Si1 0.889671 0.829430 0.237642
Si Si2 0.325133 0.174600 0.405871
Si Si3 0.462953 0.173698 0.908392
Si Si4 0.347079 0.327188 0.635925
Si Si5 0.257640 0.171577 0.765499
Si Si6 0.442984 0.673344 0.574896
Si Si7 0.518289 0.326237 0.824370
O O1 0.788560 0.801319 0.195743
O O2 0.961576 0.767020 0.336032
O O3 0.904879 0.771209 0.175535
O O4 0.914846 0.000000 0.249982
O O5 0.247659 0.234433 0.402407
O O6 0.302346 0.235946 0.322070
O O7 0.418082 0.241923 0.493650
O O8 0.332579 0.000000 0.407355
O O9 0.359722 0.227994 0.834783
O O10 0.527114 0.245436 0.897456
O O11 0.469087 0.000000 0.905697
O O12 0.500000 0.227060 0.000000
O O13 0.346915 0.500000 0.641173
O O14 0.367892 0.280892 0.577770
O O15 0.424317 0.270621 0.733710
O O16 0.252620 0.000000 0.744080
O O17 0.444038 0.500000 0.561396
O O18 0.522838 0.500000 0.839598
#
# Coordination Sequence:
#
# PCOD8100836 Si02
#       7
#     8   8   8   8   8   8   8
#     4   8  17  34  56  76  99 136 180 217 243 288
#     4  11  20  30  46  73 107 136 169 216 262 294
#     4  10  21  36  55  81 109 132 160 206 261 314
#     4   8  15  28  47  70  99 130 165 211 253 290
#     4  10  20  36  55  74  99 138 178 207 250 310
#     4   9  17  31  49  70  97 135 178 214 249 293
#     4   9  16  33  58  79 100 131 172 213 253 296
#
# _framework density 19.555344999999999
#
# number of rings (size 3 to 8) (size 9 to 14) (size 15 to 20)
#    0.000    2.714    1.429    2.571    0.000    0.857 
#    0.000    8.571    0.000    0.000    0.000    0.000 
#    0.000    0.000    0.000    0.000    0.000    0.000 
#
# Total GULP energy -346987.127732 kJ/mol
# GULP energy per Si atom -12392.397419 kJ/mol
# Density = 1.951084 g / cm^3
# Si number density = 19.555345 Si / 1000 Ang^3
#
#
#
# Elastic Constant Matrix: (Units=GPa)
#
#
# Indices 1 2 3 4 5 6 
#
# 1 100.3385 26.1470 34.7646 0.0000 -10.7657 0.0000
# 2 26.1470 40.2025 27.2199 0.0000 -10.9272 0.0000
# 3 34.7646 27.2199 87.5062 0.0000 -29.0100 0.0000
# 4 0.0000 0.0000 0.0000 19.2472 0.0000 -6.7683
# 5 -10.7657 -10.9272 -29.0100 0.0000 20.2846 0.0000
# 6 0.0000 0.0000 0.0000 -6.7683 0.0000 21.2510
#
#
#
# Elastic Compliance Matrix: (Units=1/GPa)
#
#
# Indices 1 2 3 4 5 6 
#
# 1 0.012682 -0.006248 -0.003764 0.000000 -0.002018 0.000000
# 2 -0.006248 0.034930 -0.006169 0.000000 0.006677 0.000000
# 3 -0.003764 -0.006169 0.024869 0.000000 0.030245 0.000000
# 4 0.000000 0.000000 0.000000 0.058508 0.000000 0.018635
# 5 -0.002018 0.006677 0.030245 0.000000 0.095080 0.000000
# 6 0.000000 0.000000 0.000000 0.018635 0.000000 0.052992
#
#
# Mechanical properties :
#
#
# Convention : Reuss Voigt Hill
#
# Bulk Modulus (GPa) = 24.92643 44.92336 34.92489
# Shear Modulus (GPa) = 15.39425 21.48427 18.43926
#
# Velocity S-wave (km/s) = 2.80878 3.31817 3.07404
# Velocity P-wave (km/s) = 4.82631 6.14025 5.52249
#
# Compressibility (1/GPa) = 0.04011807
#
# Stress axis : x y z
#
# Youngs Moduli (GPa) = 78.85189 28.62878 40.21075
#
# Poissons Ratio (x) = 0.17888 0.15134
# Poissons Ratio (y) = 0.49269 0.24808
# Poissons Ratio (z) = 0.29677 0.17662
#
# Static dielectric constant tensor:
#      x y z
#    x 3.908680 0.000000 -0.061290 
#    y 0.000000 3.097040 0.000000 
#    z -0.061290 0.000000 3.398190 
# 
# 
# High freq. dielectric constant tensor:
#      x y z
#    x 1.771200 0.000000 -0.011020 
#    y 0.000000 1.722360 0.000000 
#    z -0.011020 0.000000 1.742180 
# 
# From -- ./inp_files/281600.got.cif
#   From: 2010.06.25/outbox.cif.g09.slc.cpg/sg12_141_cif.got.tgz:281600.got - 2010.06.28 00:19:55.
