data_PCOD8100964
_publ_section_title
;
Structure prediction by ZEFSAII (Michael W. Deem and Ramdas Pophale) SiO2 
 PCOD8100964
Probable space group: C 2/M
;
_chemical_formula_sum "Si O2"
_cell_formula_units_Z 64
_cell_length_a 15.500907
_cell_length_b 8.781957
_cell_length_c 23.901590
_cell_angle_alpha 90.000000
_cell_angle_beta 90.164446
_cell_angle_gamma 90.000000
_cell_volume 3253.669382
_symmetry_space_group_name_H-M "C 2/M"
_symmetry_group_IT_number 12
_symmetry_cell_setting 'monoclinic'
loop_
_space_group_symop_operation_xyz
x,y,z
-x,y,-z
-x,-y,-z
x,-y,z
1/2+x,1/2+y,z
1/2-x,1/2+y,-z
1/2-x,1/2-y,-z
1/2+x,1/2-y,z
loop_
_atom_site_type_symbol
_atom_site_label
_atom_site_fract_x
_atom_site_fract_y
_atom_site_fract_z
Si Si1 0.741654 0.319742 0.866422
Si Si2 0.347135 0.177974 0.438157
Si Si3 0.413520 0.180655 0.324153
Si Si4 0.247653 0.679093 0.746825
Si Si5 0.895888 0.319561 0.943294
Si Si6 0.396779 0.175078 0.678970
Si Si7 0.666223 0.825135 0.440581
Si Si8 0.411693 0.180325 0.069068
O O1 0.741047 0.500000 0.868949
O O2 0.761376 0.266646 0.804273
O O3 0.818330 0.252484 0.905730
O O4 0.649046 0.258964 0.885661
O O5 0.400230 0.252117 0.386614
O O6 0.379151 0.226888 0.500708
O O7 0.247888 0.220426 0.429524
O O8 0.356883 0.000000 0.431533
O O9 0.339902 0.241696 0.282090
O O10 0.507748 0.226198 0.300981
O O11 0.406092 0.000000 0.327370
O O12 0.243218 0.500000 0.758214
O O13 0.328004 0.714591 0.706927
O O14 0.894130 0.500000 0.942881
O O15 0.989316 0.267490 0.919635
O O16 0.883912 0.263613 0.007093
O O17 0.398174 0.193357 0.611520
O O18 0.376765 0.000000 0.695564
O O19 0.697302 0.000000 0.446730
O O20 0.402238 0.000000 0.075148
#
# Coordination Sequence:
#
# PCOD8100964 Si02
#       8
#     8   8   8   8   8   8   8   8
#     4  11  22  36  55  82 112 143 177 223 270 308
#     4   9  16  30  51  76 105 137 168 205 257 324
#     4   9  19  35  56  76 101 138 178 216 264 321
#     4  11  23  40  56  74 102 143 186 223 262 315
#     4   8  17  34  58  84 114 147 178 211 260 316
#     4  10  20  36  56  79 103 133 174 224 273 316
#     4   9  17  28  50  80 106 130 164 213 267 314
#     4   9  17  35  60  85 111 145 182 214 252 316
#
# _framework density 19.670100999999999
#
# number of rings (size 3 to 8) (size 9 to 14) (size 15 to 20)
#    0.000    2.500    1.250    1.875    0.000    1.500 
#    0.000   12.500    0.000    0.000    0.000    4.375 
#    0.000    0.000    0.000    0.000    0.000    0.000 
#
# Total GULP energy -396622.055949 kJ/mol
# GULP energy per Si atom -12394.439248 kJ/mol
# Density = 1.962533 g / cm^3
# Si number density = 19.670101 Si / 1000 Ang^3
#
#
#
# Elastic Constant Matrix: (Units=GPa)
#
#
# Indices 1 2 3 4 5 6 
#
# 1 104.8917 13.1845 39.2435 0.0000 3.2652 0.0000
# 2 13.1845 23.5648 17.5901 0.0000 -0.8305 0.0000
# 3 39.2435 17.5901 91.1924 0.0000 1.3371 0.0000
# 4 0.0000 0.0000 0.0000 26.1909 0.0000 -4.6359
# 5 3.2652 -0.8305 1.3371 0.0000 15.9878 0.0000
# 6 0.0000 0.0000 0.0000 -4.6359 0.0000 23.4211
#
#
#
# Elastic Compliance Matrix: (Units=1/GPa)
#
#
# Indices 1 2 3 4 5 6 
#
# 1 0.011644 -0.003359 -0.004331 0.000000 -0.002190 0.000000
# 2 -0.003359 0.050726 -0.008398 0.000000 0.004024 0.000000
# 3 -0.004331 -0.008398 0.014461 0.000000 -0.000761 0.000000
# 4 0.000000 0.000000 0.000000 0.039567 0.000000 0.007832
# 5 -0.002190 0.004024 -0.000761 0.000000 0.063268 0.000000
# 6 0.000000 0.000000 0.000000 0.007832 0.000000 0.044247
#
#
# Mechanical properties :
#
#
# Convention : Reuss Voigt Hill
#
# Bulk Modulus (GPa) = 22.39396 39.96499 31.17947
# Shear Modulus (GPa) = 18.45190 23.09535 20.77362
#
# Velocity S-wave (km/s) = 3.06611 3.43028 3.25330
# Velocity P-wave (km/s) = 4.89328 6.00424 5.47700
#
# Compressibility (1/GPa) = 0.04465490
#
# Stress axis : x y z
#
# Youngs Moduli (GPa) = 85.87791 19.71363 69.15343
#
# Poissons Ratio (x) = 0.06623 0.29950
# Poissons Ratio (y) = 0.28850 0.58074
# Poissons Ratio (z) = 0.37193 0.16555
#
# Static dielectric constant tensor:
#      x y z
#    x 3.712140 0.000000 0.131650 
#    y 0.000000 3.230150 0.000000 
#    z 0.131650 0.000000 3.808200 
# 
# 
# High freq. dielectric constant tensor:
#      x y z
#    x 1.765840 0.000000 -0.000270 
#    y 0.000000 1.730570 0.000000 
#    z -0.000270 0.000000 1.772670 
# 
# From -- ./inp_files/338811.got.cif
#   From: 2010.06.25/outbox.cif.g09.slc.cpg/sg12_170_cif.got.tgz:338811.got - 2010.06.28 00:19:55.
