data_PCOD8100786
_publ_section_title
;
Structure prediction by ZEFSAII (Michael W. Deem and Ramdas Pophale) SiO2 
 PCOD8100786
Probable space group: C 2/M
;
_chemical_formula_sum "Si O2"
_cell_formula_units_Z 56
_cell_length_a 14.234904
_cell_length_b 8.887460
_cell_length_c 23.061719
_cell_angle_alpha 90.000000
_cell_angle_beta 71.484153
_cell_angle_gamma 90.000000
_cell_volume 2766.561011
_symmetry_space_group_name_H-M "C 2/M"
_symmetry_group_IT_number 12
_symmetry_cell_setting 'monoclinic'
loop_
_space_group_symop_operation_xyz
x,y,z
-x,y,-z
-x,-y,-z
x,-y,z
1/2+x,1/2+y,z
1/2-x,1/2+y,-z
1/2-x,1/2-y,-z
1/2+x,1/2-y,z
loop_
_atom_site_type_symbol
_atom_site_label
_atom_site_fract_x
_atom_site_fract_y
_atom_site_fract_z
Si Si1 0.295865 0.826063 0.903863
Si Si2 0.327662 0.326016 0.550963
Si Si3 0.692521 0.674441 0.320128
Si Si4 0.388543 0.825741 0.008165
Si Si5 0.121783 0.827709 0.579931
Si Si6 0.586483 0.823221 0.698991
Si Si7 0.402845 0.678177 0.777118
O O1 0.184137 0.773859 0.938497
O O2 0.336718 0.728651 0.843433
O O3 0.294501 0.000000 0.886563
O O4 0.366424 0.796422 0.945029
O O5 0.288389 0.500000 0.556095
O O6 0.371311 0.298303 0.607674
O O7 0.237882 0.210639 0.560536
O O8 0.407153 0.300748 0.482881
O O9 0.700436 0.500000 0.304361
O O10 0.803818 0.736618 0.307263
O O11 0.642809 0.748429 0.273491
O O12 0.371984 0.000000 0.027514
O O13 0.500000 0.774003 0.000000
O O14 0.060275 0.727728 0.637867
O O15 0.102783 0.000000 0.601228
O O16 0.512816 0.747223 0.759722
O O17 0.576052 0.000000 0.706095
O O18 0.410178 0.500000 0.775597
#
# Coordination Sequence:
#
# PCOD8100786 Si02
#       7
#     8   8   8   8   8   8   8
#     4  10  21  37  57  84 116 144 174 216 262 303
#     4   8  14  27  47  70  97 131 172 218 269 322
#     4   8  17  34  54  73  98 138 181 218 261 319
#     4   9  19  38  63  87 112 145 181 212 248 302
#     4   9  15  25  46  74  99 127 169 221 274 324
#     4  10  20  36  54  73 102 139 179 222 270 321
#     4  11  22  37  56  78 107 143 183 220 257 309
#
# _framework density 20.241738000000002
#
# number of rings (size 3 to 8) (size 9 to 14) (size 15 to 20)
#    0.000    2.714    0.000    2.571    0.000    2.571 
#    0.000   13.571    0.000    4.286    0.000    0.000 
#    0.000    0.000    0.000    0.000    0.000    0.000 
#
# Total GULP energy -347002.625524 kJ/mol
# GULP energy per Si atom -12392.950912 kJ/mol
# Density = 2.019567 g / cm^3
# Si number density = 20.241738 Si / 1000 Ang^3
#
#
#
# Elastic Constant Matrix: (Units=GPa)
#
#
# Indices 1 2 3 4 5 6 
#
# 1 60.5876 20.5079 29.1697 0.0000 -1.9076 0.0000
# 2 20.5079 69.3592 34.9724 0.0000 -3.1480 0.0000
# 3 29.1697 34.9724 109.5543 0.0000 -4.1803 0.0000
# 4 0.0000 0.0000 0.0000 38.0947 0.0000 -4.6760
# 5 -1.9076 -3.1480 -4.1803 0.0000 21.6629 0.0000
# 6 0.0000 0.0000 0.0000 -4.6760 0.0000 20.3136
#
#
#
# Elastic Compliance Matrix: (Units=1/GPa)
#
#
# Indices 1 2 3 4 5 6 
#
# 1 0.019740 -0.003785 -0.004032 0.000000 0.000410 0.000000
# 2 -0.003785 0.017955 -0.004671 0.000000 0.001374 0.000000
# 3 -0.004032 -0.004671 0.011740 0.000000 0.001232 0.000000
# 4 0.000000 0.000000 0.000000 0.027014 0.000000 0.006218
# 5 0.000410 0.001374 0.001232 0.000000 0.046635 0.000000
# 6 0.000000 0.000000 0.000000 0.006218 0.000000 0.050660
#
#
# Mechanical properties :
#
#
# Convention : Reuss Voigt Hill
#
# Bulk Modulus (GPa) = 40.88692 45.42232 43.15462
# Shear Modulus (GPa) = 24.16946 26.33765 25.25356
#
# Velocity S-wave (km/s) = 3.45924 3.61107 3.53597
# Velocity P-wave (km/s) = 6.01650 6.31467 6.16739
#
# Compressibility (1/GPa) = 0.02445770
#
# Stress axis : x y z
#
# Youngs Moduli (GPa) = 50.65768 55.69600 85.18144
#
# Poissons Ratio (x) = 0.21081 0.34346
# Poissons Ratio (y) = 0.19174 0.39791
# Poissons Ratio (z) = 0.20426 0.26017
#
# Static dielectric constant tensor:
#      x y z
#    x 3.608440 0.000000 0.164170 
#    y 0.000000 3.493800 0.000000 
#    z 0.164170 0.000000 3.851190 
# 
# 
# High freq. dielectric constant tensor:
#      x y z
#    x 1.769850 0.000000 0.001650 
#    y 0.000000 1.776670 0.000000 
#    z 0.001650 0.000000 1.800230 
# 
# From -- ./inp_files/338520.got.cif
#   From: 2010.06.25/outbox.cif.g09.slc.cpg/sg12_170_cif.got.tgz:338520.got - 2010.06.28 00:19:55.
