data_PCOD8100411
_publ_section_title
;
Structure prediction by ZEFSAII (Michael W. Deem and Ramdas Pophale) SiO2 
 PCOD8100411
Probable space group: C 2/M
;
_chemical_formula_sum "Si O2"
_cell_formula_units_Z 56
_cell_length_a 19.621146
_cell_length_b 17.927489
_cell_length_c 14.011666
_cell_angle_alpha 90.000000
_cell_angle_beta 32.836033
_cell_angle_gamma 90.000000
_cell_volume 2672.529720
_symmetry_space_group_name_H-M "C 2/M"
_symmetry_group_IT_number 12
_symmetry_cell_setting 'monoclinic'
loop_
_space_group_symop_operation_xyz
x,y,z
-x,y,-z
-x,-y,-z
x,-y,z
1/2+x,1/2+y,z
1/2-x,1/2+y,-z
1/2-x,1/2-y,-z
1/2+x,1/2-y,z
loop_
_atom_site_type_symbol
_atom_site_label
_atom_site_fract_x
_atom_site_fract_y
_atom_site_fract_z
Si Si1 0.553421 0.584473 0.137078
Si Si2 0.157291 0.683155 0.928532
Si Si3 0.870407 0.695396 0.253385
Si Si4 0.192213 0.147865 0.608842
Si Si5 0.218577 0.917474 0.769727
Si Si6 0.688717 0.912675 0.068561
Si Si7 0.870613 0.694167 0.694882
O O1 0.506055 0.500000 0.198771
O O2 0.436542 0.638354 0.300402
O O3 0.599859 0.605216 0.975173
O O4 0.664396 0.598369 0.081519
O O5 0.165246 0.660986 0.807695
O O6 0.262920 0.742945 0.836056
O O7 0.169453 0.610250 0.980895
O O8 0.015244 0.713672 0.105713
O O9 0.797150 0.773357 0.349244
O O10 0.812660 0.637817 0.398567
O O11 0.187110 0.083666 0.694952
O O12 0.332777 0.862410 0.655698
O O13 0.260867 0.000000 0.750761
O O14 0.612685 0.855021 0.227297
O O15 0.648516 0.000000 0.129868
O O16 0.000000 0.729420 0.500000
#
# Coordination Sequence:
#
# PCOD8100411 Si02
#       7
#     8   8   8   8   8   8   8
#     4   9  19  36  61  93 122 155 197 248 318 379
#     4  11  23  44  62  87 123 172 210 259 314 375
#     4  10  24  38  60  86 121 161 220 257 303 362
#     4  11  20  36  60  90 123 158 206 267 304 367
#     4  10  20  35  58  94 132 164 195 252 328 380
#     4  10  23  42  63  89 127 171 207 254 317 379
#     4  11  23  38  65  97 125 157 212 266 319 380
#
# _framework density 20.953931000000001
#
# number of rings (size 3 to 8) (size 9 to 14) (size 15 to 20)
#    0.000    1.714    1.429    4.286    4.000    3.429 
#    0.000    3.571    0.000    2.143    0.000    0.000 
#    0.000    0.000    0.000    0.000    0.000    0.000 
#
# Total GULP energy -346988.895807 kJ/mol
# GULP energy per Si atom -12392.460565 kJ/mol
# Density = 2.090624 g / cm^3
# Si number density = 20.953931 Si / 1000 Ang^3
#
#
#
# Elastic Constant Matrix: (Units=GPa)
#
#
# Indices 1 2 3 4 5 6 
#
# 1 98.6815 33.8523 49.4567 0.0001 16.7874 0.0000
# 2 33.8523 63.2969 33.8569 0.0000 6.2839 0.0000
# 3 49.4567 33.8569 128.9254 0.0000 5.1308 0.0000
# 4 0.0001 0.0000 0.0000 20.9055 0.0000 -0.9401
# 5 16.7874 6.2839 5.1308 0.0000 22.5144 0.0000
# 6 0.0000 0.0000 0.0000 -0.9401 0.0000 34.7970
#
#
#
# Elastic Compliance Matrix: (Units=1/GPa)
#
#
# Indices 1 2 3 4 5 6 
#
# 1 0.015609 -0.005149 -0.004268 0.000000 -0.009229 0.000000
# 2 -0.005149 0.020455 -0.003353 0.000000 -0.001106 0.000000
# 3 -0.004268 -0.003353 0.010203 0.000000 0.001793 0.000000
# 4 0.000000 0.000000 0.000000 0.047892 0.000000 0.001294
# 5 -0.009229 -0.001106 0.001793 0.000000 0.051197 0.000000
# 6 0.000000 0.000000 0.000000 0.001294 0.000000 0.028773
#
#
# Mechanical properties :
#
#
# Convention : Reuss Voigt Hill
#
# Bulk Modulus (GPa) = 48.24440 58.35950 53.30195
# Shear Modulus (GPa) = 24.20386 27.22592 25.71489
#
# Velocity S-wave (km/s) = 3.40236 3.60852 3.50696
# Velocity P-wave (km/s) = 6.20554 6.72857 6.47234
#
# Compressibility (1/GPa) = 0.02072779
#
# Stress axis : x y z
#
# Youngs Moduli (GPa) = 64.06555 48.88716 98.01170
#
# Poissons Ratio (x) = 0.25170 0.41835
# Poissons Ratio (y) = 0.32985 0.32860
# Poissons Ratio (z) = 0.27346 0.16390
#
# Static dielectric constant tensor:
#      x y z
#    x 3.805810 0.000000 0.043650 
#    y 0.000000 3.561150 0.000000 
#    z 0.043650 0.000000 3.768760 
# 
# 
# High freq. dielectric constant tensor:
#      x y z
#    x 1.818770 0.000000 -0.003360 
#    y 0.000000 1.798570 0.000000 
#    z -0.003360 0.000000 1.810500 
# 
# From -- ./inp_files/234661.got.cif
#   From: 2010.06.25/outbox.cif.g09.slc.cpg/sg12_118_cif.got.tgz:234661.got - 2010.06.28 00:19:55.
