data_PCOD8100359
_publ_section_title
;
Structure prediction by ZEFSAII (Michael W. Deem and Ramdas Pophale) SiO2 
 PCOD8100359
Probable space group: C 2/M
;
_chemical_formula_sum "Si O2"
_cell_formula_units_Z 56
_cell_length_a 23.268233
_cell_length_b 14.554186
_cell_length_c 9.386785
_cell_angle_alpha 90.000000
_cell_angle_beta 111.939913
_cell_angle_gamma 90.000000
_cell_volume 2948.613113
_symmetry_space_group_name_H-M "C 2/M"
_symmetry_group_IT_number 12
_symmetry_cell_setting 'monoclinic'
loop_
_space_group_symop_operation_xyz
x,y,z
-x,y,-z
-x,-y,-z
x,-y,z
1/2+x,1/2+y,z
1/2-x,1/2+y,-z
1/2-x,1/2-y,-z
1/2+x,1/2-y,z
loop_
_atom_site_type_symbol
_atom_site_label
_atom_site_fract_x
_atom_site_fract_y
_atom_site_fract_z
Si Si1 0.004933 0.000000 0.767614
Si Si2 0.097219 0.000000 0.087649
Si Si3 0.884170 0.284884 0.127570
Si Si4 0.566667 0.104245 0.068078
Si Si5 0.680903 0.110610 0.679923
Si Si6 0.869555 0.295148 0.643450
Si Si7 0.008363 0.197986 0.347847
Si Si8 0.318562 0.328103 0.841372
O O1 0.958109 0.000000 0.853810
O O2 0.995505 0.911868 0.659951
O O3 0.073186 0.000000 0.902141
O O4 0.135967 0.909825 0.154978
O O5 0.862959 0.334201 0.252121
O O6 0.951837 0.239458 0.204927
O O7 0.887893 0.362445 0.012217
O O8 0.835521 0.212178 0.014267
O O9 0.597138 0.119564 0.249456
O O10 0.555095 0.000000 0.026369
O O11 0.500000 0.155722 0.000000
O O12 0.670495 0.158547 0.517835
O O13 0.750551 0.130162 0.791209
O O14 0.667671 0.000000 0.665692
O O15 0.923573 0.227176 0.641018
O O16 0.824944 0.243941 0.716152
O O17 0.000000 0.233118 0.500000
#
# Coordination Sequence:
#
# PCOD8100359 Si02
#       8
#     4   4   8   8   8   8   8   8
#     4  11  23  36  66  94 125 155 192 258 314 370
#     4  11  20  36  66 102 112 153 214 252 298 371
#     4  11  23  39  63  91 121 162 204 252 309 368
#     4  10  20  35  58  88 119 156 203 251 298 352
#     4  12  25  43  63  88 125 168 210 254 298 358
#     4  11  23  39  63  91 121 162 204 252 309 368
#     4  12  22  39  59  90 130 156 195 249 325 362
#     4  11  23  42  66  88 126 161 210 252 302 366
#
# _framework density 18.991980999999999
#
# number of rings (size 3 to 8) (size 9 to 14) (size 15 to 20)
#    0.000    0.857    6.429    1.929    0.000    0.000 
#    0.000    0.714    0.000    0.000    0.000    0.000 
#    0.000    0.000    0.000    0.000    0.000    0.000 
#
# Total GULP energy -347062.608642 kJ/mol
# GULP energy per Si atom -12395.093166 kJ/mol
# Density = 1.894875 g / cm^3
# Si number density = 18.991981 Si / 1000 Ang^3
#
#
#
# Elastic Constant Matrix: (Units=GPa)
#
#
# Indices 1 2 3 4 5 6 
#
# 1 50.1843 15.9946 1.4663 0.0000 6.4395 0.0000
# 2 15.9946 98.9352 26.7899 0.0000 4.6633 0.0000
# 3 1.4663 26.7899 86.0417 0.0000 2.6744 0.0000
# 4 0.0000 0.0000 0.0000 29.2079 0.0000 -1.6273
# 5 6.4395 4.6633 2.6744 0.0000 32.8756 0.0000
# 6 0.0000 0.0000 0.0000 -1.6273 0.0000 20.1068
#
#
#
# Elastic Compliance Matrix: (Units=1/GPa)
#
#
# Indices 1 2 3 4 5 6 
#
# 1 0.021512 -0.003530 0.000850 0.000000 -0.003782 0.000000
# 2 -0.003530 0.011672 -0.003553 0.000000 -0.000675 0.000000
# 3 0.000850 -0.003553 0.012736 0.000000 -0.000699 0.000000
# 4 0.000000 0.000000 0.000000 0.034392 0.000000 0.002784
# 5 -0.003782 -0.000675 -0.000699 0.000000 0.031311 0.000000
# 6 0.000000 0.000000 0.000000 0.002784 0.000000 0.049960
#
#
# Mechanical properties :
#
#
# Convention : Reuss Voigt Hill
#
# Bulk Modulus (GPa) = 29.89148 35.96254 32.92701
# Shear Modulus (GPa) = 26.99778 29.16541 28.08160
#
# Velocity S-wave (km/s) = 3.77442 3.92301 3.84943
# Velocity P-wave (km/s) = 5.89645 6.28465 6.09364
#
# Compressibility (1/GPa) = 0.03345435
#
# Stress axis : x y z
#
# Youngs Moduli (GPa) = 46.48564 85.67361 78.51887
#
# Poissons Ratio (x) = 0.30240 -0.06674
# Poissons Ratio (y) = 0.16408 0.27899
# Poissons Ratio (z) = -0.03951 0.30441
#
# Static dielectric constant tensor:
#      x y z
#    x 3.390740 0.000000 0.080410 
#    y 0.000000 3.520320 0.000000 
#    z 0.080410 0.000000 3.574490 
# 
# 
# High freq. dielectric constant tensor:
#      x y z
#    x 1.733700 0.000000 0.002100 
#    y 0.000000 1.743910 0.000000 
#    z 0.002100 0.000000 1.746900 
# 
# From -- ./inp_files/96808.got.cif
#   From: 2010.06.25/outbox.cif.g09.slc.cpg/sg12_49_cif.got.tgz:96808.got - 2010.06.28 00:19:55.
