data_PCOD8100361
_publ_section_title
;
Structure prediction by ZEFSAII (Michael W. Deem and Ramdas Pophale) SiO2 
 PCOD8100361
Probable space group: C 2/M
;
_chemical_formula_sum "Si O2"
_cell_formula_units_Z 56
_cell_length_a 27.065917
_cell_length_b 9.007851
_cell_length_c 12.154034
_cell_angle_alpha 90.000000
_cell_angle_beta 110.200901
_cell_angle_gamma 90.000000
_cell_volume 2780.948343
_symmetry_space_group_name_H-M "C 2/M"
_symmetry_group_IT_number 12
_symmetry_cell_setting 'monoclinic'
loop_
_space_group_symop_operation_xyz
x,y,z
-x,y,-z
-x,-y,-z
x,-y,z
1/2+x,1/2+y,z
1/2-x,1/2+y,-z
1/2-x,1/2-y,-z
1/2+x,1/2-y,z
loop_
_atom_site_type_symbol
_atom_site_label
_atom_site_fract_x
_atom_site_fract_y
_atom_site_fract_z
Si Si1 0.302013 0.164654 0.071527
Si Si2 0.595103 0.827322 0.353188
Si Si3 0.207956 0.660308 0.680536
Si Si4 0.203853 0.171121 0.396552
Si Si5 0.502429 0.172033 0.874045
Si Si6 0.392186 0.673016 0.424050
Si Si7 0.095003 0.824491 0.817250
O O1 0.301756 0.152417 0.200148
O O2 0.354918 0.253508 0.081210
O O3 0.302967 0.000000 0.018073
O O4 0.250000 0.250000 0.000000
O O5 0.649332 0.756709 0.353785
O O6 0.553501 0.795617 0.224963
O O7 0.575222 0.755590 0.454151
O O8 0.602833 0.000000 0.379046
O O9 0.191472 0.500000 0.615529
O O10 0.270197 0.685141 0.705775
O O11 0.169512 0.786326 0.599405
O O12 0.250000 0.250000 0.500000
O O13 0.194493 0.000000 0.424746
O O14 0.543917 0.273235 0.842613
O O15 0.518846 0.000000 0.874637
O O16 0.500000 0.218726 0.000000
O O17 0.401045 0.500000 0.445573
O O18 0.409321 0.725536 0.314909
O O19 0.101445 0.000000 0.828150
#
# Coordination Sequence:
#
# PCOD8100361 Si02
#       7
#     8   8   8   8   8   8   8
#     4  10  20  36  58  86 119 156 198 245 293 351
#     4  11  23  38  59  87 120 159 203 249 302 360
#     4   9  19  34  53  79 116 156 192 235 289 349
#     4  11  21  34  55  85 120 156 194 238 292 353
#     4  10  24  46  66  86 116 158 206 253 300 355
#     4  10  20  35  58  88 120 151 190 240 297 360
#     4  10  22  40  63  90 119 155 196 247 307 359
#
# _framework density 20.137015000000002
#
# number of rings (size 3 to 8) (size 9 to 14) (size 15 to 20)
#    0.000    1.857    1.429    2.143    0.000    6.000 
#    0.000    5.714    0.000    0.000    0.000    0.000 
#    0.000    0.000    0.000    0.000    0.000    0.000 
#
# Total GULP energy -347018.620843 kJ/mol
# GULP energy per Si atom -12393.522173 kJ/mol
# Density = 2.009118 g / cm^3
# Si number density = 20.137015 Si / 1000 Ang^3
#
#
#
# Elastic Constant Matrix: (Units=GPa)
#
#
# Indices 1 2 3 4 5 6 
#
# 1 116.6332 55.5963 50.2154 0.0000 3.9146 0.0000
# 2 55.5963 121.6150 52.3690 0.0000 6.7917 0.0000
# 3 50.2154 52.3690 96.9113 0.0000 10.7750 0.0000
# 4 0.0000 0.0000 0.0000 26.7472 0.0000 0.9954
# 5 3.9146 6.7917 10.7750 0.0000 28.5949 0.0000
# 6 0.0000 0.0000 0.0000 0.9954 0.0000 36.4896
#
#
#
# Elastic Compliance Matrix: (Units=1/GPa)
#
#
# Indices 1 2 3 4 5 6 
#
# 1 0.012226 -0.003738 -0.004413 0.000000 0.000877 0.000000
# 2 -0.003738 0.011863 -0.004402 0.000000 -0.000647 0.000000
# 3 -0.004413 -0.004402 0.015448 0.000000 -0.004171 0.000000
# 4 0.000000 0.000000 0.000000 0.037425 0.000000 -0.001021
# 5 0.000877 -0.000647 -0.004171 0.000000 0.036577 0.000000
# 6 0.000000 0.000000 0.000000 -0.001021 0.000000 0.027433
#
#
# Mechanical properties :
#
#
# Convention : Reuss Voigt Hill
#
# Bulk Modulus (GPa) = 69.29029 72.39122 70.84075
# Shear Modulus (GPa) = 29.25912 30.16493 29.71202
#
# Velocity S-wave (km/s) = 3.81596 3.87458 3.84538
# Velocity P-wave (km/s) = 7.34163 7.48624 7.41429
#
# Compressibility (1/GPa) = 0.01443204
#
# Stress axis : x y z
#
# Youngs Moduli (GPa) = 81.79233 84.29510 64.73519
#
# Poissons Ratio (x) = 0.31509 0.28565
# Poissons Ratio (y) = 0.30574 0.28495
# Poissons Ratio (z) = 0.36092 0.37105
#
# Static dielectric constant tensor:
#      x y z
#    x 3.922280 0.000000 -0.339000 
#    y 0.000000 4.029020 0.000000 
#    z -0.339000 0.000000 3.596000 
# 
# 
# High freq. dielectric constant tensor:
#      x y z
#    x 1.785130 0.000000 -0.009150 
#    y 0.000000 1.796600 0.000000 
#    z -0.009150 0.000000 1.778070 
# 
# From -- ./inp_files/181050.got.cif
#   From: 2010.06.25/outbox.cif.g09.slc.cpg/sg12_91_cif.got.tgz:181050.got - 2010.06.28 00:19:55.
