data_PCOD8100494
_publ_section_title
;
Structure prediction by ZEFSAII (Michael W. Deem and Ramdas Pophale) SiO2 
 PCOD8100494
Probable space group: C 2/M
;
_chemical_formula_sum "Si O2"
_cell_formula_units_Z 36
_cell_length_a 5.109475
_cell_length_b 23.895982
_cell_length_c 15.763423
_cell_angle_alpha 90.000000
_cell_angle_beta 106.752109
_cell_angle_gamma 90.000000
_cell_volume 1842.968990
_symmetry_space_group_name_H-M "C 2/M"
_symmetry_group_IT_number 12
_symmetry_cell_setting 'monoclinic'
loop_
_space_group_symop_operation_xyz
x,y,z
-x,y,-z
-x,-y,-z
x,-y,z
1/2+x,1/2+y,z
1/2-x,1/2+y,-z
1/2-x,1/2-y,-z
1/2+x,1/2-y,z
loop_
_atom_site_type_symbol
_atom_site_label
_atom_site_fract_x
_atom_site_fract_y
_atom_site_fract_z
Si Si1 0.085942 0.064191 0.848131
Si Si2 0.489774 0.106794 0.250209
Si Si3 0.191766 0.712772 0.852686
Si Si4 0.203717 0.435312 0.442545
Si Si5 0.500000 0.637597 0.000000
O O1 0.295593 0.086896 0.799135
O O2 0.124039 0.099329 0.937504
O O3 0.781451 0.069336 0.782455
O O4 0.150900 0.000000 0.874856
O O5 0.420195 0.172226 0.231280
O O6 0.615589 0.101707 0.354872
O O7 0.479517 0.738263 0.850222
O O8 0.251582 0.675858 0.942201
O O9 0.500000 0.415222 0.500000
O O10 0.207822 0.500000 0.414549
O O11 0.000000 0.424438 0.500000
#
# Coordination Sequence:
#
# PCOD8100494 Si02
#       5
#     8   8   8   8   4
#     4  11  22  37  57  84 122 157 188 228 281 351
#     4  11  23  39  59  86 116 154 193 232 287 340
#     4  11  23  40  60  81 111 150 199 249 285 324
#     4  10  20  35  59  88 116 145 179 224 281 347
#     4  10  23  38  58  88 114 152 197 240 288 332
#
# _framework density 19.533695999999999
#
# number of rings (size 3 to 8) (size 9 to 14) (size 15 to 20)
#    0.000    1.333    0.000    7.000    0.000    8.889 
#    0.000    5.556    0.000    4.000    0.000    0.000 
#    0.000    0.000    0.000    0.000    0.000    0.000 
#
# Total GULP energy -223301.122598 kJ/mol
# GULP energy per Si atom -12405.617922 kJ/mol
# Density = 1.948924 g / cm^3
# Si number density = 19.533696 Si / 1000 Ang^3
#
#
#
# Elastic Constant Matrix: (Units=GPa)
#
#
# Indices 1 2 3 4 5 6 
#
# 1 121.0833 39.2159 35.9007 0.0000 6.7976 0.0000
# 2 39.2159 127.9479 53.3716 0.0000 10.7597 0.0000
# 3 35.9007 53.3716 158.8900 0.0000 9.5063 0.0000
# 4 0.0000 0.0000 0.0000 28.6756 0.0000 8.9614
# 5 6.7976 10.7597 9.5063 0.0000 28.9915 0.0000
# 6 0.0000 0.0000 0.0000 8.9614 0.0000 36.4300
#
#
#
# Elastic Compliance Matrix: (Units=1/GPa)
#
#
# Indices 1 2 3 4 5 6 
#
# 1 0.009435 -0.002264 -0.001315 0.000000 -0.000941 0.000000
# 2 -0.002264 0.009802 -0.002647 0.000000 -0.002239 0.000000
# 3 -0.001315 -0.002647 0.007551 0.000000 -0.001185 0.000000
# 4 0.000000 0.000000 0.000000 0.037777 0.000000 -0.009293
# 5 -0.000941 -0.002239 -0.001185 0.000000 0.035933 0.000000
# 6 0.000000 0.000000 0.000000 -0.009293 0.000000 0.029736
#
#
# Mechanical properties :
#
#
# Convention : Reuss Voigt Hill
#
# Bulk Modulus (GPa) = 69.75694 73.87752 71.81723
# Shear Modulus (GPa) = 33.90657 37.44829 35.67743
#
# Velocity S-wave (km/s) = 4.17081 4.38323 4.27834
# Velocity P-wave (km/s) = 7.68003 7.96992 7.82632
#
# Compressibility (1/GPa) = 0.01433549
#
# Stress axis : x y z
#
# Youngs Moduli (GPa) = 105.99105 102.01911 132.43588
#
# Poissons Ratio (x) = 0.23098 0.17415
# Poissons Ratio (y) = 0.23998 0.35056
# Poissons Ratio (z) = 0.13937 0.27005
#
# Static dielectric constant tensor:
#      x y z
#    x 3.606510 0.000000 0.080820 
#    y 0.000000 3.622420 0.000000 
#    z 0.080820 0.000000 3.582170 
# 
# 
# High freq. dielectric constant tensor:
#      x y z
#    x 1.779860 0.000000 0.004020 
#    y 0.000000 1.757420 0.000000 
#    z 0.004020 0.000000 1.754870 
# 
# From -- ./inp_files/191444.got.cif
#   From: 2010.06.25/outbox.cif.g09.slc.cpg/sg12_96_cif.got.tgz:191444.got - 2010.06.28 00:19:55.
