data_PCOD8100876
_publ_section_title
;
Structure prediction by ZEFSAII (Michael W. Deem and Ramdas Pophale) SiO2 
 PCOD8100876
Probable space group: C 2/M
;
_chemical_formula_sum "Si O2"
_cell_formula_units_Z 48
_cell_length_a 13.409674
_cell_length_b 12.248104
_cell_length_c 14.084920
_cell_angle_alpha 90.000000
_cell_angle_beta 98.499077
_cell_angle_gamma 90.000000
_cell_volume 2287.946015
_symmetry_space_group_name_H-M "C 2/M"
_symmetry_group_IT_number 12
_symmetry_cell_setting 'monoclinic'
loop_
_space_group_symop_operation_xyz
x,y,z
-x,y,-z
-x,-y,-z
x,-y,z
1/2+x,1/2+y,z
1/2-x,1/2+y,-z
1/2-x,1/2-y,-z
1/2+x,1/2-y,z
loop_
_atom_site_type_symbol
_atom_site_label
_atom_site_fract_x
_atom_site_fract_y
_atom_site_fract_z
Si Si1 0.438372 0.373384 0.257271
Si Si2 0.636210 0.876410 0.579110
Si Si3 0.059113 0.704496 0.376336
Si Si4 0.736209 0.374566 0.092866
Si Si5 0.234319 0.734927 0.273796
Si Si6 0.586445 0.735480 0.940139
O O1 0.460767 0.500000 0.252296
O O2 0.513807 0.324747 0.347479
O O3 0.321997 0.352966 0.268834
O O4 0.463238 0.315822 0.160717
O O5 0.537263 0.877055 0.634009
O O6 0.615373 0.799119 0.485513
O O7 0.731605 0.828603 0.647477
O O8 0.659165 0.000000 0.550082
O O9 0.138083 0.671840 0.304573
O O10 0.735277 0.500000 0.125382
O O11 0.701906 0.295434 0.173184
O O12 0.849029 0.343198 0.075791
O O13 0.658556 0.357158 0.995779
O O14 0.500000 0.772494 0.000000
#
# Coordination Sequence:
#
# PCOD8100876 Si02
#       6
#     8   8   8   8   8   8
#     4  10  22  37  54  80 113 146 182 224 270 324
#     4  10  21  38  58  81 109 142 183 228 274 325
#     4  10  20  36  55  79 108 141 182 225 268 321
#     4  10  21  37  58  84 112 144 183 224 269 324
#     4  10  21  37  56  82 112 142 182 227 271 323
#     4  10  21  37  57  83 113 144 182 226 269 321
#
# _framework density 20.979516
#
# number of rings (size 3 to 8) (size 9 to 14) (size 15 to 20)
#    0.000    2.000    0.000    3.500    0.000    5.667 
#    0.000    7.500    0.000   14.000    0.000    0.000 
#    0.000    0.000    0.000    0.000    0.000    0.000 
#
# Total GULP energy -297587.341690 kJ/mol
# GULP energy per Si atom -12399.472570 kJ/mol
# Density = 2.093177 g / cm^3
# Si number density = 20.979516 Si / 1000 Ang^3
#
#
#
# Elastic Constant Matrix: (Units=GPa)
#
#
# Indices 1 2 3 4 5 6 
#
# 1 63.3508 9.0434 32.1114 0.0000 -23.3878 0.0000
# 2 9.0434 52.1495 33.9555 0.0000 5.9315 0.0000
# 3 32.1114 33.9555 103.4194 0.0000 -7.1827 0.0000
# 4 0.0000 0.0000 0.0000 18.0217 0.0000 1.9396
# 5 -23.3878 5.9315 -7.1827 0.0000 45.8037 0.0000
# 6 0.0000 0.0000 0.0000 1.9396 0.0000 11.3142
#
#
#
# Elastic Compliance Matrix: (Units=1/GPa)
#
#
# Indices 1 2 3 4 5 6 
#
# 1 0.023064 -0.001385 -0.005941 0.000000 0.011025 0.000000
# 2 -0.001385 0.025410 -0.008280 0.000000 -0.005296 0.000000
# 3 -0.005941 -0.008280 0.014252 0.000000 0.000274 0.000000
# 4 0.000000 0.000000 0.000000 0.056532 0.000000 -0.009691
# 5 0.011025 -0.005296 0.000274 0.000000 0.028190 0.000000
# 6 0.000000 0.000000 0.000000 -0.009691 0.000000 0.090046
#
#
# Mechanical properties :
#
#
# Convention : Reuss Voigt Hill
#
# Bulk Modulus (GPa) = 31.73353 41.01559 36.37456
# Shear Modulus (GPa) = 17.90756 24.61521 21.26139
#
# Velocity S-wave (km/s) = 2.92477 3.42906 3.18690
# Velocity P-wave (km/s) = 5.15407 5.93891 5.56036
#
# Compressibility (1/GPa) = 0.03151241
#
# Stress axis : x y z
#
# Youngs Moduli (GPa) = 43.35718 39.35480 70.16720
#
# Poissons Ratio (x) = 0.05452 0.41685
# Poissons Ratio (y) = 0.06007 0.58102
# Poissons Ratio (z) = 0.25758 0.32588
#
# Static dielectric constant tensor:
#      x y z
#    x 3.864830 0.000000 -0.044710 
#    y 0.000000 3.395250 0.000000 
#    z -0.044710 0.000000 3.926080 
# 
# 
# High freq. dielectric constant tensor:
#      x y z
#    x 1.829520 0.000000 0.001130 
#    y 0.000000 1.787620 0.000000 
#    z 0.001130 0.000000 1.830770 
# 
# From -- ./inp_files/212779.got.cif
#   From: 2010.06.25/outbox.cif.g09.slc.cpg/sg12_107_cif.got.tgz:212779.got - 2010.06.28 00:19:55.
