data_PCOD8100649
_publ_section_title
;
Structure prediction by ZEFSAII (Michael W. Deem and Ramdas Pophale) SiO2 
 PCOD8100649
Probable space group: C 2/M
;
_chemical_formula_sum "Si O2"
_cell_formula_units_Z 56
_cell_length_a 9.200583
_cell_length_b 17.588580
_cell_length_c 19.092454
_cell_angle_alpha 90.000000
_cell_angle_beta 120.839121
_cell_angle_gamma 90.000000
_cell_volume 2652.796043
_symmetry_space_group_name_H-M "C 2/M"
_symmetry_group_IT_number 12
_symmetry_cell_setting 'monoclinic'
loop_
_space_group_symop_operation_xyz
x,y,z
-x,y,-z
-x,-y,-z
x,-y,z
1/2+x,1/2+y,z
1/2-x,1/2+y,-z
1/2-x,1/2-y,-z
1/2+x,1/2-y,z
loop_
_atom_site_type_symbol
_atom_site_label
_atom_site_fract_x
_atom_site_fract_y
_atom_site_fract_z
Si Si1 0.094898 0.089161 0.306356
Si Si2 0.833599 0.910560 0.999424
Si Si3 0.032506 0.588541 0.584262
Si Si4 0.107677 0.414321 0.309359
Si Si5 0.326422 0.330165 0.143561
Si Si6 0.987436 0.915059 0.422682
Si Si7 0.022309 0.669742 0.855140
O O1 0.287819 0.104076 0.332986
O O2 0.969200 0.139925 0.230976
O O3 0.100476 0.119153 0.388647
O O4 0.043082 0.000000 0.288203
O O5 0.658122 0.887903 0.920085
O O6 0.848000 0.000000 0.001578
O O7 0.822226 0.886070 0.077044
O O8 0.000000 0.876543 0.000000
O O9 0.004169 0.500000 0.564753
O O10 0.000000 0.628534 0.500000
O O11 0.906396 0.617398 0.614063
O O12 0.030805 0.500000 0.283793
O O13 0.304616 0.416262 0.341834
O O14 0.020720 0.358341 0.233217
O O15 0.144014 0.325581 0.136641
O O16 0.383757 0.249641 0.127600
O O17 0.000000 0.869805 0.500000
O O18 0.056972 0.000000 0.454725
#
# Coordination Sequence:
#
# PCOD8100649 Si02
#       7
#     8   8   8   8   8   8   8
#     4  10  20  35  60  91 123 163 211 261 315 372
#     4  11  26  47  74 103 129 159 200 251 308 371
#     4   9  18  32  55  90 127 162 205 263 322 371
#     4  10  20  35  60  91 123 163 211 261 315 372
#     4  12  26  44  66  93 130 171 211 255 310 373
#     4   9  16  30  55  88 121 154 205 267 318 367
#     4  12  26  44  66  93 130 171 211 255 310 373
#
# _framework density 21.109804
#
# number of rings (size 3 to 8) (size 9 to 14) (size 15 to 20)
#    0.000    1.571    1.429    3.429    4.000    5.714 
#    0.000    0.000    0.000    5.143    0.000    0.000 
#    0.000    0.000    0.000    0.000    0.000    0.000 
#
# Total GULP energy -346942.611005 kJ/mol
# GULP energy per Si atom -12390.807536 kJ/mol
# Density = 2.106176 g / cm^3
# Si number density = 21.109804 Si / 1000 Ang^3
#
#
#
# Elastic Constant Matrix: (Units=GPa)
#
#
# Indices 1 2 3 4 5 6 
#
# 1 115.6466 23.7570 28.1719 0.0000 -10.0430 0.0000
# 2 23.7570 53.8930 21.1588 0.0000 -3.4380 0.0000
# 3 28.1719 21.1588 100.0223 0.0000 -4.6182 0.0000
# 4 0.0000 0.0000 0.0000 -23.0268 0.0000 -6.3227
# 5 -10.0430 -3.4380 -4.6182 0.0000 29.3863 0.0000
# 6 0.0000 0.0000 0.0000 -6.3227 0.0000 24.2179
#
#
#
# Elastic Compliance Matrix: (Units=1/GPa)
#
#
# Indices 1 2 3 4 5 6 
#
# 1 0.010083 -0.003496 -0.001975 0.000000 0.002727 0.000000
# 2 -0.003496 0.021533 -0.003535 0.000000 0.000769 0.000000
# 3 -0.001975 -0.003535 0.011334 0.000000 0.000693 0.000000
# 4 0.000000 0.000000 0.000000 -0.040523 0.000000 -0.010579
# 5 0.002727 0.000769 0.000693 0.000000 0.035160 0.000000
# 6 0.000000 0.000000 0.000000 -0.010579 0.000000 0.038530
#
#
# Mechanical properties :
#
#
# Convention : Reuss Voigt Hill
#
# Bulk Modulus (GPa) = 40.09723 46.19302 43.14513
# Shear Modulus (GPa) = 48.80881 19.21376 34.01128
#
# Velocity S-wave (km/s) = 4.81369 3.02019 4.01828
# Velocity P-wave (km/s) = 7.06621 5.83882 6.48163
#
# Compressibility (1/GPa) = 0.02493938
#
# Stress axis : x y z
#
# Youngs Moduli (GPa) = 99.17768 46.43998 88.23223
#
# Poissons Ratio (x) = 0.16233 0.17422
# Poissons Ratio (y) = 0.34668 0.31191
# Poissons Ratio (z) = 0.19583 0.16417
#
# Static dielectric constant tensor:
#      x y z
#    x 4.124720 0.000000 -0.165750 
#    y 0.000000 3.403910 0.000000 
#    z -0.165750 0.000000 4.104900 
# 
# 
# High freq. dielectric constant tensor:
#      x y z
#    x 1.850290 0.000000 -0.007210 
#    y 0.000000 1.777850 0.000000 
#    z -0.007210 0.000000 1.844900 
# 
# From -- ./inp_files/257128.got.cif
#   From: 2010.06.25/outbox.cif.g09.slc.cpg/sg12_129_cif.got.tgz:257128.got - 2010.06.28 00:19:55.
