data_PCOD8100467
_publ_section_title
;
Structure prediction by ZEFSAII (Michael W. Deem and Ramdas Pophale) SiO2 
 PCOD8100467
Probable space group: C 2/M
;
_chemical_formula_sum "Si O2"
_cell_formula_units_Z 64
_cell_length_a 23.201275
_cell_length_b 8.767531
_cell_length_c 16.848691
_cell_angle_alpha 90.000000
_cell_angle_beta 95.978069
_cell_angle_gamma 90.000000
_cell_volume 3408.686935
_symmetry_space_group_name_H-M "C 2/M"
_symmetry_group_IT_number 12
_symmetry_cell_setting 'monoclinic'
loop_
_space_group_symop_operation_xyz
x,y,z
-x,y,-z
-x,-y,-z
x,-y,z
1/2+x,1/2+y,z
1/2-x,1/2+y,-z
1/2-x,1/2-y,-z
1/2+x,1/2-y,z
loop_
_atom_site_type_symbol
_atom_site_label
_atom_site_fract_x
_atom_site_fract_y
_atom_site_fract_z
Si Si1 0.230419 0.679275 0.119987
Si Si2 0.331770 0.680634 0.738106
Si Si3 0.488993 0.321130 0.369557
Si Si4 0.164761 0.679837 0.951020
Si Si5 0.958631 0.321379 0.769486
Si Si6 0.699097 0.680883 0.442707
Si Si7 0.914300 0.820839 0.495653
Si Si8 0.466867 0.181056 0.071364
O O1 0.234039 0.500000 0.133303
O O2 0.207453 0.752324 0.197683
O O3 0.294574 0.740670 0.108835
O O4 0.186428 0.722189 0.042598
O O5 0.332067 0.500000 0.745005
O O6 0.397981 0.735185 0.753081
O O7 0.304227 0.733523 0.649837
O O8 0.494867 0.500000 0.348741
O O9 0.496612 0.218127 0.293838
O O10 0.427714 0.284175 0.404688
O O11 0.536260 0.262520 0.438699
O O12 0.168433 0.500000 0.937060
O O13 0.099174 0.743301 0.932166
O O14 0.945366 0.500000 0.771177
O O15 0.993429 0.263940 0.850891
O O16 0.701922 0.500000 0.447046
O O17 0.750000 0.750000 0.500000
O O18 0.645036 0.751729 0.483072
O O19 0.911849 0.000000 0.506420
O O20 0.462843 0.000000 0.065812
O O21 0.500000 0.248228 0.000000
#
# Coordination Sequence:
#
# PCOD8100467 Si02
#       8
#     8   8   8   8   8   8   8   8
#     4  10  20  35  59  87 111 142 189 238 273 313
#     4  11  22  38  59  80 108 146 185 223 276 341
#     4   9  16  32  57  78 101 138 178 217 265 327
#     4   9  18  36  59  81 113 154 188 221 272 332
#     4  11  21  33  54  84 112 138 180 234 274 317
#     4  10  21  38  57  79 106 141 181 224 273 330
#     4   8  15  32  57  77  99 136 179 212 256 325
#     4   9  18  34  55  79 111 150 183 216 268 326
#
# _framework density 18.775558
#
# number of rings (size 3 to 8) (size 9 to 14) (size 15 to 20)
#    0.000    2.375    1.250    2.625    0.000    3.500 
#    2.250    3.125    0.000    2.625    0.000    0.000 
#    0.000    0.000    0.000    0.000    0.000    0.000 
#
# Total GULP energy -396596.737666 kJ/mol
# GULP energy per Si atom -12393.648052 kJ/mol
# Density = 1.873282 g / cm^3
# Si number density = 18.775558 Si / 1000 Ang^3
#
#
#
# Elastic Constant Matrix: (Units=GPa)
#
#
# Indices 1 2 3 4 5 6 
#
# 1 134.0760 36.9793 92.2580 0.0000 -10.2862 0.0000
# 2 36.9793 41.2107 40.6020 0.0000 -4.1482 0.0000
# 3 92.2580 40.6020 164.4383 0.0000 -16.3018 0.0000
# 4 0.0000 0.0000 0.0000 26.7312 0.0000 -0.7319
# 5 -10.2862 -4.1482 -16.3018 0.0000 36.0303 0.0000
# 6 0.0000 0.0000 0.0000 -0.7319 0.0000 21.7814
#
#
#
# Elastic Compliance Matrix: (Units=1/GPa)
#
#
# Indices 1 2 3 4 5 6 
#
# 1 0.013190 -0.006004 -0.005877 0.000000 0.000415 0.000000
# 2 -0.006004 0.034800 -0.005231 0.000000 -0.000074 0.000000
# 3 -0.005877 -0.005231 0.010934 0.000000 0.002667 0.000000
# 4 0.000000 0.000000 0.000000 0.037444 0.000000 0.001258
# 5 0.000415 -0.000074 0.002667 0.000000 0.029071 0.000000
# 6 0.000000 0.000000 0.000000 0.001258 0.000000 0.045953
#
#
# Mechanical properties :
#
#
# Convention : Reuss Voigt Hill
#
# Bulk Modulus (GPa) = 40.48547 75.48929 57.98738
# Shear Modulus (GPa) = 23.38094 28.23431 25.80762
#
# Velocity S-wave (km/s) = 3.53269 3.88207 3.71149
# Velocity P-wave (km/s) = 6.18462 7.77093 7.02271
#
# Compressibility (1/GPa) = 0.02470022
#
# Stress axis : x y z
#
# Youngs Moduli (GPa) = 75.81521 28.73594 91.45417
#
# Poissons Ratio (x) = 0.17253 0.53743
# Poissons Ratio (y) = 0.45520 0.47842
# Poissons Ratio (z) = 0.44553 0.15033
#
# Static dielectric constant tensor:
#      x y z
#    x 3.835060 0.000000 -0.411590 
#    y 0.000000 3.165670 0.000000 
#    z -0.411590 0.000000 4.433880 
# 
# 
# High freq. dielectric constant tensor:
#      x y z
#    x 1.733200 0.000000 -0.016430 
#    y 0.000000 1.704030 0.000000 
#    z -0.016430 0.000000 1.735510 
# 
# From -- ./inp_files/238570.got.cif
#   From: 2010.06.25/outbox.cif.g09.slc.cpg/sg12_120_cif.got.tgz:238570.got - 2010.06.28 00:19:55.
