data_PCOD8100110
_publ_section_title
;
Structure prediction by ZEFSAII (Michael W. Deem and Ramdas Pophale) SiO2 
 PCOD8100110
Probable space group: C 2/M
;
_chemical_formula_sum "Si O2"
_cell_formula_units_Z 56
_cell_length_a 13.367456
_cell_length_b 14.443890
_cell_length_c 25.858428
_cell_angle_alpha 90.000000
_cell_angle_beta 32.778096
_cell_angle_gamma 90.000000
_cell_volume 2702.979410
_symmetry_space_group_name_H-M "C 2/M"
_symmetry_group_IT_number 12
_symmetry_cell_setting 'monoclinic'
loop_
_space_group_symop_operation_xyz
x,y,z
-x,y,-z
-x,-y,-z
x,-y,z
1/2+x,1/2+y,z
1/2-x,1/2+y,-z
1/2-x,1/2-y,-z
1/2+x,1/2-y,z
loop_
_atom_site_type_symbol
_atom_site_label
_atom_site_fract_x
_atom_site_fract_y
_atom_site_fract_z
Si Si1 0.367957 0.106994 0.451751
Si Si2 0.711563 0.777140 0.310111
Si Si3 0.317347 0.739996 0.056049
Si Si4 0.314231 0.395790 0.362709
Si Si5 0.006767 0.895388 0.436098
Si Si6 0.487089 0.810173 0.879185
Si Si7 0.270622 0.602559 0.821614
O O1 0.541013 0.168433 0.358606
O O2 0.328738 0.124954 0.529295
O O3 0.192803 0.140734 0.495457
O O4 0.412558 0.000000 0.421165
O O5 0.778559 0.826961 0.332159
O O6 0.663475 0.671501 0.345684
O O7 0.878474 0.775280 0.196015
O O8 0.260834 0.819215 0.121345
O O9 0.147928 0.670881 0.112664
O O10 0.500000 0.687663 0.000000
O O11 0.363638 0.789530 0.982391
O O12 0.282837 0.500000 0.355828
O O13 0.524875 0.383669 0.291391
O O14 0.000000 0.892389 0.500000
O O15 0.044364 0.000000 0.399363
O O16 0.624726 0.892245 0.837353
O O17 0.252615 0.500000 0.854574
#
# Coordination Sequence:
#
# PCOD8100110 Si02
#       7
#     8   8   8   8   8   8   8
#     4  10  21  37  56  82 119 156 195 246 296 344
#     4  12  21  34  57  86 114 155 192 241 298 359
#     4   9  19  39  58  81 118 152 186 242 305 361
#     4  10  20  35  57  88 121 151 194 249 298 350
#     4  10  22  38  53  75 112 158 201 238 280 346
#     4  10  21  34  56  87 116 148 194 241 297 362
#     4  10  20  37  63  91 119 153 202 254 301 354
#
# _framework density 20.717879
#
# number of rings (size 3 to 8) (size 9 to 14) (size 15 to 20)
#    0.000    1.857    1.429    3.000    0.000    6.571 
#    0.000    0.000    0.000    0.429    0.000    3.000 
#    0.000    0.000    0.000    0.000    0.000    0.000 
#
# Total GULP energy -346945.408572 kJ/mol
# GULP energy per Si atom -12390.907449 kJ/mol
# Density = 2.067072 g / cm^3
# Si number density = 20.717879 Si / 1000 Ang^3
#
#
#
# Elastic Constant Matrix: (Units=GPa)
#
#
# Indices 1 2 3 4 5 6 
#
# 1 109.9201 26.6916 5.7649 -0.0029 -21.5555 -0.0009
# 2 26.6916 60.5070 18.8627 -0.0032 -6.3263 -0.0009
# 3 5.7649 18.8627 65.1764 -0.0142 -9.6157 -0.0042
# 4 -0.0029 -0.0032 -0.0142 6.2609 -0.0020 -9.9675
# 5 -21.5555 -6.3263 -9.6157 -0.0020 30.1903 0.0006
# 6 -0.0009 -0.0009 -0.0042 -9.9675 0.0006 29.4861
#
#
#
# Elastic Compliance Matrix: (Units=1/GPa)
#
#
# Indices 1 2 3 4 5 6 
#
# 1 0.011729 -0.004826 0.001517 0.000020 0.007846 0.000007
# 2 -0.004826 0.020297 -0.005591 -0.000012 -0.000973 -0.000004
# 3 0.001517 -0.005591 0.017643 0.000094 0.005531 0.000034
# 4 0.000020 -0.000012 0.000094 0.345841 0.000063 0.116909
# 5 0.007846 -0.000973 0.005531 0.000063 0.040283 0.000021
# 6 0.000007 -0.000004 0.000034 0.116909 0.000021 0.073434
#
#
# Mechanical properties :
#
#
# Convention : Reuss Voigt Hill
#
# Bulk Modulus (GPa) = 31.37963 37.58244 34.48103
# Shear Modulus (GPa) = 9.29973 25.47310 17.38642
#
# Velocity S-wave (km/s) = 2.12096 3.51026 2.90004
# Velocity P-wave (km/s) = 4.60185 5.88292 5.28137
#
# Compressibility (1/GPa) = 0.03186781
#
# Stress axis : x y z
#
# Youngs Moduli (GPa) = 85.26231 49.26778 56.68012
#
# Poissons Ratio (x) = 0.23779 -0.08598
# Poissons Ratio (y) = 0.41151 0.31690
# Poissons Ratio (z) = -0.12934 0.27545
#
# Static dielectric constant tensor:
#      x y z
#    x 4.190470 0.000000 -0.371480 
#    y 0.000000 3.625700 0.000010 
#    z -0.371480 0.000010 3.885170 
# 
# 
# High freq. dielectric constant tensor:
#      x y z
#    x 1.827500 0.000000 -0.015810 
#    y 0.000000 1.778340 0.000000 
#    z -0.015810 0.000000 1.813230 
# 
# From -- ./inp_files/361400.got.cif
#   From: 2010.06.25/outbox.cif.g09.slc.cpg/sg12_181_cif.got.tgz:361400.got - 2010.06.28 00:19:55.
