data_PCOD8100888
_publ_section_title
;
Structure prediction by ZEFSAII (Michael W. Deem and Ramdas Pophale) SiO2 
 PCOD8100888
Probable space group: C 2/M
;
_chemical_formula_sum "Si O2"
_cell_formula_units_Z 64
_cell_length_a 9.429462
_cell_length_b 21.445663
_cell_length_c 22.216655
_cell_angle_alpha 90.000000
_cell_angle_beta 131.012646
_cell_angle_gamma 90.000000
_cell_volume 3390.014702
_symmetry_space_group_name_H-M "C 2/M"
_symmetry_group_IT_number 12
_symmetry_cell_setting 'monoclinic'
loop_
_space_group_symop_operation_xyz
x,y,z
-x,y,-z
-x,-y,-z
x,-y,z
1/2+x,1/2+y,z
1/2-x,1/2+y,-z
1/2-x,1/2-y,-z
1/2+x,1/2-y,z
loop_
_atom_site_type_symbol
_atom_site_label
_atom_site_fract_x
_atom_site_fract_y
_atom_site_fract_z
Si Si1 0.688608 0.628132 0.085331
Si Si2 0.926099 0.572156 0.829175
Si Si3 0.823248 0.192791 0.409628
Si Si4 0.747499 0.876675 0.762663
Si Si5 0.435917 0.748383 0.315231
Si Si6 0.795686 0.733843 0.944725
Si Si7 0.603098 0.649310 0.799274
Si Si8 0.861409 0.429674 0.670744
O O1 0.683921 0.603285 0.152027
O O2 0.700450 0.702635 0.092091
O O3 0.869660 0.601473 0.100324
O O4 0.500000 0.604655 0.000000
O O5 0.930735 0.500000 0.847299
O O6 0.772770 0.604348 0.828886
O O7 0.874857 0.583364 0.745478
O O8 0.643462 0.226668 0.388302
O O9 0.848382 0.219021 0.350147
O O10 0.790999 0.118101 0.398602
O O11 0.000000 0.208271 0.500000
O O12 0.695833 0.803570 0.745543
O O13 0.564234 0.917978 0.695908
O O14 0.915157 0.890639 0.761986
O O15 0.444852 0.695639 0.267603
O O16 0.648576 0.686845 0.873523
O O17 0.750000 0.750000 0.000000
O O18 0.000000 0.701711 0.000000
O O19 0.795101 0.500000 0.638343
#
# Coordination Sequence:
#
# PCOD8100888 Si02
#       8
#     8   8   8   8   8   8   8   8
#     4  10  20  36  55  80 114 147 192 239 290 338
#     4  10  22  38  58  82 110 153 201 244 284 337
#     4  11  22  37  60  88 120 151 181 233 293 349
#     4  10  21  34  56  83 112 154 187 233 285 339
#     4  11  21  36  55  88 120 148 184 229 287 357
#     4  11  22  32  51  82 115 142 183 234 286 336
#     4  12  21  34  60  82 118 154 187 240 290 340
#     4   9  20  39  59  81 112 152 201 238 274 341
#
# _framework density 18.878973999999999
#
# number of rings (size 3 to 8) (size 9 to 14) (size 15 to 20)
#    0.000    1.500    3.750    2.625    1.750    1.000 
#    0.000    0.000    0.000    8.625    0.000    0.875 
#    0.000    0.000    0.000    0.000    0.000    0.000 
#
# Total GULP energy -396833.515338 kJ/mol
# GULP energy per Si atom -12401.047354 kJ/mol
# Density = 1.883600 g / cm^3
# Si number density = 18.878974 Si / 1000 Ang^3
#
#
#
# Elastic Constant Matrix: (Units=GPa)
#
#
# Indices 1 2 3 4 5 6 
#
# 1 120.5819 20.9292 19.6922 0.0000 14.6831 0.0000
# 2 20.9292 70.9739 15.0296 0.0000 9.6849 0.0000
# 3 19.6922 15.0296 66.5552 0.0000 13.6046 0.0000
# 4 0.0000 0.0000 0.0000 15.1746 0.0000 0.9375
# 5 14.6831 9.6849 13.6046 0.0000 28.8534 0.0000
# 6 0.0000 0.0000 0.0000 0.9375 0.0000 20.9767
#
#
#
# Elastic Compliance Matrix: (Units=1/GPa)
#
#
# Indices 1 2 3 4 5 6 
#
# 1 0.009301 -0.001945 -0.001636 0.000000 -0.003309 0.000000
# 2 -0.001945 0.015580 -0.002298 0.000000 -0.003157 0.000000
# 3 -0.001636 -0.002298 0.017375 0.000000 -0.006588 0.000000
# 4 0.000000 0.000000 0.000000 0.066082 0.000000 -0.002953
# 5 -0.003309 -0.003157 -0.006588 0.000000 0.040508 0.000000
# 6 0.000000 0.000000 0.000000 -0.002953 0.000000 0.047804
#
#
# Mechanical properties :
#
#
# Convention : Reuss Voigt Hill
#
# Bulk Modulus (GPa) = 32.78847 41.04588 36.91718
# Shear Modulus (GPa) = 22.87560 26.49829 24.68694
#
# Velocity S-wave (km/s) = 3.48472 3.75051 3.62006
# Velocity P-wave (km/s) = 5.79624 6.36741 6.08853
#
# Compressibility (1/GPa) = 0.03049853
#
# Stress axis : x y z
#
# Youngs Moduli (GPa) = 107.51774 64.18298 57.55424
#
# Poissons Ratio (x) = 0.12481 0.09418
# Poissons Ratio (y) = 0.20908 0.13225
# Poissons Ratio (z) = 0.17594 0.14748
#
# Static dielectric constant tensor:
#      x y z
#    x 3.588160 0.000000 0.133360 
#    y 0.000000 3.354270 0.000000 
#    z 0.133360 0.000000 3.244750 
# 
# 
# High freq. dielectric constant tensor:
#      x y z
#    x 1.745890 0.000000 0.011090 
#    y 0.000000 1.717360 0.000000 
#    z 0.011090 0.000000 1.717270 
# 
# From -- ./inp_files/301751.got.cif
#   From: 2010.06.25/outbox.cif.g09.slc.cpg/sg12_151_cif.got.tgz:301751.got - 2010.06.28 00:19:55.
