data_PCOD8100239
_publ_section_title
;
Structure prediction by ZEFSAII (Michael W. Deem and Ramdas Pophale) SiO2 
 PCOD8100239
Probable space group: C 2/M
;
_chemical_formula_sum "Si O2"
_cell_formula_units_Z 64
_cell_length_a 29.702526
_cell_length_b 9.374811
_cell_length_c 18.672499
_cell_angle_alpha 90.000000
_cell_angle_beta 139.955083
_cell_angle_gamma 90.000000
_cell_volume 3345.270762
_symmetry_space_group_name_H-M "C 2/M"
_symmetry_group_IT_number 12
_symmetry_cell_setting 'monoclinic'
loop_
_space_group_symop_operation_xyz
x,y,z
-x,y,-z
-x,-y,-z
x,-y,z
1/2+x,1/2+y,z
1/2-x,1/2+y,-z
1/2-x,1/2-y,-z
1/2+x,1/2-y,z
loop_
_atom_site_type_symbol
_atom_site_label
_atom_site_fract_x
_atom_site_fract_y
_atom_site_fract_z
Si Si1 0.556296 0.660952 0.127721
Si Si2 0.531910 0.157361 0.236510
Si Si3 0.373029 0.156579 0.008164
Si Si4 0.335183 0.163436 0.337130
Si Si5 0.912040 0.164844 0.308165
Si Si6 0.814753 0.839114 0.056613
Si Si7 0.539989 0.834554 0.407311
Si Si8 0.175528 0.839639 0.170114
O O1 0.532314 0.500000 0.116357
O O2 0.559016 0.745354 0.205466
O O3 0.637315 0.664376 0.200563
O O4 0.500000 0.721259 0.000000
O O5 0.546779 0.222692 0.333816
O O6 0.566794 0.000000 0.272573
O O7 0.449769 0.140551 0.130779
O O8 0.370088 0.219687 0.925404
O O9 0.336508 0.000000 0.967462
O O10 0.333501 0.277649 0.003073
O O11 0.360365 0.263644 0.302953
O O12 0.384378 0.185645 0.465516
O O13 0.257297 0.204509 0.269514
O O14 0.338380 0.000000 0.314069
O O15 0.877706 0.176012 0.188586
O O16 0.985851 0.246120 0.390933
O O17 0.924797 0.000000 0.345505
O O18 0.790460 0.000000 0.016714
O O19 0.750000 0.750000 0.000000
O O20 0.515710 0.000000 0.377501
O O21 0.167474 0.000000 0.128339
#
# Coordination Sequence:
#
# PCOD8100239 Si02
#       8
#     8   8   8   8   8   8   8   8
#     4  10  20  35  58  85 115 147 184 228 280 341
#     4  10  21  36  57  84 112 142 184 233 278 330
#     4  11  21  34  55  82 112 147 184 229 282 335
#     4  10  22  39  60  81 109 151 194 232 276 332
#     4  11  23  37  56  84 115 146 187 237 284 329
#     4  11  23  36  52  78 114 153 188 228 280 338
#     4  10  21  40  61  82 110 150 195 233 273 331
#     4  10  21  38  58  84 115 150 188 232 283 338
#
# _framework density 19.131487
#
# number of rings (size 3 to 8) (size 9 to 14) (size 15 to 20)
#    0.000    1.625    2.500    2.250    0.000    7.750 
#    0.000    0.625    0.000    0.000    0.000    0.000 
#    0.000    0.000    0.000    0.000    0.000    0.000 
#
# Total GULP energy -396635.320936 kJ/mol
# GULP energy per Si atom -12394.853779 kJ/mol
# Density = 1.908794 g / cm^3
# Si number density = 19.131487 Si / 1000 Ang^3
#
#
#
# Elastic Constant Matrix: (Units=GPa)
#
#
# Indices 1 2 3 4 5 6 
#
# 1 115.3889 53.5950 18.0107 0.0000 -4.0036 0.0000
# 2 53.5950 111.3864 28.7671 0.0000 -7.4665 0.0000
# 3 18.0107 28.7671 27.2596 0.0000 -6.2026 0.0000
# 4 0.0000 0.0000 0.0000 22.2180 0.0000 -3.1983
# 5 -4.0036 -7.4665 -6.2026 0.0000 25.0152 0.0000
# 6 0.0000 0.0000 0.0000 -3.1983 0.0000 35.2612
#
#
#
# Elastic Compliance Matrix: (Units=1/GPa)
#
#
# Indices 1 2 3 4 5 6 
#
# 1 0.011272 -0.004814 -0.002420 0.000000 -0.000233 0.000000
# 2 -0.004814 0.014403 -0.011886 0.000000 0.000581 0.000000
# 3 -0.002420 -0.011886 0.052917 0.000000 0.009186 0.000000
# 4 0.000000 0.000000 0.000000 0.045604 0.000000 0.004136
# 5 -0.000233 0.000581 0.009186 0.000000 0.042390 0.000000
# 6 0.000000 0.000000 0.000000 0.004136 0.000000 0.028735
#
#
# Mechanical properties :
#
#
# Convention : Reuss Voigt Hill
#
# Bulk Modulus (GPa) = 24.78270 50.53117 37.65694
# Shear Modulus (GPa) = 20.24186 26.74300 23.49243
#
# Velocity S-wave (km/s) = 3.25628 3.74284 3.50801
# Velocity P-wave (km/s) = 5.20767 6.71926 6.01117
#
# Compressibility (1/GPa) = 0.04035072
#
# Stress axis : x y z
#
# Youngs Moduli (GPa) = 88.71440 69.42987 18.89746
#
# Poissons Ratio (x) = 0.33426 0.04573
# Poissons Ratio (y) = 0.42710 0.22462
# Poissons Ratio (z) = 0.21470 0.82527
#
# Static dielectric constant tensor:
#      x y z
#    x 3.372430 0.000000 -0.002140 
#    y 0.000000 3.562670 0.000000 
#    z -0.002140 0.000000 3.339520 
# 
# 
# High freq. dielectric constant tensor:
#      x y z
#    x 1.742660 0.000000 -0.002010 
#    y 0.000000 1.748110 0.000000 
#    z -0.002010 0.000000 1.732510 
# 
# From -- ./inp_files/295676.got.cif
#   From: 2010.06.25/outbox.cif.g09.slc.cpg/sg12_148_cif.got.tgz:295676.got - 2010.06.28 00:19:55.
