data_PCOD8100384
_publ_section_title
;
Structure prediction by ZEFSAII (Michael W. Deem and Ramdas Pophale) SiO2 
 PCOD8100384
Probable space group: C 2/M
;
_chemical_formula_sum "Si O2"
_cell_formula_units_Z 64
_cell_length_a 30.054708
_cell_length_b 8.753605
_cell_length_c 16.661581
_cell_angle_alpha 90.000000
_cell_angle_beta 43.632338
_cell_angle_gamma 90.000000
_cell_volume 3024.701221
_symmetry_space_group_name_H-M "C 2/M"
_symmetry_group_IT_number 12
_symmetry_cell_setting 'monoclinic'
loop_
_space_group_symop_operation_xyz
x,y,z
-x,y,-z
-x,-y,-z
x,-y,z
1/2+x,1/2+y,z
1/2-x,1/2+y,-z
1/2-x,1/2-y,-z
1/2+x,1/2-y,z
loop_
_atom_site_type_symbol
_atom_site_label
_atom_site_fract_x
_atom_site_fract_y
_atom_site_fract_z
Si Si1 0.435557 0.179320 0.852581
Si Si2 0.851898 0.180149 0.341530
Si Si3 0.495648 0.319321 0.373060
Si Si4 0.265544 0.322300 0.778976
Si Si5 0.736164 0.320225 0.401004
Si Si6 0.907082 0.823003 0.623277
Si Si7 0.008194 0.819235 0.896576
Si Si8 0.697802 0.320531 0.007181
O O1 0.497977 0.226910 0.718136
O O2 0.449701 0.241355 0.923655
O O3 0.374134 0.255992 0.888440
O O4 0.424665 0.000000 0.870616
O O5 0.802013 0.242547 0.341843
O O6 0.825853 0.229924 0.464120
O O7 0.923283 0.242731 0.227836
O O8 0.853380 0.000000 0.331410
O O9 0.498869 0.500000 0.349061
O O10 0.429459 0.270508 0.504633
O O11 0.552271 0.253874 0.357076
O O12 0.245589 0.500000 0.810282
O O13 0.274271 0.267951 0.676539
O O14 0.332767 0.289887 0.735988
O O15 0.214467 0.220086 0.892988
O O16 0.745479 0.500000 0.395886
O O17 0.924029 0.000000 0.602643
O O18 0.002118 0.000000 0.894378
O O19 0.000000 0.770698 0.000000
O O20 0.696739 0.500000 0.023510
O O21 0.750000 0.250000 0.000000
#
# Coordination Sequence:
#
# PCOD8100384 Si02
#       8
#     8   8   8   8   8   8   8   8
#     4  12  26  42  62  92 126 164 207 254 310 371
#     4   9  19  37  60  86 120 159 203 251 302 361
#     4   9  17  34  60  88 118 159 203 245 292 357
#     4  10  20  35  58  89 122 158 202 250 303 368
#     4   9  19  34  57  88 121 160 200 247 304 364
#     4   8  16  31  57  89 120 155 198 241 295 358
#     4  10  23  42  65  92 122 161 210 261 311 367
#     4  12  26  45  67  91 123 164 209 260 313 367
#
# _framework density 21.159113999999999
#
# number of rings (size 3 to 8) (size 9 to 14) (size 15 to 20)
#    0.000    2.125    0.000    3.750    3.500    2.250 
#    0.000    1.875    0.000    0.000    0.000    0.000 
#    0.000    0.000    0.000    0.000    0.000    0.000 
#
# Total GULP energy -396651.467268 kJ/mol
# GULP energy per Si atom -12395.358352 kJ/mol
# Density = 2.111095 g / cm^3
# Si number density = 21.159114 Si / 1000 Ang^3
#
#
#
# Elastic Constant Matrix: (Units=GPa)
#
#
# Indices 1 2 3 4 5 6 
#
# 1 77.9648 31.5229 26.3917 0.0000 8.5470 0.0001
# 2 31.5229 71.3267 29.9067 -0.0017 3.4476 0.0002
# 3 26.3917 29.9067 102.7917 -0.0009 6.8525 0.0001
# 4 0.0000 -0.0017 -0.0009 24.7205 0.0002 2.0616
# 5 8.5470 3.4476 6.8525 0.0002 34.5429 0.0000
# 6 0.0001 0.0002 0.0001 2.0616 0.0000 31.3847
#
#
#
# Elastic Compliance Matrix: (Units=1/GPa)
#
#
# Indices 1 2 3 4 5 6 
#
# 1 0.016402 -0.006175 -0.002214 0.000000 -0.003003 0.000000
# 2 -0.006175 0.018309 -0.003771 0.000001 0.000449 0.000000
# 3 -0.002214 -0.003771 0.011484 0.000000 -0.001354 0.000000
# 4 0.000000 0.000001 0.000000 0.040675 0.000000 -0.002672
# 5 -0.003003 0.000449 -0.001354 0.000000 0.029916 0.000000
# 6 0.000000 0.000000 0.000000 -0.002672 0.000000 0.032038
#
#
# Mechanical properties :
#
#
# Convention : Reuss Voigt Hill
#
# Bulk Modulus (GPa) = 45.71772 47.52508 46.62140
# Shear Modulus (GPa) = 27.71049 29.08043 28.39546
#
# Velocity S-wave (km/s) = 3.62280 3.71127 3.66730
# Velocity P-wave (km/s) = 6.25724 6.39330 6.32564
#
# Compressibility (1/GPa) = 0.02187336
#
# Stress axis : x y z
#
# Youngs Moduli (GPa) = 60.96885 54.61888 87.07449
#
# Poissons Ratio (x) = 0.33728 0.19281
# Poissons Ratio (y) = 0.37650 0.32838
# Poissons Ratio (z) = 0.13501 0.20598
#
# Static dielectric constant tensor:
#      x y z
#    x 4.005130 0.000000 -0.031290 
#    y 0.000000 3.448520 0.000000 
#    z -0.031290 0.000000 4.162950 
# 
# 
# High freq. dielectric constant tensor:
#      x y z
#    x 1.830720 0.000000 0.007120 
#    y 0.000000 1.792260 0.000000 
#    z 0.007120 0.000000 1.846110 
# 
# From -- ./inp_files/295664.got.cif
#   From: 2010.06.25/outbox.cif.g09.slc.cpg/sg12_148_cif.got.tgz:295664.got - 2010.06.28 00:19:55.
