data_PCOD8100312
_publ_section_title
;
Structure prediction by ZEFSAII (Michael W. Deem and Ramdas Pophale) SiO2 
 PCOD8100312
Probable space group: C 2/M
;
_chemical_formula_sum "Si O2"
_cell_formula_units_Z 64
_cell_length_a 29.894089
_cell_length_b 8.823593
_cell_length_c 18.923302
_cell_angle_alpha 90.000000
_cell_angle_beta 140.067005
_cell_angle_gamma 90.000000
_cell_volume 3203.975671
_symmetry_space_group_name_H-M "C 2/M"
_symmetry_group_IT_number 12
_symmetry_cell_setting 'monoclinic'
loop_
_space_group_symop_operation_xyz
x,y,z
-x,y,-z
-x,-y,-z
x,-y,z
1/2+x,1/2+y,z
1/2-x,1/2+y,-z
1/2-x,1/2-y,-z
1/2+x,1/2-y,z
loop_
_atom_site_type_symbol
_atom_site_label
_atom_site_fract_x
_atom_site_fract_y
_atom_site_fract_z
Si Si1 0.464342 0.824361 0.295473
Si Si2 0.425122 0.323549 0.108901
Si Si3 0.266225 0.677291 0.944689
Si Si4 0.196541 0.176148 0.532267
Si Si5 0.847451 0.675438 0.660198
Si Si6 0.640057 0.678534 0.725245
Si Si7 0.009361 0.323093 0.092466
Si Si8 0.889577 0.324292 0.455288
O O1 0.466923 0.774200 0.217307
O O2 0.406689 0.724703 0.264783
O O3 0.539597 0.791138 0.418004
O O4 0.443921 0.000000 0.277557
O O5 0.439209 0.500000 0.139214
O O6 0.452812 0.274274 0.066202
O O7 0.343836 0.284328 0.014245
O O8 0.252625 0.500000 0.934363
O O9 0.216103 0.747453 0.824548
O O10 0.250000 0.750000 0.000000
O O11 0.151083 0.228461 0.409967
O O12 0.277839 0.213202 0.619702
O O13 0.174531 0.265860 0.575600
O O14 0.182654 0.000000 0.527967
O O15 0.849102 0.500000 0.639853
O O16 0.912850 0.719917 0.787896
O O17 0.648080 0.500000 0.733878
O O18 0.604627 0.735016 0.610780
O O19 0.994234 0.500000 0.085939
O O20 0.000000 0.276886 0.000000
O O21 0.878873 0.500000 0.425383
#
# Coordination Sequence:
#
# PCOD8100312 Si02
#       8
#     8   8   8   8   8   8   8   8
#     4  11  23  40  63  87 119 161 202 246 300 363
#     4  11  24  40  63  94 123 156 203 254 305 361
#     4  11  23  41  64  90 122 160 203 252 303 360
#     4  10  20  35  58  87 116 152 198 248 297 353
#     4   9  19  37  59  84 116 153 196 244 299 361
#     4  12  25  40  61  89 120 158 201 252 304 357
#     4  10  22  40  61  86 119 159 201 247 301 363
#     4  11  24  40  58  86 123 161 200 244 302 368
#
# _framework density 19.975183999999999
#
# number of rings (size 3 to 8) (size 9 to 14) (size 15 to 20)
#    0.000    1.375    1.250    4.125    0.000   10.250 
#    0.000    1.250    0.000    0.000    0.000    0.000 
#    0.000    0.000    0.000    0.000    0.000    0.000 
#
# Total GULP energy -397044.762065 kJ/mol
# GULP energy per Si atom -12407.648815 kJ/mol
# Density = 1.992972 g / cm^3
# Si number density = 19.975184 Si / 1000 Ang^3
#
#
#
# Elastic Constant Matrix: (Units=GPa)
#
#
# Indices 1 2 3 4 5 6 
#
# 1 107.8603 45.1543 55.9926 0.0000 -2.0774 0.0000
# 2 45.1543 99.5254 52.9617 0.0000 7.9145 0.0000
# 3 55.9926 52.9617 97.8386 0.0000 1.0422 0.0000
# 4 0.0000 0.0000 0.0000 29.5485 0.0000 -4.9148
# 5 -2.0774 7.9145 1.0422 0.0000 28.7528 0.0000
# 6 0.0000 0.0000 0.0000 -4.9148 0.0000 38.5118
#
#
#
# Elastic Compliance Matrix: (Units=1/GPa)
#
#
# Indices 1 2 3 4 5 6 
#
# 1 0.013875 -0.003124 -0.006272 0.000000 0.002090 0.000000
# 2 -0.003124 0.015201 -0.006396 0.000000 -0.004178 0.000000
# 3 -0.006272 -0.006396 0.017266 0.000000 0.000682 0.000000
# 4 0.000000 0.000000 0.000000 0.034577 0.000000 0.004413
# 5 0.002090 -0.004178 0.000682 0.000000 0.036055 0.000000
# 6 0.000000 0.000000 0.000000 0.004413 0.000000 0.026529
#
#
# Mechanical properties :
#
#
# Convention : Reuss Voigt Hill
#
# Bulk Modulus (GPa) = 67.76213 68.16016 67.96115
# Shear Modulus (GPa) = 27.77684 29.43701 28.60693
#
# Velocity S-wave (km/s) = 3.73308 3.84302 3.78845
# Velocity P-wave (km/s) = 7.25107 7.34086 7.29610
#
# Compressibility (1/GPa) = 0.01475751
#
# Stress axis : x y z
#
# Youngs Moduli (GPa) = 72.07146 65.78566 57.91875
#
# Poissons Ratio (x) = 0.20549 0.36327
# Poissons Ratio (y) = 0.22512 0.37047
# Poissons Ratio (z) = 0.45204 0.42079
#
# Static dielectric constant tensor:
#      x y z
#    x 3.654120 0.000000 0.106950 
#    y 0.000000 3.674950 0.000000 
#    z 0.106950 0.000000 3.656390 
# 
# 
# High freq. dielectric constant tensor:
#      x y z
#    x 1.784460 0.000000 0.004280 
#    y 0.000000 1.787090 0.000000 
#    z 0.004280 0.000000 1.785070 
# 
# From -- ./inp_files/295783.got.cif
#   From: 2010.06.25/outbox.cif.g09.slc.cpg/sg12_148_cif.got.tgz:295783.got - 2010.06.28 00:19:55.
