data_PCOD8100641
_publ_section_title
;
Structure prediction by ZEFSAII (Michael W. Deem and Ramdas Pophale) SiO2 
 PCOD8100641
Probable space group: C 2/M
;
_chemical_formula_sum "Si O2"
_cell_formula_units_Z 40
_cell_length_a 12.338494
_cell_length_b 18.097140
_cell_length_c 8.945462
_cell_angle_alpha 90.000000
_cell_angle_beta 76.772064
_cell_angle_gamma 90.000000
_cell_volume 1944.447893
_symmetry_space_group_name_H-M "C 2/M"
_symmetry_group_IT_number 12
_symmetry_cell_setting 'monoclinic'
loop_
_space_group_symop_operation_xyz
x,y,z
-x,y,-z
-x,-y,-z
x,-y,z
1/2+x,1/2+y,z
1/2-x,1/2+y,-z
1/2-x,1/2-y,-z
1/2+x,1/2-y,z
loop_
_atom_site_type_symbol
_atom_site_label
_atom_site_fract_x
_atom_site_fract_y
_atom_site_fract_z
Si Si1 0.243319 0.175580 0.597176
Si Si2 0.836325 0.649298 0.011935
Si Si3 0.075605 0.416056 0.294574
Si Si4 0.825686 0.417728 0.333892
Si Si5 0.620534 0.314149 0.930080
O O1 0.250000 0.250000 0.500000
O O2 0.354257 0.151295 0.654436
O O3 0.229576 0.111671 0.476245
O O4 0.141262 0.184241 0.744108
O O5 0.831696 0.630091 0.185356
O O6 0.876423 0.733783 0.994136
O O7 0.920299 0.599064 0.887097
O O8 0.713594 0.636697 0.981567
O O9 0.121098 0.500000 0.313302
O O10 0.945275 0.412724 0.383360
O O11 0.795032 0.500000 0.297290
O O12 0.500000 0.349496 0.000000
#
# Coordination Sequence:
#
# PCOD8100641 Si02
#       5
#     8   8   8   8   8
#     4  11  22  37  55  87 121 158 197 237 293 352
#     4  10  20  35  60  91 119 151 200 243 289 358
#     4  10  21  37  61  91 124 157 190 242 310 361
#     4  11  21  37  61  92 124 152 192 251 308 351
#     4  10  21  39  59  83 119 160 198 241 291 348
#
# _framework density 20.571393
#
# number of rings (size 3 to 8) (size 9 to 14) (size 15 to 20)
#    0.000    1.600    2.000    3.600    0.000    3.200 
#    3.600    1.000    0.000   22.800    0.000    0.000 
#    0.000    0.000    0.000    0.000    0.000    0.000 
#
# Total GULP energy -247853.082515 kJ/mol
# GULP energy per Si atom -12392.654126 kJ/mol
# Density = 2.052457 g / cm^3
# Si number density = 20.571393 Si / 1000 Ang^3
#
#
#
# Elastic Constant Matrix: (Units=GPa)
#
#
# Indices 1 2 3 4 5 6 
#
# 1 72.9559 21.8490 36.2918 0.0000 -17.9960 0.0000
# 2 21.8490 73.6294 24.2957 0.0000 -5.7164 0.0000
# 3 36.2918 24.2957 93.0196 0.0000 -14.9757 0.0000
# 4 0.0000 0.0000 0.0000 31.3794 0.0000 2.1639
# 5 -17.9960 -5.7164 -14.9757 0.0000 36.4158 0.0000
# 6 0.0000 0.0000 0.0000 2.1639 0.0000 17.7275
#
#
#
# Elastic Compliance Matrix: (Units=1/GPa)
#
#
# Indices 1 2 3 4 5 6 
#
# 1 0.019081 -0.003330 -0.005505 0.000000 0.006643 0.000000
# 2 -0.003330 0.015465 -0.002800 0.000000 -0.000369 0.000000
# 3 -0.005505 -0.002800 0.014051 0.000000 0.002618 0.000000
# 4 0.000000 0.000000 0.000000 0.032139 0.000000 -0.003923
# 5 0.006643 -0.000369 0.002618 0.000000 0.031762 0.000000
# 6 0.000000 0.000000 0.000000 -0.003923 0.000000 0.056888
#
#
# Mechanical properties :
#
#
# Convention : Reuss Voigt Hill
#
# Bulk Modulus (GPa) = 39.48264 44.94199 42.21231
# Shear Modulus (GPa) = 24.86343 27.58243 26.22293
#
# Velocity S-wave (km/s) = 3.48032 3.66569 3.57421
# Velocity P-wave (km/s) = 5.94852 6.30956 6.13170
#
# Compressibility (1/GPa) = 0.02532759
#
# Stress axis : x y z
#
# Youngs Moduli (GPa) = 52.40703 64.66318 71.16870
#
# Poissons Ratio (x) = 0.21532 0.39182
# Poissons Ratio (y) = 0.17451 0.19924
# Poissons Ratio (z) = 0.28852 0.18103
#
# Static dielectric constant tensor:
#      x y z
#    x 3.613850 0.000000 -0.079030 
#    y 0.000000 3.667300 0.000000 
#    z -0.079030 0.000000 4.184120 
# 
# 
# High freq. dielectric constant tensor:
#      x y z
#    x 1.766370 0.000000 0.002230 
#    y 0.000000 1.791190 0.000000 
#    z 0.002230 0.000000 1.839780 
# 
# From -- ./inp_files/46907.got.cif
#   From: 2010.06.25/outbox.cif.g09.slc.cpg/sg12_24_cif.got.tgz:46907.got - 2010.06.28 00:19:55.
