data_PCOD8100674
_publ_section_title
;
Structure prediction by ZEFSAII (Michael W. Deem and Ramdas Pophale) SiO2 
 PCOD8100674
Probable space group: C 2/M
;
_chemical_formula_sum "Si O2"
_cell_formula_units_Z 64
_cell_length_a 15.168370
_cell_length_b 26.662943
_cell_length_c 9.442142
_cell_angle_alpha 90.000000
_cell_angle_beta 63.158787
_cell_angle_gamma 90.000000
_cell_volume 3407.293681
_symmetry_space_group_name_H-M "C 2/M"
_symmetry_group_IT_number 12
_symmetry_cell_setting 'monoclinic'
loop_
_space_group_symop_operation_xyz
x,y,z
-x,y,-z
-x,-y,-z
x,-y,z
1/2+x,1/2+y,z
1/2-x,1/2+y,-z
1/2-x,1/2-y,-z
1/2+x,1/2-y,z
loop_
_atom_site_type_symbol
_atom_site_label
_atom_site_fract_x
_atom_site_fract_y
_atom_site_fract_z
Si Si1 0.555761 0.164277 0.830770
Si Si2 0.285283 0.364865 0.248865
Si Si3 0.077298 0.681373 0.331870
Si Si4 0.405458 0.440736 0.656511
Si Si5 0.650904 0.730084 0.427753
Si Si6 0.600104 0.557932 0.012898
Si Si7 0.635834 0.267229 0.743325
Si Si8 0.263468 0.374338 0.597400
O O1 0.467493 0.172469 0.787416
O O2 0.595106 0.219158 0.857244
O O3 0.645737 0.131002 0.707205
O O4 0.500000 0.136755 0.000000
O O5 0.178927 0.348771 0.269172
O O6 0.315391 0.411159 0.128619
O O7 0.369530 0.320484 0.169878
O O8 0.282254 0.380404 0.416701
O O9 0.089782 0.741760 0.349179
O O10 0.000000 0.658648 0.500000
O O11 0.500000 0.419943 0.500000
O O12 0.402141 0.500000 0.649834
O O13 0.305362 0.421447 0.653658
O O14 0.412451 0.423306 0.815466
O O15 0.587760 0.732750 0.620488
O O16 0.747576 0.764426 0.374520
O O17 0.678917 0.672866 0.374221
O O18 0.632693 0.500000 0.986995
O O19 0.500000 0.566270 0.000000
#
# Coordination Sequence:
#
# PCOD8100674 Si02
#       8
#     8   8   8   8   8   8   8   8
#     4  11  22  34  51  80 122 160 193 231 273 329
#     4  10  20  35  61  85 111 148 194 240 279 331
#     4  11  18  34  55  81 114 161 198 224 271 331
#     4  10  22  41  63  86 113 144 180 227 291 353
#     4   8  15  30  52  71 103 146 190 227 263 314
#     4  10  22  41  63  87 112 140 180 235 293 341
#     4   8  15  32  48  72 107 145 185 229 269 310
#     4  10  20  37  57  85 114 149 193 234 284 337
#
# _framework density 18.783235000000001
#
# number of rings (size 3 to 8) (size 9 to 14) (size 15 to 20)
#    0.000    2.250    2.500    2.250    1.750    2.500 
#    4.500    1.875    0.000    1.500    0.000    0.000 
#    0.000    0.000    0.000    0.000    0.000    0.000 
#
# Total GULP energy -396468.349707 kJ/mol
# GULP energy per Si atom -12389.635928 kJ/mol
# Density = 1.874048 g / cm^3
# Si number density = 18.783235 Si / 1000 Ang^3
#
#
#
# Elastic Constant Matrix: (Units=GPa)
#
#
# Indices 1 2 3 4 5 6 
#
# 1 110.6383 33.0340 52.1226 0.0000 12.2938 0.0000
# 2 33.0340 50.3950 41.6245 0.0000 -2.4578 0.0000
# 3 52.1226 41.6245 124.9732 0.0000 3.5612 0.0000
# 4 0.0000 0.0000 0.0000 17.8992 0.0000 -0.8765
# 5 12.2938 -2.4578 3.5612 0.0000 27.9978 0.0000
# 6 0.0000 0.0000 0.0000 -0.8765 0.0000 22.7773
#
#
#
# Elastic Compliance Matrix: (Units=1/GPa)
#
#
# Indices 1 2 3 4 5 6 
#
# 1 0.013052 -0.006185 -0.003217 0.000000 -0.005865 0.000000
# 2 -0.006185 0.030666 -0.007817 0.000000 0.006402 0.000000
# 3 -0.003217 -0.007817 0.011969 0.000000 -0.000796 0.000000
# 4 0.000000 0.000000 0.000000 0.055974 0.000000 0.002154
# 5 -0.005865 0.006402 -0.000796 0.000000 0.038956 0.000000
# 6 0.000000 0.000000 0.000000 0.002154 0.000000 0.043986
#
#
# Mechanical properties :
#
#
# Convention : Reuss Voigt Hill
#
# Bulk Modulus (GPa) = 47.05624 59.95208 53.50416
# Shear Modulus (GPa) = 21.17533 24.34989 22.76261
#
# Velocity S-wave (km/s) = 3.36125 3.60441 3.48495
# Velocity P-wave (km/s) = 6.33803 7.02207 6.68880
#
# Compressibility (1/GPa) = 0.02125117
#
# Stress axis : x y z
#
# Youngs Moduli (GPa) = 76.61534 32.60925 83.54626
#
# Poissons Ratio (x) = 0.20169 0.26873
# Poissons Ratio (y) = 0.47387 0.65306
# Poissons Ratio (z) = 0.24643 0.25490
#
# Static dielectric constant tensor:
#      x y z
#    x 3.479640 0.000000 0.059060 
#    y 0.000000 3.306020 0.000000 
#    z 0.059060 0.000000 3.416510 
# 
# 
# High freq. dielectric constant tensor:
#      x y z
#    x 1.733020 0.000000 0.004590 
#    y 0.000000 1.701900 0.000000 
#    z 0.004590 0.000000 1.722980 
# 
# From -- ./inp_files/66927.got.cif
#   From: 2010.06.25/outbox.cif.g09.slc.cpg/sg12_34_cif.got.tgz:66927.got - 2010.06.28 00:19:55.
