data_PCOD8100511
_publ_section_title
;
Structure prediction by ZEFSAII (Michael W. Deem and Ramdas Pophale) SiO2 
 PCOD8100511
Probable space group: C 2/M
;
_chemical_formula_sum "Si O2"
_cell_formula_units_Z 64
_cell_length_a 12.185970
_cell_length_b 18.399899
_cell_length_c 14.765530
_cell_angle_alpha 90.000000
_cell_angle_beta 91.313305
_cell_angle_gamma 90.000000
_cell_volume 3309.866566
_symmetry_space_group_name_H-M "C 2/M"
_symmetry_group_IT_number 12
_symmetry_cell_setting 'monoclinic'
loop_
_space_group_symop_operation_xyz
x,y,z
-x,y,-z
-x,-y,-z
x,-y,z
1/2+x,1/2+y,z
1/2-x,1/2+y,-z
1/2-x,1/2-y,-z
1/2+x,1/2-y,z
loop_
_atom_site_type_symbol
_atom_site_label
_atom_site_fract_x
_atom_site_fract_y
_atom_site_fract_z
Si Si1 0.253849 0.150665 0.426103
Si Si2 0.601239 0.179542 0.261250
Si Si3 0.469443 0.916619 0.399371
Si Si4 0.963291 0.161339 0.687383
Si Si5 0.390452 0.183324 0.947533
Si Si6 0.503994 0.416926 0.131751
Si Si7 0.304210 0.313197 0.383341
Si Si8 0.657001 0.651800 0.003381
O O1 0.337828 0.091488 0.387287
O O2 0.135869 0.139577 0.379480
O O3 0.307295 0.228671 0.407700
O O4 0.242959 0.140315 0.533830
O O5 0.527815 0.126451 0.320089
O O6 0.554796 0.260345 0.269163
O O7 0.596923 0.158738 0.156105
O O8 0.727573 0.173883 0.294827
O O9 0.500000 0.885592 0.500000
O O10 0.504670 0.000000 0.390711
O O11 0.972823 0.100783 0.764222
O O12 0.073621 0.159877 0.631664
O O13 0.371651 0.268964 0.958185
O O14 0.500000 0.157179 0.000000
O O15 0.286356 0.141967 0.989249
O O16 0.465437 0.500000 0.122287
O O17 0.616727 0.405997 0.077392
O O18 0.409391 0.363460 0.090906
#
# Coordination Sequence:
#
# PCOD8100511 Si02
#       8
#     8   8   8   8   8   8   8   8
#     4  10  21  35  59  88 122 160 202 258 304 364
#     4  11  21  37  62  92 125 161 211 257 304 371
#     4  11  23  42  64  87 124 170 211 249 303 381
#     4  11  21  35  59  94 123 155 206 261 309 356
#     4  11  21  36  62  95 128 151 207 272 307 352
#     4  11  22  41  63  88 124 168 209 247 310 387
#     4  10  20  35  59  88 122 158 203 255 310 359
#     4  10  20  38  61  88 121 164 206 249 312 368
#
# _framework density 19.336126
#
# number of rings (size 3 to 8) (size 9 to 14) (size 15 to 20)
#    0.000    1.375    5.000    1.875    0.000    2.500 
#    0.000    3.750    0.000    4.125    0.000    0.000 
#    0.000    0.000    0.000    0.000    0.000    0.000 
#
# Total GULP energy -396863.508699 kJ/mol
# GULP energy per Si atom -12401.984647 kJ/mol
# Density = 1.929212 g / cm^3
# Si number density = 19.336126 Si / 1000 Ang^3
#
#
#
# Elastic Constant Matrix: (Units=GPa)
#
#
# Indices 1 2 3 4 5 6 
#
# 1 149.8843 34.7946 60.6260 0.0000 -10.3081 0.0000
# 2 34.7946 47.1276 28.3521 0.0000 2.9506 0.0000
# 3 60.6260 28.3521 131.5464 0.0000 4.5533 0.0000
# 4 0.0000 0.0000 0.0000 21.8439 0.0000 0.1013
# 5 -10.3081 2.9506 4.5533 0.0000 21.9525 0.0000
# 6 0.0000 0.0000 0.0000 0.1013 0.0000 18.3057
#
#
#
# Elastic Compliance Matrix: (Units=1/GPa)
#
#
# Indices 1 2 3 4 5 6 
#
# 1 0.009795 -0.005480 -0.003543 0.000000 0.006071 0.000000
# 2 -0.005480 0.027552 -0.003219 0.000000 -0.005609 0.000000
# 3 -0.003543 -0.003219 0.010043 0.000000 -0.003314 0.000000
# 4 0.000000 0.000000 0.000000 0.045781 0.000000 -0.000253
# 5 0.006071 -0.005609 -0.003314 0.000000 0.049845 0.000000
# 6 0.000000 0.000000 0.000000 -0.000253 0.000000 0.054629
#
#
# Mechanical properties :
#
#
# Convention : Reuss Voigt Hill
#
# Bulk Modulus (GPa) = 43.65511 64.01151 53.83331
# Shear Modulus (GPa) = 21.76151 26.07280 23.91715
#
# Velocity S-wave (km/s) = 3.35839 3.67604 3.52080
# Velocity P-wave (km/s) = 6.13713 7.15501 6.66553
#
# Compressibility (1/GPa) = 0.02290683
#
# Stress axis : x y z
#
# Youngs Moduli (GPa) = 102.09759 36.29450 99.56976
#
# Poissons Ratio (x) = 0.19889 0.35278
# Poissons Ratio (y) = 0.55949 0.32048
# Poissons Ratio (z) = 0.36174 0.11682
#
# Static dielectric constant tensor:
#      x y z
#    x 3.631830 0.000000 -0.009840 
#    y 0.000000 3.245240 0.000000 
#    z -0.009840 0.000000 3.548640 
# 
# 
# High freq. dielectric constant tensor:
#      x y z
#    x 1.763350 0.000000 -0.003000 
#    y 0.000000 1.720060 0.000000 
#    z -0.003000 0.000000 1.758610 
# 
# From -- ./inp_files/206712.got.cif
#   From: 2010.06.25/outbox.cif.g09.slc.cpg/sg12_104_cif.got.tgz:206712.got - 2010.06.28 00:19:55.
