data_PCOD8100485
_publ_section_title
;
Structure prediction by ZEFSAII (Michael W. Deem and Ramdas Pophale) SiO2 
 PCOD8100485
Probable space group: C 2/M
;
_chemical_formula_sum "Si O2"
_cell_formula_units_Z 48
_cell_length_a 11.562501
_cell_length_b 19.872893
_cell_length_c 13.660409
_cell_angle_alpha 90.000000
_cell_angle_beta 46.370536
_cell_angle_gamma 90.000000
_cell_volume 2271.984891
_symmetry_space_group_name_H-M "C 2/M"
_symmetry_group_IT_number 12
_symmetry_cell_setting 'monoclinic'
loop_
_space_group_symop_operation_xyz
x,y,z
-x,y,-z
-x,-y,-z
x,-y,z
1/2+x,1/2+y,z
1/2-x,1/2+y,-z
1/2-x,1/2-y,-z
1/2+x,1/2-y,z
loop_
_atom_site_type_symbol
_atom_site_label
_atom_site_fract_x
_atom_site_fract_y
_atom_site_fract_z
Si Si1 0.190869 0.923531 0.657213
Si Si2 0.191904 0.302584 0.785801
Si Si3 0.402502 0.576260 0.963248
Si Si4 0.317235 0.819692 0.995762
Si Si5 0.393433 0.174872 0.651526
Si Si6 0.709825 0.824119 0.562724
O O1 0.316594 0.896277 0.664563
O O2 0.196308 0.878985 0.555923
O O3 0.012489 0.919224 0.803130
O O4 0.238160 0.000000 0.604824
O O5 0.242051 0.337985 0.858360
O O6 0.248800 0.225107 0.760876
O O7 0.265645 0.334261 0.643071
O O8 0.004187 0.308916 0.883710
O O9 0.345280 0.500000 0.016381
O O10 0.244750 0.621301 0.039501
O O11 0.500000 0.603419 0.000000
O O12 0.250000 0.750000 0.000000
O O13 0.500000 0.204361 0.500000
O O14 0.516502 0.165032 0.669795
O O15 0.750000 0.750000 0.500000
#
# Coordination Sequence:
#
# PCOD8100485 Si02
#       6
#     8   8   8   8   8   8
#     4  10  22  40  63  94 126 164 215 262 312 376
#     4  11  23  39  57 100 122 170 211 254 329 370
#     4  10  24  45  68  93 126 172 215 263 322 375
#     4  11  25  38  66  93 131 162 217 270 307 384
#     4  10  20  35  59  87 129 168 202 260 310 367
#     4  11  22  37  61  91 130 169 210 257 319 379
#
# _framework density 21.126901
#
# number of rings (size 3 to 8) (size 9 to 14) (size 15 to 20)
#    0.000    1.500    3.333    2.000    9.333    3.000 
#    0.000    3.333    0.000    2.000    0.000    0.000 
#    0.000    0.000    0.000    0.000    0.000    0.000 
#
# Total GULP energy -297458.442100 kJ/mol
# GULP energy per Si atom -12394.101754 kJ/mol
# Density = 2.107881 g / cm^3
# Si number density = 21.126901 Si / 1000 Ang^3
#
#
#
# Elastic Constant Matrix: (Units=GPa)
#
#
# Indices 1 2 3 4 5 6 
#
# 1 92.6894 31.5063 25.9771 0.0001 6.8619 0.0001
# 2 31.5063 109.1659 35.0624 0.0002 -9.5938 0.0000
# 3 25.9771 35.0624 66.7734 -0.0006 0.7703 0.0004
# 4 0.0001 0.0002 -0.0006 32.3355 0.0006 -3.0520
# 5 6.8619 -9.5938 0.7703 0.0006 39.7767 -0.0002
# 6 0.0001 0.0000 0.0004 -3.0520 -0.0002 31.3501
#
#
#
# Elastic Compliance Matrix: (Units=1/GPa)
#
#
# Indices 1 2 3 4 5 6 
#
# 1 0.012956 -0.002865 -0.003503 0.000000 -0.002858 0.000000
# 2 -0.002865 0.011966 -0.005209 0.000000 0.003481 0.000000
# 3 -0.003503 -0.005209 0.019086 0.000000 -0.001022 0.000000
# 4 0.000000 0.000000 0.000000 0.031213 0.000000 0.003039
# 5 -0.002858 0.003481 -0.001022 0.000000 0.026493 0.000000
# 6 0.000000 0.000000 0.000000 0.003039 0.000000 0.032194
#
#
# Mechanical properties :
#
#
# Convention : Reuss Voigt Hill
#
# Bulk Modulus (GPa) = 47.95262 50.41339 49.18300
# Shear Modulus (GPa) = 30.48550 32.43131 31.45841
#
# Velocity S-wave (km/s) = 3.80277 3.92225 3.86297
# Velocity P-wave (km/s) = 6.48291 6.66529 6.57473
#
# Compressibility (1/GPa) = 0.02085392
#
# Stress axis : x y z
#
# Youngs Moduli (GPa) = 77.18445 83.56796 52.39539
#
# Poissons Ratio (x) = 0.23945 0.18353
# Poissons Ratio (y) = 0.22116 0.27292
# Poissons Ratio (z) = 0.27036 0.43530
#
# Static dielectric constant tensor:
#      x y z
#    x 4.724420 0.000000 -1.170920 
#    y 0.000000 3.580640 0.000010 
#    z -1.170920 0.000010 8.823030 
# 
# 
# High freq. dielectric constant tensor:
#      x y z
#    x 1.831880 0.000000 0.009430 
#    y 0.000000 1.796320 0.000000 
#    z 0.009430 0.000000 1.840750 
# 
# From -- ./inp_files/207929.got.cif
#   From: 2010.06.25/outbox.cif.g09.slc.cpg/sg12_104_cif.got.tgz:207929.got - 2010.06.28 00:19:55.
