data_PCOD8100795
_publ_section_title
;
Structure prediction by ZEFSAII (Michael W. Deem and Ramdas Pophale) SiO2 
 PCOD8100795
Probable space group: C 2/M
;
_chemical_formula_sum "Si O2"
_cell_formula_units_Z 56
_cell_length_a 19.480427
_cell_length_b 9.151586
_cell_length_c 20.559185
_cell_angle_alpha 90.000000
_cell_angle_beta 123.929889
_cell_angle_gamma 90.000000
_cell_volume 3041.115594
_symmetry_space_group_name_H-M "C 2/M"
_symmetry_group_IT_number 12
_symmetry_cell_setting 'monoclinic'
loop_
_space_group_symop_operation_xyz
x,y,z
-x,y,-z
-x,-y,-z
x,-y,z
1/2+x,1/2+y,z
1/2-x,1/2+y,-z
1/2-x,1/2-y,-z
1/2+x,1/2-y,z
loop_
_atom_site_type_symbol
_atom_site_label
_atom_site_fract_x
_atom_site_fract_y
_atom_site_fract_z
Si Si1 0.682037 0.169023 0.005751
Si Si2 0.592336 0.167339 0.524483
Si Si3 0.197885 0.833403 0.822176
Si Si4 0.837118 0.173503 0.555461
Si Si5 0.385912 0.673063 0.724080
Si Si6 0.435355 0.327668 0.139251
Si Si7 0.779769 0.327355 0.298099
O O1 0.711359 0.185388 0.096220
O O2 0.678131 0.000000 0.983413
O O3 0.750000 0.250000 0.000000
O O4 0.594576 0.246273 0.942868
O O5 0.500000 0.183356 0.500000
O O6 0.600298 0.270854 0.466349
O O7 0.654714 0.223006 0.613042
O O8 0.613271 0.000000 0.516546
O O9 0.124751 0.785955 0.832665
O O10 0.192715 0.735259 0.756129
O O11 0.184017 0.000000 0.793586
O O12 0.750000 0.250000 0.500000
O O13 0.874179 0.224719 0.643897
O O14 0.826198 0.000000 0.545836
O O15 0.386300 0.500000 0.726295
O O16 0.473061 0.732533 0.797031
O O17 0.310683 0.732496 0.728796
O O18 0.433651 0.500000 0.125197
O O19 0.779564 0.500000 0.291324
#
# Coordination Sequence:
#
# PCOD8100795 Si02
#       7
#     8   8   8   8   8   8   8
#     4   9  17  32  53  78 108 139 172 215 263 313
#     4  10  22  39  56  79 114 146 181 232 278 318
#     4   9  19  33  52  78 107 135 169 217 267 311
#     4  11  21  37  60  81 108 146 187 227 272 329
#     4   9  19  36  55  76 106 141 178 222 268 316
#     4   9  18  34  56  79 104 136 176 223 264 310
#     4  10  20  36  54  74 106 145 178 215 267 322
#
# _framework density 18.414294999999999
#
# number of rings (size 3 to 8) (size 9 to 14) (size 15 to 20)
#    0.000    2.429    1.429    1.714    2.000    3.714 
#    0.000    2.857    0.000    4.286    0.000    0.000 
#    0.000    0.000    0.000    0.000    0.000    0.000 
#
# Total GULP energy -347131.288585 kJ/mol
# GULP energy per Si atom -12397.546021 kJ/mol
# Density = 1.837238 g / cm^3
# Si number density = 18.414295 Si / 1000 Ang^3
#
#
#
# Elastic Constant Matrix: (Units=GPa)
#
#
# Indices 1 2 3 4 5 6 
#
# 1 75.6917 18.7973 34.7567 0.0000 12.9651 0.0000
# 2 18.7973 48.7862 20.1169 0.0000 2.2127 0.0000
# 3 34.7567 20.1169 82.5183 0.0000 25.7198 0.0000
# 4 0.0000 0.0000 0.0000 31.2288 0.0000 -5.8910
# 5 12.9651 2.2127 25.7198 0.0000 34.9702 0.0000
# 6 0.0000 0.0000 0.0000 -5.8910 0.0000 23.8660
#
#
#
# Elastic Compliance Matrix: (Units=1/GPa)
#
#
# Indices 1 2 3 4 5 6 
#
# 1 0.017163 -0.004222 -0.005579 0.000000 -0.001993 0.000000
# 2 -0.004222 0.024149 -0.005346 0.000000 0.003969 0.000000
# 3 -0.005579 -0.005346 0.019489 0.000000 -0.011927 0.000000
# 4 0.000000 0.000000 0.000000 0.033586 0.000000 0.008290
# 5 -0.001993 0.003969 -0.011927 0.000000 0.037856 0.000000
# 6 0.000000 0.000000 0.000000 0.008290 0.000000 0.043947
#
#
# Mechanical properties :
#
#
# Convention : Reuss Voigt Hill
#
# Bulk Modulus (GPa) = 32.77877 39.37090 36.07483
# Shear Modulus (GPa) = 23.07854 26.90136 24.98995
#
# Velocity S-wave (km/s) = 3.54403 3.82631 3.68787
# Velocity P-wave (km/s) = 5.88101 6.39906 6.14549
#
# Compressibility (1/GPa) = 0.03050756
#
# Stress axis : x y z
#
# Youngs Moduli (GPa) = 58.26487 41.41004 51.31088
#
# Poissons Ratio (x) = 0.17484 0.28624
# Poissons Ratio (y) = 0.24600 0.27430
# Poissons Ratio (z) = 0.32503 0.22137
#
# Static dielectric constant tensor:
#      x y z
#    x 3.554760 0.000000 0.382140 
#    y 0.000000 3.361050 0.000000 
#    z 0.382140 0.000000 4.312320 
# 
# 
# High freq. dielectric constant tensor:
#      x y z
#    x 1.699660 0.000000 0.009200 
#    y 0.000000 1.699440 0.000000 
#    z 0.009200 0.000000 1.726710 
# 
# From -- ./inp_files/280991.got.cif
#   From: 2010.06.25/outbox.cif.g09.slc.cpg/sg12_141_cif.got.tgz:280991.got - 2010.06.28 00:19:55.
