data_PCOD8100670
_publ_section_title
;
Structure prediction by ZEFSAII (Michael W. Deem and Ramdas Pophale) SiO2 
 PCOD8100670
Probable space group: C 2/M
;
_chemical_formula_sum "Si O2"
_cell_formula_units_Z 40
_cell_length_a 12.307585
_cell_length_b 28.171071
_cell_length_c 5.048193
_cell_angle_alpha 90.000000
_cell_angle_beta 100.252391
_cell_angle_gamma 90.000000
_cell_volume 1722.352084
_symmetry_space_group_name_H-M "C 2/M"
_symmetry_group_IT_number 12
_symmetry_cell_setting 'monoclinic'
loop_
_space_group_symop_operation_xyz
x,y,z
-x,y,-z
-x,-y,-z
x,-y,z
1/2+x,1/2+y,z
1/2-x,1/2+y,-z
1/2-x,1/2-y,-z
1/2+x,1/2-y,z
loop_
_atom_site_type_symbol
_atom_site_label
_atom_site_fract_x
_atom_site_fract_y
_atom_site_fract_z
Si Si1 0.000000 0.381800 0.000000
Si Si2 0.000000 0.675277 0.500000
Si Si3 0.661487 0.553120 0.476015
Si Si4 0.430181 0.349846 0.713661
Si Si5 0.802068 0.552410 0.032039
Si Si6 0.770931 0.282131 0.265374
O O1 0.049419 0.353158 0.270945
O O2 0.902080 0.412070 0.075436
O O3 0.100590 0.703873 0.676255
O O4 0.606509 0.500000 0.457164
O O5 0.576752 0.593596 0.347035
O O6 0.762002 0.552443 0.315006
O O7 0.705822 0.567809 0.785975
O O8 0.500000 0.326410 0.500000
O O9 0.309939 0.327502 0.727282
O O10 0.500000 0.339844 0.000000
O O11 0.842823 0.500000 0.965381
O O12 0.750000 0.250000 0.500000
O O13 0.750000 0.250000 0.000000
#
# Coordination Sequence:
#
# PCOD8100670 Si02
#       6
#     4   4   8   8   8   8
#     4  12  21  38  64  96 140 168 238 282 345 414
#     4  12  28  46  73 104 128 184 221 292 356 426
#     4  10  22  41  64  95 141 188 233 283 343 417
#     4  12  26  44  72 106 141 185 237 292 357 422
#     4  10  20  35  60  93 137 187 231 282 337 399
#     4  12  28  49  76 100 141 179 234 295 359 431
#
# _framework density 23.224055
#
# number of rings (size 3 to 8) (size 9 to 14) (size 15 to 20)
#    0.000    0.800    0.000    7.500    4.200    0.800 
#    0.000    4.000    0.000    0.000    0.000    0.000 
#    0.000    0.000    0.000    0.000    0.000    0.000 
#
# Total GULP energy -247921.558886 kJ/mol
# GULP energy per Si atom -12396.077944 kJ/mol
# Density = 2.317120 g / cm^3
# Si number density = 23.224055 Si / 1000 Ang^3
#
#
#
# Elastic Constant Matrix: (Units=GPa)
#
#
# Indices 1 2 3 4 5 6 
#
# 1 120.2545 36.6987 31.1091 0.0000 10.7623 0.0000
# 2 36.6987 88.4418 37.7966 0.0000 8.5057 0.0000
# 3 31.1091 37.7966 139.1933 0.0000 1.3790 0.0000
# 4 0.0000 0.0000 0.0000 35.6157 0.0000 -4.9192
# 5 10.7623 8.5057 1.3790 0.0000 38.6597 0.0000
# 6 0.0000 0.0000 0.0000 -4.9192 0.0000 20.1562
#
#
#
# Elastic Compliance Matrix: (Units=1/GPa)
#
#
# Indices 1 2 3 4 5 6 
#
# 1 0.009843 -0.003353 -0.001270 0.000000 -0.001957 0.000000
# 2 -0.003353 0.014220 -0.003091 0.000000 -0.002085 0.000000
# 3 -0.001270 -0.003091 0.008300 0.000000 0.000738 0.000000
# 4 0.000000 0.000000 0.000000 0.029057 0.000000 0.007091
# 5 -0.001957 -0.002085 0.000738 0.000000 0.026844 0.000000
# 6 0.000000 0.000000 0.000000 0.007091 0.000000 0.051343
#
#
# Mechanical properties :
#
#
# Convention : Reuss Voigt Hill
#
# Bulk Modulus (GPa) = 59.05266 62.12203 60.58735
# Shear Modulus (GPa) = 31.11777 35.03868 33.07822
#
# Velocity S-wave (km/s) = 3.66443 3.88844 3.77810
# Velocity P-wave (km/s) = 6.58685 6.85325 6.72137
#
# Compressibility (1/GPa) = 0.01693404
#
# Stress axis : x y z
#
# Youngs Moduli (GPa) = 101.59826 70.32416 120.48005
#
# Poissons Ratio (x) = 0.23582 0.15299
# Poissons Ratio (y) = 0.34069 0.37242
# Poissons Ratio (z) = 0.12901 0.21738
#
# Static dielectric constant tensor:
#      x y z
#    x 4.079550 0.000000 -0.187160 
#    y 0.000000 4.407960 0.000000 
#    z -0.187160 0.000000 4.377740 
# 
# 
# High freq. dielectric constant tensor:
#      x y z
#    x 1.917240 0.000000 -0.014140 
#    y 0.000000 1.923420 0.000000 
#    z -0.014140 0.000000 1.938660 
# 
# From -- ./inp_files/8545.got.cif
#   From: 2010.06.25/outbox.cif.g09.slc.cpg/sg12_5_cif.got.tgz:8545.got - 2010.06.28 00:19:55.
