data_PCOD8100357
_publ_section_title
;
Structure prediction by ZEFSAII (Michael W. Deem and Ramdas Pophale) SiO2 
 PCOD8100357
Probable space group: C 2/M
;
_chemical_formula_sum "Si O2"
_cell_formula_units_Z 48
_cell_length_a 15.036103
_cell_length_b 8.483559
_cell_length_c 29.490934
_cell_angle_alpha 90.000000
_cell_angle_beta 40.334370
_cell_angle_gamma 90.000000
_cell_volume 2434.849153
_symmetry_space_group_name_H-M "C 2/M"
_symmetry_group_IT_number 12
_symmetry_cell_setting 'monoclinic'
loop_
_space_group_symop_operation_xyz
x,y,z
-x,y,-z
-x,-y,-z
x,-y,z
1/2+x,1/2+y,z
1/2-x,1/2+y,-z
1/2-x,1/2-y,-z
1/2+x,1/2-y,z
loop_
_atom_site_type_symbol
_atom_site_label
_atom_site_fract_x
_atom_site_fract_y
_atom_site_fract_z
Si Si1 0.837421 0.185592 0.424990
Si Si2 0.362159 0.314785 0.674882
Si Si3 0.359078 0.185289 0.577850
Si Si4 0.325387 0.684871 0.926766
Si Si5 0.142553 0.815871 0.920909
Si Si6 0.118290 0.314954 0.832691
O O1 0.750000 0.250000 0.500000
O O2 0.767607 0.233559 0.404885
O O3 0.990968 0.257953 0.366937
O O4 0.841404 0.000000 0.428998
O O5 0.367870 0.500000 0.678523
O O6 0.330751 0.272932 0.635473
O O7 0.242804 0.248855 0.753638
O O8 0.500000 0.244861 0.500000
O O9 0.367413 0.000000 0.583843
O O10 0.297320 0.500000 0.933680
O O11 0.268531 0.771483 0.904420
O O12 0.486211 0.717316 0.868480
O O13 0.250000 0.750000 0.000000
O O14 0.156390 0.716214 0.869881
O O15 0.146839 0.000000 0.907497
O O16 0.000000 0.769083 0.000000
O O17 0.091132 0.500000 0.836019
#
# Coordination Sequence:
#
# PCOD8100357 Si02
#       6
#     8   8   8   8   8   8
#     4  10  20  36  58  85 117 153 198 245 294 352
#     4  10  23  40  59  87 122 158 197 247 303 358
#     4  10  20  35  58  88 119 155 201 248 297 356
#     4  12  24  40  65  94 123 161 206 254 308 365
#     4  11  23  40  65  95 125 160 206 253 304 366
#     4  11  24  42  62  90 128 164 206 256 309 367
#
# _framework density 19.713747000000001
#
# number of rings (size 3 to 8) (size 9 to 14) (size 15 to 20)
#    0.000    1.333    3.333    2.500    0.000    4.333 
#    0.000    1.667    0.000    0.000    0.000    0.000 
#    0.000    0.000    0.000    0.000    0.000    0.000 
#
# Total GULP energy -297709.716066 kJ/mol
# GULP energy per Si atom -12404.571503 kJ/mol
# Density = 1.966888 g / cm^3
# Si number density = 19.713747 Si / 1000 Ang^3
#
#
#
# Elastic Constant Matrix: (Units=GPa)
#
#
# Indices 1 2 3 4 5 6 
#
# 1 143.8189 5.4586 65.2036 -0.0008 -9.0492 -0.0026
# 2 5.4586 32.7177 20.0277 -0.0013 -4.5057 -0.0028
# 3 65.2036 20.0277 158.8809 0.0001 -7.9957 0.0005
# 4 -0.0008 -0.0013 0.0001 28.7267 0.0000 4.0848
# 5 -9.0492 -4.5057 -7.9957 0.0000 32.8302 -0.0003
# 6 -0.0026 -0.0028 0.0005 4.0848 -0.0003 33.7307
#
#
#
# Elastic Compliance Matrix: (Units=1/GPa)
#
#
# Indices 1 2 3 4 5 6 
#
# 1 0.008647 0.000981 -0.003590 0.000000 0.001644 0.000001
# 2 0.000981 0.033651 -0.004453 0.000001 0.003804 0.000003
# 3 -0.003590 -0.004453 0.008350 0.000000 0.000433 -0.000001
# 4 0.000000 0.000001 0.000000 0.035421 0.000000 -0.004289
# 5 0.001644 0.003804 0.000433 0.000000 0.031540 0.000001
# 6 0.000001 0.000003 -0.000001 -0.004289 0.000001 0.030166
#
#
# Mechanical properties :
#
#
# Convention : Reuss Voigt Hill
#
# Bulk Modulus (GPa) = 27.37875 57.42194 42.40034
# Shear Modulus (GPa) = 28.72364 35.37269 32.04816
#
# Velocity S-wave (km/s) = 3.82125 4.24053 4.03634
# Velocity P-wave (km/s) = 5.77820 7.29159 6.57856
#
# Compressibility (1/GPa) = 0.03652467
#
# Stress axis : x y z
#
# Youngs Moduli (GPa) = 115.65012 29.71716 119.75688
#
# Poissons Ratio (x) = -0.02915 0.42987
# Poissons Ratio (y) = -0.11346 0.53328
# Poissons Ratio (z) = 0.41513 0.13233
#
# Static dielectric constant tensor:
#      x y z
#    x 3.900170 0.000010 -0.264730 
#    y 0.000010 3.882260 -0.000080 
#    z -0.264730 -0.000080 4.086640 
# 
# 
# High freq. dielectric constant tensor:
#      x y z
#    x 1.785930 0.000000 -0.002270 
#    y 0.000000 1.763670 0.000000 
#    z -0.002270 0.000000 1.768540 
# 
# From -- ./inp_files/308606.got.cif
#   From: 2010.06.25/outbox.cif.g09.slc.cpg/sg12_155_cif.got.tgz:308606.got - 2010.06.28 00:19:55.
