data_PCOD8100766
_publ_section_title
;
Structure prediction by ZEFSAII (Michael W. Deem and Ramdas Pophale) SiO2 
 PCOD8100766
Probable space group: C 2/M
;
_chemical_formula_sum "Si O2"
_cell_formula_units_Z 52
_cell_length_a 16.842756
_cell_length_b 29.507171
_cell_length_c 6.463887
_cell_angle_alpha 90.000000
_cell_angle_beta 61.526135
_cell_angle_gamma 90.000000
_cell_volume 2823.842643
_symmetry_space_group_name_H-M "C 2/M"
_symmetry_group_IT_number 12
_symmetry_cell_setting 'monoclinic'
loop_
_space_group_symop_operation_xyz
x,y,z
-x,y,-z
-x,-y,-z
x,-y,z
1/2+x,1/2+y,z
1/2-x,1/2+y,-z
1/2-x,1/2-y,-z
1/2+x,1/2-y,z
loop_
_atom_site_type_symbol
_atom_site_label
_atom_site_fract_x
_atom_site_fract_y
_atom_site_fract_z
Si Si1 0.584373 0.637092 0.772203
Si Si2 0.276890 0.116432 0.466569
Si Si3 0.599395 0.120569 0.296198
Si Si4 0.195305 0.312065 0.908657
Si Si5 0.600644 0.946994 0.952298
Si Si6 0.641061 0.712421 0.015911
Si Si7 0.500000 0.316641 0.500000
O O1 0.672149 0.604227 0.650737
O O2 0.557544 0.649852 0.573069
O O3 0.500000 0.613485 0.000000
O O4 0.609685 0.682786 0.862716
O O5 0.328898 0.125609 0.612348
O O6 0.274148 0.163250 0.339739
O O7 0.323883 0.075237 0.288293
O O8 0.500000 0.127222 0.500000
O O9 0.613423 0.159294 0.107131
O O10 0.610880 0.071618 0.172495
O O11 0.273956 0.310975 0.980739
O O12 0.162568 0.261660 0.896371
O O13 0.619326 0.000000 0.931271
O O14 0.500000 0.935138 0.000000
O O15 0.562733 0.716145 0.285432
#
# Coordination Sequence:
#
# PCOD8100766 Si02
#       7
#     8   8   8   8   8   8   4
#     4  10  21  36  57  81 108 149 200 238 280 330
#     4  11  21  39  58  81 117 147 186 239 286 334
#     4  11  22  37  55  82 114 153 186 225 285 344
#     4  10  22  34  54  77 113 150 194 233 283 333
#     4  10  22  39  60  88 116 146 186 228 285 361
#     4  10  20  36  51  79 107 153 196 238 281 327
#     4  10  20  36  52  74 109 146 195 246 274 322
#
# _framework density 18.414624
#
# number of rings (size 3 to 8) (size 9 to 14) (size 15 to 20)
#    0.000    1.692    4.615    0.000    1.077    2.769 
#    5.538    0.000    0.000    0.462    0.000    1.615 
#    0.000    0.000    0.000    0.000    0.000    0.000 
#
# Total GULP energy -322401.517566 kJ/mol
# GULP energy per Si atom -12400.058368 kJ/mol
# Density = 1.837271 g / cm^3
# Si number density = 18.414624 Si / 1000 Ang^3
#
#
#
# Elastic Constant Matrix: (Units=GPa)
#
#
# Indices 1 2 3 4 5 6 
#
# 1 111.2404 36.2344 53.3353 0.0000 -11.5990 0.0000
# 2 36.2344 80.3871 37.5004 0.0000 -7.2883 0.0000
# 3 53.3353 37.5004 101.1145 0.0000 -15.2514 0.0000
# 4 0.0000 0.0000 0.0000 16.8441 0.0000 -6.9348
# 5 -11.5990 -7.2883 -15.2514 0.0000 46.9682 0.0000
# 6 0.0000 0.0000 0.0000 -6.9348 0.0000 7.7995
#
#
#
# Elastic Compliance Matrix: (Units=1/GPa)
#
#
# Indices 1 2 3 4 5 6 
#
# 1 0.012688 -0.003118 -0.005401 0.000000 0.000896 0.000000
# 2 -0.003118 0.015822 -0.004173 0.000000 0.000330 0.000000
# 3 -0.005401 -0.004173 0.014708 0.000000 0.002795 0.000000
# 4 0.000000 0.000000 0.000000 0.093650 0.000000 0.083267
# 5 0.000896 0.000330 0.002795 0.000000 0.022471 0.000000
# 6 0.000000 0.000000 0.000000 0.083267 0.000000 0.202249
#
#
# Mechanical properties :
#
#
# Convention : Reuss Voigt Hill
#
# Bulk Modulus (GPa) = 56.07659 60.76469 58.42064
# Shear Modulus (GPa) = 12.72529 25.36715 19.04622
#
# Velocity S-wave (km/s) = 2.63162 3.71557 3.21954
# Velocity P-wave (km/s) = 6.30494 7.17474 6.75386
#
# Compressibility (1/GPa) = 0.01783275
#
# Stress axis : x y z
#
# Youngs Moduli (GPa) = 78.81261 63.20239 67.99013
#
# Poissons Ratio (x) = 0.19709 0.36722
# Poissons Ratio (y) = 0.24577 0.28375
# Poissons Ratio (z) = 0.42568 0.26376
#
# Static dielectric constant tensor:
#      x y z
#    x 3.582700 0.000000 -0.163780 
#    y 0.000000 3.016950 0.000000 
#    z -0.163780 0.000000 3.582580 
# 
# 
# High freq. dielectric constant tensor:
#      x y z
#    x 1.727430 0.000000 -0.002510 
#    y 0.000000 1.671930 0.000000 
#    z -0.002510 0.000000 1.734230 
# 
# From -- ./inp_files/13108.got.cif
#   From: 2010.06.25/outbox.cif.g09.slc.cpg/sg12_7_cif.got.tgz:13108.got - 2010.06.28 00:19:55.
