data_PCOD8100520
_publ_section_title
;
Structure prediction by ZEFSAII (Michael W. Deem and Ramdas Pophale) SiO2 
 PCOD8100520
Probable space group: C 2/M
;
_chemical_formula_sum "Si O2"
_cell_formula_units_Z 64
_cell_length_a 28.806360
_cell_length_b 8.924277
_cell_length_c 23.739556
_cell_angle_alpha 90.000000
_cell_angle_beta 147.669813
_cell_angle_gamma 90.000000
_cell_volume 3263.799542
_symmetry_space_group_name_H-M "C 2/M"
_symmetry_group_IT_number 12
_symmetry_cell_setting 'monoclinic'
loop_
_space_group_symop_operation_xyz
x,y,z
-x,y,-z
-x,-y,-z
x,-y,z
1/2+x,1/2+y,z
1/2-x,1/2+y,-z
1/2-x,1/2-y,-z
1/2+x,1/2-y,z
loop_
_atom_site_type_symbol
_atom_site_label
_atom_site_fract_x
_atom_site_fract_y
_atom_site_fract_z
Si Si1 0.342405 0.825363 0.460121
Si Si2 0.901336 0.323348 0.897542
Si Si3 0.013274 0.177679 0.200618
Si Si4 0.902746 0.321503 0.402041
Si Si5 0.512856 0.175323 0.707714
Si Si6 0.854719 0.175663 0.962156
Si Si7 0.664837 0.824208 0.784430
Si Si8 0.667163 0.176963 0.293790
O O1 0.355249 0.764195 0.409750
O O2 0.429347 0.793705 0.583888
O O3 0.263616 0.733476 0.407047
O O4 0.318373 0.000000 0.436507
O O5 0.897127 0.500000 0.900474
O O6 0.849802 0.250108 0.895970
O O7 0.858524 0.270332 0.795312
O O8 0.000000 0.265164 0.000000
O O9 0.102701 0.250362 0.272613
O O10 0.993478 0.227343 0.243153
O O11 0.020806 0.000000 0.205452
O O12 0.934886 0.237624 0.080782
O O13 0.904770 0.500000 0.405913
O O14 0.854035 0.257583 0.297082
O O15 0.000000 0.257792 0.500000
O O16 0.598176 0.238018 0.762682
O O17 0.520968 0.000000 0.731246
O O18 0.764613 0.213829 0.902428
O O19 0.863352 0.000000 0.961240
O O20 0.647506 0.000000 0.763091
O O21 0.661555 0.000000 0.295063
#
# Coordination Sequence:
#
# PCOD8100520 Si02
#       8
#     8   8   8   8   8   8   8   8
#     4  10  20  35  59  89 116 145 186 233 278 328
#     4  10  20  36  58  84 116 150 183 223 278 343
#     4  11  24  40  57  80 112 148 192 241 283 326
#     4   9  14  26  53  87 117 143 175 220 273 328
#     4  10  21  38  60  83 111 150 192 231 278 333
#     4  10  21  36  58  87 115 146 187 234 280 326
#     4   9  17  32  55  85 117 146 181 226 275 333
#     4  11  23  39  60  84 113 150 187 226 281 342
#
# _framework density 19.609048000000001
#
# number of rings (size 3 to 8) (size 9 to 14) (size 15 to 20)
#    0.000    2.000    2.500    1.500    0.000    4.250 
#    0.000    0.625    0.000    1.125    0.000    0.000 
#    0.000    0.000    0.000    0.000    0.000    0.000 
#
# Total GULP energy -396837.431237 kJ/mol
# GULP energy per Si atom -12401.169726 kJ/mol
# Density = 1.956442 g / cm^3
# Si number density = 19.609048 Si / 1000 Ang^3
#
#
#
# Elastic Constant Matrix: (Units=GPa)
#
#
# Indices 1 2 3 4 5 6 
#
# 1 144.5770 32.0308 49.8027 0.0000 8.2378 0.0000
# 2 32.0308 38.2333 21.7148 0.0000 1.7208 0.0000
# 3 49.8027 21.7148 57.5099 0.0000 19.3281 0.0000
# 4 0.0000 0.0000 0.0000 18.6290 0.0000 -3.6465
# 5 8.2378 1.7208 19.3281 0.0000 38.0027 0.0000
# 6 0.0000 0.0000 0.0000 -3.6465 0.0000 28.3187
#
#
#
# Elastic Compliance Matrix: (Units=1/GPa)
#
#
# Indices 1 2 3 4 5 6 
#
# 1 0.010590 -0.004274 -0.008263 0.000000 0.002101 0.000000
# 2 -0.004274 0.036152 -0.011713 0.000000 0.005246 0.000000
# 3 -0.008263 -0.011713 0.033998 0.000000 -0.014970 0.000000
# 4 0.000000 0.000000 0.000000 0.055068 0.000000 0.007091
# 5 0.002101 0.005246 -0.014970 0.000000 0.033235 0.000000
# 6 0.000000 0.000000 0.000000 0.007091 0.000000 0.036225
#
#
# Mechanical properties :
#
#
# Convention : Reuss Voigt Hill
#
# Bulk Modulus (GPa) = 31.01688 49.71297 40.36492
# Shear Modulus (GPa) = 18.90261 26.10821 22.50541
#
# Velocity S-wave (km/s) = 3.10816 3.65284 3.39146
# Velocity P-wave (km/s) = 5.36030 6.57253 5.99712
#
# Compressibility (1/GPa) = 0.03224051
#
# Stress axis : x y z
#
# Youngs Moduli (GPa) = 94.42546 27.66129 29.41358
#
# Poissons Ratio (x) = 0.11821 0.24306
# Poissons Ratio (y) = 0.40353 0.34451
# Poissons Ratio (z) = 0.78028 0.32399
#
# Static dielectric constant tensor:
#      x y z
#    x 3.657710 0.000000 0.076320 
#    y 0.000000 3.185920 0.000000 
#    z 0.076320 0.000000 3.692060 
# 
# 
# High freq. dielectric constant tensor:
#      x y z
#    x 1.773410 0.000000 0.010230 
#    y 0.000000 1.728250 0.000000 
#    z 0.010230 0.000000 1.770910 
# 
# From -- ./inp_files/353436.got.cif
#   From: 2010.06.25/outbox.cif.g09.slc.cpg/sg12_177_cif.got.tgz:353436.got - 2010.06.28 00:19:55.
