data_PCOD8100870
_publ_section_title
;
Structure prediction by ZEFSAII (Michael W. Deem and Ramdas Pophale) SiO2 
 PCOD8100870
Probable space group: C 2/M
;
_chemical_formula_sum "Si O2"
_cell_formula_units_Z 56
_cell_length_a 29.590952
_cell_length_b 8.961907
_cell_length_c 11.890261
_cell_angle_alpha 90.000000
_cell_angle_beta 109.263804
_cell_angle_gamma 90.000000
_cell_volume 2976.645744
_symmetry_space_group_name_H-M "C 2/M"
_symmetry_group_IT_number 12
_symmetry_cell_setting 'monoclinic'
loop_
_space_group_symop_operation_xyz
x,y,z
-x,y,-z
-x,-y,-z
x,-y,z
1/2+x,1/2+y,z
1/2-x,1/2+y,-z
1/2-x,1/2-y,-z
1/2+x,1/2-y,z
loop_
_atom_site_type_symbol
_atom_site_label
_atom_site_fract_x
_atom_site_fract_y
_atom_site_fract_z
Si Si1 0.064502 0.325828 0.154749
Si Si2 0.882352 0.827816 0.197499
Si Si3 0.707604 0.326002 0.032714
Si Si4 0.166143 0.824982 0.621164
Si Si5 0.043270 0.327202 0.887046
Si Si6 0.774362 0.677813 0.723683
Si Si7 0.851261 0.824955 0.643247
O O1 0.078350 0.500000 0.173946
O O2 0.102507 0.227076 0.251449
O O3 0.013155 0.296118 0.169211
O O4 0.062962 0.271625 0.024034
O O5 0.865632 0.756725 0.303375
O O6 0.931038 0.753020 0.195392
O O7 0.894140 0.000000 0.223307
O O8 0.841304 0.800233 0.073069
O O9 0.719213 0.500000 0.057818
O O10 0.700784 0.246102 0.146006
O O11 0.750000 0.250000 0.000000
O O12 0.220172 0.761418 0.669705
O O13 0.141142 0.787820 0.482244
O O14 0.170671 0.000000 0.646022
O O15 0.054357 0.500000 0.885821
O O16 0.777248 0.500000 0.730585
O O17 0.803794 0.737507 0.641514
O O18 0.843096 0.000000 0.656042
#
# Coordination Sequence:
#
# PCOD8100870 Si02
#       7
#     8   8   8   8   8   8   8
#     4   9  19  38  59  80 110 140 173 219 277 330
#     4  10  20  36  55  78 110 146 179 218 270 321
#     4  11  21  34  54  81 112 144 181 223 268 320
#     4   9  20  38  54  73 109 151 185 222 267 322
#     4   9  19  36  59  84 107 138 175 218 272 332
#     4  11  21  37  57  77 109 149 185 226 277 321
#     4  11  22  36  56  81 107 140 188 231 268 322
#
# _framework density 18.813123000000001
#
# number of rings (size 3 to 8) (size 9 to 14) (size 15 to 20)
#    0.000    2.000    1.429    3.429    0.000    4.571 
#    0.000    5.714    0.000    4.286    0.000    0.000 
#    0.000    0.000    0.000    0.000    0.000    0.000 
#
# Total GULP energy -347233.724212 kJ/mol
# GULP energy per Si atom -12401.204436 kJ/mol
# Density = 1.877030 g / cm^3
# Si number density = 18.813123 Si / 1000 Ang^3
#
#
#
# Elastic Constant Matrix: (Units=GPa)
#
#
# Indices 1 2 3 4 5 6 
#
# 1 125.8070 37.3228 45.6112 0.0000 -18.9044 0.0000
# 2 37.3228 60.1535 30.1641 0.0000 -7.5313 0.0000
# 3 45.6112 30.1641 92.2202 0.0000 -14.1176 0.0000
# 4 0.0000 0.0000 0.0000 24.4879 0.0000 -2.5056
# 5 -18.9044 -7.5313 -14.1176 0.0000 25.8637 0.0000
# 6 0.0000 0.0000 0.0000 -2.5056 0.0000 35.4266
#
#
#
# Elastic Compliance Matrix: (Units=1/GPa)
#
#
# Indices 1 2 3 4 5 6 
#
# 1 0.011303 -0.004740 -0.003259 0.000000 0.005103 0.000000
# 2 -0.004740 0.022016 -0.004808 0.000000 0.000322 0.000000
# 3 -0.003259 -0.004808 0.014675 0.000000 0.004229 0.000000
# 4 0.000000 0.000000 0.000000 0.041134 0.000000 0.002909
# 5 0.005103 0.000322 0.004229 0.000000 0.044796 0.000000
# 6 0.000000 0.000000 0.000000 0.002909 0.000000 0.028433
#
#
# Mechanical properties :
#
#
# Convention : Reuss Voigt Hill
#
# Bulk Modulus (GPa) = 44.67953 56.04188 50.36070
# Shear Modulus (GPa) = 25.58444 28.16115 26.87280
#
# Velocity S-wave (km/s) = 3.69172 3.87316 3.78353
# Velocity P-wave (km/s) = 6.47861 7.06082 6.77597
#
# Compressibility (1/GPa) = 0.02238162
#
# Stress axis : x y z
#
# Youngs Moduli (GPa) = 88.47074 45.42100 68.14206
#
# Poissons Ratio (x) = 0.21530 0.22207
# Poissons Ratio (y) = 0.41936 0.32759
# Poissons Ratio (z) = 0.28831 0.21836
#
# Static dielectric constant tensor:
#      x y z
#    x 3.193560 0.000000 0.228440 
#    y 0.000000 3.308690 0.000000 
#    z 0.228440 0.000000 3.318500 
# 
# 
# High freq. dielectric constant tensor:
#      x y z
#    x 1.737670 0.000000 -0.008700 
#    y 0.000000 1.718790 0.000000 
#    z -0.008700 0.000000 1.726810 
# 
# From -- ./inp_files/186370.got.cif
#   From: 2010.06.25/outbox.cif.g09.slc.cpg/sg12_94_cif.got.tgz:186370.got - 2010.06.28 00:19:55.
