data_PCOD8100551
_publ_section_title
;
Structure prediction by ZEFSAII (Michael W. Deem and Ramdas Pophale) SiO2 
 PCOD8100551
Probable space group: C 2/M
;
_chemical_formula_sum "Si O2"
_cell_formula_units_Z 56
_cell_length_a 27.103501
_cell_length_b 9.138042
_cell_length_c 19.529098
_cell_angle_alpha 90.000000
_cell_angle_beta 35.334326
_cell_angle_gamma 90.000000
_cell_volume 2797.362939
_symmetry_space_group_name_H-M "C 2/M"
_symmetry_group_IT_number 12
_symmetry_cell_setting 'monoclinic'
loop_
_space_group_symop_operation_xyz
x,y,z
-x,y,-z
-x,-y,-z
x,-y,z
1/2+x,1/2+y,z
1/2-x,1/2+y,-z
1/2-x,1/2-y,-z
1/2+x,1/2-y,z
loop_
_atom_site_type_symbol
_atom_site_label
_atom_site_fract_x
_atom_site_fract_y
_atom_site_fract_z
Si Si1 0.334253 0.340272 0.892929
Si Si2 0.495656 0.169184 0.698724
Si Si3 0.085527 0.671868 0.862326
Si Si4 0.423784 0.167660 0.537595
Si Si5 0.034933 0.826965 0.793524
Si Si6 0.749721 0.329832 0.234755
Si Si7 0.646407 0.656571 0.974569
O O1 0.320607 0.500000 0.871830
O O2 0.406767 0.243400 0.774088
O O3 0.250000 0.250000 0.000000
O O4 0.368615 0.371300 0.928894
O O5 0.556822 0.183808 0.564529
O O6 0.539086 0.248446 0.714635
O O7 0.477918 0.000000 0.737639
O O8 0.083998 0.500000 0.849064
O O9 0.101226 0.755013 0.771934
O O10 0.170096 0.716219 0.809297
O O11 0.000000 0.718951 0.000000
O O12 0.500000 0.228744 0.500000
O O13 0.337951 0.257109 0.645157
O O14 0.406970 0.000000 0.577160
O O15 0.051585 0.000000 0.764805
O O16 0.948908 0.790718 0.935258
O O17 0.733373 0.500000 0.250804
O O18 0.778898 0.273013 0.126345
O O19 0.669456 0.500000 0.913373
#
# Coordination Sequence:
#
# PCOD8100551 Si02
#       7
#     8   8   8   8   8   8   8
#     4  10  21  35  54  83 116 151 193 245 300 358
#     4  10  21  39  61  83 114 157 199 245 304 360
#     4  10  20  36  58  89 129 162 194 241 300 364
#     4  10  24  45  65  84 114 160 205 250 304 360
#     4  10  20  35  59  90 121 157 196 241 294 352
#     4  11  23  37  59  90 120 155 200 250 298 349
#     4   9  19  34  52  79 118 156 189 233 291 354
#
# _framework density 20.018853
#
# number of rings (size 3 to 8) (size 9 to 14) (size 15 to 20)
#    0.000    2.000    1.429    2.571    2.000    5.714 
#    0.000    0.714    0.000    0.000    0.000    0.000 
#    0.000    0.000    0.000    0.000    0.000    0.000 
#
# Total GULP energy -346905.021379 kJ/mol
# GULP energy per Si atom -12389.465049 kJ/mol
# Density = 1.997329 g / cm^3
# Si number density = 20.018853 Si / 1000 Ang^3
#
#
#
# Elastic Constant Matrix: (Units=GPa)
#
#
# Indices 1 2 3 4 5 6 
#
# 1 61.7940 35.0764 35.1824 0.0005 -5.0100 -0.0015
# 2 35.0764 113.4437 52.9284 0.0054 -3.9545 -0.0009
# 3 35.1824 52.9284 99.8521 0.0094 -9.5965 -0.0031
# 4 0.0005 0.0054 0.0094 33.0608 -0.0042 -4.7498
# 5 -5.0100 -3.9545 -9.5965 -0.0042 28.2741 0.0008
# 6 -0.0015 -0.0009 -0.0031 -4.7498 0.0008 30.3958
#
#
#
# Elastic Compliance Matrix: (Units=1/GPa)
#
#
# Indices 1 2 3 4 5 6 
#
# 1 0.021686 -0.004191 -0.005278 0.000002 0.001465 0.000001
# 2 -0.004191 0.012528 -0.005238 -0.000001 -0.000768 0.000000
# 3 -0.005278 -0.005238 0.014979 -0.000003 0.003416 0.000001
# 4 0.000002 -0.000001 -0.000003 0.030942 0.000004 0.004835
# 5 0.001465 -0.000768 0.003416 0.000004 0.036680 0.000000
# 6 0.000001 0.000000 0.000001 0.004835 0.000000 0.033655
#
#
# Mechanical properties :
#
#
# Convention : Reuss Voigt Hill
#
# Bulk Modulus (GPa) = 50.56085 57.94046 54.25065
# Shear Modulus (GPa) = 26.81292 28.47299 27.64295
#
# Velocity S-wave (km/s) = 3.66373 3.77544 3.72000
# Velocity P-wave (km/s) = 6.57333 6.92900 6.75351
#
# Compressibility (1/GPa) = 0.01977815
#
# Stress axis : x y z
#
# Youngs Moduli (GPa) = 46.11254 79.82243 66.75908
#
# Poissons Ratio (x) = 0.33458 0.35238
# Poissons Ratio (y) = 0.19328 0.34966
# Poissons Ratio (z) = 0.24340 0.41808
#
# Static dielectric constant tensor:
#      x y z
#    x 4.465860 0.000000 -0.053430 
#    y 0.000000 3.852460 0.000010 
#    z -0.053430 0.000010 3.378150 
# 
# 
# High freq. dielectric constant tensor:
#      x y z
#    x 1.784960 0.000000 0.001680 
#    y 0.000000 1.792450 0.000000 
#    z 0.001680 0.000000 1.758220 
# 
# From -- ./inp_files/281006.got.cif
#   From: 2010.06.25/outbox.cif.g09.slc.cpg/sg12_141_cif.got.tgz:281006.got - 2010.06.28 00:19:55.
