data_PCOD8100112
_publ_section_title
;
Structure prediction by ZEFSAII (Michael W. Deem and Ramdas Pophale) SiO2 
 PCOD8100112
Probable space group: C 2/M
;
_chemical_formula_sum "Si O2"
_cell_formula_units_Z 56
_cell_length_a 9.362419
_cell_length_b 19.142657
_cell_length_c 18.939947
_cell_angle_alpha 90.000000
_cell_angle_beta 126.822970
_cell_angle_gamma 90.000000
_cell_volume 2717.224920
_symmetry_space_group_name_H-M "C 2/M"
_symmetry_group_IT_number 12
_symmetry_cell_setting 'monoclinic'
loop_
_space_group_symop_operation_xyz
x,y,z
-x,y,-z
-x,-y,-z
x,-y,z
1/2+x,1/2+y,z
1/2-x,1/2+y,-z
1/2-x,1/2-y,-z
1/2+x,1/2-y,z
loop_
_atom_site_type_symbol
_atom_site_label
_atom_site_fract_x
_atom_site_fract_y
_atom_site_fract_z
Si Si1 0.987843 0.919476 0.655817
Si Si2 0.939933 0.325783 0.305096
Si Si3 0.024749 0.303035 0.925243
Si Si4 0.391948 0.646132 0.037067
Si Si5 0.110111 0.080761 0.216007
Si Si6 0.773279 0.690077 0.728361
Si Si7 0.373607 0.078831 0.529012
O O1 0.933504 0.892803 0.717857
O O2 0.827632 0.906501 0.554205
O O3 0.155887 0.877450 0.675055
O O4 0.044069 0.000000 0.675700
O O5 0.055660 0.303022 0.271782
O O6 0.073771 0.364077 0.397982
O O7 0.779259 0.377127 0.235165
O O8 0.853832 0.257456 0.315331
O O9 0.846714 0.321388 0.829592
O O10 0.069011 0.222912 0.920304
O O11 0.000000 0.313187 0.000000
O O12 0.184935 0.355915 0.952359
O O13 0.441131 0.592541 0.114364
O O14 0.500000 0.625469 0.000000
O O15 0.162988 0.000000 0.233931
O O16 0.500000 0.087774 0.500000
O O17 0.392821 0.000000 0.565248
#
# Coordination Sequence:
#
# PCOD8100112 Si02
#       7
#     8   8   8   8   8   8   8
#     4  10  23  43  67  93 125 170 214 256 319 387
#     4  12  25  41  63  96 130 167 216 263 324 373
#     4  10  21  36  62  86 123 166 211 257 313 381
#     4  10  20  35  57  88 121 162 213 256 313 376
#     4  11  21  39  66  93 128 169 214 265 316 380
#     4  12  26  42  65  96 132 168 212 274 315 379
#     4  10  21  43  71  95 125 169 215 256 313 390
#
# _framework density 20.609261
#
# number of rings (size 3 to 8) (size 9 to 14) (size 15 to 20)
#    0.000    1.286    2.857    3.000    4.000    2.571 
#    0.000    2.143    0.000    2.571    0.000    0.000 
#    0.000    0.000    0.000    0.000    0.000    0.000 
#
# Total GULP energy -347268.696546 kJ/mol
# GULP energy per Si atom -12402.453448 kJ/mol
# Density = 2.056235 g / cm^3
# Si number density = 20.609261 Si / 1000 Ang^3
#
#
#
# Elastic Constant Matrix: (Units=GPa)
#
#
# Indices 1 2 3 4 5 6 
#
# 1 92.6392 41.4373 13.8854 0.0000 3.6709 0.0000
# 2 41.4373 83.3016 38.1684 0.0000 6.9163 0.0000
# 3 13.8854 38.1684 105.6017 0.0000 4.2338 0.0000
# 4 0.0000 0.0000 0.0000 36.8642 0.0000 6.6094
# 5 3.6709 6.9163 4.2338 0.0000 28.7049 0.0000
# 6 0.0000 0.0000 0.0000 6.6094 0.0000 30.9342
#
#
#
# Elastic Compliance Matrix: (Units=1/GPa)
#
#
# Indices 1 2 3 4 5 6 
#
# 1 0.013941 -0.007294 0.000809 0.000000 -0.000145 0.000000
# 2 -0.007294 0.018416 -0.005590 0.000000 -0.002680 0.000000
# 3 0.000809 -0.005590 0.011401 0.000000 -0.000438 0.000000
# 4 0.000000 0.000000 0.000000 0.028207 0.000000 -0.006027
# 5 -0.000145 -0.002680 -0.000438 0.000000 0.035566 0.000000
# 6 0.000000 0.000000 0.000000 -0.006027 0.000000 0.033614
#
#
# Mechanical properties :
#
#
# Convention : Reuss Voigt Hill
#
# Bulk Modulus (GPa) = 50.99497 52.05829 51.52663
# Shear Modulus (GPa) = 29.09807 31.83742 30.46775
#
# Velocity S-wave (km/s) = 3.76159 3.93467 3.84911
# Velocity P-wave (km/s) = 6.60784 6.77914 6.69404
#
# Compressibility (1/GPa) = 0.01960978
#
# Stress axis : x y z
#
# Youngs Moduli (GPa) = 71.72840 54.29918 87.71030
#
# Poissons Ratio (x) = 0.39604 -0.07094
# Poissons Ratio (y) = 0.52316 0.49029
# Poissons Ratio (z) = -0.05802 0.30353
#
# Static dielectric constant tensor:
#      x y z
#    x 2.154600 0.000000 -3.016190 
#    y 0.000000 3.655440 0.000000 
#    z -3.016190 0.000000 -2.313110 
# 
# 
# High freq. dielectric constant tensor:
#      x y z
#    x 1.805940 0.000000 0.009340 
#    y 0.000000 1.792030 0.000000 
#    z 0.009340 0.000000 1.813040 
# 
# From -- ./inp_files/258227.got.cif
#   From: 2010.06.25/outbox.cif.g09.slc.cpg/sg12_130_cif.got.tgz:258227.got - 2010.06.28 00:19:55.
