data_PCOD8100379
_publ_section_title
;
Structure prediction by ZEFSAII (Michael W. Deem and Ramdas Pophale) SiO2 
 PCOD8100379
Probable space group: C 2/M
;
_chemical_formula_sum "Si O2"
_cell_formula_units_Z 40
_cell_length_a 20.958522
_cell_length_b 8.945413
_cell_length_c 13.230639
_cell_angle_alpha 90.000000
_cell_angle_beta 130.817645
_cell_angle_gamma 90.000000
_cell_volume 1877.238397
_symmetry_space_group_name_H-M "C 2/M"
_symmetry_group_IT_number 12
_symmetry_cell_setting 'monoclinic'
loop_
_space_group_symop_operation_xyz
x,y,z
-x,y,-z
-x,-y,-z
x,-y,z
1/2+x,1/2+y,z
1/2-x,1/2+y,-z
1/2-x,1/2-y,-z
1/2+x,1/2-y,z
loop_
_atom_site_type_symbol
_atom_site_label
_atom_site_fract_x
_atom_site_fract_y
_atom_site_fract_z
Si Si1 0.628710 0.169047 0.315928
Si Si2 0.776498 0.329945 0.375696
Si Si3 0.913420 0.675979 0.365814
Si Si4 0.340135 0.176118 0.077111
Si Si5 0.971957 0.824296 0.082957
O O1 0.692756 0.231111 0.297660
O O2 0.668922 0.178531 0.467022
O O3 0.545156 0.269055 0.233729
O O4 0.604384 0.000000 0.262197
O O5 0.747739 0.500000 0.323891
O O6 0.832808 0.261412 0.343853
O O7 0.915990 0.500000 0.388652
O O8 0.900808 0.713840 0.235217
O O9 0.000000 0.747105 0.500000
O O10 0.384346 0.245150 0.023575
O O11 0.328114 0.000000 0.051131
O O12 0.250000 0.250000 0.000000
O O13 0.958954 0.000000 0.079176
O O14 0.000000 0.775330 0.000000
#
# Coordination Sequence:
#
# PCOD8100379 Si02
#       5
#     8   8   8   8   8
#     4  10  20  35  58  89 121 153 198 254 308 359
#     4   9  18  34  58  87 121 159 198 242 300 371
#     4   9  18  35  61  88 117 159 205 245 297 367
#     4  11  24  42  65  94 129 164 206 256 311 374
#     4  11  25  43  63  85 117 163 213 257 308 370
#
# _framework density 21.307894999999998
#
# number of rings (size 3 to 8) (size 9 to 14) (size 15 to 20)
#    0.000    2.000    0.000    3.000    2.800    5.600 
#    0.000    1.000    0.000    4.200    0.000    0.000 
#    0.000    0.000    0.000    0.000    0.000    0.000 
#
# Total GULP energy -248040.372569 kJ/mol
# GULP energy per Si atom -12402.018628 kJ/mol
# Density = 2.125940 g / cm^3
# Si number density = 21.307895 Si / 1000 Ang^3
#
#
#
# Elastic Constant Matrix: (Units=GPa)
#
#
# Indices 1 2 3 4 5 6 
#
# 1 169.8167 60.1468 33.5627 0.0000 6.0428 0.0000
# 2 60.1468 91.5837 39.5289 0.0000 -1.1944 0.0000
# 3 33.5627 39.5289 58.8570 0.0000 14.6257 0.0000
# 4 0.0000 0.0000 0.0000 27.6669 0.0000 7.3905
# 5 6.0428 -1.1944 14.6257 0.0000 31.4183 0.0000
# 6 0.0000 0.0000 0.0000 7.3905 0.0000 33.9579
#
#
#
# Elastic Compliance Matrix: (Units=1/GPa)
#
#
# Indices 1 2 3 4 5 6 
#
# 1 0.007795 -0.004715 -0.000974 0.000000 -0.001225 0.000000
# 2 -0.004715 0.019335 -0.012105 0.000000 0.007277 0.000000
# 3 -0.000974 -0.012105 0.029111 0.000000 -0.013825 0.000000
# 4 0.000000 0.000000 0.000000 0.038375 0.000000 -0.008352
# 5 -0.001225 0.007277 -0.013825 0.000000 0.038776 0.000000
# 6 0.000000 0.000000 0.000000 -0.008352 0.000000 0.031266
#
#
# Mechanical properties :
#
#
# Convention : Reuss Voigt Hill
#
# Bulk Modulus (GPa) = 48.41977 65.19269 56.80623
# Shear Modulus (GPa) = 24.13931 31.07655 27.60793
#
# Velocity S-wave (km/s) = 3.36948 3.82311 3.60344
# Velocity P-wave (km/s) = 6.15720 7.08168 6.63556
#
# Compressibility (1/GPa) = 0.02065272
#
# Stress axis : x y z
#
# Youngs Moduli (GPa) = 128.29287 51.71953 34.35096
#
# Poissons Ratio (x) = 0.24384 0.03346
# Poissons Ratio (y) = 0.60485 0.41583
# Poissons Ratio (z) = 0.12496 0.62609
#
# Static dielectric constant tensor:
#      x y z
#    x 4.098430 0.000000 0.044950 
#    y 0.000000 3.691710 0.000000 
#    z 0.044950 0.000000 3.775670 
# 
# 
# High freq. dielectric constant tensor:
#      x y z
#    x 1.853380 0.000000 0.005760 
#    y 0.000000 1.812360 0.000000 
#    z 0.005760 0.000000 1.833480 
# 
# From -- ./inp_files/230620.got.cif
#   From: 2010.06.25/outbox.cif.g09.slc.cpg/sg12_116_cif.got.tgz:230620.got - 2010.06.28 00:19:55.
