data_PCOD8100944
_publ_section_title
;
Structure prediction by ZEFSAII (Michael W. Deem and Ramdas Pophale) SiO2 
 PCOD8100944
Probable space group: C 2/M
;
_chemical_formula_sum "Si O2"
_cell_formula_units_Z 44
_cell_length_a 8.370879
_cell_length_b 22.656997
_cell_length_c 16.015293
_cell_angle_alpha 90.000000
_cell_angle_beta 129.172575
_cell_angle_gamma 90.000000
_cell_volume 2354.769230
_symmetry_space_group_name_H-M "C 2/M"
_symmetry_group_IT_number 12
_symmetry_cell_setting 'monoclinic'
loop_
_space_group_symop_operation_xyz
x,y,z
-x,y,-z
-x,-y,-z
x,-y,z
1/2+x,1/2+y,z
1/2-x,1/2+y,-z
1/2-x,1/2-y,-z
1/2+x,1/2-y,z
loop_
_atom_site_type_symbol
_atom_site_label
_atom_site_fract_x
_atom_site_fract_y
_atom_site_fract_z
Si Si1 0.273024 0.283131 0.892186
Si Si2 0.317093 0.881011 0.004142
Si Si3 0.531307 0.673931 0.200957
Si Si4 0.621622 0.000000 0.697155
Si Si5 0.727099 0.903147 0.606138
Si Si6 0.170104 0.000000 0.486527
Si Si7 0.756111 0.000000 0.928534
O O1 0.173225 0.329881 0.922727
O O2 0.288339 0.309867 0.804626
O O3 0.123864 0.227701 0.835336
O O4 0.500000 0.263974 0.000000
O O5 0.331694 0.943956 0.052194
O O6 0.500000 0.871622 0.000000
O O7 0.101520 0.879144 0.882955
O O8 0.637083 0.653975 0.323225
O O9 0.714800 0.058185 0.685783
O O10 0.659513 0.000000 0.806354
O O11 0.380279 0.000000 0.604998
O O12 0.500000 0.883957 0.500000
O O13 0.845106 0.940960 0.574663
O O14 0.000000 0.000000 0.500000
O O15 0.000000 0.000000 0.000000
#
# Coordination Sequence:
#
# PCOD8100944 Si02
#       7
#     8   8   8   4   8   4   4
#     4  10  20  36  56  78 106 145 185 217 264 329
#     4  11  22  35  52  81 114 143 178 219 266 328
#     4  11  20  36  58  77 105 145 183 225 266 314
#     4   9  18  36  55  75 107 143 173 209 264 330
#     4   9  19  36  57  78 104 141 180 216 265 322
#     4   9  19  36  58  83 107 137 180 221 264 320
#     4  12  22  34  54  84 113 142 175 220 274 322
#
# _framework density 18.685483000000001
#
# number of rings (size 3 to 8) (size 9 to 14) (size 15 to 20)
#    0.000    1.818    0.000    9.000    0.000    2.182 
#    0.000    4.545    0.000    0.000    0.000    0.000 
#    0.000    0.000    0.000    0.000    0.000    0.000 
#
# Total GULP energy -272776.482102 kJ/mol
# GULP energy per Si atom -12398.931005 kJ/mol
# Density = 1.864295 g / cm^3
# Si number density = 18.685483 Si / 1000 Ang^3
#
#
#
# Elastic Constant Matrix: (Units=GPa)
#
#
# Indices 1 2 3 4 5 6 
#
# 1 141.8201 64.6632 52.7354 0.0000 -23.2660 0.0000
# 2 64.6632 123.9443 76.5243 0.0000 2.1610 0.0000
# 3 52.7354 76.5243 124.9233 0.0000 -10.2602 0.0000
# 4 0.0000 0.0000 0.0000 31.6196 0.0000 1.6262
# 5 -23.2660 2.1610 -10.2602 0.0000 21.2104 0.0000
# 6 0.0000 0.0000 0.0000 1.6262 0.0000 17.1205
#
#
#
# Elastic Compliance Matrix: (Units=1/GPa)
#
#
# Indices 1 2 3 4 5 6 
#
# 1 0.012504 -0.006835 0.000096 0.000000 0.014458 0.000000
# 2 -0.006835 0.017329 -0.008842 0.000000 -0.013540 0.000000
# 3 0.000096 -0.008842 0.014021 0.000000 0.007788 0.000000
# 4 0.000000 0.000000 0.000000 0.031781 0.000000 -0.003019
# 5 0.014458 -0.013540 0.007788 0.000000 0.068153 0.000000
# 6 0.000000 0.000000 0.000000 -0.003019 0.000000 0.058696
#
#
# Mechanical properties :
#
#
# Convention : Reuss Voigt Hill
#
# Bulk Modulus (GPa) = 78.79293 86.50371 82.64832
# Shear Modulus (GPa) = 21.01934 27.10777 24.06356
#
# Velocity S-wave (km/s) = 3.35759 3.81299 3.59252
# Velocity P-wave (km/s) = 7.56907 8.11051 7.84446
#
# Compressibility (1/GPa) = 0.01269149
#
# Stress axis : x y z
#
# Youngs Moduli (GPa) = 79.97643 57.70638 71.32361
#
# Poissons Ratio (x) = 0.39440 -0.00683
# Poissons Ratio (y) = 0.54660 0.63066
# Poissons Ratio (z) = -0.00766 0.51025
#
# Static dielectric constant tensor:
#      x y z
#    x 3.448040 0.000000 -0.070030 
#    y 0.000000 3.462830 0.000000 
#    z -0.070030 0.000000 3.448140 
# 
# 
# High freq. dielectric constant tensor:
#      x y z
#    x 1.729830 0.000000 -0.007810 
#    y 0.000000 1.723900 0.000000 
#    z -0.007810 0.000000 1.715730 
# 
# From -- ./inp_files/197285.got.cif
#   From: 2010.06.25/outbox.cif.g09.slc.cpg/sg12_99_cif.got.tgz:197285.got - 2010.06.28 00:19:55.
