data_PCOD8100124
_publ_section_title
;
Structure prediction by ZEFSAII (Michael W. Deem and Ramdas Pophale) SiO2 
 PCOD8100124
Probable space group: C 2/M
;
_chemical_formula_sum "Si O2"
_cell_formula_units_Z 56
_cell_length_a 13.441337
_cell_length_b 13.866449
_cell_length_c 16.452966
_cell_angle_alpha 90.000000
_cell_angle_beta 57.218222
_cell_angle_gamma 90.000000
_cell_volume 2578.178849
_symmetry_space_group_name_H-M "C 2/M"
_symmetry_group_IT_number 12
_symmetry_cell_setting 'monoclinic'
loop_
_space_group_symop_operation_xyz
x,y,z
-x,y,-z
-x,-y,-z
x,-y,z
1/2+x,1/2+y,z
1/2-x,1/2+y,-z
1/2-x,1/2-y,-z
1/2+x,1/2-y,z
loop_
_atom_site_type_symbol
_atom_site_label
_atom_site_fract_x
_atom_site_fract_y
_atom_site_fract_z
Si Si1 0.622705 0.104935 0.430837
Si Si2 0.972453 0.708373 0.775380
Si Si3 0.665431 0.385693 0.203221
Si Si4 0.187682 0.661428 0.567830
Si Si5 0.390109 0.391011 0.594669
Si Si6 0.595238 0.784124 0.887767
Si Si7 0.239150 0.386229 0.217931
O O1 0.500000 0.163839 0.500000
O O2 0.678634 0.089902 0.495008
O O3 0.704423 0.152462 0.325042
O O4 0.592104 0.000000 0.407036
O O5 0.923299 0.818579 0.810350
O O6 0.863937 0.636888 0.801578
O O7 0.064833 0.695551 0.661137
O O8 0.033494 0.677517 0.832666
O O9 0.644764 0.500000 0.195942
O O10 0.633404 0.346094 0.307208
O O11 0.802816 0.359192 0.129060
O O12 0.250000 0.750000 0.500000
O O13 0.269111 0.612138 0.598563
O O14 0.500000 0.338852 0.500000
O O15 0.427699 0.500000 0.594835
O O16 0.645483 0.675747 0.854845
O O17 0.500000 0.781203 0.000000
O O18 0.270415 0.500000 0.201675
#
# Coordination Sequence:
#
# PCOD8100124 Si02
#       7
#     8   8   8   8   8   8   8
#     4  10  20  35  57  89 126 163 204 253 304 374
#     4  11  23  41  65  95 125 167 215 269 320 384
#     4  10  23  43  66  92 127 167 214 269 322 378
#     4  12  22  32  58  89 124 171 210 249 312 379
#     4  10  21  37  56  85 125 167 210 256 306 374
#     4  11  25  46  67  94 128 167 217 273 329 384
#     4  10  23  42  66  98 133 168 212 264 321 383
#
# _framework density 21.720759999999999
#
# number of rings (size 3 to 8) (size 9 to 14) (size 15 to 20)
#    0.000    1.429    2.857    2.143    2.000    5.143 
#    0.000    5.000    0.000    0.000    0.000    0.000 
#    0.000    0.000    0.000    0.000    0.000    0.000 
#
# Total GULP energy -346937.746301 kJ/mol
# GULP energy per Si atom -12390.633796 kJ/mol
# Density = 2.167132 g / cm^3
# Si number density = 21.720760 Si / 1000 Ang^3
#
#
#
# Elastic Constant Matrix: (Units=GPa)
#
#
# Indices 1 2 3 4 5 6 
#
# 1 79.4767 -0.3417 13.5719 0.0000 -5.9016 0.0000
# 2 -0.3417 84.1985 20.1522 0.0000 -5.0205 0.0000
# 3 13.5719 20.1522 126.9123 0.0000 -21.9088 0.0000
# 4 0.0000 0.0000 0.0000 17.1257 0.0000 -8.4218
# 5 -5.9016 -5.0205 -21.9088 0.0000 31.2674 0.0000
# 6 0.0000 0.0000 0.0000 -8.4218 0.0000 -13.4795
#
#
#
# Elastic Compliance Matrix: (Units=1/GPa)
#
#
# Indices 1 2 3 4 5 6 
#
# 1 0.012907 0.000430 -0.001156 0.000000 0.001695 0.000000
# 2 0.000430 0.012373 -0.001881 0.000000 0.000750 0.000000
# 3 -0.001156 -0.001881 0.009342 0.000000 0.006026 0.000000
# 4 0.000000 0.000000 0.000000 0.044668 0.000000 -0.027908
# 5 0.001695 0.000750 0.006026 0.000000 0.036645 0.000000
# 6 0.000000 0.000000 0.000000 -0.027908 0.000000 -0.056750
#
#
# Mechanical properties :
#
#
# Convention : Reuss Voigt Hill
#
# Bulk Modulus (GPa) = 34.00369 39.70581 36.85475
# Shear Modulus (GPa) = 67.38351 24.12972 45.75661
#
# Velocity S-wave (km/s) = 5.57584 3.33664 4.59473
# Velocity P-wave (km/s) = 7.55925 5.75882 6.71961
#
# Compressibility (1/GPa) = 0.02940857
#
# Stress axis : x y z
#
# Youngs Moduli (GPa) = 77.47472 80.81839 107.04336
#
# Poissons Ratio (x) = -0.03476 0.12374
# Poissons Ratio (y) = -0.03332 0.20138
# Poissons Ratio (z) = 0.08956 0.15205
#
# Static dielectric constant tensor:
#      x y z
#    x 3.677270 0.000000 -0.078230 
#    y 0.000000 3.660320 0.000000 
#    z -0.078230 0.000000 3.873630 
# 
# 
# High freq. dielectric constant tensor:
#      x y z
#    x 1.854670 0.000000 -0.006880 
#    y 0.000000 1.853990 0.000000 
#    z -0.006880 0.000000 1.841500 
# 
# From -- ./inp_files/270176.got.cif
#   From: 2010.06.25/outbox.cif.g09.slc.cpg/sg12_136_cif.got.tgz:270176.got - 2010.06.28 00:19:55.
