data_PCOD8100218
_publ_section_title
;
Structure prediction by ZEFSAII (Michael W. Deem and Ramdas Pophale) SiO2 
 PCOD8100218
Probable space group: C 2/M
;
_chemical_formula_sum "Si O2"
_cell_formula_units_Z 64
_cell_length_a 17.963133
_cell_length_b 8.952236
_cell_length_c 30.081152
_cell_angle_alpha 90.000000
_cell_angle_beta 41.969022
_cell_angle_gamma 90.000000
_cell_volume 3234.879022
_symmetry_space_group_name_H-M "C 2/M"
_symmetry_group_IT_number 12
_symmetry_cell_setting 'monoclinic'
loop_
_space_group_symop_operation_xyz
x,y,z
-x,y,-z
-x,-y,-z
x,-y,z
1/2+x,1/2+y,z
1/2-x,1/2+y,-z
1/2-x,1/2-y,-z
1/2+x,1/2-y,z
loop_
_atom_site_type_symbol
_atom_site_label
_atom_site_fract_x
_atom_site_fract_y
_atom_site_fract_z
Si Si1 0.667914 0.828883 0.807655
Si Si2 0.562925 0.826894 0.680345
Si Si3 0.687127 0.173560 0.186635
Si Si4 0.739880 0.171000 0.676941
Si Si5 0.234061 0.174777 0.076295
Si Si6 0.131529 0.176550 0.560406
Si Si7 0.082929 0.673988 0.075184
Si Si8 0.530465 0.172552 0.435757
O O1 0.757209 0.725692 0.792297
O O2 0.676872 0.804628 0.751125
O O3 0.544210 0.781084 0.877613
O O4 0.692038 0.000000 0.809980
O O5 0.443300 0.788568 0.754062
O O6 0.654862 0.785976 0.675868
O O7 0.581206 0.724327 0.629679
O O8 0.569718 0.000000 0.662983
O O9 0.745286 0.257018 0.120040
O O10 0.708485 0.000000 0.170835
O O11 0.842842 0.282174 0.628618
O O12 0.780878 0.000000 0.653778
O O13 0.126779 0.238543 0.098647
O O14 0.218782 0.000000 0.087748
O O15 0.346212 0.217037 0.999793
O O16 0.250000 0.250000 0.500000
O O17 0.049077 0.225220 0.558190
O O18 0.145618 0.000000 0.552929
O O19 0.093461 0.500000 0.082203
O O20 0.500000 0.201518 0.500000
O O21 0.514613 0.000000 0.429334
#
# Coordination Sequence:
#
# PCOD8100218 Si02
#       8
#     8   8   8   8   8   8   8   8
#     4  10  21  38  58  82 114 150 190 234 285 345
#     4  10  22  41  63  87 117 153 193 237 288 343
#     4  11  23  38  57  83 117 154 191 236 289 341
#     4  10  21  38  62  88 113 147 189 235 288 343
#     4  10  20  35  58  85 112 147 192 239 287 343
#     4  12  25  41  63  90 121 156 194 237 285 338
#     4   9  19  37  59  82 112 150 190 236 290 346
#     4  11  24  41  61  87 119 154 193 237 285 337
#
# _framework density 19.784357
#
# number of rings (size 3 to 8) (size 9 to 14) (size 15 to 20)
#    0.000    1.625    0.000    4.500    0.000   10.500 
#    0.000    3.750    0.000    0.000    0.000    0.000 
#    0.000    0.000    0.000    0.000    0.000    0.000 
#
# Total GULP energy -397008.657749 kJ/mol
# GULP energy per Si atom -12406.520555 kJ/mol
# Density = 1.973933 g / cm^3
# Si number density = 19.784357 Si / 1000 Ang^3
#
#
#
# Elastic Constant Matrix: (Units=GPa)
#
#
# Indices 1 2 3 4 5 6 
#
# 1 118.0187 52.8788 45.0558 -0.0004 -3.2654 -0.0009
# 2 52.8788 92.8613 50.0099 -0.0009 1.7037 -0.0012
# 3 45.0558 50.0099 98.6495 0.0001 -4.4201 0.0000
# 4 -0.0004 -0.0009 0.0001 23.5705 0.0001 -5.0697
# 5 -3.2654 1.7037 -4.4201 0.0001 38.3039 0.0001
# 6 -0.0009 -0.0012 0.0000 -5.0697 0.0001 33.0422
#
#
#
# Elastic Compliance Matrix: (Units=1/GPa)
#
#
# Indices 1 2 3 4 5 6 
#
# 1 0.011928 -0.005363 -0.002687 0.000000 0.000945 0.000000
# 2 -0.005363 0.017314 -0.006416 0.000001 -0.001968 0.000001
# 3 -0.002687 -0.006416 0.014695 0.000000 0.001752 0.000000
# 4 0.000000 0.000001 0.000000 0.043874 0.000000 0.006732
# 5 0.000945 -0.001968 0.001752 0.000000 0.026477 0.000000
# 6 0.000000 0.000001 0.000000 0.006732 0.000000 0.031297
#
#
# Mechanical properties :
#
#
# Convention : Reuss Voigt Hill
#
# Bulk Modulus (GPa) = 66.64086 67.26872 66.95479
# Shear Modulus (GPa) = 27.85232 29.75566 28.80399
#
# Velocity S-wave (km/s) = 3.75613 3.88235 3.81976
# Velocity P-wave (km/s) = 7.25039 7.36014 7.30547
#
# Compressibility (1/GPa) = 0.01500581
#
# Stress axis : x y z
#
# Youngs Moduli (GPa) = 83.83734 57.75726 68.04942
#
# Poissons Ratio (x) = 0.30972 0.18284
# Poissons Ratio (y) = 0.44958 0.43661
# Poissons Ratio (z) = 0.22526 0.37058
#
# Static dielectric constant tensor:
#      x y z
#    x 3.510020 0.000280 0.005950 
#    y 0.000280 4.236710 -0.000090 
#    z 0.005950 -0.000090 3.733690 
# 
# 
# High freq. dielectric constant tensor:
#      x y z
#    x 1.778950 0.000000 0.000950 
#    y 0.000000 1.772530 0.000000 
#    z 0.000950 0.000000 1.784300 
# 
# From -- ./inp_files/378059.got.cif
#   From: 2010.06.25/outbox.cif.g09.slc.cpg/sg12_190_cif.got.tgz:378059.got - 2010.06.28 00:19:55.
