data_PCOD8100980
_publ_section_title
;
Structure prediction by ZEFSAII (Michael W. Deem and Ramdas Pophale) SiO2 
 PCOD8100980
Probable space group: C 2/M
;
_chemical_formula_sum "Si O2"
_cell_formula_units_Z 64
_cell_length_a 33.258889
_cell_length_b 9.254275
_cell_length_c 18.785157
_cell_angle_alpha 90.000000
_cell_angle_beta 36.292509
_cell_angle_gamma 90.000000
_cell_volume 3422.307539
_symmetry_space_group_name_H-M "C 2/M"
_symmetry_group_IT_number 12
_symmetry_cell_setting 'monoclinic'
loop_
_space_group_symop_operation_xyz
x,y,z
-x,y,-z
-x,-y,-z
x,-y,z
1/2+x,1/2+y,z
1/2-x,1/2+y,-z
1/2-x,1/2-y,-z
1/2+x,1/2-y,z
loop_
_atom_site_type_symbol
_atom_site_label
_atom_site_fract_x
_atom_site_fract_y
_atom_site_fract_z
Si Si1 0.813501 0.830719 0.320800
Si Si2 0.170309 0.658345 0.174783
Si Si3 0.178829 0.833007 0.526406
Si Si4 0.572017 0.166587 0.926987
Si Si5 0.963501 0.829487 0.341356
Si Si6 0.926084 0.668133 0.908715
Si Si7 0.213617 0.341530 0.952747
Si Si8 0.019256 0.330770 0.392066
O O1 0.834830 0.796349 0.371414
O O2 0.740203 0.762337 0.408197
O O3 0.868859 0.762904 0.189895
O O4 0.809415 0.000000 0.311392
O O5 0.162072 0.500000 0.221444
O O6 0.218715 0.748464 0.158993
O O7 0.095965 0.727675 0.272145
O O8 0.204794 0.645826 0.049394
O O9 0.111949 0.793611 0.577675
O O10 0.199118 0.000000 0.488592
O O11 0.585769 0.000000 0.887190
O O12 0.500000 0.219730 0.000000
O O13 0.568692 0.190495 0.015415
O O14 0.015957 0.759796 0.211578
O O15 0.971072 0.759993 0.408587
O O16 0.976756 0.000000 0.325941
O O17 0.933607 0.500000 0.875312
O O18 0.852862 0.728838 0.988098
O O19 0.225675 0.500000 0.902094
O O20 0.012873 0.500000 0.382010
O O21 0.000000 0.297440 0.500000
#
# Coordination Sequence:
#
# PCOD8100980 Si02
#       8
#     8   8   8   8   8   8   8   8
#     4  10  20  36  59  84 112 148 190 233 275 325
#     4   9  17  32  53  76 102 133 172 218 266 318
#     4   9  20  38  58  82 113 149 186 229 280 329
#     4  10  21  36  56  83 116 153 186 223 277 335
#     4  11  22  36  58  85 111 140 183 235 280 326
#     4  10  20  36  56  79 111 148 185 224 274 333
#     4   9  17  31  52  76 101 135 174 217 265 316
#     4  10  21  39  59  78 108 146 181 225 277 333
#
# _framework density 18.700831999999998
#
# number of rings (size 3 to 8) (size 9 to 14) (size 15 to 20)
#    0.000    2.250    1.250    1.500    0.000    3.500 
#    2.250    0.000    0.000    0.000    0.000    0.000 
#    0.000    0.000    0.000    0.000    0.000    0.000 
#
# Total GULP energy -396819.470257 kJ/mol
# GULP energy per Si atom -12400.608446 kJ/mol
# Density = 1.865827 g / cm^3
# Si number density = 18.700832 Si / 1000 Ang^3
#
#
#
# Elastic Constant Matrix: (Units=GPa)
#
#
# Indices 1 2 3 4 5 6 
#
# 1 131.9149 65.9145 64.6298 -0.0046 -25.0686 -0.0025
# 2 65.9145 89.5144 54.4848 0.0246 -13.1546 0.0090
# 3 64.6298 54.4848 77.0546 0.0000 -10.4581 0.0045
# 4 -0.0046 0.0246 0.0000 2.5070 -0.0070 -7.3646
# 5 -25.0686 -13.1546 -10.4581 -0.0070 30.2962 -0.0030
# 6 -0.0025 0.0090 0.0045 -7.3646 -0.0030 29.2063
#
#
#
# Elastic Compliance Matrix: (Units=1/GPa)
#
#
# Indices 1 2 3 4 5 6 
#
# 1 0.015940 -0.005426 -0.008459 0.000462 0.007914 0.000122
# 2 -0.005426 0.021912 -0.010765 -0.000915 0.001308 -0.000236
# 3 -0.008459 -0.010765 0.027383 0.000303 -0.002221 0.000075
# 4 0.000462 -0.000915 0.000303 1.538710 0.000482 0.387999
# 5 0.007914 0.001308 -0.002221 0.000482 0.039357 0.000126
# 6 0.000122 -0.000236 0.000075 0.387999 0.000126 0.132077
#
#
# Mechanical properties :
#
#
# Convention : Reuss Voigt Hill
#
# Bulk Modulus (GPa) = 62.75498 74.28247 68.51873
# Shear Modulus (GPa) = 2.73225 19.96555 11.34890
#
# Velocity S-wave (km/s) = 1.21004 3.27100 2.46614
# Velocity P-wave (km/s) = 5.96510 7.35348 6.69538
#
# Compressibility (1/GPa) = 0.01593499
#
# Stress axis : x y z
#
# Youngs Moduli (GPa) = 62.73419 45.63774 36.51849
#
# Poissons Ratio (x) = 0.24763 0.30892
# Poissons Ratio (y) = 0.34040 0.39312
# Poissons Ratio (z) = 0.53068 0.49129
#
# Static dielectric constant tensor:
#      x y z
#    x 3.490040 -0.000020 -0.162550 
#    y -0.000020 3.575350 0.000020 
#    z -0.162550 0.000020 3.290040 
# 
# 
# High freq. dielectric constant tensor:
#      x y z
#    x 1.730900 0.000000 -0.014700 
#    y 0.000000 1.721460 0.000000 
#    z -0.014700 0.000000 1.718060 
# 
# From -- ./inp_files/295442.got.cif
#   From: 2010.06.25/outbox.cif.g09.slc.cpg/sg12_148_cif.got.tgz:295442.got - 2010.06.28 00:19:55.
