data_PCOD8100938
_publ_section_title
;
Structure prediction by ZEFSAII (Michael W. Deem and Ramdas Pophale) SiO2 
 PCOD8100938
Probable space group: C 2/M
;
_chemical_formula_sum "Si O2"
_cell_formula_units_Z 60
_cell_length_a 13.620476
_cell_length_b 23.111717
_cell_length_c 11.977439
_cell_angle_alpha 90.000000
_cell_angle_beta 109.726390
_cell_angle_gamma 90.000000
_cell_volume 3549.143237
_symmetry_space_group_name_H-M "C 2/M"
_symmetry_group_IT_number 12
_symmetry_cell_setting 'monoclinic'
loop_
_space_group_symop_operation_xyz
x,y,z
-x,y,-z
-x,-y,-z
x,-y,z
1/2+x,1/2+y,z
1/2-x,1/2+y,-z
1/2-x,1/2-y,-z
1/2+x,1/2-y,z
loop_
_atom_site_type_symbol
_atom_site_label
_atom_site_fract_x
_atom_site_fract_y
_atom_site_fract_z
Si Si1 0.693298 0.263514 0.861535
Si Si2 0.029984 0.766675 0.136352
Si Si3 0.179525 0.663807 0.245746
Si Si4 0.219592 0.839831 0.241310
Si Si5 0.625348 0.933099 0.730854
Si Si6 0.290716 0.186145 0.503219
Si Si7 0.000000 0.639086 0.500000
Si Si8 0.968402 0.565855 0.867523
O O1 0.572561 0.277649 0.831272
O O2 0.740670 0.321069 0.823163
O O3 0.705322 0.210182 0.780382
O O4 0.750000 0.250000 0.000000
O O5 0.092889 0.714643 0.218017
O O6 0.100500 0.825332 0.160474
O O7 0.000000 0.748190 0.000000
O O8 0.235169 0.657264 0.387333
O O9 0.130894 0.601501 0.208753
O O10 0.261878 0.901433 0.212325
O O11 0.226299 0.842905 0.378215
O O12 0.556184 0.902603 0.610031
O O13 0.567262 0.926622 0.825728
O O14 0.643859 0.000000 0.706120
O O15 0.250000 0.250000 0.500000
O O16 0.414871 0.180349 0.526393
O O17 0.930543 0.500000 0.858588
O O18 0.000000 0.589859 0.000000
#
# Coordination Sequence:
#
# PCOD8100938 Si02
#       8
#     8   8   8   8   8   8   4   8
#     4  11  21  33  52  80 101 141 178 215 269 328
#     4  11  20  33  50  77 105 136 173 218 265 324
#     4  11  21  34  54  73 112 141 180 218 267 324
#     4  10  22  34  51  77 110 134 177 223 268 323
#     4  10  20  36  56  78 104 141 182 222 271 316
#     4  11  20  35  47  78 109 147 170 218 272 313
#     4  10  21  34  56  76 112 140 185 222 260 324
#     4  10  21  34  52  79 109 142 179 223 274 324
#
# _framework density 16.905487999999998
#
# number of rings (size 3 to 8) (size 9 to 14) (size 15 to 20)
#    0.000    1.467    6.667    1.400    3.733    0.000 
#    0.000    0.000    0.000    1.200    0.000    0.000 
#    0.000    3.467    0.000    0.000    0.000    0.000 
#
# Total GULP energy -371893.611164 kJ/mol
# GULP energy per Si atom -12396.453705 kJ/mol
# Density = 1.686701 g / cm^3
# Si number density = 16.905488 Si / 1000 Ang^3
#
#
#
# Elastic Constant Matrix: (Units=GPa)
#
#
# Indices 1 2 3 4 5 6 
#
# 1 118.6600 41.6206 21.5237 0.0000 0.4115 0.0000
# 2 41.6206 88.0479 25.0192 0.0000 1.8686 0.0000
# 3 21.5237 25.0192 98.3664 0.0000 -15.5958 0.0000
# 4 0.0000 0.0000 0.0000 23.6764 0.0000 3.6601
# 5 0.4115 1.8686 -15.5958 0.0000 26.8664 0.0000
# 6 0.0000 0.0000 0.0000 3.6601 0.0000 32.8198
#
#
#
# Elastic Compliance Matrix: (Units=1/GPa)
#
#
# Indices 1 2 3 4 5 6 
#
# 1 0.010215 -0.004483 -0.001179 0.000000 -0.000529 0.000000
# 2 -0.004483 0.014422 -0.003123 0.000000 -0.002747 0.000000
# 3 -0.001179 -0.003123 0.012397 0.000000 0.007431 0.000000
# 4 0.000000 0.000000 0.000000 0.042977 0.000000 -0.004793
# 5 -0.000529 -0.002747 0.007431 0.000000 0.041734 0.000000
# 6 0.000000 0.000000 0.000000 -0.004793 0.000000 0.031004
#
#
# Mechanical properties :
#
#
# Convention : Reuss Voigt Hill
#
# Bulk Modulus (GPa) = 51.37424 53.48903 52.43164
# Shear Modulus (GPa) = 28.27942 31.13323 29.70633
#
# Velocity S-wave (km/s) = 4.09442 4.29605 4.19644
# Velocity P-wave (km/s) = 7.26687 7.50445 7.38662
#
# Compressibility (1/GPa) = 0.01946501
#
# Stress axis : x y z
#
# Youngs Moduli (GPa) = 97.89103 69.33792 80.66728
#
# Poissons Ratio (x) = 0.31082 0.09511
# Poissons Ratio (y) = 0.43881 0.25192
# Poissons Ratio (z) = 0.11541 0.21654
#
# Static dielectric constant tensor:
#      x y z
#    x 3.288050 0.000000 -0.040140 
#    y 0.000000 3.082390 0.000000 
#    z -0.040140 0.000000 3.142010 
# 
# 
# High freq. dielectric constant tensor:
#      x y z
#    x 1.644010 0.000000 -0.017540 
#    y 0.000000 1.627090 0.000000 
#    z -0.017540 0.000000 1.666900 
# 
# From -- ./inp_files/148680.got.cif
#   From: 2010.06.25/outbox.cif.g09.slc.cpg/sg12_75_cif.got.tgz:148680.got - 2010.06.28 00:19:55.
