data_PCOD8100387
_publ_section_title
;
Structure prediction by ZEFSAII (Michael W. Deem and Ramdas Pophale) SiO2 
 PCOD8100387
Probable space group: C 2/M
;
_chemical_formula_sum "Si O2"
_cell_formula_units_Z 64
_cell_length_a 15.176651
_cell_length_b 8.878988
_cell_length_c 28.543858
_cell_angle_alpha 90.000000
_cell_angle_beta 58.279106
_cell_angle_gamma 90.000000
_cell_volume 3271.804813
_symmetry_space_group_name_H-M "C 2/M"
_symmetry_group_IT_number 12
_symmetry_cell_setting 'monoclinic'
loop_
_space_group_symop_operation_xyz
x,y,z
-x,y,-z
-x,-y,-z
x,-y,z
1/2+x,1/2+y,z
1/2-x,1/2+y,-z
1/2-x,1/2-y,-z
1/2+x,1/2-y,z
loop_
_atom_site_type_symbol
_atom_site_label
_atom_site_fract_x
_atom_site_fract_y
_atom_site_fract_z
Si Si1 0.582548 0.666435 0.441008
Si Si2 0.614383 0.677659 0.260926
Si Si3 0.250064 0.324773 0.867135
Si Si4 0.332126 0.677203 0.942978
Si Si5 0.393662 0.181439 0.326441
Si Si6 0.533273 0.322470 0.939749
Si Si7 0.783758 0.661997 0.445400
Si Si8 0.198141 0.679056 0.330762
O O1 0.500000 0.740732 0.500000
O O2 0.542413 0.500000 0.435782
O O3 0.688751 0.643593 0.437568
O O4 0.601729 0.774362 0.391340
O O5 0.605680 0.500000 0.273701
O O6 0.680604 0.713805 0.196689
O O7 0.502067 0.746873 0.281951
O O8 0.671821 0.761667 0.286869
O O9 0.226817 0.500000 0.877760
O O10 0.311465 0.267254 0.895912
O O11 0.140922 0.243679 0.892353
O O12 0.319855 0.500000 0.951453
O O13 0.447307 0.727113 0.925847
O O14 0.250000 0.750000 0.000000
O O15 0.372696 0.232116 0.386900
O O16 0.305930 0.246591 0.316579
O O17 0.394920 0.000000 0.322078
O O18 0.546173 0.500000 0.939031
O O19 0.500000 0.258709 0.000000
O O20 0.821046 0.500000 0.453497
O O21 0.750000 0.750000 0.500000
O O22 0.209343 0.500000 0.327654
#
# Coordination Sequence:
#
# PCOD8100387 Si02
#       8
#     8   8   8   8   8   8   8   8
#     4   9  19  36  56  82 115 153 193 242 303 364
#     4  11  24  42  63  88 121 164 211 257 305 362
#     4  10  23  40  59  88 121 156 203 248 293 352
#     4  10  20  36  58  86 121 157 194 240 292 350
#     4  10  22  42  63  88 120 158 203 255 309 367
#     4  10  20  35  58  89 124 160 196 240 297 352
#     4   9  19  33  52  81 115 147 185 236 296 359
#     4  11  23  40  62  89 119 159 205 253 310 367
#
# _framework density 19.561069
#
# number of rings (size 3 to 8) (size 9 to 14) (size 15 to 20)
#    0.000    2.000    1.250    2.625    1.750    5.500 
#    0.000    1.250    0.000    0.000    0.000    0.000 
#    0.000    0.000    0.000    0.000    0.000    0.000 
#
# Total GULP energy -396697.040711 kJ/mol
# GULP energy per Si atom -12396.782522 kJ/mol
# Density = 1.951655 g / cm^3
# Si number density = 19.561069 Si / 1000 Ang^3
#
#
#
# Elastic Constant Matrix: (Units=GPa)
#
#
# Indices 1 2 3 4 5 6 
#
# 1 128.8946 47.1030 74.4115 0.0000 -2.4603 0.0000
# 2 47.1030 79.5428 55.9423 0.0000 -0.4856 0.0001
# 3 74.4115 55.9423 142.1244 0.0000 -3.1288 0.0000
# 4 0.0000 0.0000 0.0000 10.6962 0.0000 -12.6254
# 5 -2.4603 -0.4856 -3.1288 0.0000 37.4778 0.0000
# 6 0.0000 0.0001 0.0000 -12.6254 0.0000 26.2909
#
#
#
# Elastic Compliance Matrix: (Units=1/GPa)
#
#
# Indices 1 2 3 4 5 6 
#
# 1 0.011850 -0.003674 -0.004751 0.000000 0.000334 0.000000
# 2 -0.003674 0.018528 -0.005379 0.000000 -0.000450 0.000000
# 3 -0.004751 -0.005379 0.011654 0.000000 0.000591 0.000000
# 4 0.000000 0.000000 0.000000 0.215834 0.000000 0.103648
# 5 0.000334 -0.000450 0.000591 0.000000 0.026748 0.000000
# 6 0.000000 0.000000 0.000000 0.103648 0.000000 0.087810
#
#
# Mechanical properties :
#
#
# Convention : Reuss Voigt Hill
#
# Bulk Modulus (GPa) = 69.33005 78.38615 73.85810
# Shear Modulus (GPa) = 12.35059 26.43331 19.39195
#
# Velocity S-wave (km/s) = 2.51547 3.68002 3.15199
# Velocity P-wave (km/s) = 6.62998 7.62996 7.14748
#
# Compressibility (1/GPa) = 0.01442376
#
# Stress axis : x y z
#
# Youngs Moduli (GPa) = 84.38922 53.97268 85.80923
#
# Poissons Ratio (x) = 0.19829 0.40765
# Poissons Ratio (y) = 0.31004 0.46159
# Poissons Ratio (z) = 0.40091 0.29033
#
# Static dielectric constant tensor:
#      x y z
#    x 3.515390 0.000000 -0.003160 
#    y 0.000000 3.534470 0.000000 
#    z -0.003160 0.000000 3.778780 
# 
# 
# High freq. dielectric constant tensor:
#      x y z
#    x 1.767260 0.000000 -0.002110 
#    y 0.000000 1.757620 0.000000 
#    z -0.002110 0.000000 1.766460 
# 
# From -- ./inp_files/375021.got.cif
#   From: 2010.06.25/outbox.cif.g09.slc.cpg/sg12_188_cif.got.tgz:375021.got - 2010.06.28 00:19:55.
