data_PCOD8100013
_publ_section_title
;
Structure prediction by ZEFSAII (Michael W. Deem and Ramdas Pophale) SiO2 
 PCOD8100013
Probable space group: C 2/M
;
_chemical_formula_sum "Si O2"
_cell_formula_units_Z 48
_cell_length_a 9.957181
_cell_length_b 16.245001
_cell_length_c 21.732219
_cell_angle_alpha 90.000000
_cell_angle_beta 37.829497
_cell_angle_gamma 90.000000
_cell_volume 2155.971052
_symmetry_space_group_name_H-M "C 2/M"
_symmetry_group_IT_number 12
_symmetry_cell_setting 'monoclinic'
loop_
_space_group_symop_operation_xyz
x,y,z
-x,y,-z
-x,-y,-z
x,-y,z
1/2+x,1/2+y,z
1/2-x,1/2+y,-z
1/2-x,1/2-y,-z
1/2+x,1/2-y,z
loop_
_atom_site_type_symbol
_atom_site_label
_atom_site_fract_x
_atom_site_fract_y
_atom_site_fract_z
Si Si1 0.373159 0.098447 0.795052
Si Si2 0.205335 0.671671 0.472211
Si Si3 0.738543 0.594095 0.426721
Si Si4 0.061041 0.902760 0.257198
Si Si5 0.552331 0.097762 0.095352
Si Si6 0.542092 0.402992 0.125136
O O1 0.583813 0.135804 0.682971
O O2 0.373995 0.129207 0.864491
O O3 0.153501 0.134938 0.844407
O O4 0.375918 0.000000 0.789031
O O5 0.250000 0.750000 0.500000
O O6 0.177218 0.599520 0.533000
O O7 0.418366 0.651157 0.355166
O O8 0.000000 0.679366 0.500000
O O9 0.500000 0.636388 0.500000
O O10 0.717927 0.500000 0.415055
O O11 0.308981 0.870159 0.171199
O O12 0.985738 0.882189 0.215598
O O13 0.038610 0.000000 0.280947
O O14 0.547241 0.000000 0.094303
O O15 0.724253 0.133160 0.982805
O O16 0.554111 0.500000 0.110872
#
# Coordination Sequence:
#
# PCOD8100013 Si02
#       6
#     8   8   8   8   8   8
#     4   9  16  26  44  74 112 151 184 219 270 330
#     4  12  26  42  59  81 111 152 199 246 297 350
#     4  10  20  36  59  87 119 154 195 243 292 344
#     4  10  20  35  57  85 115 147 185 232 287 345
#     4   9  16  27  47  79 117 150 179 219 275 338
#     4   9  16  27  46  78 117 149 181 224 276 335
#
# _framework density 22.263750000000002
#
# number of rings (size 3 to 8) (size 9 to 14) (size 15 to 20)
#    0.000    2.167    0.000    4.000    0.000    9.333 
#    0.000    0.000    0.000    0.000    0.000   21.000 
#    0.000    0.000    0.000    0.000    0.000    0.667 
#
# Total GULP energy -297441.218149 kJ/mol
# GULP energy per Si atom -12393.384090 kJ/mol
# Density = 2.221308 g / cm^3
# Si number density = 22.263750 Si / 1000 Ang^3
#
#
#
# Elastic Constant Matrix: (Units=GPa)
#
#
# Indices 1 2 3 4 5 6 
#
# 1 125.4762 20.5250 34.8655 -0.0056 -10.6412 0.0016
# 2 20.5250 25.8052 28.8239 -0.0022 -0.4341 0.0037
# 3 34.8655 28.8239 168.9854 0.0075 0.0760 0.0094
# 4 -0.0056 -0.0022 0.0075 9.5342 0.0054 5.4736
# 5 -10.6412 -0.4341 0.0760 0.0054 35.3606 -0.0034
# 6 0.0016 0.0037 0.0094 5.4736 -0.0034 14.8772
#
#
#
# Elastic Compliance Matrix: (Units=1/GPa)
#
#
# Indices 1 2 3 4 5 6 
#
# 1 0.009516 -0.006582 -0.000842 0.000003 0.002785 0.000001
# 2 -0.006582 0.052438 -0.007586 0.000024 -0.001321 -0.000017
# 3 -0.000842 -0.007586 0.007385 -0.000008 -0.000362 0.000000
# 4 0.000003 0.000024 -0.000008 0.132973 -0.000024 -0.048923
# 5 0.002785 -0.001321 -0.000362 -0.000024 0.029103 0.000016
# 6 0.000001 -0.000017 0.000000 -0.048923 0.000016 0.085217
#
#
# Mechanical properties :
#
#
# Convention : Reuss Voigt Hill
#
# Bulk Modulus (GPa) = 25.43205 54.29951 39.86578
# Shear Modulus (GPa) = 13.89825 27.69125 20.79475
#
# Velocity S-wave (km/s) = 2.50122 3.53056 3.05949
# Velocity P-wave (km/s) = 4.44852 6.40796 5.51594
#
# Compressibility (1/GPa) = 0.03932046
#
# Stress axis : x y z
#
# Youngs Moduli (GPa) = 105.08170 19.07024 135.40092
#
# Poissons Ratio (x) = 0.12552 0.11401
# Poissons Ratio (y) = 0.69162 1.02712
# Poissons Ratio (z) = 0.08848 0.14466
#
# Static dielectric constant tensor:
#      x y z
#    x 4.346250 0.000000 -0.055600 
#    y 0.000000 3.417800 0.000010 
#    z -0.055600 0.000010 4.364080 
# 
# 
# High freq. dielectric constant tensor:
#      x y z
#    x 1.889920 0.000000 0.000770 
#    y 0.000000 1.812660 0.000000 
#    z 0.000770 0.000000 1.897140 
# 
# From -- ./inp_files/301562.got.cif
#   From: 2010.06.25/outbox.cif.g09.slc.cpg/sg12_151_cif.got.tgz:301562.got - 2010.06.28 00:19:55.
