data_PCOD8100464
_publ_section_title
;
Structure prediction by ZEFSAII (Michael W. Deem and Ramdas Pophale) SiO2 
 PCOD8100464
Probable space group: C 2/M
;
_chemical_formula_sum "Si O2"
_cell_formula_units_Z 64
_cell_length_a 29.916505
_cell_length_b 23.379063
_cell_length_c 9.273729
_cell_angle_alpha 90.000000
_cell_angle_beta 150.579537
_cell_angle_gamma 90.000000
_cell_volume 3186.132744
_symmetry_space_group_name_H-M "C 2/M"
_symmetry_group_IT_number 12
_symmetry_cell_setting 'monoclinic'
loop_
_space_group_symop_operation_xyz
x,y,z
-x,y,-z
-x,-y,-z
x,-y,z
1/2+x,1/2+y,z
1/2-x,1/2+y,-z
1/2-x,1/2-y,-z
1/2+x,1/2-y,z
loop_
_atom_site_type_symbol
_atom_site_label
_atom_site_fract_x
_atom_site_fract_y
_atom_site_fract_z
Si Si1 0.285565 0.861108 0.793928
Si Si2 0.934839 0.732031 0.192225
Si Si3 0.148760 0.155844 0.156507
Si Si4 0.698616 0.435166 0.797582
Si Si5 0.965557 0.659126 0.755768
Si Si6 0.003557 0.066134 0.677138
Si Si7 0.214991 0.391335 0.679283
Si Si8 0.895308 0.435554 0.889491
O O1 0.205831 0.840573 0.463725
O O2 0.243057 0.887758 0.819038
O O3 0.344467 0.910146 0.884705
O O4 0.350540 0.806812 0.011826
O O5 0.000000 0.756404 0.500000
O O6 0.004426 0.695290 0.294646
O O7 0.900895 0.783903 0.999686
O O8 0.210486 0.148101 0.188552
O O9 0.077898 0.103643 0.970056
O O10 0.715220 0.500000 0.787504
O O11 0.591549 0.422906 0.510110
O O12 0.740835 0.430877 0.075377
O O13 0.857122 0.652114 0.451432
O O14 0.000000 0.689296 0.000000
O O15 0.010309 0.596282 0.873380
O O16 0.000000 0.085034 0.500000
O O17 0.033454 0.000000 0.772435
O O18 0.169038 0.431946 0.431187
O O19 0.920582 0.500000 0.996272
#
# Coordination Sequence:
#
# PCOD8100464 Si02
#       8
#     8   8   8   8   8   8   8   8
#     4  10  23  40  59  90 124 153 197 247 301 351
#     4  11  23  43  65  84 119 158 198 248 302 355
#     4  11  23  42  64  85 116 161 206 241 296 362
#     4  11  22  37  60  90 126 155 194 245 298 356
#     4   9  20  38  56  86 121 155 194 253 295 345
#     4  10  21  39  61  89 123 158 198 250 298 348
#     4  10  20  35  59  86 118 152 204 245 290 344
#     4   9  18  34  58  85 120 162 198 234 292 358
#
# _framework density 20.087047999999999
#
# number of rings (size 3 to 8) (size 9 to 14) (size 15 to 20)
#    0.000    1.875    1.250    3.000    0.000    5.750 
#    4.500    2.500    0.000    4.125    0.000    0.000 
#    0.000    0.000    0.000    0.000    0.000    0.000 
#
# Total GULP energy -396835.763989 kJ/mol
# GULP energy per Si atom -12401.117625 kJ/mol
# Density = 2.004133 g / cm^3
# Si number density = 20.087048 Si / 1000 Ang^3
#
#
#
# Elastic Constant Matrix: (Units=GPa)
#
#
# Indices 1 2 3 4 5 6 
#
# 1 70.4372 20.7465 24.8140 0.0000 11.3370 0.0000
# 2 20.7465 82.7029 27.0706 0.0000 5.0985 0.0000
# 3 24.8140 27.0706 95.0843 0.0000 7.7316 0.0000
# 4 0.0000 0.0000 0.0000 23.0682 0.0000 -3.5381
# 5 11.3370 5.0985 7.7316 0.0000 33.8179 0.0000
# 6 0.0000 0.0000 0.0000 -3.5381 0.0000 10.8774
#
#
#
# Elastic Compliance Matrix: (Units=1/GPa)
#
#
# Indices 1 2 3 4 5 6 
#
# 1 0.016912 -0.002912 -0.003219 0.000000 -0.004495 0.000000
# 2 -0.002912 0.013881 -0.003160 0.000000 -0.000394 0.000000
# 3 -0.003219 -0.003160 0.012360 0.000000 -0.001270 0.000000
# 4 0.000000 0.000000 0.000000 0.045626 0.000000 0.014841
# 5 -0.004495 -0.000394 -0.001270 0.000000 0.031427 0.000000
# 6 0.000000 0.000000 0.000000 0.014841 0.000000 0.096761
#
#
# Mechanical properties :
#
#
# Convention : Reuss Voigt Hill
#
# Bulk Modulus (GPa) = 40.69805 43.72074 42.20940
# Shear Modulus (GPa) = 20.51381 25.25892 22.88636
#
# Velocity S-wave (km/s) = 3.19916 3.54993 3.37910
# Velocity P-wave (km/s) = 5.82675 6.21414 6.02356
#
# Compressibility (1/GPa) = 0.02457120
#
# Stress axis : x y z
#
# Youngs Moduli (GPa) = 59.12918 72.04348 80.90633
#
# Poissons Ratio (x) = 0.20977 0.26044
# Poissons Ratio (y) = 0.17217 0.25565
# Poissons Ratio (z) = 0.19034 0.22765
#
# Static dielectric constant tensor:
#      x y z
#    x 3.675210 0.000000 0.116790 
#    y 0.000000 3.422040 0.000000 
#    z 0.116790 0.000000 3.687800 
# 
# 
# High freq. dielectric constant tensor:
#      x y z
#    x 1.787090 0.000000 0.010270 
#    y 0.000000 1.772560 0.000000 
#    z 0.010270 0.000000 1.788030 
# 
# From -- ./inp_files/113622.got.cif
#   From: 2010.06.25/outbox.cif.g09.slc.cpg/sg12_57_cif.got.tgz:113622.got - 2010.06.28 00:19:55.
