data_PCOD8100618
_publ_section_title
;
Structure prediction by ZEFSAII (Michael W. Deem and Ramdas Pophale) SiO2 
 PCOD8100618
Probable space group: C 2/M
;
_chemical_formula_sum "Si O2"
_cell_formula_units_Z 40
_cell_length_a 10.446216
_cell_length_b 19.084686
_cell_length_c 15.130098
_cell_angle_alpha 90.000000
_cell_angle_beta 139.343559
_cell_angle_gamma 90.000000
_cell_volume 1965.236147
_symmetry_space_group_name_H-M "C 2/M"
_symmetry_group_IT_number 12
_symmetry_cell_setting 'monoclinic'
loop_
_space_group_symop_operation_xyz
x,y,z
-x,y,-z
-x,-y,-z
x,-y,z
1/2+x,1/2+y,z
1/2-x,1/2+y,-z
1/2-x,1/2-y,-z
1/2+x,1/2-y,z
loop_
_atom_site_type_symbol
_atom_site_label
_atom_site_fract_x
_atom_site_fract_y
_atom_site_fract_z
Si Si1 0.663126 0.165278 0.360079
Si Si2 0.277137 0.820474 0.410700
Si Si3 0.766719 0.077885 0.260200
Si Si4 0.637568 0.078198 0.884202
Si Si5 0.530861 0.417464 0.812230
O O1 0.735816 0.148802 0.496883
O O2 0.657255 0.248207 0.340468
O O3 0.812924 0.128245 0.368796
O O4 0.441305 0.133085 0.231243
O O5 0.500000 0.807517 0.500000
O O6 0.175581 0.876424 0.291885
O O7 0.528696 0.074398 0.125662
O O8 0.858370 0.108232 0.218512
O O9 0.850663 0.000000 0.323479
O O10 0.664501 0.000000 0.856638
O O11 0.840914 0.103563 0.034826
O O12 0.491847 0.500000 0.790878
#
# Coordination Sequence:
#
# PCOD8100618 Si02
#       5
#     8   8   8   8   8
#     4   9  21  36  59  79 111 149 188 228 287 327
#     4  11  25  39  52  76 119 159 191 226 266 334
#     4   8  16  33  61  90 112 133 179 242 290 325
#     4   8  16  34  61  91 113 134 180 242 292 329
#     4  10  20  35  60  89 114 146 185 232 285 332
#
# _framework density 20.353788999999999
#
# number of rings (size 3 to 8) (size 9 to 14) (size 15 to 20)
#    1.200    1.600    0.000    0.600    5.600    5.200 
#    0.000    3.000    0.000    2.400    0.000    0.000 
#    0.000    0.000    0.000    0.000    0.000    0.000 
#
# Total GULP energy -247780.636536 kJ/mol
# GULP energy per Si atom -12389.031827 kJ/mol
# Density = 2.030746 g / cm^3
# Si number density = 20.353789 Si / 1000 Ang^3
#
#
#
# Elastic Constant Matrix: (Units=GPa)
#
#
# Indices 1 2 3 4 5 6 
#
# 1 19.5597 17.7379 15.5708 0.0002 -3.5569 0.0001
# 2 17.7379 102.8941 89.2293 0.0000 -6.1920 -0.0006
# 3 15.5708 89.2293 143.7586 -0.0021 3.3250 -0.0044
# 4 0.0002 0.0000 -0.0021 40.2600 -0.0005 -2.8138
# 5 -3.5569 -6.1920 3.3250 -0.0005 21.5702 -0.0011
# 6 0.0001 -0.0006 -0.0044 -2.8138 -0.0011 15.1265
#
#
#
# Elastic Compliance Matrix: (Units=1/GPa)
#
#
# Indices 1 2 3 4 5 6 
#
# 1 0.061781 -0.009153 -0.001190 0.000000 0.007744 -0.000001
# 2 -0.009153 0.023909 -0.014023 -0.000001 0.007516 -0.000003
# 3 -0.001190 -0.014023 0.015943 0.000001 -0.006679 0.000004
# 4 0.000000 -0.000001 0.000001 0.025166 0.000000 0.004681
# 5 0.007744 0.007516 -0.006679 0.000000 0.050824 0.000002
# 6 -0.000001 -0.000003 0.000004 0.004681 0.000002 0.066980
#
#
# Mechanical properties :
#
#
# Convention : Reuss Voigt Hill
#
# Bulk Modulus (GPa) = 18.90242 56.80981 37.85611
# Shear Modulus (GPa) = 16.07884 24.96964 20.52424
#
# Velocity S-wave (km/s) = 2.81369 3.50634 3.17894
# Velocity P-wave (km/s) = 4.45678 6.66066 5.66689
#
# Compressibility (1/GPa) = 0.05290329
#
# Stress axis : x y z
#
# Youngs Moduli (GPa) = 16.18618 41.82486 62.72276
#
# Poissons Ratio (x) = 0.38281 0.07463
# Poissons Ratio (y) = 0.14815 0.87954
# Poissons Ratio (z) = 0.01926 0.58650
#
# Static dielectric constant tensor:
#      x y z
#    x 3.323920 0.000000 -0.027580 
#    y 0.000000 3.506010 0.000000 
#    z -0.027580 0.000000 3.534630 
# 
# 
# High freq. dielectric constant tensor:
#      x y z
#    x 1.764440 0.000000 0.000050 
#    y 0.000000 1.786550 0.000000 
#    z 0.000050 0.000000 1.788390 
# 
# From -- ./inp_files/264045.got.cif
#   From: 2010.06.25/outbox.cif.g09.slc.cpg/sg12_133_cif.got.tgz:264045.got - 2010.06.28 00:19:55.
