data_PCOD8100903
_publ_section_title
;
Structure prediction by ZEFSAII (Michael W. Deem and Ramdas Pophale) SiO2 
 PCOD8100903
Probable space group: C 2/M
;
_chemical_formula_sum "Si O2"
_cell_formula_units_Z 44
_cell_length_a 24.099069
_cell_length_b 10.089642
_cell_length_c 12.502675
_cell_angle_alpha 90.000000
_cell_angle_beta 138.316388
_cell_angle_gamma 90.000000
_cell_volume 2021.676029
_symmetry_space_group_name_H-M "C 2/M"
_symmetry_group_IT_number 12
_symmetry_cell_setting 'monoclinic'
loop_
_space_group_symop_operation_xyz
x,y,z
-x,y,-z
-x,-y,-z
x,-y,z
1/2+x,1/2+y,z
1/2-x,1/2+y,-z
1/2-x,1/2-y,-z
1/2+x,1/2-y,z
loop_
_atom_site_type_symbol
_atom_site_label
_atom_site_fract_x
_atom_site_fract_y
_atom_site_fract_z
Si Si1 0.138608 0.655826 0.417488
Si Si2 0.004537 0.144090 0.740513
Si Si3 0.665868 0.777325 0.015842
Si Si4 0.162593 0.643501 0.781946
Si Si5 0.500000 0.721098 0.500000
Si Si6 0.275049 0.146633 0.680614
O O1 0.133019 0.500000 0.443745
O O2 0.206102 0.736118 0.586775
O O3 0.163831 0.669623 0.330576
O O4 0.050689 0.731020 0.302052
O O5 0.011813 0.133095 0.622436
O O6 0.970757 0.000000 0.731758
O O7 0.097419 0.160428 0.923657
O O8 0.760447 0.736727 0.130344
O O9 0.667258 0.853427 0.130587
O O10 0.639780 0.865655 0.875848
O O11 0.186563 0.500000 0.773115
O O12 0.082055 0.689888 0.599595
O O13 0.232541 0.000000 0.610266
#
# Coordination Sequence:
#
# PCOD8100903 Si02
#       6
#     8   8   8   8   4   8
#     4  10  23  40  62  89 118 151 197 247 293 345
#     4  11  23  40  59  85 119 159 199 241 291 349
#     4  10  22  36  57  85 117 157 198 237 289 351
#     4  10  20  36  55  84 119 151 190 243 296 347
#     4  10  22  36  60  86 111 152 199 240 289 352
#     4  10  21  41  64  87 116 156 196 239 294 355
#
# _framework density 21.764119999999998
#
# number of rings (size 3 to 8) (size 9 to 14) (size 15 to 20)
#    0.000    1.818    0.000    3.273    0.000    8.727 
#    0.000    8.182    0.000    0.000    0.000    0.000 
#    0.000    0.000    0.000    0.000    0.000    0.000 
#
# Total GULP energy -272663.136641 kJ/mol
# GULP energy per Si atom -12393.778938 kJ/mol
# Density = 2.171458 g / cm^3
# Si number density = 21.764120 Si / 1000 Ang^3
#
#
#
# Elastic Constant Matrix: (Units=GPa)
#
#
# Indices 1 2 3 4 5 6 
#
# 1 63.4096 31.9522 36.3893 0.0000 9.8608 0.0000
# 2 31.9522 151.2030 33.6263 0.0000 15.1155 0.0000
# 3 36.3893 33.6263 118.9419 0.0000 7.4291 0.0000
# 4 0.0000 0.0000 0.0000 12.1403 0.0000 12.2742
# 5 9.8608 15.1155 7.4291 0.0000 39.2884 0.0000
# 6 0.0000 0.0000 0.0000 12.2742 0.0000 18.1504
#
#
#
# Elastic Compliance Matrix: (Units=1/GPa)
#
#
# Indices 1 2 3 4 5 6 
#
# 1 0.020776 -0.002893 -0.005346 0.000000 -0.003091 0.000000
# 2 -0.002893 0.007684 -0.001162 0.000000 -0.002011 0.000000
# 3 -0.005346 -0.001162 0.010382 0.000000 -0.000175 0.000000
# 4 0.000000 0.000000 0.000000 0.260426 0.000000 -0.176114
# 5 -0.003091 -0.002011 -0.000175 0.000000 0.027035 0.000000
# 6 0.000000 0.000000 0.000000 -0.176114 0.000000 0.174193
#
#
# Mechanical properties :
#
#
# Convention : Reuss Voigt Hill
#
# Bulk Modulus (GPa) = 49.89312 59.72113 54.80713
# Shear Modulus (GPa) = 9.50609 29.35494 19.43052
#
# Velocity S-wave (km/s) = 2.09219 3.67655 2.99118
# Velocity P-wave (km/s) = 5.36755 6.74703 6.09644
#
# Compressibility (1/GPa) = 0.02004284
#
# Stress axis : x y z
#
# Youngs Moduli (GPa) = 48.13140 130.13546 96.31804
#
# Poissons Ratio (x) = 0.37644 0.51487
# Poissons Ratio (y) = 0.13923 0.11191
# Poissons Ratio (z) = 0.25729 0.15120
#
# Static dielectric constant tensor:
#      x y z
#    x 3.853880 0.000000 -0.165880 
#    y 0.000000 3.841590 0.000000 
#    z -0.165880 0.000000 3.980610 
# 
# 
# High freq. dielectric constant tensor:
#      x y z
#    x 1.851510 0.000000 -0.005600 
#    y 0.000000 1.850200 0.000000 
#    z -0.005600 0.000000 1.857450 
# 
# From -- ./inp_files/175387.got.cif
#   From: 2010.06.25/outbox.cif.g09.slc.cpg/sg12_88_cif.got.tgz:175387.got - 2010.06.28 00:19:55.
