data_PCOD8100047
_publ_section_title
;
Structure prediction by ZEFSAII (Michael W. Deem and Ramdas Pophale) SiO2 
 PCOD8100047
Probable space group: C 2/M
;
_chemical_formula_sum "Si O2"
_cell_formula_units_Z 64
_cell_length_a 13.242090
_cell_length_b 13.693429
_cell_length_c 20.920289
_cell_angle_alpha 90.000000
_cell_angle_beta 120.203243
_cell_angle_gamma 90.000000
_cell_volume 3278.490827
_symmetry_space_group_name_H-M "C 2/M"
_symmetry_group_IT_number 12
_symmetry_cell_setting 'monoclinic'
loop_
_space_group_symop_operation_xyz
x,y,z
-x,y,-z
-x,-y,-z
x,-y,z
1/2+x,1/2+y,z
1/2-x,1/2+y,-z
1/2-x,1/2-y,-z
1/2+x,1/2-y,z
loop_
_atom_site_type_symbol
_atom_site_label
_atom_site_fract_x
_atom_site_fract_y
_atom_site_fract_z
Si Si1 0.760934 0.794714 0.208017
Si Si2 0.890491 0.608375 0.218663
Si Si3 0.132130 0.720090 0.040451
Si Si4 0.605948 0.111482 0.376496
Si Si5 0.497146 0.616129 0.686411
Si Si6 0.972426 0.743178 0.419674
Si Si7 0.198661 0.390447 0.942489
Si Si8 0.290498 0.744525 0.673720
O O1 0.793503 0.680565 0.214876
O O2 0.677322 0.822468 0.122514
O O3 0.878180 0.860981 0.240386
O O4 0.691195 0.802319 0.252944
O O5 0.849470 0.500000 0.225230
O O6 0.899547 0.619325 0.144522
O O7 0.014402 0.631411 0.289829
O O8 0.197205 0.816921 0.038803
O O9 0.142413 0.633010 0.992721
O O10 0.000000 0.753858 0.000000
O O11 0.555937 0.152407 0.427098
O O12 0.713848 0.175578 0.385457
O O13 0.643019 0.000000 0.397594
O O14 0.478625 0.500000 0.675181
O O15 0.500788 0.663904 0.617067
O O16 0.389511 0.661903 0.693139
O O17 0.840953 0.701731 0.368999
O O18 0.000000 0.775715 0.500000
O O19 0.249649 0.500000 0.960401
#
# Coordination Sequence:
#
# PCOD8100047 Si02
#       8
#     8   8   8   8   8   8   8   8
#     4  10  20  37  56  81 119 147 189 237 284 328
#     4   9  16  33  58  79 106 143 185 233 282 328
#     4  10  22  35  56  83 112 151 191 233 284 340
#     4  10  20  35  57  86 113 143 187 233 277 328
#     4  10  22  39  58  86 115 150 190 231 279 333
#     4  10  22  41  60  84 119 152 180 227 280 333
#     4   9  20  37  54  77 113 149 184 234 288 333
#     4  10  20  36  59  84 110 152 187 230 270 338
#
# _framework density 19.521177000000002
#
# number of rings (size 3 to 8) (size 9 to 14) (size 15 to 20)
#    0.000    2.250    3.750    0.000    1.750    7.500 
#    0.000    1.250    0.000    0.000    0.000    0.000 
#    0.000    0.000    0.000    0.000    0.000    0.000 
#
# Total GULP energy -396622.223430 kJ/mol
# GULP energy per Si atom -12394.444482 kJ/mol
# Density = 1.947675 g / cm^3
# Si number density = 19.521177 Si / 1000 Ang^3
#
#
#
# Elastic Constant Matrix: (Units=GPa)
#
#
# Indices 1 2 3 4 5 6 
#
# 1 88.6659 21.4568 23.1788 0.0000 -17.1182 0.0000
# 2 21.4568 96.8022 6.7304 0.0000 -11.6623 0.0000
# 3 23.1788 6.7304 87.4172 0.0000 -14.8366 0.0000
# 4 0.0000 0.0000 0.0000 21.3734 0.0000 -1.4713
# 5 -17.1182 -11.6623 -14.8366 0.0000 24.0679 0.0000
# 6 0.0000 0.0000 0.0000 -1.4713 0.0000 12.2333
#
#
#
# Elastic Compliance Matrix: (Units=1/GPa)
#
#
# Indices 1 2 3 4 5 6 
#
# 1 0.013787 -0.002002 -0.002236 0.000000 0.007458 0.000000
# 2 -0.002002 0.011262 0.000389 0.000000 0.004273 0.000000
# 3 -0.002236 0.000389 0.013139 0.000000 0.006698 0.000000
# 4 0.000000 0.000000 0.000000 0.047178 0.000000 0.005674
# 5 0.007458 0.004273 0.006698 0.000000 0.053053 0.000000
# 6 0.000000 0.000000 0.000000 0.005674 0.000000 0.082427
#
#
# Mechanical properties :
#
#
# Convention : Reuss Voigt Hill
#
# Bulk Modulus (GPa) = 32.79750 41.73527 37.26639
# Shear Modulus (GPa) = 20.94625 26.30285 23.62455
#
# Velocity S-wave (km/s) = 3.27922 3.67468 3.48257
# Velocity P-wave (km/s) = 5.58348 6.27935 5.94161
#
# Compressibility (1/GPa) = 0.03049013
#
# Stress axis : x y z
#
# Youngs Moduli (GPa) = 72.53174 88.79546 76.10905
#
# Poissons Ratio (x) = 0.17778 0.17016
# Poissons Ratio (y) = 0.14521 -0.02960
# Poissons Ratio (z) = 0.16217 -0.03454
#
# Static dielectric constant tensor:
#      x y z
#    x 3.525160 0.000000 -0.194890 
#    y 0.000000 3.481910 0.000000 
#    z -0.194890 0.000000 3.716630 
# 
# 
# High freq. dielectric constant tensor:
#      x y z
#    x 1.753680 0.000000 -0.011850 
#    y 0.000000 1.749790 0.000000 
#    z -0.011850 0.000000 1.760390 
# 
# From -- ./inp_files/305476.got.cif
#   From: 2010.06.25/outbox.cif.g09.slc.cpg/sg12_153_cif.got.tgz:305476.got - 2010.06.28 00:19:55.
