data_PCOD8100539
_publ_section_title
;
Structure prediction by ZEFSAII (Michael W. Deem and Ramdas Pophale) SiO2 
 PCOD8100539
Probable space group: C 2/M
;
_chemical_formula_sum "Si O2"
_cell_formula_units_Z 64
_cell_length_a 15.323880
_cell_length_b 8.535195
_cell_length_c 32.876383
_cell_angle_alpha 90.000000
_cell_angle_beta 46.534105
_cell_angle_gamma 90.000000
_cell_volume 3120.855066
_symmetry_space_group_name_H-M "C 2/M"
_symmetry_group_IT_number 12
_symmetry_cell_setting 'monoclinic'
loop_
_space_group_symop_operation_xyz
x,y,z
-x,y,-z
-x,-y,-z
x,-y,z
1/2+x,1/2+y,z
1/2-x,1/2+y,-z
1/2-x,1/2-y,-z
1/2+x,1/2-y,z
loop_
_atom_site_type_symbol
_atom_site_label
_atom_site_fract_x
_atom_site_fract_y
_atom_site_fract_z
Si Si1 0.595982 0.315366 0.437490
Si Si2 0.846185 0.683280 0.938242
Si Si3 0.352586 0.683011 0.367271
Si Si4 0.901981 0.180809 0.124026
Si Si5 0.440064 0.314086 0.641037
Si Si6 0.536469 0.679223 0.754270
Si Si7 0.714122 0.679597 0.129044
Si Si8 0.292119 0.182344 0.237459
O O1 0.500000 0.243302 0.500000
O O2 0.580074 0.500000 0.440449
O O3 0.729313 0.276927 0.409657
O O4 0.570233 0.242494 0.401062
O O5 0.826520 0.500000 0.938882
O O6 0.831890 0.766984 0.899845
O O7 0.978574 0.715046 0.913172
O O8 0.750000 0.750000 0.000000
O O9 0.323246 0.500000 0.378496
O O10 0.433783 0.736872 0.379453
O O11 0.425540 0.726033 0.303279
O O12 0.828484 0.219217 0.106563
O O13 0.816683 0.218834 0.189356
O O14 0.939609 0.000000 0.112266
O O15 0.429003 0.500000 0.642955
O O16 0.330112 0.251011 0.703513
O O17 0.572960 0.500000 0.752718
O O18 0.393508 0.701071 0.803975
O O19 0.600562 0.795710 0.764926
O O20 0.754897 0.500000 0.113451
O O21 0.282436 0.000000 0.228733
#
# Coordination Sequence:
#
# PCOD8100539 Si02
#       8
#     8   8   8   8   8   8   8   8
#     4  10  21  38  57  79 111 151 198 251 301 354
#     4  12  26  46  69  95 126 166 213 261 313 366
#     4  10  20  36  58  83 115 153 194 240 295 362
#     4  12  25  42  64  95 131 166 207 256 307 366
#     4   9  19  36  57  83 115 155 193 239 302 364
#     4  10  20  35  59  89 123 156 193 246 307 365
#     4  11  23  42  67  96 129 166 207 254 310 370
#     4  11  20  35  62  89 120 161 202 242 302 371
#
# _framework density 20.507200000000001
#
# number of rings (size 3 to 8) (size 9 to 14) (size 15 to 20)
#    0.000    1.375    2.500    3.750    0.000    3.750 
#    0.000    5.625    0.000    0.000    0.000    0.000 
#    0.000    0.000    0.000    0.000    0.000    0.000 
#
# Total GULP energy -396948.691512 kJ/mol
# GULP energy per Si atom -12404.646610 kJ/mol
# Density = 2.046052 g / cm^3
# Si number density = 20.507200 Si / 1000 Ang^3
#
#
#
# Elastic Constant Matrix: (Units=GPa)
#
#
# Indices 1 2 3 4 5 6 
#
# 1 122.9259 8.2791 38.3381 0.0000 -9.9806 0.0017
# 2 8.2791 49.4170 21.7088 -0.0001 2.3174 0.0024
# 3 38.3381 21.7088 123.9678 -0.0002 -19.0488 0.0003
# 4 0.0000 -0.0001 -0.0002 24.5831 -0.0007 -1.9234
# 5 -9.9806 2.3174 -19.0488 -0.0007 14.9689 -0.0002
# 6 0.0017 0.0024 0.0003 -1.9234 -0.0002 34.0523
#
#
#
# Elastic Compliance Matrix: (Units=1/GPa)
#
#
# Indices 1 2 3 4 5 6 
#
# 1 0.009141 -0.000742 -0.002167 0.000000 0.003452 0.000000
# 2 -0.000742 0.023337 -0.005579 0.000000 -0.011207 -0.000002
# 3 -0.002167 -0.005579 0.011964 0.000001 0.014644 0.000000
# 4 0.000000 0.000000 0.000001 0.040859 0.000003 0.002308
# 5 0.003452 -0.011207 0.014644 0.000003 0.089477 0.000001
# 6 0.000000 -0.000002 0.000000 0.002308 0.000001 0.029497
#
#
# Mechanical properties :
#
#
# Convention : Reuss Voigt Hill
#
# Bulk Modulus (GPa) = 36.40803 48.10697 42.25750
# Shear Modulus (GPa) = 21.70089 29.91985 25.81037
#
# Velocity S-wave (km/s) = 3.25654 3.82382 3.55152
# Velocity P-wave (km/s) = 5.65088 6.55782 6.12117
#
# Compressibility (1/GPa) = 0.02746647
#
# Stress axis : x y z
#
# Youngs Moduli (GPa) = 109.39789 42.85080 83.58506
#
# Poissons Ratio (x) = 0.03178 0.18109
# Poissons Ratio (y) = 0.08113 0.46636
# Poissons Ratio (z) = 0.23702 0.23908
#
# Static dielectric constant tensor:
#      x y z
#    x 3.790590 0.000000 0.081870 
#    y 0.000000 3.568080 0.000000 
#    z 0.081870 0.000000 3.880150 
# 
# 
# High freq. dielectric constant tensor:
#      x y z
#    x 1.812520 0.000000 -0.000270 
#    y 0.000000 1.785230 0.000000 
#    z -0.000270 0.000000 1.803020 
# 
# From -- ./inp_files/375407.got.cif
#   From: 2010.06.25/outbox.cif.g09.slc.cpg/sg12_188_cif.got.tgz:375407.got - 2010.06.28 00:19:55.
