data_PCOD8100374
_publ_section_title
;
Structure prediction by ZEFSAII (Michael W. Deem and Ramdas Pophale) SiO2 
 PCOD8100374
Probable space group: C 2/M
;
_chemical_formula_sum "Si O2"
_cell_formula_units_Z 56
_cell_length_a 15.290892
_cell_length_b 8.663409
_cell_length_c 28.860767
_cell_angle_alpha 90.000000
_cell_angle_beta 132.188768
_cell_angle_gamma 90.000000
_cell_volume 2832.763762
_symmetry_space_group_name_H-M "C 2/M"
_symmetry_group_IT_number 12
_symmetry_cell_setting 'monoclinic'
loop_
_space_group_symop_operation_xyz
x,y,z
-x,y,-z
-x,-y,-z
x,-y,z
1/2+x,1/2+y,z
1/2-x,1/2+y,-z
1/2-x,1/2-y,-z
1/2+x,1/2-y,z
loop_
_atom_site_type_symbol
_atom_site_label
_atom_site_fract_x
_atom_site_fract_y
_atom_site_fract_z
Si Si1 0.102525 0.318724 0.004526
Si Si2 0.015328 0.319459 0.131584
Si Si3 0.838726 0.182301 0.134857
Si Si4 0.232065 0.681361 0.794500
Si Si5 0.307040 0.817676 0.565841
Si Si6 0.928100 0.318112 0.347781
Si Si7 0.613615 0.682384 0.568321
O O1 0.104878 0.500000 0.014429
O O2 0.228389 0.252206 0.065578
O O3 0.077038 0.278270 0.942163
O O4 0.000000 0.244575 0.000000
O O5 0.047178 0.500000 0.143485
O O6 0.955917 0.267993 0.158454
O O7 0.132420 0.222254 0.165198
O O8 0.820885 0.223581 0.181808
O O9 0.855213 0.000000 0.135062
O O10 0.218575 0.500000 0.799344
O O11 0.159355 0.735065 0.723775
O O12 0.250000 0.750000 0.500000
O O13 0.440876 0.756487 0.617984
O O14 0.232049 0.763735 0.583829
O O15 0.302918 0.000000 0.559986
O O16 0.929640 0.500000 0.353745
O O17 0.880471 0.249163 0.378393
O O18 0.500000 0.746838 0.500000
O O19 0.605243 0.500000 0.569203
#
# Coordination Sequence:
#
# PCOD8100374 Si02
#       7
#     8   8   8   8   8   8   8
#     4   9  17  34  60  89 119 153 197 248 302 359
#     4  11  22  39  63  89 120 159 201 249 306 360
#     4  11  22  39  63  90 122 158 199 250 304 359
#     4  11  24  42  59  84 121 161 208 252 295 355
#     4  10  20  36  58  85 115 147 183 230 285 340
#     4  10  23  40  59  84 117 154 194 240 290 346
#     4  10  20  35  58  89 119 147 186 233 286 349
#
# _framework density 19.76868
#
# number of rings (size 3 to 8) (size 9 to 14) (size 15 to 20)
#    0.000    1.714    2.857    1.714    0.000    3.143 
#    0.000    4.286    0.000    0.000    0.000    0.000 
#    0.000    0.000    0.000    0.000    0.000    0.000 
#
# Total GULP energy -347272.077829 kJ/mol
# GULP energy per Si atom -12402.574208 kJ/mol
# Density = 1.972369 g / cm^3
# Si number density = 19.768680 Si / 1000 Ang^3
#
#
#
# Elastic Constant Matrix: (Units=GPa)
#
#
# Indices 1 2 3 4 5 6 
#
# 1 144.6356 19.1399 35.9498 0.0000 -19.9564 0.0000
# 2 19.1399 27.1518 27.1507 0.0000 4.3212 0.0000
# 3 35.9498 27.1507 96.6844 0.0000 -29.8607 0.0000
# 4 0.0000 0.0000 0.0000 27.3948 0.0000 -5.2474
# 5 -19.9564 4.3212 -29.8607 0.0000 7.3782 0.0000
# 6 0.0000 0.0000 0.0000 -5.2474 0.0000 29.8933
#
#
#
# Elastic Compliance Matrix: (Units=1/GPa)
#
#
# Indices 1 2 3 4 5 6 
#
# 1 0.006731 0.003266 -0.006450 0.000000 -0.009811 0.000000
# 2 0.003266 0.010924 0.014121 0.000000 0.059586 0.000000
# 3 -0.006450 0.014121 -0.003334 0.000000 -0.039210 0.000000
# 4 0.000000 0.000000 0.000000 0.037773 0.000000 0.006631
# 5 -0.009811 0.059586 -0.039210 0.000000 -0.084588 0.000000
# 6 0.000000 0.000000 0.000000 0.006631 0.000000 0.034616
#
#
# Mechanical properties :
#
#
# Convention : Reuss Voigt Hill
#
# Bulk Modulus (GPa) = 27.62786 48.10584 37.86685
# Shear Modulus (GPa) = -650.48233 25.34867 -312.56683
#
# Velocity S-wave (km/s) = -18.15933 3.58476 -12.58791
# Velocity P-wave (km/s) = 20.63191 6.44369 13.85920
#
# Compressibility (1/GPa) = 0.03619535
#
# Stress axis : x y z
#
# Youngs Moduli (GPa) = 148.56053 91.54214 -299.93062
#
# Poissons Ratio (x) = -0.29899 -1.93456
# Poissons Ratio (y) = -0.48522 4.23533
# Poissons Ratio (z) = 0.95822 -1.29267
#
# Static dielectric constant tensor:
#      x y z
#    x 3.994680 0.000000 0.013450 
#    y 0.000000 3.372760 0.000000 
#    z 0.013450 0.000000 3.751830 
# 
# 
# High freq. dielectric constant tensor:
#      x y z
#    x 1.788230 0.000000 0.000340 
#    y 0.000000 1.753910 0.000000 
#    z 0.000340 0.000000 1.768510 
# 
# From -- ./inp_files/375130.got.cif
#   From: 2010.06.25/outbox.cif.g09.slc.cpg/sg12_188_cif.got.tgz:375130.got - 2010.06.28 00:19:55.
