data_PCOD8100623
_publ_section_title
;
Structure prediction by ZEFSAII (Michael W. Deem and Ramdas Pophale) SiO2 
 PCOD8100623
Probable space group: C 2/M
;
_chemical_formula_sum "Si O2"
_cell_formula_units_Z 56
_cell_length_a 31.150958
_cell_length_b 8.858442
_cell_length_c 11.953040
_cell_angle_alpha 90.000000
_cell_angle_beta 59.219822
_cell_angle_gamma 90.000000
_cell_volume 2833.802276
_symmetry_space_group_name_H-M "C 2/M"
_symmetry_group_IT_number 12
_symmetry_cell_setting 'monoclinic'
loop_
_space_group_symop_operation_xyz
x,y,z
-x,y,-z
-x,-y,-z
x,-y,z
1/2+x,1/2+y,z
1/2-x,1/2+y,-z
1/2-x,1/2-y,-z
1/2+x,1/2-y,z
loop_
_atom_site_type_symbol
_atom_site_label
_atom_site_fract_x
_atom_site_fract_y
_atom_site_fract_z
Si Si1 0.395840 0.822415 0.866965
Si Si2 0.822579 0.326689 0.417461
Si Si3 0.264976 0.322464 0.310760
Si Si4 0.512649 0.178193 0.106410
Si Si5 0.572597 0.825060 0.616340
Si Si6 0.711882 0.320771 0.964483
Si Si7 0.058569 0.826809 0.408660
O O1 0.431405 0.780873 0.926000
O O2 0.423365 0.776955 0.716444
O O3 0.384881 0.000000 0.878571
O O4 0.344499 0.732969 0.942536
O O5 0.809625 0.500000 0.412125
O O6 0.787012 0.265952 0.565123
O O7 0.812054 0.237111 0.318063
O O8 0.879818 0.302405 0.368996
O O9 0.268318 0.500000 0.302778
O O10 0.268900 0.259946 0.180411
O O11 0.473958 0.241176 0.250844
O O12 0.504975 0.000000 0.110555
O O13 0.500000 0.247197 0.000000
O O14 0.583005 0.730120 0.491030
O O15 0.564554 0.000000 0.594303
O O16 0.713357 0.500000 0.973464
O O17 0.750000 0.250000 0.000000
O O18 0.000000 0.806135 0.500000
O O19 0.073946 0.000000 0.366322
#
# Coordination Sequence:
#
# PCOD8100623 Si02
#       7
#     8   8   8   8   8   8   8
#     4  11  23  40  65  90 119 160 204 252 306 360
#     4   9  19  35  60  89 114 148 196 247 296 350
#     4   9  20  39  58  82 119 155 192 244 299 357
#     4   9  19  35  57  89 123 155 198 247 297 359
#     4  10  20  35  60  89 117 152 198 249 296 352
#     4  11  25  43  62  88 122 160 206 253 305 363
#     4  11  23  39  59  85 122 157 196 247 296 353
#
# _framework density 19.761434999999999
#
# number of rings (size 3 to 8) (size 9 to 14) (size 15 to 20)
#    0.000    2.000    1.429    1.286    4.000    2.286 
#    0.000    0.000    0.000    2.143    0.000    0.000 
#    0.000    0.000    0.000    0.000    0.000    0.000 
#
# Total GULP energy -347212.276875 kJ/mol
# GULP energy per Si atom -12400.438460 kJ/mol
# Density = 1.971646 g / cm^3
# Si number density = 19.761435 Si / 1000 Ang^3
#
#
#
# Elastic Constant Matrix: (Units=GPa)
#
#
# Indices 1 2 3 4 5 6 
#
# 1 113.0047 27.7783 62.0156 0.0000 6.7325 0.0000
# 2 27.7783 37.8080 32.3226 0.0000 1.6142 0.0000
# 3 62.0156 32.3226 112.5886 0.0000 21.1269 0.0000
# 4 0.0000 0.0000 0.0000 20.2268 0.0000 1.9177
# 5 6.7325 1.6142 21.1269 0.0000 36.2835 0.0000
# 6 0.0000 0.0000 0.0000 1.9177 0.0000 30.7378
#
#
#
# Elastic Compliance Matrix: (Units=1/GPa)
#
#
# Indices 1 2 3 4 5 6 
#
# 1 0.013333 -0.004441 -0.006334 0.000000 0.001412 0.000000
# 2 -0.004441 0.037302 -0.009100 0.000000 0.004463 0.000000
# 3 -0.006334 -0.009100 0.016488 0.000000 -0.008021 0.000000
# 4 0.000000 0.000000 0.000000 0.049734 0.000000 -0.003103
# 5 0.001412 0.004463 -0.008021 0.000000 0.031770 0.000000
# 6 0.000000 0.000000 0.000000 -0.003103 0.000000 0.032727
#
#
# Mechanical properties :
#
#
# Convention : Reuss Voigt Hill
#
# Bulk Modulus (GPa) = 36.53299 56.40381 46.46840
# Shear Modulus (GPa) = 21.71767 26.86860 24.29313
#
# Velocity S-wave (km/s) = 3.31870 3.69134 3.50997
# Velocity P-wave (km/s) = 5.76300 6.83903 6.32394
#
# Compressibility (1/GPa) = 0.02737252
#
# Stress axis : x y z
#
# Youngs Moduli (GPa) = 75.00354 26.80849 60.64973
#
# Poissons Ratio (x) = 0.11906 0.38414
# Poissons Ratio (y) = 0.33311 0.55191
# Poissons Ratio (z) = 0.47505 0.24396
#
# Static dielectric constant tensor:
#      x y z
#    x 3.690860 0.000000 0.007960 
#    y 0.000000 3.530740 0.000000 
#    z 0.007960 0.000000 3.972900 
# 
# 
# High freq. dielectric constant tensor:
#      x y z
#    x 1.779800 0.000000 0.003730 
#    y 0.000000 1.751810 0.000000 
#    z 0.003730 0.000000 1.778410 
# 
# From -- ./inp_files/180792.got.cif
#   From: 2010.06.25/outbox.cif.g09.slc.cpg/sg12_91_cif.got.tgz:180792.got - 2010.06.28 00:19:55.
