data_PCOD8100299
_publ_section_title
;
Structure prediction by ZEFSAII (Michael W. Deem and Ramdas Pophale) SiO2 
 PCOD8100299
Probable space group: C 2/M
;
_chemical_formula_sum "Si O2"
_cell_formula_units_Z 40
_cell_length_a 13.964907
_cell_length_b 32.437584
_cell_length_c 9.978308
_cell_angle_alpha 90.000000
_cell_angle_beta 151.893122
_cell_angle_gamma 90.000000
_cell_volume 2129.476933
_symmetry_space_group_name_H-M "C 2/M"
_symmetry_group_IT_number 12
_symmetry_cell_setting 'monoclinic'
loop_
_space_group_symop_operation_xyz
x,y,z
-x,y,-z
-x,-y,-z
x,-y,z
1/2+x,1/2+y,z
1/2-x,1/2+y,-z
1/2-x,1/2-y,-z
1/2+x,1/2-y,z
loop_
_atom_site_type_symbol
_atom_site_label
_atom_site_fract_x
_atom_site_fract_y
_atom_site_fract_z
Si Si1 0.835655 0.694624 0.684785
Si Si2 0.635638 0.097854 0.293589
Si Si3 0.488858 0.546144 0.636367
Si Si4 0.486537 0.753071 0.327849
Si Si5 0.558292 0.046034 0.721336
O O1 0.823039 0.646077 0.651625
O O2 0.612166 0.710847 0.453443
O O3 0.904666 0.712037 0.626490
O O4 0.000000 0.707711 0.000000
O O5 0.526468 0.082299 0.291651
O O6 0.849895 0.075380 0.553011
O O7 0.500000 0.084714 0.000000
O O8 0.500000 0.564347 0.500000
O O9 0.395895 0.500000 0.514798
O O10 0.701059 0.546032 0.972659
O O11 0.500000 0.765325 0.500000
O O12 0.250000 0.750000 0.000000
O O13 0.500000 0.057866 0.500000
O O14 0.475927 0.000000 0.658235
#
# Coordination Sequence:
#
# PCOD8100299 Si02
#       5
#     8   8   8   8   8
#     4  10  23  39  60  94 118 147 202 241 288 363
#     4  11  22  37  60  88 121 153 192 249 294 336
#     4  10  20  35  58  87 114 154 204 238 281 345
#     4  11  22  41  65  86 117 156 189 237 298 353
#     4  10  22  39  58  84 121 160 199 241 290 345
#
# _framework density 18.783954999999999
#
# number of rings (size 3 to 8) (size 9 to 14) (size 15 to 20)
#    0.000    1.600    4.000    0.600    0.000    4.800 
#    0.000    5.000    0.000    0.000    0.000    0.000 
#    0.000    0.000    0.000    0.000    0.000    0.000 
#
# Total GULP energy -248024.295028 kJ/mol
# GULP energy per Si atom -12401.214751 kJ/mol
# Density = 1.874120 g / cm^3
# Si number density = 18.783955 Si / 1000 Ang^3
#
#
#
# Elastic Constant Matrix: (Units=GPa)
#
#
# Indices 1 2 3 4 5 6 
#
# 1 120.9079 59.4366 59.4576 0.0000 -5.3036 0.0000
# 2 59.4366 100.0382 44.9855 0.0000 1.2173 0.0000
# 3 59.4576 44.9855 126.2741 0.0000 -7.8728 0.0000
# 4 0.0000 0.0000 0.0000 -9.3774 0.0000 -16.5461
# 5 -5.3036 1.2173 -7.8728 0.0000 39.5266 0.0000
# 6 0.0000 0.0000 0.0000 -16.5461 0.0000 20.9082
#
#
#
# Elastic Compliance Matrix: (Units=1/GPa)
#
#
# Indices 1 2 3 4 5 6 
#
# 1 0.013300 -0.006112 -0.004012 0.000000 0.001174 0.000000
# 2 -0.006112 0.014771 -0.002495 0.000000 -0.001772 0.000000
# 3 -0.004012 -0.002495 0.010802 0.000000 0.001690 0.000000
# 4 0.000000 0.000000 0.000000 -0.044501 0.000000 -0.035217
# 5 0.001174 -0.001772 0.001690 0.000000 0.025848 0.000000
# 6 0.000000 0.000000 0.000000 -0.035217 0.000000 0.019959
#
#
# Mechanical properties :
#
#
# Convention : Reuss Voigt Hill
#
# Bulk Modulus (GPa) = 73.33530 74.99772 74.16651
# Shear Modulus (GPa) = 71.46779 22.43417 46.95098
#
# Velocity S-wave (km/s) = 6.17494 3.45965 5.00495
# Velocity P-wave (km/s) = 9.48504 7.48145 8.54219
#
# Compressibility (1/GPa) = 0.01363600
#
# Stress axis : x y z
#
# Youngs Moduli (GPa) = 75.18992 67.69999 92.57264
#
# Poissons Ratio (x) = 0.41379 0.37137
# Poissons Ratio (y) = 0.45957 0.23094
# Poissons Ratio (z) = 0.30164 0.16889
#
# Static dielectric constant tensor:
#      x y z
#    x 3.469070 0.000000 0.000700 
#    y 0.000000 3.381250 0.000000 
#    z 0.000700 0.000000 3.565090 
# 
# 
# High freq. dielectric constant tensor:
#      x y z
#    x 1.735530 0.000000 0.000400 
#    y 0.000000 1.722610 0.000000 
#    z 0.000400 0.000000 1.737610 
# 
# From -- ./inp_files/68757.got.cif
#   From: 2010.06.25/outbox.cif.g09.slc.cpg/sg12_35_cif.got.tgz:68757.got - 2010.06.28 00:19:55.
