data_PCOD8100089
_publ_section_title
;
Structure prediction by ZEFSAII (Michael W. Deem and Ramdas Pophale) SiO2 
 PCOD8100089
Probable space group: C 2/M
;
_chemical_formula_sum "Si O2"
_cell_formula_units_Z 48
_cell_length_a 19.669506
_cell_length_b 8.750822
_cell_length_c 14.504383
_cell_angle_alpha 90.000000
_cell_angle_beta 64.817873
_cell_angle_gamma 90.000000
_cell_volume 2259.284185
_symmetry_space_group_name_H-M "C 2/M"
_symmetry_group_IT_number 12
_symmetry_cell_setting 'monoclinic'
loop_
_space_group_symop_operation_xyz
x,y,z
-x,y,-z
-x,-y,-z
x,-y,z
1/2+x,1/2+y,z
1/2-x,1/2+y,-z
1/2-x,1/2-y,-z
1/2+x,1/2-y,z
loop_
_atom_site_type_symbol
_atom_site_label
_atom_site_fract_x
_atom_site_fract_y
_atom_site_fract_z
Si Si1 0.994998 0.681064 0.349540
Si Si2 0.608156 0.825431 0.432818
Si Si3 0.231176 0.825499 0.607057
Si Si4 0.366863 0.679729 0.173710
Si Si5 0.527250 0.676891 0.140901
Si Si6 0.179579 0.680093 0.985995
O O1 0.997005 0.500000 0.323822
O O2 0.921267 0.733888 0.450312
O O3 0.066314 0.741762 0.367983
O O4 0.995469 0.782433 0.258777
O O5 0.696210 0.801303 0.369888
O O6 0.582798 0.000000 0.448635
O O7 0.250000 0.750000 0.500000
O O8 0.163458 0.758324 0.708908
O O9 0.215634 0.000000 0.592391
O O10 0.348878 0.500000 0.176731
O O11 0.456475 0.709926 0.113182
O O12 0.321854 0.763317 0.118523
O O13 0.550600 0.500000 0.121050
O O14 0.600067 0.776784 0.077491
O O15 0.189082 0.500000 0.983095
O O16 0.250000 0.750000 0.000000
#
# Coordination Sequence:
#
# PCOD8100089 Si02
#       6
#     8   8   8   8   8   8
#     4   9  17  32  56  85 116 160 212 261 311 366
#     4   8  16  31  52  81 118 158 209 261 308 362
#     4  10  20  35  57  86 123 167 209 252 306 365
#     4  10  23  42  64  92 131 172 211 259 315 368
#     4  11  23  40  62  91 128 165 207 259 315 370
#     4  12  27  46  69  95 123 158 207 262 320 384
#
# _framework density 21.245667999999998
#
# number of rings (size 3 to 8) (size 9 to 14) (size 15 to 20)
#    0.000    2.000    0.000    4.500    2.333    4.000 
#    0.000    2.500    0.000    0.000    0.000    0.000 
#    0.000    0.000    0.000    0.000    0.000    0.000 
#
# Total GULP energy -297426.845092 kJ/mol
# GULP energy per Si atom -12392.785212 kJ/mol
# Density = 2.119731 g / cm^3
# Si number density = 21.245668 Si / 1000 Ang^3
#
#
#
# Elastic Constant Matrix: (Units=GPa)
#
#
# Indices 1 2 3 4 5 6 
#
# 1 109.5058 47.3404 51.6684 0.0000 -6.8927 0.0000
# 2 47.3404 81.2406 40.0245 0.0000 3.4207 0.0000
# 3 51.6684 40.0245 112.5780 0.0000 -0.0393 0.0000
# 4 0.0000 0.0000 0.0000 35.6266 0.0000 1.3919
# 5 -6.8927 3.4207 -0.0393 0.0000 35.2070 0.0000
# 6 0.0000 0.0000 0.0000 1.3919 0.0000 24.2936
#
#
#
# Elastic Compliance Matrix: (Units=1/GPa)
#
#
# Indices 1 2 3 4 5 6 
#
# 1 0.014031 -0.006238 -0.004221 0.000000 0.003348 0.000000
# 2 -0.006238 0.017771 -0.003456 0.000000 -0.002952 0.000000
# 3 -0.004221 -0.003456 0.012049 0.000000 -0.000477 0.000000
# 4 0.000000 0.000000 0.000000 0.028132 0.000000 -0.001612
# 5 0.003348 -0.002952 -0.000477 0.000000 0.029345 0.000000
# 6 0.000000 0.000000 0.000000 -0.001612 0.000000 0.041255
#
#
# Mechanical properties :
#
#
# Convention : Reuss Voigt Hill
#
# Bulk Modulus (GPa) = 62.41797 64.59900 63.50849
# Shear Modulus (GPa) = 28.44917 29.97818 29.21367
#
# Velocity S-wave (km/s) = 3.66328 3.76044 3.71218
# Velocity P-wave (km/s) = 6.88010 7.02327 6.95205
#
# Compressibility (1/GPa) = 0.01602103
#
# Stress axis : x y z
#
# Youngs Moduli (GPa) = 71.27234 56.27167 82.99788
#
# Poissons Ratio (x) = 0.35100 0.35031
# Poissons Ratio (y) = 0.44456 0.28687
# Poissons Ratio (z) = 0.30082 0.19449
#
# Static dielectric constant tensor:
#      x y z
#    x 6.035450 0.000000 0.010050 
#    y 0.000000 3.522430 0.000000 
#    z 0.010050 0.000000 3.899360 
# 
# 
# High freq. dielectric constant tensor:
#      x y z
#    x 1.849060 0.000000 -0.001780 
#    y 0.000000 1.801480 0.000000 
#    z -0.001780 0.000000 1.842900 
# 
# From -- ./inp_files/229867.got.cif
#   From: 2010.06.25/outbox.cif.g09.slc.cpg/sg12_115_cif.got.tgz:229867.got - 2010.06.28 00:19:55.
