data_PCOD8100585
_publ_section_title
;
Structure prediction by ZEFSAII (Michael W. Deem and Ramdas Pophale) SiO2 
 PCOD8100585
Probable space group: C 2/M
;
_chemical_formula_sum "Si O2"
_cell_formula_units_Z 36
_cell_length_a 12.720546
_cell_length_b 18.459306
_cell_length_c 7.276548
_cell_angle_alpha 90.000000
_cell_angle_beta 98.149331
_cell_angle_gamma 90.000000
_cell_volume 1691.370345
_symmetry_space_group_name_H-M "C 2/M"
_symmetry_group_IT_number 12
_symmetry_cell_setting 'monoclinic'
loop_
_space_group_symop_operation_xyz
x,y,z
-x,y,-z
-x,-y,-z
x,-y,z
1/2+x,1/2+y,z
1/2-x,1/2+y,-z
1/2-x,1/2-y,-z
1/2+x,1/2-y,z
loop_
_atom_site_type_symbol
_atom_site_label
_atom_site_fract_x
_atom_site_fract_y
_atom_site_fract_z
Si Si1 0.188257 0.350241 0.420148
Si Si2 0.409600 0.000000 0.711526
Si Si3 0.149501 0.794001 0.825324
Si Si4 0.500000 0.252394 0.500000
Si Si5 0.140366 0.500000 0.875149
Si Si6 0.253788 0.648032 0.825068
O O1 0.142865 0.430739 0.395819
O O2 0.247326 0.327325 0.250509
O O3 0.273406 0.344916 0.610522
O O4 0.092214 0.296140 0.436352
O O5 0.537381 0.000000 0.715128
O O6 0.391492 0.000000 0.922540
O O7 0.044630 0.803957 0.674873
O O8 0.165811 0.708036 0.863319
O O9 0.141989 0.835332 0.021433
O O10 0.210959 0.569178 0.853685
#
# Coordination Sequence:
#
# PCOD8100585 Si02
#       6
#     8   4   8   4   4   8
#     4  11  21  38  57  85 118 149 182 231 281 341
#     4  11  21  33  57  86 118 147 181 226 292 337
#     4  10  21  38  55  84 114 150 188 233 274 332
#     4  10  20  35  60  81 112 152 190 228 280 327
#     4  11  21  35  55  88 116 147 183 230 284 347
#     4  10  20  36  56  79 115 149 183 224 282 331
#
# _framework density 21.284517000000001
#
# number of rings (size 3 to 8) (size 9 to 14) (size 15 to 20)
#    0.000    1.556    2.222    6.000    0.000    1.333 
#    0.000    7.778    0.000    2.667    0.000   10.889 
#    0.000    0.000    0.000    0.000    0.000    0.000 
#
# Total GULP energy -223099.585545 kJ/mol
# GULP energy per Si atom -12394.421419 kJ/mol
# Density = 2.123607 g / cm^3
# Si number density = 21.284517 Si / 1000 Ang^3
#
#
#
# Elastic Constant Matrix: (Units=GPa)
#
#
# Indices 1 2 3 4 5 6 
#
# 1 35.3055 16.9076 29.0415 0.0000 13.2963 0.0000
# 2 16.9076 117.3572 38.8956 0.0000 16.5359 0.0000
# 3 29.0415 38.8956 164.1559 0.0000 37.8742 0.0000
# 4 0.0000 0.0000 0.0000 42.1773 0.0000 9.2427
# 5 13.2963 16.5359 37.8742 0.0000 36.1176 0.0000
# 6 0.0000 0.0000 0.0000 9.2427 0.0000 25.8093
#
#
#
# Elastic Compliance Matrix: (Units=1/GPa)
#
#
# Indices 1 2 3 4 5 6 
#
# 1 0.035786 -0.002769 -0.003862 0.000000 -0.007856 0.000000
# 2 -0.002769 0.009643 -0.001335 0.000000 -0.001996 0.000000
# 3 -0.003862 -0.001335 0.008736 0.000000 -0.007128 0.000000
# 4 0.000000 0.000000 0.000000 0.025729 0.000000 -0.009214
# 5 -0.007856 -0.001996 -0.007128 0.000000 0.038968 0.000000
# 6 0.000000 0.000000 0.000000 -0.009214 0.000000 0.042045
#
#
# Mechanical properties :
#
#
# Convention : Reuss Voigt Hill
#
# Bulk Modulus (GPa) = 26.15452 54.05644 40.10548
# Shear Modulus (GPa) = 26.37368 36.28578 31.32973
#
# Velocity S-wave (km/s) = 3.52391 4.13340 3.84076
# Velocity P-wave (km/s) = 5.37326 6.94494 6.20903
#
# Compressibility (1/GPa) = 0.03823431
#
# Stress axis : x y z
#
# Youngs Moduli (GPa) = 27.94387 103.69721 114.47118
#
# Poissons Ratio (x) = 0.28709 0.44213
# Poissons Ratio (y) = 0.07736 0.15277
# Poissons Ratio (z) = 0.10793 0.13839
#
# Static dielectric constant tensor:
#      x y z
#    x 3.419970 0.000000 0.203660 
#    y 0.000000 3.845300 0.000000 
#    z 0.203660 0.000000 4.647730 
# 
# 
# High freq. dielectric constant tensor:
#      x y z
#    x 1.781900 0.000000 0.002820 
#    y 0.000000 1.828760 0.000000 
#    z 0.002820 0.000000 1.876400 
# 
# From -- ./inp_files/47267.got.cif
#   From: 2010.06.25/outbox.cif.g09.slc.cpg/sg12_24_cif.got.tgz:47267.got - 2010.06.28 00:19:55.
