data_PCOD8100503
_publ_section_title
;
Structure prediction by ZEFSAII (Michael W. Deem and Ramdas Pophale) SiO2 
 PCOD8100503
Probable space group: C 2/M
;
_chemical_formula_sum "Si O2"
_cell_formula_units_Z 40
_cell_length_a 19.117764
_cell_length_b 8.924243
_cell_length_c 13.719482
_cell_angle_alpha 90.000000
_cell_angle_beta 59.232995
_cell_angle_gamma 90.000000
_cell_volume 2011.259351
_symmetry_space_group_name_H-M "C 2/M"
_symmetry_group_IT_number 12
_symmetry_cell_setting 'monoclinic'
loop_
_space_group_symop_operation_xyz
x,y,z
-x,y,-z
-x,-y,-z
x,-y,z
1/2+x,1/2+y,z
1/2-x,1/2+y,-z
1/2-x,1/2-y,-z
1/2+x,1/2-y,z
loop_
_atom_site_type_symbol
_atom_site_label
_atom_site_fract_x
_atom_site_fract_y
_atom_site_fract_z
Si Si1 0.445646 0.174027 0.454901
Si Si2 0.128612 0.821834 0.837342
Si Si3 0.670762 0.826340 0.010823
Si Si4 0.762404 0.671953 0.592085
Si Si5 0.003710 0.673609 0.791032
O O1 0.500000 0.251642 0.500000
O O2 0.354788 0.199305 0.558174
O O3 0.462916 0.242156 0.335158
O O4 0.468830 0.000000 0.429455
O O5 0.202485 0.763893 0.716683
O O6 0.043888 0.765486 0.851357
O O7 0.126138 0.000000 0.850498
O O8 0.144371 0.749822 0.929835
O O9 0.594006 0.807525 0.138256
O O10 0.690706 0.000000 0.978605
O O11 0.750000 0.750000 0.000000
O O12 0.742268 0.500000 0.589535
O O13 0.750000 0.750000 0.500000
O O14 0.028721 0.500000 0.786052
#
# Coordination Sequence:
#
# PCOD8100503 Si02
#       5
#     8   8   8   8   8
#     4   9  18  33  58  86 114 150 191 240 290 341
#     4  11  23  38  61  90 122 157 197 245 296 353
#     4  11  25  42  62  88 118 155 200 248 299 353
#     4  10  20  35  59  88 118 151 193 239 290 352
#     4  10  21  39  63  87 115 156 205 244 288 356
#
# _framework density 19.888037000000001
#
# number of rings (size 3 to 8) (size 9 to 14) (size 15 to 20)
#    0.000    1.800    2.000    1.800    2.800    4.800 
#    0.000    0.000    0.000    1.200    0.000    0.000 
#    0.000    0.000    0.000    0.000    0.000    0.000 
#
# Total GULP energy -248001.047137 kJ/mol
# GULP energy per Si atom -12400.052357 kJ/mol
# Density = 1.984277 g / cm^3
# Si number density = 19.888037 Si / 1000 Ang^3
#
#
#
# Elastic Constant Matrix: (Units=GPa)
#
#
# Indices 1 2 3 4 5 6 
#
# 1 130.1074 43.5653 33.0967 0.0000 6.9876 0.0000
# 2 43.5653 68.7497 28.6249 0.0000 -1.9175 0.0000
# 3 33.0967 28.6249 84.5494 0.0000 -4.7227 0.0000
# 4 0.0000 0.0000 0.0000 24.9684 0.0000 0.2688
# 5 6.9876 -1.9175 -4.7227 0.0000 37.9871 0.0000
# 6 0.0000 0.0000 0.0000 0.2688 0.0000 32.1949
#
#
#
# Elastic Compliance Matrix: (Units=1/GPa)
#
#
# Indices 1 2 3 4 5 6 
#
# 1 0.010281 -0.005646 -0.002250 0.000000 -0.002456 0.000000
# 2 -0.005646 0.020034 -0.004489 0.000000 0.001492 0.000000
# 3 -0.002250 -0.004489 0.014338 0.000000 0.001970 0.000000
# 4 0.000000 0.000000 0.000000 0.040054 0.000000 -0.000334
# 5 -0.002456 0.001492 0.001970 0.000000 0.027097 0.000000
# 6 0.000000 0.000000 0.000000 -0.000334 0.000000 0.031064
#
#
# Mechanical properties :
#
#
# Convention : Reuss Voigt Hill
#
# Bulk Modulus (GPa) = 50.29663 54.88669 52.59166
# Shear Modulus (GPa) = 28.69175 30.90473 29.79824
#
# Velocity S-wave (km/s) = 3.80236 3.94628 3.87499
# Velocity P-wave (km/s) = 6.67998 6.95858 6.82070
#
# Compressibility (1/GPa) = 0.01988205
#
# Stress axis : x y z
#
# Youngs Moduli (GPa) = 97.26805 49.91442 69.74473
#
# Poissons Ratio (x) = 0.28184 0.15692
# Poissons Ratio (y) = 0.54922 0.31309
# Poissons Ratio (z) = 0.21885 0.22407
#
# Static dielectric constant tensor:
#      x y z
#    x 1.981350 0.000000 0.948450 
#    y 0.000000 3.390130 0.000000 
#    z 0.948450 0.000000 3.280800 
# 
# 
# High freq. dielectric constant tensor:
#      x y z
#    x 1.784690 0.000000 -0.005860 
#    y 0.000000 1.752190 0.000000 
#    z -0.005860 0.000000 1.790450 
# 
# From -- ./inp_files/220559.got.cif
#   From: 2010.06.25/outbox.cif.g09.slc.cpg/sg12_111_cif.got.tgz:220559.got - 2010.06.28 00:19:55.
