data_PCOD8100734
_publ_section_title
;
Structure prediction by ZEFSAII (Michael W. Deem and Ramdas Pophale) SiO2 
 PCOD8100734
Probable space group: C 2/M
;
_chemical_formula_sum "Si O2"
_cell_formula_units_Z 64
_cell_length_a 9.371595
_cell_length_b 28.390800
_cell_length_c 11.531736
_cell_angle_alpha 90.000000
_cell_angle_beta 89.940408
_cell_angle_gamma 90.000000
_cell_volume 3068.213658
_symmetry_space_group_name_H-M "C 2/M"
_symmetry_group_IT_number 12
_symmetry_cell_setting 'monoclinic'
loop_
_space_group_symop_operation_xyz
x,y,z
-x,y,-z
-x,-y,-z
x,-y,z
1/2+x,1/2+y,z
1/2-x,1/2+y,-z
1/2-x,1/2-y,-z
1/2+x,1/2-y,z
loop_
_atom_site_type_symbol
_atom_site_label
_atom_site_fract_x
_atom_site_fract_y
_atom_site_fract_z
Si Si1 0.845246 0.614270 0.545302
Si Si2 0.366075 0.125626 0.923599
Si Si3 0.328497 0.948005 0.749741
Si Si4 0.492836 0.551340 0.261619
Si Si5 0.840606 0.947088 0.957165
Si Si6 0.004834 0.769350 0.361173
Si Si7 0.711390 0.806249 0.273706
Si Si8 0.095399 0.864464 0.396688
O O1 0.837978 0.564406 0.612863
O O2 0.784988 0.652544 0.632841
O O3 0.747634 0.614165 0.430647
O O4 0.000000 0.626724 0.500000
O O5 0.421680 0.088445 0.825773
O O6 0.294510 0.170352 0.856448
O O7 0.500000 0.143078 0.000000
O O8 0.257931 0.096581 0.006029
O O9 0.164402 0.945232 0.799629
O O10 0.392376 0.000000 0.765294
O O11 0.497514 0.500000 0.323950
O O12 0.632433 0.556215 0.180997
O O13 0.496200 0.594190 0.349215
O O14 0.780155 0.000000 0.989129
O O15 0.000000 0.940540 0.000000
O O16 0.072576 0.725452 0.293511
O O17 0.102618 0.815489 0.325001
O O18 0.000000 0.757548 0.500000
O O19 0.851096 0.775347 0.300004
O O20 0.000000 0.844029 0.500000
#
# Coordination Sequence:
#
# PCOD8100734 Si02
#       8
#     8   8   8   8   8   8   8   8
#     4  11  23  37  57  90 131 166 202 253 309 379
#     4  11  24  43  64  91 127 167 211 267 327 374
#     4  10  20  37  60  88 126 168 209 257 312 366
#     4  10  20  35  62  95 124 161 215 264 302 368
#     4  10  20  37  64  93 120 163 220 266 305 362
#     4  11  22  40  69  97 123 161 204 258 312 391
#     4  11  24  43  65  94 125 159 209 267 321 376
#     4  11  20  37  60  93 126 166 209 243 315 378
#
# _framework density 20.859041999999999
#
# number of rings (size 3 to 8) (size 9 to 14) (size 15 to 20)
#    0.000    1.375    5.000    1.875    1.750    4.000 
#    0.000    1.875    0.000    0.000    0.000    0.000 
#    0.000    0.000    0.000    0.000    0.000    0.000 
#
# Total GULP energy -396441.385515 kJ/mol
# GULP energy per Si atom -12388.793297 kJ/mol
# Density = 2.081157 g / cm^3
# Si number density = 20.859042 Si / 1000 Ang^3
#
#
#
# Elastic Constant Matrix: (Units=GPa)
#
#
# Indices 1 2 3 4 5 6 
#
# 1 86.8392 21.2631 34.1181 0.0000 11.9452 0.0000
# 2 21.2631 100.2979 30.6883 0.0000 5.6414 0.0000
# 3 34.1181 30.6883 51.8873 0.0000 9.3857 0.0000
# 4 0.0000 0.0000 0.0000 26.6239 0.0000 -5.9594
# 5 11.9452 5.6414 9.3857 0.0000 31.9020 0.0000
# 6 0.0000 0.0000 0.0000 -5.9594 0.0000 28.5823
#
#
#
# Elastic Compliance Matrix: (Units=1/GPa)
#
#
# Indices 1 2 3 4 5 6 
#
# 1 0.015801 -0.000205 -0.009722 0.000000 -0.003020 0.000000
# 2 -0.000205 0.012176 -0.007067 0.000000 0.000003 0.000000
# 3 -0.009722 -0.007067 0.030588 0.000000 -0.004109 0.000000
# 4 0.000000 0.000000 0.000000 0.039399 0.000000 0.008215
# 5 -0.003020 0.000003 -0.004109 0.000000 0.033685 0.000000
# 6 0.000000 0.000000 0.000000 0.008215 0.000000 0.036699
#
#
# Mechanical properties :
#
#
# Convention : Reuss Voigt Hill
#
# Bulk Modulus (GPa) = 40.68931 45.68481 43.18706
# Shear Modulus (GPa) = 23.74967 27.61863 25.68415
#
# Velocity S-wave (km/s) = 3.37794 3.64271 3.51282
# Velocity P-wave (km/s) = 5.89603 6.29616 6.09938
#
# Compressibility (1/GPa) = 0.02457648
#
# Stress axis : x y z
#
# Youngs Moduli (GPa) = 63.28753 82.12932 32.69236
#
# Poissons Ratio (x) = 0.01686 0.31784
# Poissons Ratio (y) = 0.01299 0.23103
# Poissons Ratio (z) = 0.61529 0.58040
#
# Static dielectric constant tensor:
#      x y z
#    x 3.650290 0.000000 -0.066930 
#    y 0.000000 3.840500 0.000000 
#    z -0.066930 0.000000 3.961790 
# 
# 
# High freq. dielectric constant tensor:
#      x y z
#    x 1.800510 0.000000 0.005870 
#    y 0.000000 1.822360 0.000000 
#    z 0.005870 0.000000 1.794470 
# 
# From -- ./inp_files/125753.got.cif
#   From: 2010.06.25/outbox.cif.g09.slc.cpg/sg12_63_cif.got.tgz:125753.got - 2010.06.28 00:19:55.
