data_PCOD8100019
_publ_section_title
;
Structure prediction by ZEFSAII (Michael W. Deem and Ramdas Pophale) SiO2 
 PCOD8100019
Probable space group: C 2/M
;
_chemical_formula_sum "Si O2"
_cell_formula_units_Z 64
_cell_length_a 24.546464
_cell_length_b 9.204884
_cell_length_c 15.106498
_cell_angle_alpha 90.000000
_cell_angle_beta 107.499622
_cell_angle_gamma 90.000000
_cell_volume 3255.303325
_symmetry_space_group_name_H-M "C 2/M"
_symmetry_group_IT_number 12
_symmetry_cell_setting 'monoclinic'
loop_
_space_group_symop_operation_xyz
x,y,z
-x,y,-z
-x,-y,-z
x,-y,z
1/2+x,1/2+y,z
1/2-x,1/2+y,-z
1/2-x,1/2-y,-z
1/2+x,1/2-y,z
loop_
_atom_site_type_symbol
_atom_site_label
_atom_site_fract_x
_atom_site_fract_y
_atom_site_fract_z
Si Si1 0.194742 0.833418 0.504420
Si Si2 0.408718 0.331615 0.664130
Si Si3 0.984418 0.330884 0.251516
Si Si4 0.780705 0.167868 0.286552
Si Si5 0.333193 0.330416 0.792739
Si Si6 0.516789 0.340442 0.914497
Si Si7 0.146793 0.327927 0.824519
Si Si8 0.148383 0.158746 0.996707
O O1 0.250000 0.750000 0.500000
O O2 0.139009 0.772112 0.427215
O O3 0.185338 0.816360 0.604819
O O4 0.204144 0.000000 0.481545
O O5 0.420459 0.500000 0.653636
O O6 0.468177 0.251192 0.666005
O O7 0.387630 0.302197 0.755337
O O8 0.992810 0.500000 0.268714
O O9 0.003325 0.281334 0.163101
O O10 0.918430 0.284524 0.233998
O O11 0.717924 0.233109 0.269641
O O12 0.812845 0.259627 0.228570
O O13 0.776725 0.000000 0.255269
O O14 0.316176 0.500000 0.780980
O O15 0.345145 0.280826 0.900069
O O16 0.487209 0.500000 0.882829
O O17 0.500000 0.275584 0.000000
O O18 0.583261 0.365708 0.942507
O O19 0.153648 0.500000 0.829558
O O20 0.169553 0.270760 0.931439
O O21 0.179009 0.000000 0.002920
#
# Coordination Sequence:
#
# PCOD8100019 Si02
#       8
#     8   8   8   8   8   8   8   8
#     4  10  21  38  61  88 116 144 180 225 280 338
#     4  10  20  36  59  86 116 149 183 223 278 343
#     4  10  21  35  53  80 111 145 187 234 280 325
#     4  11  23  38  59  86 112 144 187 234 281 331
#     4  10  20  35  57  85 116 150 186 227 280 336
#     4   9  16  29  50  74 104 145 188 227 274 332
#     4  10  22  40  58  77 109 154 195 231 278 330
#     4   9  18  32  52  79 109 145 190 233 272 323
#
# _framework density 19.660226000000002
#
# number of rings (size 3 to 8) (size 9 to 14) (size 15 to 20)
#    0.000    2.125    1.250    1.875    0.000    6.250 
#    0.000    3.125    0.000    3.750    0.000    0.000 
#    0.000    0.000    0.000    0.000    0.000    0.000 
#
# Total GULP energy -396570.096960 kJ/mol
# GULP energy per Si atom -12392.815530 kJ/mol
# Density = 1.961548 g / cm^3
# Si number density = 19.660226 Si / 1000 Ang^3
#
#
#
# Elastic Constant Matrix: (Units=GPa)
#
#
# Indices 1 2 3 4 5 6 
#
# 1 43.1884 22.2061 2.3861 0.0000 3.8681 0.0000
# 2 22.2061 56.7418 17.4021 0.0000 1.1490 0.0000
# 3 2.3861 17.4021 77.2758 0.0000 5.9291 0.0000
# 4 0.0000 0.0000 0.0000 25.5018 0.0000 6.9780
# 5 3.8681 1.1490 5.9291 0.0000 33.2775 0.0000
# 6 0.0000 0.0000 0.0000 6.9780 0.0000 29.5598
#
#
#
# Elastic Compliance Matrix: (Units=1/GPa)
#
#
# Indices 1 2 3 4 5 6 
#
# 1 0.029590 -0.012150 0.002083 0.000000 -0.003391 0.000000
# 2 -0.012150 0.023921 -0.005127 0.000000 0.001500 0.000000
# 3 0.002083 -0.005127 0.014230 0.000000 -0.002601 0.000000
# 4 0.000000 0.000000 0.000000 0.041921 0.000000 -0.009896
# 5 -0.003391 0.001500 -0.002601 0.000000 0.030856 0.000000
# 6 0.000000 0.000000 0.000000 -0.009896 0.000000 0.036166
#
#
# Mechanical properties :
#
#
# Convention : Reuss Voigt Hill
#
# Bulk Modulus (GPa) = 26.77182 29.02162 27.89672
# Shear Modulus (GPa) = 22.77658 26.68194 24.72926
#
# Velocity S-wave (km/s) = 3.40738 3.68795 3.55044
# Velocity P-wave (km/s) = 5.39696 5.73832 5.57025
#
# Compressibility (1/GPa) = 0.03735271
#
# Stress axis : x y z
#
# Youngs Moduli (GPa) = 33.79473 41.80474 70.27217
#
# Poissons Ratio (x) = 0.50794 -0.14636
# Poissons Ratio (y) = 0.41062 0.36027
# Poissons Ratio (z) = -0.07038 0.21432
#
# Static dielectric constant tensor:
#      x y z
#    x 3.485710 0.000000 0.234950 
#    y 0.000000 3.639880 0.000000 
#    z 0.234950 0.000000 3.573660 
# 
# 
# High freq. dielectric constant tensor:
#      x y z
#    x 1.758270 0.000000 0.011160 
#    y 0.000000 1.759240 0.000000 
#    z 0.011160 0.000000 1.764050 
# 
# From -- ./inp_files/244184.got.cif
#   From: 2010.06.25/outbox.cif.g09.slc.cpg/sg12_123_cif.got.tgz:244184.got - 2010.06.28 00:19:55.
