data_PCOD8100169
_publ_section_title
;
Structure prediction by ZEFSAII (Michael W. Deem and Ramdas Pophale) SiO2 
 PCOD8100169
Probable space group: C 2/M
;
_chemical_formula_sum "Si O2"
_cell_formula_units_Z 48
_cell_length_a 18.830057
_cell_length_b 9.001152
_cell_length_c 15.005176
_cell_angle_alpha 90.000000
_cell_angle_beta 89.870163
_cell_angle_gamma 90.000000
_cell_volume 2543.253840
_symmetry_space_group_name_H-M "C 2/M"
_symmetry_group_IT_number 12
_symmetry_cell_setting 'monoclinic'
loop_
_space_group_symop_operation_xyz
x,y,z
-x,y,-z
-x,-y,-z
x,-y,z
1/2+x,1/2+y,z
1/2-x,1/2+y,-z
1/2-x,1/2-y,-z
1/2+x,1/2-y,z
loop_
_atom_site_type_symbol
_atom_site_label
_atom_site_fract_x
_atom_site_fract_y
_atom_site_fract_z
Si Si1 0.299732 0.671409 0.930748
Si Si2 0.447704 0.171858 0.725456
Si Si3 0.043664 0.172670 0.587479
Si Si4 0.940913 0.668374 0.928497
Si Si5 0.791137 0.175383 0.419135
Si Si6 0.799209 0.175421 0.727233
O O1 0.291237 0.500000 0.948051
O O2 0.379432 0.717661 0.951347
O O3 0.280412 0.713298 0.829364
O O4 0.250000 0.750000 0.000000
O O5 0.513862 0.232596 0.669509
O O6 0.469490 0.194059 0.828469
O O7 0.376468 0.261748 0.700895
O O8 0.434140 0.000000 0.702648
O O9 0.125799 0.213476 0.572412
O O10 0.000000 0.217320 0.500000
O O11 0.034048 0.000000 0.610418
O O12 0.912694 0.500000 0.938896
O O13 0.000000 0.705225 0.000000
O O14 0.750000 0.250000 0.500000
O O15 0.762050 0.244381 0.328029
O O16 0.777660 0.000000 0.420613
O O17 0.799730 0.000000 0.707721
#
# Coordination Sequence:
#
# PCOD8100169 Si02
#       6
#     8   8   8   8   8   8
#     4  10  21  36  56  81 110 147 188 231 278 328
#     4  10  20  35  58  84 109 142 184 228 273 325
#     4  10  22  39  57  79 110 145 178 219 273 327
#     4   9  19  36  56  80 112 146 180 223 276 331
#     4  11  23  38  59  86 114 146 184 227 274 327
#     4  10  21  38  58  80 111 149 186 228 279 330
#
# _framework density 18.873460999999999
#
# number of rings (size 3 to 8) (size 9 to 14) (size 15 to 20)
#    0.000    2.000    0.000    3.000    0.000    7.333 
#    0.000    5.000    0.000    0.000    0.000    0.000 
#    0.000    0.000    0.000    0.000    0.000    0.000 
#
# Total GULP energy -297683.698803 kJ/mol
# GULP energy per Si atom -12403.487450 kJ/mol
# Density = 1.883050 g / cm^3
# Si number density = 18.873461 Si / 1000 Ang^3
#
#
#
# Elastic Constant Matrix: (Units=GPa)
#
#
# Indices 1 2 3 4 5 6 
#
# 1 136.5308 71.1205 89.7744 0.0000 0.2097 0.0000
# 2 71.1205 90.2635 68.2294 0.0000 -6.6871 0.0000
# 3 89.7744 68.2294 124.1858 0.0000 -1.5693 0.0000
# 4 0.0000 0.0000 0.0000 36.0554 0.0000 -4.1108
# 5 0.2097 -6.6871 -1.5693 0.0000 42.0607 0.0000
# 6 0.0000 0.0000 0.0000 -4.1108 0.0000 36.3736
#
#
#
# Elastic Compliance Matrix: (Units=1/GPa)
#
#
# Indices 1 2 3 4 5 6 
#
# 1 0.016054 -0.006791 -0.007893 0.000000 -0.001454 0.000000
# 2 -0.006791 0.022114 -0.007199 0.000000 0.003281 0.000000
# 3 -0.007893 -0.007199 0.017708 0.000000 -0.000445 0.000000
# 4 0.000000 0.000000 0.000000 0.028097 0.000000 0.003175
# 5 -0.001454 0.003281 -0.000445 0.000000 0.024287 0.000000
# 6 0.000000 0.000000 0.000000 0.003175 0.000000 0.027851
#
#
# Mechanical properties :
#
#
# Convention : Reuss Voigt Hill
#
# Bulk Modulus (GPa) = 82.57476 89.91430 86.24453
# Shear Modulus (GPa) = 27.18654 31.02166 29.10410
#
# Velocity S-wave (km/s) = 3.79946 4.05861 3.93117
# Velocity P-wave (km/s) = 7.94321 8.34908 8.14867
#
# Compressibility (1/GPa) = 0.01211024
#
# Stress axis : x y z
#
# Youngs Moduli (GPa) = 62.29055 45.21971 56.47171
#
# Poissons Ratio (x) = 0.30708 0.44572
# Poissons Ratio (y) = 0.42300 0.40656
# Poissons Ratio (z) = 0.49165 0.32555
#
# Static dielectric constant tensor:
#      x y z
#    x 2.996450 0.000000 0.056140 
#    y 0.000000 3.586080 0.000000 
#    z 0.056140 0.000000 3.609640 
# 
# 
# High freq. dielectric constant tensor:
#      x y z
#    x 1.730800 0.000000 0.000570 
#    y 0.000000 1.744470 0.000000 
#    z 0.000570 0.000000 1.744210 
# 
# From -- ./inp_files/221568.got.cif
#   From: 2010.06.25/outbox.cif.g09.slc.cpg/sg12_111_cif.got.tgz:221568.got - 2010.06.28 00:19:55.
