data_PCOD8100405
_publ_section_title
;
Structure prediction by ZEFSAII (Michael W. Deem and Ramdas Pophale) SiO2 
 PCOD8100405
Probable space group: C 2/M
;
_chemical_formula_sum "Si O2"
_cell_formula_units_Z 64
_cell_length_a 18.657837
_cell_length_b 13.791696
_cell_length_c 17.373547
_cell_angle_alpha 90.000000
_cell_angle_beta 138.639270
_cell_angle_gamma 90.000000
_cell_volume 2954.172934
_symmetry_space_group_name_H-M "C 2/M"
_symmetry_group_IT_number 12
_symmetry_cell_setting 'monoclinic'
loop_
_space_group_symop_operation_xyz
x,y,z
-x,y,-z
-x,-y,-z
x,-y,z
1/2+x,1/2+y,z
1/2-x,1/2+y,-z
1/2-x,1/2-y,-z
1/2+x,1/2-y,z
loop_
_atom_site_type_symbol
_atom_site_label
_atom_site_fract_x
_atom_site_fract_y
_atom_site_fract_z
Si Si1 0.861497 0.387089 0.514281
Si Si2 0.780908 0.218185 0.890239
Si Si3 0.211445 0.228270 0.286045
Si Si4 0.509401 0.611774 0.424922
Si Si5 0.155464 0.891754 0.833904
Si Si6 0.736485 0.613533 0.563736
Si Si7 0.429451 0.113629 0.226035
Si Si8 0.523598 0.712583 0.847812
O O1 0.843129 0.500000 0.483658
O O2 0.814559 0.331563 0.402211
O O3 0.793208 0.349426 0.532389
O O4 0.988384 0.365635 0.635727
O O5 0.782112 0.229270 0.800172
O O6 0.754190 0.317301 0.915790
O O7 0.692524 0.137484 0.844274
O O8 0.901212 0.196353 0.016411
O O9 0.213345 0.338070 0.319313
O O10 0.097040 0.184665 0.222696
O O11 0.500000 0.665130 0.500000
O O12 0.537332 0.500000 0.461599
O O13 0.396299 0.625559 0.291557
O O14 0.611304 0.650732 0.457516
O O15 0.061438 0.870009 0.819035
O O16 0.200016 0.000000 0.881542
O O17 0.754283 0.500000 0.588046
O O18 0.464693 0.180538 0.181939
O O19 0.436757 0.000000 0.207704
#
# Coordination Sequence:
#
# PCOD8100405 Si02
#       8
#     8   8   8   8   8   8   8   8
#     4  10  22  40  65  95 122 160 211 259 312 377
#     4  11  26  41  60  93 126 167 211 259 307 372
#     4  12  24  39  63  91 132 167 199 255 326 371
#     4   9  17  29  49  82 122 153 182 233 300 368
#     4  10  21  40  63  88 118 159 208 257 307 362
#     4  10  20  35  58  91 126 160 202 247 307 384
#     4  10  22  44  69  92 122 162 214 265 309 366
#     4  11  24  42  64  90 123 166 221 255 300 370
#
# _framework density 21.664269000000001
#
# number of rings (size 3 to 8) (size 9 to 14) (size 15 to 20)
#    0.000    1.625    1.250    3.750    3.500    6.000 
#    0.000    1.250    0.000    4.500    0.000    0.000 
#    0.000    0.000    0.000    0.000    0.000    0.000 
#
# Total GULP energy -396642.869548 kJ/mol
# GULP energy per Si atom -12395.089673 kJ/mol
# Density = 2.161496 g / cm^3
# Si number density = 21.664269 Si / 1000 Ang^3
#
#
#
# Elastic Constant Matrix: (Units=GPa)
#
#
# Indices 1 2 3 4 5 6 
#
# 1 58.1697 4.6543 14.1038 0.0000 0.9071 0.0000
# 2 4.6543 75.2981 33.1849 0.0000 -1.7950 0.0000
# 3 14.1038 33.1849 96.1395 0.0000 8.1949 0.0000
# 4 0.0000 0.0000 0.0000 19.1622 0.0000 2.5227
# 5 0.9071 -1.7950 8.1949 0.0000 39.0127 0.0000
# 6 0.0000 0.0000 0.0000 2.5227 0.0000 15.4685
#
#
#
# Elastic Compliance Matrix: (Units=1/GPa)
#
#
# Indices 1 2 3 4 5 6 
#
# 1 0.017826 0.000070 -0.002652 0.000000 0.000146 0.000000
# 2 0.000070 0.015802 -0.005627 0.000000 0.001907 0.000000
# 3 -0.002652 -0.005627 0.012982 0.000000 -0.002924 0.000000
# 4 0.000000 0.000000 0.000000 0.053331 0.000000 -0.008698
# 5 0.000146 0.001907 -0.002924 0.000000 0.026331 0.000000
# 6 0.000000 0.000000 0.000000 -0.008698 0.000000 0.066066
#
#
# Mechanical properties :
#
#
# Convention : Reuss Voigt Hill
#
# Bulk Modulus (GPa) = 33.12077 37.05481 35.08779
# Shear Modulus (GPa) = 22.84979 26.57294 24.71137
#
# Velocity S-wave (km/s) = 3.25117 3.50605 3.38102
# Velocity P-wave (km/s) = 5.42355 5.79061 5.61008
#
# Compressibility (1/GPa) = 0.03019254
#
# Stress axis : x y z
#
# Youngs Moduli (GPa) = 56.09738 63.28439 77.02836
#
# Poissons Ratio (x) = -0.00445 0.20427
# Poissons Ratio (y) = -0.00394 0.43346
# Poissons Ratio (z) = 0.14876 0.35612
#
# Static dielectric constant tensor:
#      x y z
#    x 3.971430 0.000000 0.161660 
#    y 0.000000 3.846390 0.000000 
#    z 0.161660 0.000000 3.959620 
# 
# 
# High freq. dielectric constant tensor:
#      x y z
#    x 1.844730 0.000000 0.007910 
#    y 0.000000 1.844800 0.000000 
#    z 0.007910 0.000000 1.853980 
# 
# From -- ./inp_files/225765.got.cif
#   From: 2010.06.25/outbox.cif.g09.slc.cpg/sg12_113_cif.got.tgz:225765.got - 2010.06.28 00:19:55.
