data_PCOD8100725
_publ_section_title
;
Structure prediction by ZEFSAII (Michael W. Deem and Ramdas Pophale) SiO2 
 PCOD8100725
Probable space group: C 2/M
;
_chemical_formula_sum "Si O2"
_cell_formula_units_Z 48
_cell_length_a 28.814064
_cell_length_b 16.632380
_cell_length_c 9.495674
_cell_angle_alpha 90.000000
_cell_angle_beta 147.251593
_cell_angle_gamma 90.000000
_cell_volume 2461.742990
_symmetry_space_group_name_H-M "C 2/M"
_symmetry_group_IT_number 12
_symmetry_cell_setting 'monoclinic'
loop_
_space_group_symop_operation_xyz
x,y,z
-x,y,-z
-x,-y,-z
x,-y,z
1/2+x,1/2+y,z
1/2-x,1/2+y,-z
1/2-x,1/2-y,-z
1/2+x,1/2-y,z
loop_
_atom_site_type_symbol
_atom_site_label
_atom_site_fract_x
_atom_site_fract_y
_atom_site_fract_z
Si Si1 0.999399 0.793101 0.167076
Si Si2 0.182659 0.259684 0.208465
Si Si3 0.902593 0.591653 0.117235
Si Si4 0.420546 0.144193 0.475688
Si Si5 0.260637 0.675484 0.924443
Si Si6 0.065581 0.094314 0.549191
O O1 0.058175 0.730121 0.402413
O O2 0.037283 0.877195 0.320211
O O3 0.902643 0.786611 0.968907
O O4 0.000000 0.784659 0.000000
O O5 0.250000 0.250000 0.500000
O O6 0.224964 0.214000 0.188476
O O7 0.164567 0.355752 0.143734
O O8 0.869666 0.500000 0.055220
O O9 0.910275 0.643148 0.280284
O O10 0.997003 0.586878 0.282038
O O11 0.327242 0.120808 0.301304
O O12 0.250000 0.750000 0.000000
O O13 0.337779 0.619150 0.168848
O O14 0.000000 0.129452 0.500000
O O15 0.060776 0.000000 0.534519
#
# Coordination Sequence:
#
# PCOD8100725 Si02
#       6
#     8   8   8   8   8   8
#     4  11  22  39  64  88 122 165 208 253 309 372
#     4  11  23  39  62  91 123 162 207 256 302 375
#     4  10  21  39  63  92 126 162 203 259 314 363
#     4  10  20  35  62  92 118 156 208 250 302 367
#     4  12  21  38  65  91 122 159 212 255 306 367
#     4  11  24  42  62  90 127 164 205 260 314 363
#
# _framework density 19.498380000000001
#
# number of rings (size 3 to 8) (size 9 to 14) (size 15 to 20)
#    0.000    1.167    5.000    2.000    2.333    1.667 
#    0.000    1.667    0.000   25.500    0.000    0.000 
#    0.000    0.000    0.000    0.000    0.000    0.000 
#
# Total GULP energy -297341.406135 kJ/mol
# GULP energy per Si atom -12389.225256 kJ/mol
# Density = 1.945400 g / cm^3
# Si number density = 19.498380 Si / 1000 Ang^3
#
#
#
# Elastic Constant Matrix: (Units=GPa)
#
#
# Indices 1 2 3 4 5 6 
#
# 1 132.0919 43.0710 61.8416 0.0000 5.1415 0.0000
# 2 43.0710 92.3934 60.7632 0.0000 -10.6127 0.0000
# 3 61.8416 60.7632 150.0063 0.0000 2.9911 0.0000
# 4 0.0000 0.0000 0.0000 15.4661 0.0000 -0.0901
# 5 5.1415 -10.6127 2.9911 0.0000 43.3077 0.0000
# 6 0.0000 0.0000 0.0000 -0.0901 0.0000 17.8972
#
#
#
# Elastic Compliance Matrix: (Units=1/GPa)
#
#
# Indices 1 2 3 4 5 6 
#
# 1 0.009941 -0.002940 -0.002873 0.000000 -0.001702 0.000000
# 2 -0.002940 0.016362 -0.005510 0.000000 0.004739 0.000000
# 3 -0.002873 -0.005510 0.010117 0.000000 -0.001708 0.000000
# 4 0.000000 0.000000 0.000000 0.064659 0.000000 0.000326
# 5 -0.001702 0.004739 -0.001708 0.000000 0.024572 0.000000
# 6 0.000000 0.000000 0.000000 0.000326 0.000000 0.055876
#
#
# Mechanical properties :
#
#
# Convention : Reuss Voigt Hill
#
# Bulk Modulus (GPa) = 72.60735 78.42705 75.51720
# Shear Modulus (GPa) = 23.95037 29.25525 26.60281
#
# Velocity S-wave (km/s) = 3.50855 3.87769 3.69773
# Velocity P-wave (km/s) = 7.33019 7.76906 7.55282
#
# Compressibility (1/GPa) = 0.01377271
#
# Stress axis : x y z
#
# Youngs Moduli (GPa) = 100.59839 61.11727 98.84304
#
# Poissons Ratio (x) = 0.17967 0.28401
# Poissons Ratio (y) = 0.29574 0.54465
# Poissons Ratio (z) = 0.28905 0.33677
#
# Static dielectric constant tensor:
#      x y z
#    x 3.843240 0.000000 0.345170 
#    y 0.000000 3.350690 0.000000 
#    z 0.345170 0.000000 3.818980 
# 
# 
# High freq. dielectric constant tensor:
#      x y z
#    x 1.763990 0.000000 0.018050 
#    y 0.000000 1.738880 0.000000 
#    z 0.018050 0.000000 1.768240 
# 
# From -- ./inp_files/112950.got.cif
#   From: 2010.06.25/outbox.cif.g09.slc.cpg/sg12_57_cif.got.tgz:112950.got - 2010.06.28 00:19:55.
