data_PCOD8100857
_publ_section_title
;
Structure prediction by ZEFSAII (Michael W. Deem and Ramdas Pophale) SiO2 
 PCOD8100857
Probable space group: C 2/M
;
_chemical_formula_sum "Si O2"
_cell_formula_units_Z 64
_cell_length_a 23.201032
_cell_length_b 9.289209
_cell_length_c 17.563150
_cell_angle_alpha 90.000000
_cell_angle_beta 69.343370
_cell_angle_gamma 90.000000
_cell_volume 3541.851380
_symmetry_space_group_name_H-M "C 2/M"
_symmetry_group_IT_number 12
_symmetry_cell_setting 'monoclinic'
loop_
_space_group_symop_operation_xyz
x,y,z
-x,y,-z
-x,-y,-z
x,-y,z
1/2+x,1/2+y,z
1/2-x,1/2+y,-z
1/2-x,1/2-y,-z
1/2+x,1/2-y,z
loop_
_atom_site_type_symbol
_atom_site_label
_atom_site_fract_x
_atom_site_fract_y
_atom_site_fract_z
Si Si1 0.795628 0.666688 0.424034
Si Si2 0.732069 0.665293 0.711796
Si Si3 0.938950 0.662408 0.978358
Si Si4 0.415386 0.835801 0.462092
Si Si5 0.980971 0.830890 0.665663
Si Si6 0.994620 0.166910 0.173604
Si Si7 0.372765 0.833442 0.649766
Si Si8 0.377675 0.335410 0.129886
O O1 0.776349 0.500000 0.432422
O O2 0.750000 0.750000 0.500000
O O3 0.792650 0.729976 0.341427
O O4 0.864933 0.687277 0.420489
O O5 0.726967 0.500000 0.685232
O O6 0.801922 0.702587 0.701175
O O7 0.690396 0.690557 0.805570
O O8 0.918638 0.500000 0.969587
O O9 0.951556 0.744012 0.893441
O O10 0.884639 0.738793 0.051224
O O11 0.000000 0.668845 0.000000
O O12 0.473728 0.735832 0.418420
O O13 0.385775 0.791912 0.556241
O O14 0.438818 0.000000 0.452877
O O15 0.005583 0.790988 0.737820
O O16 0.913381 0.763874 0.686707
O O17 0.977562 0.000000 0.653835
O O18 0.927644 0.206536 0.171259
O O19 0.010203 0.000000 0.154655
O O20 0.387670 0.000000 0.658418
O O21 0.387716 0.500000 0.100453
#
# Coordination Sequence:
#
# PCOD8100857 Si02
#       8
#     8   8   8   8   8   8   8   8
#     4  11  21  34  53  77 105 137 172 213 261 310
#     4  10  20  36  55  77 106 141 179 213 256 315
#     4   9  17  29  49  78 109 135 162 201 249 307
#     4  10  21  37  54  74 102 138 175 214 265 317
#     4  11  23  36  53  78 102 131 178 228 262 300
#     4   9  18  33  51  75 106 135 165 206 257 308
#     4  10  21  38  54  70 101 142 179 216 261 313
#     4   9  17  31  54  79 105 137 167 202 253 311
#
# _framework density 18.069645999999999
#
# number of rings (size 3 to 8) (size 9 to 14) (size 15 to 20)
#    0.000    2.125    1.250    2.250    0.000    7.500 
#    0.000    2.500    0.000    0.750    0.000    0.000 
#    0.000    0.000    0.000    0.000    0.000    0.000 
#
# Total GULP energy -396910.773292 kJ/mol
# GULP energy per Si atom -12403.461665 kJ/mol
# Density = 1.802852 g / cm^3
# Si number density = 18.069646 Si / 1000 Ang^3
#
#
#
# Elastic Constant Matrix: (Units=GPa)
#
#
# Indices 1 2 3 4 5 6 
#
# 1 75.0154 40.2208 37.2434 0.0000 -16.8843 0.0000
# 2 40.2208 87.9512 50.8145 0.0000 -9.9214 0.0000
# 3 37.2434 50.8145 102.8232 0.0000 -23.3161 0.0000
# 4 0.0000 0.0000 0.0000 28.7386 0.0000 1.4654
# 5 -16.8843 -9.9214 -23.3161 0.0000 20.4435 0.0000
# 6 0.0000 0.0000 0.0000 1.4654 0.0000 27.5480
#
#
#
# Elastic Compliance Matrix: (Units=1/GPa)
#
#
# Indices 1 2 3 4 5 6 
#
# 1 0.020576 -0.007455 -0.000992 0.000000 0.012245 0.000000
# 2 -0.007455 0.018658 -0.007908 0.000000 -0.006122 0.000000
# 3 -0.000992 -0.007908 0.017450 0.000000 0.015244 0.000000
# 4 0.000000 0.000000 0.000000 0.034891 0.000000 -0.001856
# 5 0.012245 -0.006122 0.015244 0.000000 0.073443 0.000000
# 6 0.000000 0.000000 0.000000 -0.001856 0.000000 0.036399
#
#
# Mechanical properties :
#
#
# Convention : Reuss Voigt Hill
#
# Bulk Modulus (GPa) = 41.71455 58.03857 49.87656
# Shear Modulus (GPa) = 20.65093 24.51345 22.58219
#
# Velocity S-wave (km/s) = 3.38428 3.68721 3.53899
# Velocity P-wave (km/s) = 6.19731 7.09341 6.66045
#
# Compressibility (1/GPa) = 0.02397245
#
# Stress axis : x y z
#
# Youngs Moduli (GPa) = 48.59946 53.59663 57.30705
#
# Poissons Ratio (x) = 0.39958 0.05685
# Poissons Ratio (y) = 0.36233 0.45321
# Poissons Ratio (z) = 0.04821 0.42387
#
# Static dielectric constant tensor:
#      x y z
#    x 3.218260 0.000000 -0.048600 
#    y 0.000000 3.475340 0.000000 
#    z -0.048600 0.000000 3.321120 
# 
# 
# High freq. dielectric constant tensor:
#      x y z
#    x 1.677700 0.000000 -0.009230 
#    y 0.000000 1.703040 0.000000 
#    z -0.009230 0.000000 1.698130 
# 
# From -- ./inp_files/323611.got.cif
#   From: 2010.06.25/outbox.cif.g09.slc.cpg/sg12_162_cif.got.tgz:323611.got - 2010.06.28 00:19:55.
