data_PCOD8100647
_publ_section_title
;
Structure prediction by ZEFSAII (Michael W. Deem and Ramdas Pophale) SiO2 
 PCOD8100647
Probable space group: C 2/M
;
_chemical_formula_sum "Si O2"
_cell_formula_units_Z 64
_cell_length_a 28.252639
_cell_length_b 8.430542
_cell_length_c 23.900947
_cell_angle_alpha 90.000000
_cell_angle_beta 146.522222
_cell_angle_gamma 90.000000
_cell_volume 3140.252214
_symmetry_space_group_name_H-M "C 2/M"
_symmetry_group_IT_number 12
_symmetry_cell_setting 'monoclinic'
loop_
_space_group_symop_operation_xyz
x,y,z
-x,y,-z
-x,-y,-z
x,-y,z
1/2+x,1/2+y,z
1/2-x,1/2+y,-z
1/2-x,1/2-y,-z
1/2+x,1/2-y,z
loop_
_atom_site_type_symbol
_atom_site_label
_atom_site_fract_x
_atom_site_fract_y
_atom_site_fract_z
Si Si1 0.409924 0.315558 0.045728
Si Si2 0.402100 0.313054 0.266395
Si Si3 0.252679 0.311421 0.315190
Si Si4 0.845627 0.812168 0.597313
Si Si5 0.589522 0.311978 0.458942
Si Si6 0.259865 0.810923 0.824395
Si Si7 0.590110 0.186614 0.224979
Si Si8 0.345141 0.815322 0.095848
O O1 0.400840 0.500000 0.050569
O O2 0.505305 0.274132 0.118619
O O3 0.392341 0.216117 0.084249
O O4 0.344624 0.267435 0.932803
O O5 0.399104 0.500000 0.268595
O O6 0.493828 0.250931 0.380713
O O7 0.323143 0.243186 0.224347
O O8 0.396500 0.268209 0.196052
O O9 0.254832 0.500000 0.320310
O O10 0.339173 0.240066 0.428689
O O11 0.248256 0.252660 0.247244
O O12 0.170206 0.248477 0.267806
O O13 0.750000 0.750000 0.500000
O O14 0.891639 0.759429 0.585737
O O15 0.896227 0.726752 0.696760
O O16 0.847069 0.000000 0.607920
O O17 0.593811 0.500000 0.467249
O O18 0.267186 0.000000 0.836552
O O19 0.578401 0.000000 0.205534
O O20 0.341609 0.000000 0.104666
O O21 0.250000 0.750000 0.000000
#
# Coordination Sequence:
#
# PCOD8100647 Si02
#       8
#     8   8   8   8   8   8   8   8
#     4  12  25  41  61  87 121 157 197 247 302 360
#     4  10  20  35  60  91 123 156 196 243 294 349
#     4   9  19  37  60  86 118 157 203 251 295 348
#     4  11  20  34  58  87 122 158 197 243 301 363
#     4   9  18  34  57  87 120 154 192 242 292 347
#     4  10  21  38  61  87 116 157 206 250 295 349
#     4  11  22  39  62  88 120 157 200 249 303 361
#     4  12  23  38  62  90 122 157 196 240 297 359
#
# _framework density 20.380528000000002
#
# number of rings (size 3 to 8) (size 9 to 14) (size 15 to 20)
#    0.000    1.500    2.500    3.750    0.000    2.000 
#    0.000    6.875    0.000    0.000    0.000    1.750 
#    0.000    0.000    0.000    0.000    0.000    0.000 
#
# Total GULP energy -396864.466781 kJ/mol
# GULP energy per Si atom -12402.014587 kJ/mol
# Density = 2.033414 g / cm^3
# Si number density = 20.380528 Si / 1000 Ang^3
#
#
#
# Elastic Constant Matrix: (Units=GPa)
#
#
# Indices 1 2 3 4 5 6 
#
# 1 98.0488 5.3823 88.4832 0.0000 -4.6092 0.0000
# 2 5.3823 16.2904 10.7466 0.0000 9.5281 -0.0001
# 3 88.4832 10.7466 185.4423 0.0000 16.8821 0.0000
# 4 0.0000 0.0000 0.0000 25.3892 0.0000 -1.6871
# 5 -4.6092 9.5281 16.8821 0.0000 38.0473 0.0000
# 6 0.0000 -0.0001 0.0000 -1.6871 0.0000 21.3887
#
#
#
# Elastic Compliance Matrix: (Units=1/GPa)
#
#
# Indices 1 2 3 4 5 6 
#
# 1 0.019733 -0.004650 -0.009868 0.000000 0.007934 0.000000
# 2 -0.004650 0.074273 -0.000355 0.000000 -0.019006 0.000000
# 3 -0.009868 -0.000355 0.010653 0.000000 -0.005833 0.000000
# 4 0.000000 0.000000 0.000000 0.039594 0.000000 0.003123
# 5 0.007934 -0.019006 -0.005833 0.000000 0.034592 0.000000
# 6 0.000000 0.000000 0.000000 0.003123 0.000000 0.047000
#
#
# Mechanical properties :
#
#
# Convention : Reuss Voigt Hill
#
# Bulk Modulus (GPa) = 13.34913 56.55619 34.95266
# Shear Modulus (GPa) = 17.82141 29.97634 23.89887
#
# Velocity S-wave (km/s) = 2.96029 3.83930 3.42809
# Velocity P-wave (km/s) = 4.27184 6.88941 5.73204
#
# Compressibility (1/GPa) = 0.07491124
#
# Stress axis : x y z
#
# Youngs Moduli (GPa) = 50.67751 13.46390 93.87305
#
# Poissons Ratio (x) = 0.06261 0.92635
# Poissons Ratio (y) = 0.23565 0.03334
# Poissons Ratio (z) = 0.50009 0.00478
#
# Static dielectric constant tensor:
#      x y z
#    x 3.922480 0.000000 0.126530 
#    y 0.000000 3.485850 0.000000 
#    z 0.126530 0.000000 4.028340 
# 
# 
# High freq. dielectric constant tensor:
#      x y z
#    x 1.796810 0.000000 0.011330 
#    y 0.000000 1.769550 0.000000 
#    z 0.011330 0.000000 1.813520 
# 
# From -- ./inp_files/249053.got.cif
#   From: 2010.06.25/outbox.cif.g09.slc.cpg/sg12_125_cif.got.tgz:249053.got - 2010.06.28 00:19:55.
