data_PCOD8100632
_publ_section_title
;
Structure prediction by ZEFSAII (Michael W. Deem and Ramdas Pophale) SiO2 
 PCOD8100632
Probable space group: C 2/M
;
_chemical_formula_sum "Si O2"
_cell_formula_units_Z 56
_cell_length_a 28.262560
_cell_length_b 8.532513
_cell_length_c 17.248989
_cell_angle_alpha 90.000000
_cell_angle_beta 136.622464
_cell_angle_gamma 90.000000
_cell_volume 2856.827548
_symmetry_space_group_name_H-M "C 2/M"
_symmetry_group_IT_number 12
_symmetry_cell_setting 'monoclinic'
loop_
_space_group_symop_operation_xyz
x,y,z
-x,y,-z
-x,-y,-z
x,-y,z
1/2+x,1/2+y,z
1/2-x,1/2+y,-z
1/2-x,1/2-y,-z
1/2+x,1/2-y,z
loop_
_atom_site_type_symbol
_atom_site_label
_atom_site_fract_x
_atom_site_fract_y
_atom_site_fract_z
Si Si1 0.787835 0.319334 0.730186
Si Si2 0.654324 0.819255 0.770980
Si Si3 0.645240 0.179847 0.585208
Si Si4 0.944441 0.680509 0.663702
Si Si5 0.298846 0.181726 0.917698
Si Si6 0.678152 0.683045 0.384214
Si Si7 0.909869 0.179735 0.158564
O O1 0.802711 0.500000 0.729402
O O2 0.705967 0.290592 0.626803
O O3 0.814374 0.270853 0.847193
O O4 0.827800 0.214113 0.715023
O O5 0.626795 0.779690 0.652056
O O6 0.735186 0.780975 0.875214
O O7 0.609724 0.716191 0.776303
O O8 0.643137 0.000000 0.779141
O O9 0.578494 0.208904 0.452750
O O10 0.670847 0.000000 0.609189
O O11 0.964078 0.500000 0.700346
O O12 0.883468 0.726117 0.648425
O O13 0.010098 0.786399 0.760031
O O14 0.278406 0.000000 0.898192
O O15 0.365980 0.214155 0.048031
O O16 0.673152 0.500000 0.396458
O O17 0.750000 0.750000 0.500000
O O18 0.894643 0.000000 0.121582
#
# Coordination Sequence:
#
# PCOD8100632 Si02
#       7
#     8   8   8   8   8   8   8
#     4  10  20  35  60  90 118 148 189 242 293 339
#     4  10  20  37  61  88 116 151 196 243 290 344
#     4   9  19  35  58  86 116 151 191 238 291 345
#     4  11  23  40  60  85 118 155 194 241 293 347
#     4  10  21  39  62  88 116 151 196 245 291 340
#     4  12  23  37  60  90 121 154 192 234 284 343
#     4  12  25  40  57  82 117 159 198 240 292 347
#
# _framework density 19.602163000000001
#
# number of rings (size 3 to 8) (size 9 to 14) (size 15 to 20)
#    0.000    1.429    1.429    4.714    0.000    3.429 
#    0.000    3.571    0.000    4.286    0.000    0.000 
#    0.000    0.000    0.000    0.000    0.000    0.000 
#
# Total GULP energy -347352.176230 kJ/mol
# GULP energy per Si atom -12405.434865 kJ/mol
# Density = 1.955755 g / cm^3
# Si number density = 19.602163 Si / 1000 Ang^3
#
#
#
# Elastic Constant Matrix: (Units=GPa)
#
#
# Indices 1 2 3 4 5 6 
#
# 1 98.1167 13.0905 38.0494 0.0000 -3.3048 0.0000
# 2 13.0905 61.2708 10.4898 0.0000 -5.0222 0.0000
# 3 38.0494 10.4898 56.2744 0.0000 5.8857 0.0000
# 4 0.0000 0.0000 0.0000 28.2255 0.0000 0.9494
# 5 -3.3048 -5.0222 5.8857 0.0000 24.5110 0.0000
# 6 0.0000 0.0000 0.0000 0.9494 0.0000 34.9503
#
#
#
# Elastic Compliance Matrix: (Units=1/GPa)
#
#
# Indices 1 2 3 4 5 6 
#
# 1 0.014312 -0.001024 -0.009915 0.000000 0.004100 0.000000
# 2 -0.001024 0.017390 -0.002982 0.000000 0.004141 0.000000
# 3 -0.009915 -0.002982 0.025883 0.000000 -0.008163 0.000000
# 4 0.000000 0.000000 0.000000 0.035461 0.000000 -0.000963
# 5 0.004100 0.004141 -0.008163 0.000000 0.044159 0.000000
# 6 0.000000 0.000000 0.000000 -0.000963 0.000000 0.028638
#
#
# Mechanical properties :
#
#
# Convention : Reuss Voigt Hill
#
# Bulk Modulus (GPa) = 33.62145 37.65791 35.63968
# Shear Modulus (GPa) = 24.55798 27.80618 26.18208
#
# Velocity S-wave (km/s) = 3.54336 3.77042 3.65865
# Velocity P-wave (km/s) = 5.82492 6.18123 6.00571
#
# Compressibility (1/GPa) = 0.02974292
#
# Stress axis : x y z
#
# Youngs Moduli (GPa) = 69.87369 57.50500 38.63487
#
# Poissons Ratio (x) = 0.05889 0.38305
# Poissons Ratio (y) = 0.07156 0.11522
# Poissons Ratio (z) = 0.69277 0.17149
#
# Static dielectric constant tensor:
#      x y z
#    x 3.626240 0.000000 -0.287550 
#    y 0.000000 3.668490 0.000000 
#    z -0.287550 0.000000 3.519450 
# 
# 
# High freq. dielectric constant tensor:
#      x y z
#    x 1.761790 0.000000 -0.018430 
#    y 0.000000 1.773080 0.000000 
#    z -0.018430 0.000000 1.753870 
# 
# From -- ./inp_files/292411.got.cif
#   From: 2010.06.25/outbox.cif.g09.slc.cpg/sg12_147_cif.got.tgz:292411.got - 2010.06.28 00:19:55.
