data_PCOD8100528
_publ_section_title
;
Structure prediction by ZEFSAII (Michael W. Deem and Ramdas Pophale) SiO2 
 PCOD8100528
Probable space group: C 2/M
;
_chemical_formula_sum "Si O2"
_cell_formula_units_Z 56
_cell_length_a 17.641487
_cell_length_b 13.271873
_cell_length_c 14.603527
_cell_angle_alpha 90.000000
_cell_angle_beta 57.265335
_cell_angle_gamma 90.000000
_cell_volume 2876.179922
_symmetry_space_group_name_H-M "C 2/M"
_symmetry_group_IT_number 12
_symmetry_cell_setting 'monoclinic'
loop_
_space_group_symop_operation_xyz
x,y,z
-x,y,-z
-x,-y,-z
x,-y,z
1/2+x,1/2+y,z
1/2-x,1/2+y,-z
1/2-x,1/2-y,-z
1/2+x,1/2-y,z
loop_
_atom_site_type_symbol
_atom_site_label
_atom_site_fract_x
_atom_site_fract_y
_atom_site_fract_z
Si Si1 0.114445 0.884353 0.184317
Si Si2 0.842355 0.709258 0.250520
Si Si3 0.459300 0.229679 0.623039
Si Si4 0.627306 0.114301 0.587423
Si Si5 0.966852 0.770659 0.924084
Si Si6 0.790487 0.385535 0.660937
Si Si7 0.817451 0.614612 0.080719
O O1 0.073384 0.823595 0.296160
O O2 0.068530 0.859339 0.117333
O O3 0.220024 0.862090 0.101854
O O4 0.096060 0.000000 0.219855
O O5 0.816543 0.665066 0.366491
O O6 0.796358 0.817350 0.261365
O O7 0.810106 0.631512 0.194407
O O8 0.949835 0.717550 0.179570
O O9 0.500000 0.269170 0.500000
O O10 0.533758 0.170309 0.631152
O O11 0.376883 0.153606 0.659872
O O12 0.692249 0.119322 0.458223
O O13 0.603421 0.000000 0.628618
O O14 0.889933 0.687079 0.986907
O O15 0.000000 0.815495 0.000000
O O16 0.770078 0.500000 0.705668
O O17 0.847056 0.500000 0.042272
#
# Coordination Sequence:
#
# PCOD8100528 Si02
#       7
#     8   8   8   8   8   8   8
#     4  11  22  41  64  86 120 157 195 243 297 357
#     4  11  20  36  60  86 123 155 191 244 294 354
#     4  10  20  39  63  88 120 155 201 248 287 345
#     4  10  20  35  59  89 119 158 201 245 292 339
#     4  10  23  40  62  86 117 153 194 248 294 351
#     4  10  21  37  58  87 123 159 198 241 291 353
#     4  10  22  40  63  87 114 152 198 249 298 345
#
# _framework density 19.470272000000001
#
# number of rings (size 3 to 8) (size 9 to 14) (size 15 to 20)
#    0.000    1.714    2.857    1.714    0.000    6.000 
#    0.000    2.143    0.000    0.000    0.000    0.000 
#    0.000    0.000    0.000    0.000    0.000    0.000 
#
# Total GULP energy -347244.996769 kJ/mol
# GULP energy per Si atom -12401.607027 kJ/mol
# Density = 1.942596 g / cm^3
# Si number density = 19.470272 Si / 1000 Ang^3
#
#
#
# Elastic Constant Matrix: (Units=GPa)
#
#
# Indices 1 2 3 4 5 6 
#
# 1 74.7695 32.5817 23.7079 0.0000 3.8625 0.0000
# 2 32.5817 101.8457 36.6069 0.0000 -13.1828 0.0000
# 3 23.7079 36.6069 64.7951 0.0000 -0.6108 0.0000
# 4 0.0000 0.0000 0.0000 31.4368 0.0000 3.1822
# 5 3.8625 -13.1828 -0.6108 0.0000 27.3893 0.0000
# 6 0.0000 0.0000 0.0000 3.1822 0.0000 23.7603
#
#
#
# Elastic Compliance Matrix: (Units=1/GPa)
#
#
# Indices 1 2 3 4 5 6 
#
# 1 0.016790 -0.004715 -0.003524 0.000000 -0.004716 0.000000
# 2 -0.004715 0.014632 -0.006470 0.000000 0.007563 0.000000
# 3 -0.003524 -0.006470 0.020357 0.000000 -0.002163 0.000000
# 4 0.000000 0.000000 0.000000 0.032247 0.000000 -0.004319
# 5 -0.004716 0.007563 -0.002163 0.000000 0.040768 0.000000
# 6 0.000000 0.000000 0.000000 -0.004319 0.000000 0.042665
#
#
# Mechanical properties :
#
#
# Convention : Reuss Voigt Hill
#
# Bulk Modulus (GPa) = 44.71987 47.46704 46.09345
# Shear Modulus (GPa) = 24.47013 26.41820 25.44417
#
# Velocity S-wave (km/s) = 3.54898 3.68754 3.61892
# Velocity P-wave (km/s) = 6.30966 6.52401 6.41773
#
# Compressibility (1/GPa) = 0.02236143
#
# Stress axis : x y z
#
# Youngs Moduli (GPa) = 59.55896 68.34497 49.12207
#
# Poissons Ratio (x) = 0.32226 0.17310
# Poissons Ratio (y) = 0.28083 0.31781
# Poissons Ratio (z) = 0.20988 0.44218
#
# Static dielectric constant tensor:
#      x y z
#    x 3.672630 0.000000 0.083310 
#    y 0.000000 3.451200 0.000000 
#    z 0.083310 0.000000 3.506630 
# 
# 
# High freq. dielectric constant tensor:
#      x y z
#    x 1.771590 0.000000 0.005340 
#    y 0.000000 1.751530 0.000000 
#    z 0.005340 0.000000 1.756370 
# 
# From -- ./inp_files/223709.got.cif
#   From: 2010.06.25/outbox.cif.g09.slc.cpg/sg12_112_cif.got.tgz:223709.got - 2010.06.28 00:19:55.
