data_PCOD8100753
_publ_section_title
;
Structure prediction by ZEFSAII (Michael W. Deem and Ramdas Pophale) SiO2 
 PCOD8100753
Probable space group: C 2/M
;
_chemical_formula_sum "Si O2"
_cell_formula_units_Z 40
_cell_length_a 8.599948
_cell_length_b 25.477423
_cell_length_c 10.723721
_cell_angle_alpha 90.000000
_cell_angle_beta 60.667549
_cell_angle_gamma 90.000000
_cell_volume 2048.376042
_symmetry_space_group_name_H-M "C 2/M"
_symmetry_group_IT_number 12
_symmetry_cell_setting 'monoclinic'
loop_
_space_group_symop_operation_xyz
x,y,z
-x,y,-z
-x,-y,-z
x,-y,z
1/2+x,1/2+y,z
1/2-x,1/2+y,-z
1/2-x,1/2-y,-z
1/2+x,1/2-y,z
loop_
_atom_site_type_symbol
_atom_site_label
_atom_site_fract_x
_atom_site_fract_y
_atom_site_fract_z
Si Si1 0.043029 0.303322 0.678315
Si Si2 0.914530 0.597676 0.167670
Si Si3 0.529784 0.000000 0.279478
Si Si4 0.510265 0.601074 0.353247
Si Si5 0.278957 0.500000 0.399238
Si Si6 0.201411 0.806341 0.656995
O O1 0.073777 0.346367 0.770721
O O2 0.082606 0.245730 0.715988
O O3 0.181632 0.312153 0.512959
O O4 0.836924 0.307982 0.719237
O O5 0.017541 0.552204 0.201496
O O6 0.707175 0.583541 0.235902
O O7 0.000000 0.602856 0.000000
O O8 0.718401 0.000000 0.278338
O O9 0.383177 0.000000 0.442848
O O10 0.500000 0.621650 0.500000
O O11 0.389862 0.550829 0.386008
O O12 0.438390 0.645867 0.287908
#
# Coordination Sequence:
#
# PCOD8100753 Si02
#       6
#     8   8   4   8   4   8
#     4  10  20  37  59  91 122 155 203 253 307 348
#     4  12  25  41  60  90 130 165 198 247 311 374
#     4  11  22  41  64  93 124 161 202 252 311 353
#     4  12  21  38  62  93 121 157 208 250 300 354
#     4  11  22  38  68  96 120 152 211 266 291 351
#     4  10  20  35  64  90 117 154 207 261 294 353
#
# _framework density 19.527666
#
# number of rings (size 3 to 8) (size 9 to 14) (size 15 to 20)
#    0.000    1.000    4.000    3.600    2.800    3.200 
#    0.000    9.000    0.000    0.000    0.000    0.000 
#    0.000    0.000    0.000    0.000    0.000    0.000 
#
# Total GULP energy -248050.273236 kJ/mol
# GULP energy per Si atom -12402.513662 kJ/mol
# Density = 1.948322 g / cm^3
# Si number density = 19.527666 Si / 1000 Ang^3
#
#
#
# Elastic Constant Matrix: (Units=GPa)
#
#
# Indices 1 2 3 4 5 6 
#
# 1 115.8567 35.4802 19.6925 0.0000 7.2001 0.0000
# 2 35.4802 127.2836 18.4889 0.0000 17.6311 0.0000
# 3 19.6925 18.4889 71.5097 0.0000 4.4694 0.0000
# 4 0.0000 0.0000 0.0000 -5.9316 0.0000 -15.1568
# 5 7.2001 17.6311 4.4694 0.0000 18.6871 0.0000
# 6 0.0000 0.0000 0.0000 -15.1568 0.0000 28.5606
#
#
#
# Elastic Compliance Matrix: (Units=1/GPa)
#
#
# Indices 1 2 3 4 5 6 
#
# 1 0.009739 -0.002264 -0.002026 0.000000 -0.001132 0.000000
# 2 -0.002264 0.009806 -0.001409 0.000000 -0.008043 0.000000
# 3 -0.002026 -0.001409 0.014999 0.000000 -0.001477 0.000000
# 4 0.000000 0.000000 0.000000 -0.071556 0.000000 -0.037974
# 5 -0.001132 -0.008043 -0.001477 0.000000 0.061891 0.000000
# 6 0.000000 0.000000 0.000000 -0.037974 0.000000 0.014861
#
#
# Mechanical properties :
#
#
# Convention : Reuss Voigt Hill
#
# Bulk Modulus (GPa) = 43.20359 51.33036 47.26698
# Shear Modulus (GPa) = 84.95676 24.32913 54.64294
#
# Velocity S-wave (km/s) = 6.60305 3.53353 5.29557
# Velocity P-wave (km/s) = 8.96136 6.55674 7.85165
#
# Compressibility (1/GPa) = 0.02314622
#
# Stress axis : x y z
#
# Youngs Moduli (GPa) = 102.67660 101.97550 66.67233
#
# Poissons Ratio (x) = 0.23084 0.13508
# Poissons Ratio (y) = 0.23243 0.09397
# Poissons Ratio (z) = 0.20802 0.14372
#
# Static dielectric constant tensor:
#      x y z
#    x 4.056560 0.000000 0.028870 
#    y 0.000000 3.729800 0.000000 
#    z 0.028870 0.000000 3.245080 
# 
# 
# High freq. dielectric constant tensor:
#      x y z
#    x 1.783230 0.000000 -0.000840 
#    y 0.000000 1.779500 0.000000 
#    z -0.000840 0.000000 1.716360 
# 
# From -- ./inp_files/121723.got.cif
#   From: 2010.06.25/outbox.cif.g09.slc.cpg/sg12_61_cif.got.tgz:121723.got - 2010.06.28 00:19:55.
