data_PCOD8100179
_publ_section_title
;
Structure prediction by ZEFSAII (Michael W. Deem and Ramdas Pophale) SiO2 
 PCOD8100179
Probable space group: C 2/M
;
_chemical_formula_sum "Si O2"
_cell_formula_units_Z 56
_cell_length_a 33.150967
_cell_length_b 15.322071
_cell_length_c 12.679269
_cell_angle_alpha 90.000000
_cell_angle_beta 25.169856
_cell_angle_gamma 90.000000
_cell_volume 2739.091435
_symmetry_space_group_name_H-M "C 2/M"
_symmetry_group_IT_number 12
_symmetry_cell_setting 'monoclinic'
loop_
_space_group_symop_operation_xyz
x,y,z
-x,y,-z
-x,-y,-z
x,-y,z
1/2+x,1/2+y,z
1/2-x,1/2+y,-z
1/2-x,1/2-y,-z
1/2+x,1/2-y,z
loop_
_atom_site_type_symbol
_atom_site_label
_atom_site_fract_x
_atom_site_fract_y
_atom_site_fract_z
Si Si1 0.892839 0.747495 0.734601
Si Si2 0.084596 0.841162 0.525651
Si Si3 0.782424 0.598134 0.105198
Si Si4 0.611127 0.401151 0.095125
Si Si5 0.212830 0.398715 0.458745
Si Si6 0.859357 0.397681 0.147449
Si Si7 0.461844 0.199917 0.206220
O O1 0.877689 0.769954 0.647978
O O2 0.867614 0.833945 0.861487
O O3 0.000000 0.717416 0.500000
O O4 0.827694 0.665093 0.915493
O O5 0.169530 0.905415 0.356026
O O6 0.051185 0.793142 0.709872
O O7 0.997408 0.895942 0.685256
O O8 0.821952 0.500000 0.993444
O O9 0.805483 0.631629 0.168917
O O10 0.629548 0.500000 0.092391
O O11 0.680865 0.378577 0.832547
O O12 0.187589 0.500000 0.509881
O O13 0.203402 0.367794 0.602958
O O14 0.138219 0.350013 0.560100
O O15 0.875831 0.500000 0.110828
O O16 0.962884 0.354639 0.903475
O O17 0.500000 0.216358 0.000000
#
# Coordination Sequence:
#
# PCOD8100179 Si02
#       7
#     8   8   8   8   8   8   8
#     4  10  22  40  60  82 112 146 190 242 280 324
#     4  11  23  38  55  82 117 150 187 231 275 332
#     4  11  23  39  59  83 116 155 187 225 284 344
#     4  10  21  38  61  86 113 149 191 234 280 329
#     4   9  18  34  57  84 112 144 189 242 284 325
#     4   9  18  34  56  83 114 147 187 236 287 335
#     4  10  20  35  58  84 111 148 190 233 285 337
#
# _framework density 20.444735000000001
#
# number of rings (size 3 to 8) (size 9 to 14) (size 15 to 20)
#    0.000    2.000    0.000    3.857    0.000    6.286 
#    0.000    6.429    0.000    4.286    0.000    0.000 
#    0.000    0.000    0.000    0.000    0.000    0.000 
#
# Total GULP energy -347264.244500 kJ/mol
# GULP energy per Si atom -12402.294446 kJ/mol
# Density = 2.039820 g / cm^3
# Si number density = 20.444735 Si / 1000 Ang^3
#
#
#
# Elastic Constant Matrix: (Units=GPa)
#
#
# Indices 1 2 3 4 5 6 
#
# 1 84.4291 21.7611 27.7760 0.0000 -9.8476 0.0000
# 2 21.7611 71.9978 36.9106 0.0000 2.2583 0.0000
# 3 27.7760 36.9106 102.8916 0.0000 -4.4738 0.0000
# 4 0.0000 0.0000 0.0000 25.4051 0.0000 2.4789
# 5 -9.8476 2.2583 -4.4738 0.0000 20.7525 0.0000
# 6 0.0000 0.0000 0.0000 2.4789 0.0000 17.2021
#
#
#
# Elastic Compliance Matrix: (Units=1/GPa)
#
#
# Indices 1 2 3 4 5 6 
#
# 1 0.014246 -0.003295 -0.002377 0.000000 0.006606 0.000000
# 2 -0.003295 0.017994 -0.005773 0.000000 -0.004766 0.000000
# 3 -0.002377 -0.005773 0.012527 0.000000 0.002201 0.000000
# 4 0.000000 0.000000 0.000000 0.039924 0.000000 -0.005753
# 5 0.006606 -0.004766 0.002201 0.000000 0.052315 0.000000
# 6 0.000000 0.000000 0.000000 -0.005753 0.000000 0.058962
#
#
# Mechanical properties :
#
#
# Convention : Reuss Voigt Hill
#
# Bulk Modulus (GPa) = 45.70607 48.02376 46.86492
# Shear Modulus (GPa) = 22.10937 24.19666 23.15301
#
# Velocity S-wave (km/s) = 3.29206 3.44396 3.36887
# Velocity P-wave (km/s) = 6.07081 6.27336 6.17291
#
# Compressibility (1/GPa) = 0.02187893
#
# Stress axis : x y z
#
# Youngs Moduli (GPa) = 70.19603 55.57362 79.82642
#
# Poissons Ratio (x) = 0.18309 0.18972
# Poissons Ratio (y) = 0.23127 0.46083
# Poissons Ratio (z) = 0.16683 0.32082
#
# Static dielectric constant tensor:
#      x y z
#    x 3.743640 0.000000 0.059970 
#    y 0.000000 3.507930 0.000000 
#    z 0.059970 0.000000 3.827390 
# 
# 
# High freq. dielectric constant tensor:
#      x y z
#    x 1.798490 0.000000 -0.001150 
#    y 0.000000 1.793690 0.000000 
#    z -0.001150 0.000000 1.804970 
# 
# From -- ./inp_files/189643.got.cif
#   From: 2010.06.25/outbox.cif.g09.slc.cpg/sg12_95_cif.got.tgz:189643.got - 2010.06.28 00:19:55.
