data_PCOD8100309
_publ_section_title
;
Structure prediction by ZEFSAII (Michael W. Deem and Ramdas Pophale) SiO2 
 PCOD8100309
Probable space group: C 2/M
;
_chemical_formula_sum "Si O2"
_cell_formula_units_Z 56
_cell_length_a 15.694865
_cell_length_b 8.968925
_cell_length_c 21.509299
_cell_angle_alpha 90.000000
_cell_angle_beta 67.456852
_cell_angle_gamma 90.000000
_cell_volume 2796.430074
_symmetry_space_group_name_H-M "C 2/M"
_symmetry_group_IT_number 12
_symmetry_cell_setting 'monoclinic'
loop_
_space_group_symop_operation_xyz
x,y,z
-x,y,-z
-x,-y,-z
x,-y,z
1/2+x,1/2+y,z
1/2-x,1/2+y,-z
1/2-x,1/2-y,-z
1/2+x,1/2-y,z
loop_
_atom_site_type_symbol
_atom_site_label
_atom_site_fract_x
_atom_site_fract_y
_atom_site_fract_z
Si Si1 0.080381 0.176075 0.160088
Si Si2 0.633106 0.828954 0.573297
Si Si3 0.696239 0.337733 0.299984
Si Si4 0.496973 0.338685 0.306585
Si Si5 0.535729 0.677134 0.924215
Si Si6 0.807971 0.670023 0.574084
Si Si7 0.740319 0.323237 0.832877
O O1 0.999475 0.211745 0.233773
O O2 0.177561 0.257409 0.147336
O O3 0.035384 0.236163 0.108617
O O4 0.100917 0.000000 0.151941
O O5 0.541635 0.788634 0.637091
O O6 0.708456 0.713752 0.576135
O O7 0.618637 0.806363 0.502991
O O8 0.661386 0.000000 0.578789
O O9 0.744578 0.500000 0.296093
O O10 0.603104 0.363587 0.290031
O O11 0.668807 0.270367 0.373995
O O12 0.758142 0.230990 0.239693
O O13 0.445954 0.500000 0.329341
O O14 0.534527 0.500000 0.922630
O O15 0.641288 0.731495 0.886167
O O16 0.500000 0.739572 0.000000
O O17 0.806911 0.500000 0.596489
O O18 0.750441 0.500000 0.830447
#
# Coordination Sequence:
#
# PCOD8100309 Si02
#       7
#     8   8   8   8   8   8   8
#     4   9  19  37  58  82 116 155 191 234 288 341
#     4  10  21  35  52  77 107 142 184 231 278 328
#     4  10  21  37  56  80 108 142 184 229 281 335
#     4   9  19  34  53  76 105 142 183 227 278 337
#     4   9  19  36  59  87 117 153 194 229 277 348
#     4  10  21  36  53  75 107 144 183 228 280 333
#     4  10  20  35  58  87 116 150 193 239 285 337
#
# _framework density 20.025531000000001
#
# number of rings (size 3 to 8) (size 9 to 14) (size 15 to 20)
#    0.000    2.429    0.000    2.571    2.000    5.714 
#    0.000    4.286    0.000    3.000    0.000    0.000 
#    0.000    0.000    0.000    0.000    0.000    0.000 
#
# Total GULP energy -346967.974153 kJ/mol
# GULP energy per Si atom -12391.713363 kJ/mol
# Density = 1.997995 g / cm^3
# Si number density = 20.025531 Si / 1000 Ang^3
#
#
#
# Elastic Constant Matrix: (Units=GPa)
#
#
# Indices 1 2 3 4 5 6 
#
# 1 73.7334 29.2492 53.2112 0.0000 7.1368 0.0001
# 2 29.2492 85.3573 51.5049 0.0000 4.7132 0.0002
# 3 53.2112 51.5049 159.9420 0.0000 10.7401 0.0000
# 4 0.0000 0.0000 0.0000 23.8209 0.0000 0.3740
# 5 7.1368 4.7132 10.7401 0.0000 32.1167 0.0000
# 6 0.0001 0.0002 0.0000 0.3740 0.0000 21.9944
#
#
#
# Elastic Compliance Matrix: (Units=1/GPa)
#
#
# Indices 1 2 3 4 5 6 
#
# 1 0.018677 -0.003254 -0.005032 0.000000 -0.001990 0.000000
# 2 -0.003254 0.015118 -0.003770 0.000000 -0.000235 0.000000
# 3 -0.005032 -0.003770 0.009236 0.000000 -0.001417 0.000000
# 4 0.000000 0.000000 0.000000 0.041991 0.000000 -0.000714
# 5 -0.001990 -0.000235 -0.001417 0.000000 0.032087 0.000000
# 6 0.000000 0.000000 0.000000 -0.000714 0.000000 0.045478
#
#
# Mechanical properties :
#
#
# Convention : Reuss Voigt Hill
#
# Bulk Modulus (GPa) = 52.85725 65.21816 59.03771
# Shear Modulus (GPa) = 25.90582 27.92423 26.91502
#
# Velocity S-wave (km/s) = 3.60062 3.73826 3.67009
# Velocity P-wave (km/s) = 6.61349 7.16038 6.89236
#
# Compressibility (1/GPa) = 0.01891888
#
# Stress axis : x y z
#
# Youngs Moduli (GPa) = 53.54054 66.14494 108.27510
#
# Poissons Ratio (x) = 0.21522 0.54488
# Poissons Ratio (y) = 0.17420 0.40822
# Poissons Ratio (z) = 0.26944 0.24938
#
# Static dielectric constant tensor:
#      x y z
#    x 3.437040 0.000000 0.136510 
#    y 0.000000 3.782940 0.000000 
#    z 0.136510 0.000000 4.039590 
# 
# 
# High freq. dielectric constant tensor:
#      x y z
#    x 1.765110 0.000000 0.007280 
#    y 0.000000 1.771470 0.000000 
#    z 0.007280 0.000000 1.789070 
# 
# From -- ./inp_files/313702.got.cif
#   From: 2010.06.25/outbox.cif.g09.slc.cpg/sg12_157_cif.got.tgz:313702.got - 2010.06.28 00:19:55.
