data_PCOD8100095
_publ_section_title
;
Structure prediction by ZEFSAII (Michael W. Deem and Ramdas Pophale) SiO2 
 PCOD8100095
Probable space group: C 2/M
;
_chemical_formula_sum "Si O2"
_cell_formula_units_Z 48
_cell_length_a 19.242696
_cell_length_b 14.805399
_cell_length_c 10.756061
_cell_angle_alpha 90.000000
_cell_angle_beta 136.897127
_cell_angle_gamma 90.000000
_cell_volume 2093.906634
_symmetry_space_group_name_H-M "C 2/M"
_symmetry_group_IT_number 12
_symmetry_cell_setting 'monoclinic'
loop_
_space_group_symop_operation_xyz
x,y,z
-x,y,-z
-x,-y,-z
x,-y,z
1/2+x,1/2+y,z
1/2-x,1/2+y,-z
1/2-x,1/2-y,-z
1/2+x,1/2-y,z
loop_
_atom_site_type_symbol
_atom_site_label
_atom_site_fract_x
_atom_site_fract_y
_atom_site_fract_z
Si Si1 0.995009 0.096590 0.653327
Si Si2 0.206586 0.098632 0.739147
Si Si3 0.005121 0.708985 0.650519
Si Si4 0.901993 0.100546 0.796801
Si Si5 0.221656 0.289664 0.666840
Si Si6 0.810934 0.398141 0.125877
O O1 0.917425 0.100364 0.432419
O O2 0.055091 0.191333 0.739629
O O3 0.920393 0.096350 0.674775
O O4 0.056856 0.000000 0.736282
O O5 0.251365 0.183606 0.722067
O O6 0.248108 0.000000 0.745228
O O7 0.223493 0.107584 0.908452
O O8 0.888473 0.700979 0.546918
O O9 0.000000 0.686647 0.500000
O O10 0.085018 0.636114 0.807892
O O11 0.806199 0.165647 0.691562
O O12 0.876753 0.000000 0.815833
O O13 0.000000 0.138609 0.000000
O O14 0.221129 0.335708 0.801477
O O15 0.827291 0.500000 0.195127
#
# Coordination Sequence:
#
# PCOD8100095 Si02
#       6
#     8   8   8   8   8   8
#     4   9  19  38  58  79 113 147 186 235 277 325
#     4   9  19  35  56  83 114 146 181 227 278 332
#     4   9  20  34  55  88 114 144 186 223 280 338
#     4  10  22  38  57  84 110 145 193 236 275 322
#     4  10  20  36  60  82 111 152 184 229 281 328
#     4  10  20  35  57  87 118 144 182 229 278 337
#
# _framework density 22.923660000000002
#
# number of rings (size 3 to 8) (size 9 to 14) (size 15 to 20)
#    0.000    2.500    0.000    1.000    2.333    6.667 
#    0.000    2.500    0.000    1.500    0.000    0.000 
#    0.000    0.000    0.000    0.000    0.000    0.000 
#
# Total GULP energy -297371.613200 kJ/mol
# GULP energy per Si atom -12390.483883 kJ/mol
# Density = 2.287148 g / cm^3
# Si number density = 22.923660 Si / 1000 Ang^3
#
#
#
# Elastic Constant Matrix: (Units=GPa)
#
#
# Indices 1 2 3 4 5 6 
#
# 1 53.5860 29.6229 18.0740 0.0000 18.4235 0.0000
# 2 29.6229 158.7331 32.4226 0.0000 14.7327 0.0000
# 3 18.0740 32.4226 67.8799 0.0000 9.2286 0.0000
# 4 0.0000 0.0000 0.0000 24.8964 0.0000 1.9826
# 5 18.4235 14.7327 9.2286 0.0000 23.3141 0.0000
# 6 0.0000 0.0000 0.0000 1.9826 0.0000 32.7077
#
#
#
# Elastic Compliance Matrix: (Units=1/GPa)
#
#
# Indices 1 2 3 4 5 6 
#
# 1 0.027857 -0.002720 -0.003550 0.000000 -0.018889 0.000000
# 2 -0.002720 0.007490 -0.002644 0.000000 -0.001537 0.000000
# 3 -0.003550 -0.002644 0.017261 0.000000 -0.002356 0.000000
# 4 0.000000 0.000000 0.000000 0.040361 0.000000 -0.002447
# 5 -0.018889 -0.001537 -0.002356 0.000000 0.059723 0.000000
# 6 0.000000 0.000000 0.000000 -0.002447 0.000000 0.030722
#
#
# Mechanical properties :
#
#
# Convention : Reuss Voigt Hill
#
# Bulk Modulus (GPa) = 28.75337 48.93755 38.84546
# Shear Modulus (GPa) = 23.49214 29.52226 26.50720
#
# Velocity S-wave (km/s) = 3.20472 3.59256 3.40417
# Velocity P-wave (km/s) = 5.12484 6.21313 5.69504
#
# Compressibility (1/GPa) = 0.03477853
#
# Stress axis : x y z
#
# Youngs Moduli (GPa) = 35.89743 133.50494 57.93557
#
# Poissons Ratio (x) = 0.36319 0.20566
# Poissons Ratio (y) = 0.09766 0.15321
# Poissons Ratio (z) = 0.12743 0.35305
#
# Static dielectric constant tensor:
#      x y z
#    x 4.026890 0.000000 0.300560 
#    y 0.000000 4.611960 0.000000 
#    z 0.300560 0.000000 4.470840 
# 
# 
# High freq. dielectric constant tensor:
#      x y z
#    x 1.871870 0.000000 0.001160 
#    y 0.000000 1.926390 0.000000 
#    z 0.001160 0.000000 1.900500 
# 
# From -- ./inp_files/167633.got.cif
#   From: 2010.06.25/outbox.cif.g09.slc.cpg/sg12_84_cif.got.tgz:167633.got - 2010.06.28 00:19:55.
