data_PCOD8100214
_publ_section_title
;
Structure prediction by ZEFSAII (Michael W. Deem and Ramdas Pophale) SiO2 
 PCOD8100214
Probable space group: C 2/M
;
_chemical_formula_sum "Si O2"
_cell_formula_units_Z 56
_cell_length_a 19.511111
_cell_length_b 8.975551
_cell_length_c 21.086756
_cell_angle_alpha 90.000000
_cell_angle_beta 53.487874
_cell_angle_gamma 90.000000
_cell_volume 2967.997881
_symmetry_space_group_name_H-M "C 2/M"
_symmetry_group_IT_number 12
_symmetry_cell_setting 'monoclinic'
loop_
_space_group_symop_operation_xyz
x,y,z
-x,y,-z
-x,-y,-z
x,-y,z
1/2+x,1/2+y,z
1/2-x,1/2+y,-z
1/2-x,1/2-y,-z
1/2+x,1/2-y,z
loop_
_atom_site_type_symbol
_atom_site_label
_atom_site_fract_x
_atom_site_fract_y
_atom_site_fract_z
Si Si1 0.987489 0.672817 0.123024
Si Si2 0.841176 0.824267 0.128301
Si Si3 0.873476 0.669372 0.300766
Si Si4 0.730244 0.826929 0.309280
Si Si5 0.660702 0.171010 0.542003
Si Si6 0.319452 0.176833 0.007656
Si Si7 0.901341 0.164568 0.543652
O O1 0.977234 0.500000 0.110526
O O2 0.933146 0.764608 0.101095
O O3 0.955004 0.707944 0.212181
O O4 0.085921 0.721299 0.067905
O O5 0.769061 0.785409 0.219769
O O6 0.808492 0.741785 0.083861
O O7 0.849288 0.000000 0.111843
O O8 0.843857 0.500000 0.303220
O O9 0.796046 0.779599 0.327834
O O10 0.895492 0.690338 0.362724
O O11 0.642430 0.740170 0.370736
O O12 0.711445 0.000000 0.325337
O O13 0.750000 0.250000 0.500000
O O14 0.608466 0.239680 0.513816
O O15 0.678000 0.000000 0.517089
O O16 0.305861 0.000000 0.015704
O O17 0.250000 0.250000 0.000000
O O18 0.000000 0.152069 0.500000
O O19 0.861525 0.000000 0.555991
#
# Coordination Sequence:
#
# PCOD8100214 Si02
#       7
#     8   8   8   8   8   8   8
#     4   9  19  37  60  85 113 147 189 232 276 332
#     4  10  21  37  60  89 115 144 186 234 281 335
#     4   9  18  34  57  84 112 144 183 232 284 332
#     4  10  20  35  58  85 112 145 187 236 281 332
#     4  11  21  34  58  86 114 148 188 233 281 333
#     4  11  23  39  59  83 117 154 188 230 281 336
#     4  11  24  40  56  78 114 155 193 236 283 333
#
# _framework density 18.867937999999999
#
# number of rings (size 3 to 8) (size 9 to 14) (size 15 to 20)
#    0.000    1.857    1.429    2.571    0.000    6.286 
#    2.571    0.000    0.000    0.000    0.000    0.000 
#    0.000    0.000    0.000    0.000    0.000    0.000 
#
# Total GULP energy -347210.118589 kJ/mol
# GULP energy per Si atom -12400.361378 kJ/mol
# Density = 1.882499 g / cm^3
# Si number density = 18.867938 Si / 1000 Ang^3
#
#
#
# Elastic Constant Matrix: (Units=GPa)
#
#
# Indices 1 2 3 4 5 6 
#
# 1 106.6041 56.7838 63.0318 0.0000 7.8884 0.0001
# 2 56.7838 116.3625 60.9841 0.0001 4.5760 0.0001
# 3 63.0318 60.9841 122.1550 0.0000 4.2264 0.0000
# 4 0.0000 0.0001 0.0000 28.9995 0.0000 2.4112
# 5 7.8884 4.5760 4.2264 0.0000 29.7413 0.0000
# 6 0.0001 0.0001 0.0000 2.4112 0.0000 30.5035
#
#
#
# Elastic Compliance Matrix: (Units=1/GPa)
#
#
# Indices 1 2 3 4 5 6 
#
# 1 0.015202 -0.004406 -0.005556 0.000000 -0.002565 0.000000
# 2 -0.004406 0.012944 -0.004181 0.000000 -0.000229 0.000000
# 3 -0.005556 -0.004181 0.013132 0.000000 0.000251 0.000000
# 4 0.000000 0.000000 0.000000 0.034711 0.000000 -0.002744
# 5 -0.002565 -0.000229 0.000251 0.000000 0.034303 0.000000
# 6 0.000000 0.000000 0.000000 -0.002744 0.000000 0.033000
#
#
# Mechanical properties :
#
#
# Convention : Reuss Voigt Hill
#
# Bulk Modulus (GPa) = 76.96667 78.52454 77.74560
# Shear Modulus (GPa) = 28.42387 28.80366 28.61376
#
# Velocity S-wave (km/s) = 3.88553 3.91140 3.89849
# Velocity P-wave (km/s) = 7.81093 7.88080 7.84595
#
# Compressibility (1/GPa) = 0.01299264
#
# Stress axis : x y z
#
# Youngs Moduli (GPa) = 65.77988 77.25643 76.15143
#
# Poissons Ratio (x) = 0.34038 0.42310
# Poissons Ratio (y) = 0.28981 0.31837
# Poissons Ratio (z) = 0.36548 0.32299
#
# Static dielectric constant tensor:
#      x y z
#    x 3.765200 0.000000 0.813480 
#    y 0.000000 3.778000 0.000000 
#    z 0.813480 0.000000 4.884850 
# 
# 
# High freq. dielectric constant tensor:
#      x y z
#    x 1.705880 0.000000 0.003010 
#    y 0.000000 1.745990 0.000000 
#    z 0.003010 0.000000 1.751410 
# 
# From -- ./inp_files/313784.got.cif
#   From: 2010.06.25/outbox.cif.g09.slc.cpg/sg12_157_cif.got.tgz:313784.got - 2010.06.28 00:19:55.
