data_PCOD8100402
_publ_section_title
;
Structure prediction by ZEFSAII (Michael W. Deem and Ramdas Pophale) SiO2 
 PCOD8100402
Probable space group: C 2/M
;
_chemical_formula_sum "Si O2"
_cell_formula_units_Z 48
_cell_length_a 27.596228
_cell_length_b 13.629839
_cell_length_c 12.606119
_cell_angle_alpha 90.000000
_cell_angle_beta 152.870261
_cell_angle_gamma 90.000000
_cell_volume 2162.187099
_symmetry_space_group_name_H-M "C 2/M"
_symmetry_group_IT_number 12
_symmetry_cell_setting 'monoclinic'
loop_
_space_group_symop_operation_xyz
x,y,z
-x,y,-z
-x,-y,-z
x,-y,z
1/2+x,1/2+y,z
1/2-x,1/2+y,-z
1/2-x,1/2-y,-z
1/2+x,1/2-y,z
loop_
_atom_site_type_symbol
_atom_site_label
_atom_site_fract_x
_atom_site_fract_y
_atom_site_fract_z
Si Si1 0.917070 0.387526 0.433480
Si Si2 0.722579 0.386372 0.767238
Si Si3 0.310605 0.385434 0.530537
Si Si4 0.929495 0.738890 0.153183
Si Si5 0.323329 0.385850 0.093485
Si Si6 0.599491 0.770498 0.140650
O O1 0.916137 0.500000 0.471311
O O2 0.000000 0.373484 0.500000
O O3 0.957538 0.314848 0.605115
O O4 0.797894 0.354148 0.170776
O O5 0.751868 0.500000 0.829054
O O6 0.659152 0.362547 0.534315
O O7 0.654451 0.358308 0.739369
O O8 0.836351 0.336978 0.995074
O O9 0.321744 0.500000 0.578623
O O10 0.382452 0.324422 0.750157
O O11 0.190175 0.351602 0.315203
O O12 0.910607 0.832687 0.191382
O O13 0.926591 0.772812 0.025825
O O14 0.340000 0.500000 0.104945
O O15 0.500000 0.826222 0.000000
#
# Coordination Sequence:
#
# PCOD8100402 Si02
#       6
#     8   8   8   8   8   8
#     4  10  20  35  58  91 122 153 196 235 281 354
#     4   9  17  33  58  87 116 149 191 238 290 351
#     4   9  20  40  64  85 113 155 198 243 298 351
#     4  11  21  35  59  87 120 159 194 239 297 349
#     4  10  21  37  58  89 125 156 191 238 292 354
#     4  10  23  41  58  87 118 152 203 253 291 346
#
# _framework density 22.199745
#
# number of rings (size 3 to 8) (size 9 to 14) (size 15 to 20)
#    0.000    2.167    1.667    1.000    0.000    6.000 
#    0.000    1.667    0.000    2.500    0.000    0.000 
#    0.000    0.000    0.000    0.000    0.000    0.000 
#
# Total GULP energy -297551.035745 kJ/mol
# GULP energy per Si atom -12397.959823 kJ/mol
# Density = 2.214922 g / cm^3
# Si number density = 22.199745 Si / 1000 Ang^3
#
#
#
# Elastic Constant Matrix: (Units=GPa)
#
#
# Indices 1 2 3 4 5 6 
#
# 1 123.8332 28.6712 40.3765 0.0000 -26.6918 0.0000
# 2 28.6712 67.5196 33.1004 0.0000 -21.4480 0.0000
# 3 40.3765 33.1004 86.8040 0.0000 -24.6618 0.0000
# 4 0.0000 0.0000 0.0000 28.3789 0.0000 -6.6186
# 5 -26.6918 -21.4480 -24.6618 0.0000 35.7957 0.0000
# 6 0.0000 0.0000 0.0000 -6.6186 0.0000 26.0337
#
#
#
# Elastic Compliance Matrix: (Units=1/GPa)
#
#
# Indices 1 2 3 4 5 6 
#
# 1 0.010411 -0.001442 -0.002900 0.000000 0.004901 0.000000
# 2 -0.001442 0.020256 -0.004862 0.000000 0.007712 0.000000
# 3 -0.002900 -0.004862 0.016514 0.000000 0.006301 0.000000
# 4 0.000000 0.000000 0.000000 0.037458 0.000000 0.009523
# 5 0.004901 0.007712 0.006301 0.000000 0.040553 0.000000
# 6 0.000000 0.000000 0.000000 0.009523 0.000000 0.040833
#
#
# Mechanical properties :
#
#
# Convention : Reuss Voigt Hill
#
# Bulk Modulus (GPa) = 34.75698 53.60589 44.18144
# Shear Modulus (GPa) = 25.76974 29.77557 27.77265
#
# Velocity S-wave (km/s) = 3.41077 3.66629 3.54083
# Velocity P-wave (km/s) = 5.58584 6.49013 6.05489
#
# Compressibility (1/GPa) = 0.02877120
#
# Stress axis : x y z
#
# Youngs Moduli (GPa) = 96.04840 49.36726 60.55595
#
# Poissons Ratio (x) = 0.07120 0.17564
# Poissons Ratio (y) = 0.13853 0.29444
# Poissons Ratio (z) = 0.27858 0.24004
#
# Static dielectric constant tensor:
#      x y z
#    x 4.090900 0.000000 -0.294120 
#    y 0.000000 3.895740 0.000000 
#    z -0.294120 0.000000 4.065570 
# 
# 
# High freq. dielectric constant tensor:
#      x y z
#    x 1.867590 0.000000 -0.009960 
#    y 0.000000 1.875010 0.000000 
#    z -0.009960 0.000000 1.874160 
# 
# From -- ./inp_files/183872.got.cif
#   From: 2010.06.25/outbox.cif.g09.slc.cpg/sg12_92_cif.got.tgz:183872.got - 2010.06.28 00:19:55.
