data_PCOD8100505
_publ_section_title
;
Structure prediction by ZEFSAII (Michael W. Deem and Ramdas Pophale) SiO2 
 PCOD8100505
Probable space group: C 2/M
;
_chemical_formula_sum "Si O2"
_cell_formula_units_Z 64
_cell_length_a 20.594962
_cell_length_b 18.212101
_cell_length_c 9.138699
_cell_angle_alpha 90.000000
_cell_angle_beta 94.043169
_cell_angle_gamma 90.000000
_cell_volume 3419.189753
_symmetry_space_group_name_H-M "C 2/M"
_symmetry_group_IT_number 12
_symmetry_cell_setting 'monoclinic'
loop_
_space_group_symop_operation_xyz
x,y,z
-x,y,-z
-x,-y,-z
x,-y,z
1/2+x,1/2+y,z
1/2-x,1/2+y,-z
1/2-x,1/2-y,-z
1/2+x,1/2-y,z
loop_
_atom_site_type_symbol
_atom_site_label
_atom_site_fract_x
_atom_site_fract_y
_atom_site_fract_z
Si Si1 0.157282 0.915553 0.872431
Si Si2 0.148368 0.675215 0.081708
Si Si3 0.690733 0.170039 0.603887
Si Si4 0.768793 0.415428 0.118348
Si Si5 0.742849 0.675295 0.680090
Si Si6 0.437899 0.289744 0.093303
Si Si7 0.533503 0.915345 0.159864
Si Si8 0.456466 0.819784 0.355597
O O1 0.197952 0.889154 0.737371
O O2 0.090602 0.870020 0.876487
O O3 0.138154 0.000000 0.844888
O O4 0.200186 0.905417 0.025508
O O5 0.207821 0.704554 0.188119
O O6 0.098006 0.633895 0.179768
O O7 0.171588 0.617060 0.964903
O O8 0.118704 0.745017 0.996328
O O9 0.733884 0.126103 0.727904
O O10 0.697922 0.257319 0.624959
O O11 0.717015 0.143897 0.450810
O O12 0.614379 0.153993 0.603610
O O13 0.784993 0.500000 0.148508
O O14 0.457097 0.249393 0.246222
O O15 0.500000 0.298268 0.000000
O O16 0.485711 0.891481 0.281579
O O17 0.551857 0.000000 0.181610
O O18 0.500000 0.898072 0.000000
O O19 0.500000 0.796072 0.500000
#
# Coordination Sequence:
#
# PCOD8100505 Si02
#       8
#     8   8   8   8   8   8   8   8
#     4  10  22  41  62  88 117 148 194 249 304 352
#     4  11  18  36  59  86 113 151 196 234 284 351
#     4  11  21  37  56  87 118 151 192 233 285 342
#     4  10  20  35  59  88 119 151 185 235 292 350
#     4  10  22  36  61  85 114 151 188 238 290 352
#     4  12  22  39  63  86 111 155 199 249 295 342
#     4  11  21  36  56  83 120 160 194 228 278 345
#     4  12  23  38  56  85 120 160 199 238 282 342
#
# _framework density 18.717884999999999
#
# number of rings (size 3 to 8) (size 9 to 14) (size 15 to 20)
#    0.000    1.125    5.000    1.875    0.000    5.000 
#    0.000    1.250    0.000    0.375    0.000    0.000 
#    0.000    0.000    0.000    0.000    0.000    0.000 
#
# Total GULP energy -396965.580270 kJ/mol
# GULP energy per Si atom -12405.174383 kJ/mol
# Density = 1.867528 g / cm^3
# Si number density = 18.717885 Si / 1000 Ang^3
#
#
#
# Elastic Constant Matrix: (Units=GPa)
#
#
# Indices 1 2 3 4 5 6 
#
# 1 60.3201 20.4015 29.4832 0.0000 -8.5734 0.0000
# 2 20.4015 91.1869 33.0397 0.0000 -4.3244 0.0000
# 3 29.4832 33.0397 116.6988 0.0000 -8.7795 0.0000
# 4 0.0000 0.0000 0.0000 20.9301 0.0000 -0.2731
# 5 -8.5734 -4.3244 -8.7795 0.0000 25.3152 0.0000
# 6 0.0000 0.0000 0.0000 -0.2731 0.0000 24.3897
#
#
#
# Elastic Compliance Matrix: (Units=1/GPa)
#
#
# Indices 1 2 3 4 5 6 
#
# 1 0.020165 -0.002858 -0.003910 0.000000 0.004985 0.000000
# 2 -0.002858 0.012646 -0.002843 0.000000 0.000206 0.000000
# 3 -0.003910 -0.002843 0.010500 0.000000 0.001831 0.000000
# 4 0.000000 0.000000 0.000000 0.047785 0.000000 0.000535
# 5 0.004985 0.000206 0.001831 0.000000 0.041861 0.000000
# 6 0.000000 0.000000 0.000000 0.000535 0.000000 0.041007
#
#
# Mechanical properties :
#
#
# Convention : Reuss Voigt Hill
#
# Bulk Modulus (GPa) = 41.51501 48.22830 44.87165
# Shear Modulus (GPa) = 24.84917 26.47909 25.66413
#
# Velocity S-wave (km/s) = 3.64753 3.76525 3.70686
# Velocity P-wave (km/s) = 6.32193 6.68765 6.50736
#
# Compressibility (1/GPa) = 0.02408767
#
# Stress axis : x y z
#
# Youngs Moduli (GPa) = 49.59167 79.07806 95.24220
#
# Poissons Ratio (x) = 0.22603 0.37242
# Poissons Ratio (y) = 0.14175 0.27073
# Poissons Ratio (z) = 0.19391 0.22479
#
# Static dielectric constant tensor:
#      x y z
#    x 3.454850 0.000000 -0.049490 
#    y 0.000000 3.321010 0.000000 
#    z -0.049490 0.000000 3.542480 
# 
# 
# High freq. dielectric constant tensor:
#      x y z
#    x 1.727920 0.000000 -0.006490 
#    y 0.000000 1.716440 0.000000 
#    z -0.006490 0.000000 1.729640 
# 
# From -- ./inp_files/87944.got.cif
#   From: 2010.06.25/outbox.cif.g09.slc.cpg/sg12_44_cif.got.tgz:87944.got - 2010.06.28 00:19:55.
