data_PCOD8100367
_publ_section_title
;
Structure prediction by ZEFSAII (Michael W. Deem and Ramdas Pophale) SiO2 
 PCOD8100367
Probable space group: C 2/M
;
_chemical_formula_sum "Si O2"
_cell_formula_units_Z 48
_cell_length_a 28.043705
_cell_length_b 8.465143
_cell_length_c 10.237861
_cell_angle_alpha 90.000000
_cell_angle_beta 89.977952
_cell_angle_gamma 90.000000
_cell_volume 2430.406319
_symmetry_space_group_name_H-M "C 2/M"
_symmetry_group_IT_number 12
_symmetry_cell_setting 'monoclinic'
loop_
_space_group_symop_operation_xyz
x,y,z
-x,y,-z
-x,-y,-z
x,-y,z
1/2+x,1/2+y,z
1/2-x,1/2+y,-z
1/2-x,1/2-y,-z
1/2+x,1/2-y,z
loop_
_atom_site_type_symbol
_atom_site_label
_atom_site_fract_x
_atom_site_fract_y
_atom_site_fract_z
Si Si1 0.054885 0.316310 0.493108
Si Si2 0.796987 0.315658 0.851410
Si Si3 0.196536 0.683741 0.850593
Si Si4 0.609955 0.315032 0.251167
Si Si5 0.395199 0.315532 0.257488
Si Si6 0.947066 0.187533 0.996623
O O1 0.057550 0.500000 0.457107
O O2 0.082191 0.216751 0.384085
O O3 0.081138 0.285517 0.628756
O O4 0.000000 0.258977 0.500000
O O5 0.785474 0.500000 0.846978
O O6 0.750066 0.222687 0.805108
O O7 0.839122 0.272374 0.751316
O O8 0.810894 0.262605 0.998662
O O9 0.186066 0.500000 0.832417
O O10 0.160937 0.780328 0.756663
O O11 0.619316 0.500000 0.235769
O O12 0.578979 0.246083 0.131574
O O13 0.403773 0.500000 0.284687
O O14 0.419611 0.255337 0.124713
O O15 0.949092 0.000000 0.990113
O O16 0.000000 0.259791 0.000000
#
# Coordination Sequence:
#
# PCOD8100367 Si02
#       6
#     8   8   8   8   8   8
#     4  11  25  43  60  83 120 163 203 245 297 355
#     4  10  20  35  58  88 123 158 196 241 295 353
#     4  10  20  35  58  88 123 158 196 241 295 353
#     4  11  21  37  61  88 119 155 199 246 298 354
#     4  11  21  37  61  88 119 155 199 246 298 354
#     4   9  18  32  54  85 116 145 188 245 294 343
#
# _framework density 19.749783000000001
#
# number of rings (size 3 to 8) (size 9 to 14) (size 15 to 20)
#    0.000    1.667    1.667    3.500    0.000    4.000 
#    0.000    0.833    0.000    4.000    0.000    0.000 
#    0.000    0.000    0.000    0.000    0.000    0.000 
#
# Total GULP energy -297725.095349 kJ/mol
# GULP energy per Si atom -12405.212306 kJ/mol
# Density = 1.970483 g / cm^3
# Si number density = 19.749783 Si / 1000 Ang^3
#
#
#
# Elastic Constant Matrix: (Units=GPa)
#
#
# Indices 1 2 3 4 5 6 
#
# 1 143.1948 13.7344 48.2808 0.0000 0.2785 0.0000
# 2 13.7344 43.5127 7.1061 0.0000 0.3729 0.0000
# 3 48.2808 7.1061 95.3947 0.0000 3.9691 0.0000
# 4 0.0000 0.0000 0.0000 25.8027 0.0000 1.4708
# 5 0.2785 0.3729 3.9691 0.0000 33.2186 0.0000
# 6 0.0000 0.0000 0.0000 1.4708 0.0000 27.9056
#
#
#
# Elastic Compliance Matrix: (Units=1/GPa)
#
#
# Indices 1 2 3 4 5 6 
#
# 1 0.008600 -0.002029 -0.004220 0.000000 0.000455 0.000000
# 2 -0.002029 0.023744 -0.000735 0.000000 -0.000162 0.000000
# 3 -0.004220 -0.000735 0.012735 0.000000 -0.001478 0.000000
# 4 0.000000 0.000000 0.000000 0.038872 0.000000 -0.002049
# 5 0.000455 -0.000162 -0.001478 0.000000 0.030278 0.000000
# 6 0.000000 0.000000 0.000000 -0.002049 0.000000 0.035943
#
#
# Mechanical properties :
#
#
# Convention : Reuss Voigt Hill
#
# Bulk Modulus (GPa) = 32.14436 46.70498 39.42467
# Shear Modulus (GPa) = 28.65133 31.58412 30.11772
#
# Velocity S-wave (km/s) = 3.81296 4.00335 3.90932
# Velocity P-wave (km/s) = 5.97461 6.71333 6.35472
#
# Compressibility (1/GPa) = 0.03110966
#
# Stress axis : x y z
#
# Youngs Moduli (GPa) = 116.27555 42.11643 78.52333
#
# Poissons Ratio (x) = 0.08546 0.33141
# Poissons Ratio (y) = 0.23595 0.05771
# Poissons Ratio (z) = 0.49074 0.03095
#
# Static dielectric constant tensor:
#      x y z
#    x 3.729310 0.000000 0.032280 
#    y 0.000000 3.349870 0.000000 
#    z 0.032280 0.000000 3.427060 
# 
# 
# High freq. dielectric constant tensor:
#      x y z
#    x 1.785750 0.000000 0.001430 
#    y 0.000000 1.762870 0.000000 
#    z 0.001430 0.000000 1.751010 
# 
# From -- ./inp_files/108676.got.cif
#   From: 2010.06.25/outbox.cif.g09.slc.cpg/sg12_55_cif.got.tgz:108676.got - 2010.06.28 00:19:55.
