data_PCOD8100597
_publ_section_title
;
Structure prediction by ZEFSAII (Michael W. Deem and Ramdas Pophale) SiO2 
 PCOD8100597
Probable space group: C 2/M
;
_chemical_formula_sum "Si O2"
_cell_formula_units_Z 52
_cell_length_a 15.359867
_cell_length_b 28.516981
_cell_length_c 8.969428
_cell_angle_alpha 90.000000
_cell_angle_beta 41.711596
_cell_angle_gamma 90.000000
_cell_volume 2614.125538
_symmetry_space_group_name_H-M "C 2/M"
_symmetry_group_IT_number 12
_symmetry_cell_setting 'monoclinic'
loop_
_space_group_symop_operation_xyz
x,y,z
-x,y,-z
-x,-y,-z
x,-y,z
1/2+x,1/2+y,z
1/2-x,1/2+y,-z
1/2-x,1/2-y,-z
1/2+x,1/2-y,z
loop_
_atom_site_type_symbol
_atom_site_label
_atom_site_fract_x
_atom_site_fract_y
_atom_site_fract_z
Si Si1 0.653165 0.592789 0.342658
Si Si2 0.500000 0.658233 0.000000
Si Si3 0.223423 0.216958 0.832797
Si Si4 0.432552 0.844571 0.428815
Si Si5 0.787981 0.090315 0.394081
Si Si6 0.855296 0.000000 0.133858
Si Si7 0.864318 0.000000 0.769407
Si Si8 0.311635 0.183398 0.039879
O O1 0.500000 0.600242 0.500000
O O2 0.688119 0.577110 0.465409
O O3 0.709349 0.548449 0.177385
O O4 0.726974 0.640089 0.204971
O O5 0.415356 0.691478 0.002956
O O6 0.406101 0.625810 0.215883
O O7 0.334099 0.199250 0.576497
O O8 0.205994 0.272624 0.825571
O O9 0.267289 0.203035 0.939686
O O10 0.500000 0.859241 0.500000
O O11 0.352639 0.887309 0.459836
O O12 0.537322 0.831313 0.168392
O O13 0.785806 0.045948 0.287174
O O14 0.870292 0.000000 0.938255
O O15 0.000000 0.000000 0.000000
O O16 0.000000 0.000000 0.500000
#
# Coordination Sequence:
#
# PCOD8100597 Si02
#       8
#     8   4   8   8   8   4   4   8
#     4  11  23  39  61  94 127 158 209 265 320 371
#     4  10  20  35  60  86 124 151 210 256 308 360
#     4   9  20  36  58  90 117 166 211 261 305 378
#     4   9  21  39  60  85 125 164 215 254 305 381
#     4  11  23  38  63  93 122 169 207 257 316 377
#     4  12  22  38  68  92 126 163 211 259 321 374
#     4  10  24  38  61  95 127 153 200 265 315 365
#     4  10  21  38  62  83 128 169 207 254 324 364
#
# _framework density 19.891929000000001
#
# number of rings (size 3 to 8) (size 9 to 14) (size 15 to 20)
#    0.000    1.846    0.769    3.231    6.462    6.154 
#    0.000    4.231    0.000    1.846    0.000    0.000 
#    0.000    0.000    0.000    0.000    0.000    0.000 
#
# Total GULP energy -322224.101508 kJ/mol
# GULP energy per Si atom -12393.234673 kJ/mol
# Density = 1.984665 g / cm^3
# Si number density = 19.891929 Si / 1000 Ang^3
#
#
#
# Elastic Constant Matrix: (Units=GPa)
#
#
# Indices 1 2 3 4 5 6 
#
# 1 98.7208 56.6942 51.9841 0.0000 -5.6289 0.0000
# 2 56.6942 178.2345 66.9878 0.0000 0.0065 0.0000
# 3 51.9841 66.9878 100.2921 0.0000 -2.7273 0.0000
# 4 0.0000 0.0000 0.0000 36.0245 0.0000 1.0424
# 5 -5.6289 0.0065 -2.7273 0.0000 37.8815 0.0000
# 6 0.0000 0.0000 0.0000 1.0424 0.0000 30.3461
#
#
#
# Elastic Compliance Matrix: (Units=1/GPa)
#
#
# Indices 1 2 3 4 5 6 
#
# 1 0.014789 -0.002458 -0.005975 0.000000 0.001768 0.000000
# 2 -0.002458 0.007905 -0.004023 0.000000 -0.000656 0.000000
# 3 -0.005975 -0.004023 0.015762 0.000000 0.000248 0.000000
# 4 0.000000 0.000000 0.000000 0.027786 0.000000 -0.000954
# 5 0.001768 -0.000656 0.000248 0.000000 0.026679 0.000000
# 6 0.000000 0.000000 0.000000 -0.000954 0.000000 0.032986
#
#
# Mechanical properties :
#
#
# Convention : Reuss Voigt Hill
#
# Bulk Modulus (GPa) = 73.84769 80.95328 77.40049
# Shear Modulus (GPa) = 32.18863 34.28920 33.23891
#
# Velocity S-wave (km/s) = 4.02702 4.15634 4.09219
# Velocity P-wave (km/s) = 7.66991 7.98864 7.83090
#
# Compressibility (1/GPa) = 0.01354138
#
# Stress axis : x y z
#
# Youngs Moduli (GPa) = 67.61957 126.50618 63.44356
#
# Poissons Ratio (x) = 0.31100 0.37909
# Poissons Ratio (y) = 0.16624 0.25526
# Poissons Ratio (z) = 0.40404 0.50898
#
# Static dielectric constant tensor:
#      x y z
#    x 3.634890 0.000000 -0.104330 
#    y 0.000000 4.011750 0.000000 
#    z -0.104330 0.000000 3.649570 
# 
# 
# High freq. dielectric constant tensor:
#      x y z
#    x 1.777470 0.000000 0.001450 
#    y 0.000000 1.790340 0.000000 
#    z 0.001450 0.000000 1.764030 
# 
# From -- ./inp_files/68569.got.cif
#   From: 2010.06.25/outbox.cif.g09.slc.cpg/sg12_35_cif.got.tgz:68569.got - 2010.06.28 00:19:55.
