data_PCOD8100016
_publ_section_title
;
Structure prediction by ZEFSAII (Michael W. Deem and Ramdas Pophale) SiO2 
 PCOD8100016
Probable space group: C 2/M
;
_chemical_formula_sum "Si O2"
_cell_formula_units_Z 56
_cell_length_a 27.407198
_cell_length_b 8.791861
_cell_length_c 13.659802
_cell_angle_alpha 90.000000
_cell_angle_beta 60.058107
_cell_angle_gamma 90.000000
_cell_volume 2852.163902
_symmetry_space_group_name_H-M "C 2/M"
_symmetry_group_IT_number 12
_symmetry_cell_setting 'monoclinic'
loop_
_space_group_symop_operation_xyz
x,y,z
-x,y,-z
-x,-y,-z
x,-y,z
1/2+x,1/2+y,z
1/2-x,1/2+y,-z
1/2-x,1/2-y,-z
1/2+x,1/2-y,z
loop_
_atom_site_type_symbol
_atom_site_label
_atom_site_fract_x
_atom_site_fract_y
_atom_site_fract_z
Si Si1 0.237372 0.821292 0.116675
Si Si2 0.192216 0.820879 0.593281
Si Si3 0.832126 0.320069 0.174121
Si Si4 0.123601 0.323530 0.300892
Si Si5 0.523114 0.180672 0.265601
Si Si6 0.400178 0.823281 0.448887
Si Si7 0.547509 0.180815 0.025247
O O1 0.284539 0.767048 0.146007
O O2 0.177354 0.772412 0.217061
O O3 0.239293 0.000000 0.102031
O O4 0.250000 0.750000 0.000000
O O5 0.250000 0.750000 0.500000
O O6 0.177560 0.763912 0.715185
O O7 0.143333 0.775966 0.567991
O O8 0.199364 0.000000 0.587500
O O9 0.831050 0.500000 0.193618
O O10 0.891674 0.264639 0.071754
O O11 0.135219 0.500000 0.265774
O O12 0.070675 0.260498 0.292444
O O13 0.110662 0.296864 0.426674
O O14 0.462347 0.238407 0.361817
O O15 0.523426 0.000000 0.265003
O O16 0.536085 0.246594 0.144874
O O17 0.393349 0.000000 0.426563
O O18 0.544664 0.000000 0.030817
O O19 0.500000 0.246217 0.000000
#
# Coordination Sequence:
#
# PCOD8100016 Si02
#       7
#     8   8   8   8   8   8   8
#     4  11  23  38  58  83 114 152 191 235 286 340
#     4  12  25  40  59  83 113 149 189 235 287 342
#     4  10  21  38  59  84 114 149 191 236 282 334
#     4  10  20  35  57  85 115 149 192 238 282 332
#     4   9  17  32  56  86 117 149 188 232 277 329
#     4  10  20  36  60  87 115 148 188 235 284 335
#     4   9  16  28  52  83 111 142 182 229 277 326
#
# _framework density 19.634215000000001
#
# number of rings (size 3 to 8) (size 9 to 14) (size 15 to 20)
#    0.000    1.857    0.000    4.714    0.000   10.286 
#    0.000    0.714    0.000    5.571    0.000    0.000 
#    0.000    0.000    0.000    0.000    0.000    0.000 
#
# Total GULP energy -347300.486707 kJ/mol
# GULP energy per Si atom -12403.588811 kJ/mol
# Density = 1.958953 g / cm^3
# Si number density = 19.634215 Si / 1000 Ang^3
#
#
#
# Elastic Constant Matrix: (Units=GPa)
#
#
# Indices 1 2 3 4 5 6 
#
# 1 178.9574 27.4637 72.7876 0.0000 -1.7417 0.0000
# 2 27.4637 35.6821 29.5968 0.0000 3.7902 0.0000
# 3 72.7876 29.5968 146.9440 0.0000 -2.6126 0.0000
# 4 0.0000 0.0000 0.0000 26.2920 0.0000 -2.7831
# 5 -1.7417 3.7902 -2.6126 0.0000 46.0263 0.0000
# 6 0.0000 0.0000 0.0000 -2.7831 0.0000 27.9166
#
#
#
# Elastic Compliance Matrix: (Units=1/GPa)
#
#
# Indices 1 2 3 4 5 6 
#
# 1 0.007285 -0.003192 -0.002959 0.000000 0.000371 0.000000
# 2 -0.003192 0.035510 -0.005631 0.000000 -0.003365 0.000000
# 3 -0.002959 -0.005631 0.009421 0.000000 0.000886 0.000000
# 4 0.000000 0.000000 0.000000 0.038440 0.000000 0.003832
# 5 0.000371 -0.003365 0.000886 0.000000 0.022068 0.000000
# 6 0.000000 0.000000 0.000000 0.003832 0.000000 0.036203
#
#
# Mechanical properties :
#
#
# Convention : Reuss Voigt Hill
#
# Bulk Modulus (GPa) = 34.90155 69.03107 51.96631
# Shear Modulus (GPa) = 27.46621 35.49601 31.48111
#
# Velocity S-wave (km/s) = 3.74424 4.25651 4.00857
# Velocity P-wave (km/s) = 6.04209 7.70663 6.92456
#
# Compressibility (1/GPa) = 0.02865202
#
# Stress axis : x y z
#
# Youngs Moduli (GPa) = 137.26994 28.16096 106.14625
#
# Poissons Ratio (x) = 0.08989 0.31409
# Poissons Ratio (y) = 0.43817 0.59771
# Poissons Ratio (z) = 0.40618 0.15857
#
# Static dielectric constant tensor:
#      x y z
#    x 3.910620 0.000000 0.009110 
#    y 0.000000 3.240140 0.000000 
#    z 0.009110 0.000000 3.774430 
# 
# 
# High freq. dielectric constant tensor:
#      x y z
#    x 1.787640 0.000000 0.000150 
#    y 0.000000 1.726670 0.000000 
#    z 0.000150 0.000000 1.787140 
# 
# From -- ./inp_files/180710.got.cif
#   From: 2010.06.25/outbox.cif.g09.slc.cpg/sg12_91_cif.got.tgz:180710.got - 2010.06.28 00:19:55.
