data_PCOD8100211
_publ_section_title
;
Structure prediction by ZEFSAII (Michael W. Deem and Ramdas Pophale) SiO2 
 PCOD8100211
Probable space group: C 2/M
;
_chemical_formula_sum "Si O2"
_cell_formula_units_Z 64
_cell_length_a 20.192644
_cell_length_b 8.973539
_cell_length_c 33.571127
_cell_angle_alpha 90.000000
_cell_angle_beta 145.087343
_cell_angle_gamma 90.000000
_cell_volume 3481.505827
_symmetry_space_group_name_H-M "C 2/M"
_symmetry_group_IT_number 12
_symmetry_cell_setting 'monoclinic'
loop_
_space_group_symop_operation_xyz
x,y,z
-x,y,-z
-x,-y,-z
x,-y,z
1/2+x,1/2+y,z
1/2-x,1/2+y,-z
1/2-x,1/2-y,-z
1/2+x,1/2-y,z
loop_
_atom_site_type_symbol
_atom_site_label
_atom_site_fract_x
_atom_site_fract_y
_atom_site_fract_z
Si Si1 0.469489 0.670902 0.420580
Si Si2 0.558937 0.823826 0.675861
Si Si3 0.232335 0.327292 0.179683
Si Si4 0.080741 0.174886 0.325176
Si Si5 0.131970 0.170208 0.832538
Si Si6 0.739977 0.326609 0.036912
Si Si7 0.994132 0.174152 0.951832
Si Si8 0.686940 0.329491 0.583044
O O1 0.459244 0.500000 0.401084
O O2 0.465879 0.781841 0.381832
O O3 0.364904 0.708963 0.399171
O O4 0.590657 0.696967 0.502194
O O5 0.683635 0.758854 0.748940
O O6 0.456956 0.758965 0.653239
O O7 0.560675 0.000000 0.681566
O O8 0.234407 0.500000 0.192633
O O9 0.272720 0.301823 0.154391
O O10 0.103682 0.262979 0.120642
O O11 0.207776 0.220309 0.374205
O O12 0.993312 0.215780 0.246256
O O13 0.075222 0.000000 0.331795
O O14 0.159690 0.271588 0.884027
O O15 0.133119 0.000000 0.847408
O O16 0.756906 0.500000 0.039576
O O17 0.750000 0.250000 0.000000
O O18 0.615247 0.284498 0.992185
O O19 0.964528 0.000000 0.934923
O O20 0.000000 0.229611 0.000000
O O21 0.730097 0.500000 0.603325
#
# Coordination Sequence:
#
# PCOD8100211 Si02
#       8
#     8   8   8   8   8   8   8   8
#     4   9  19  38  60  83 115 149 185 230 280 330
#     4  11  22  36  57  84 115 150 188 232 280 328
#     4  10  20  35  58  85 112 144 183 231 281 330
#     4  10  21  37  58  85 115 148 186 232 279 331
#     4   9  19  36  56  79 109 145 182 224 278 330
#     4  11  23  38  57  80 111 146 182 229 278 327
#     4  10  20  36  58  84 110 141 184 230 275 327
#     4   9  19  37  61  85 111 149 189 228 276 335
#
# _framework density 18.382850999999999
#
# number of rings (size 3 to 8) (size 9 to 14) (size 15 to 20)
#    0.000    2.125    1.250    3.750    0.000    5.250 
#    2.250    1.250    0.000    0.000    0.000    0.000 
#    0.000    0.000    0.000    0.000    0.000    0.000 
#
# Total GULP energy -396906.068681 kJ/mol
# GULP energy per Si atom -12403.314646 kJ/mol
# Density = 1.834101 g / cm^3
# Si number density = 18.382851 Si / 1000 Ang^3
#
#
#
# Elastic Constant Matrix: (Units=GPa)
#
#
# Indices 1 2 3 4 5 6 
#
# 1 103.6279 64.0807 65.3882 0.0000 -5.8803 -0.0002
# 2 64.0807 103.0581 59.2790 -0.0001 -1.2693 -0.0003
# 3 65.3882 59.2790 99.4573 0.0000 -0.3872 0.0001
# 4 0.0000 -0.0001 0.0000 36.7673 0.0000 0.5196
# 5 -5.8803 -1.2693 -0.3872 0.0000 29.5508 0.0000
# 6 -0.0002 -0.0003 0.0001 0.5196 0.0000 32.7984
#
#
#
# Elastic Compliance Matrix: (Units=1/GPa)
#
#
# Indices 1 2 3 4 5 6 
#
# 1 0.019841 -0.007302 -0.008679 0.000000 0.003521 0.000000
# 2 -0.007302 0.017460 -0.005609 0.000000 -0.000776 0.000000
# 3 -0.008679 -0.005609 0.019097 0.000000 -0.001718 0.000000
# 4 0.000000 0.000000 0.000000 0.027204 0.000000 -0.000431
# 5 0.003521 -0.000776 -0.001718 0.000000 0.034485 0.000000
# 6 0.000000 0.000000 0.000000 -0.000431 0.000000 0.030496
#
#
# Mechanical properties :
#
#
# Convention : Reuss Voigt Hill
#
# Bulk Modulus (GPa) = 75.64963 75.95993 75.80478
# Shear Modulus (GPa) = 25.48815 27.64965 26.56890
#
# Velocity S-wave (km/s) = 3.72764 3.88248 3.80585
# Velocity P-wave (km/s) = 7.73102 7.84277 7.78709
#
# Compressibility (1/GPa) = 0.01321884
#
# Stress axis : x y z
#
# Youngs Moduli (GPa) = 50.40041 57.27296 52.36391
#
# Poissons Ratio (x) = 0.41818 0.45446
# Poissons Ratio (y) = 0.36800 0.29373
# Poissons Ratio (z) = 0.43742 0.32126
#
# Static dielectric constant tensor:
#      x y z
#    x 3.250630 0.000000 0.040580 
#    y 0.000000 3.348870 0.000000 
#    z 0.040580 0.000000 3.357560 
# 
# 
# High freq. dielectric constant tensor:
#      x y z
#    x 1.703940 0.000000 0.002330 
#    y 0.000000 1.717040 0.000000 
#    z 0.002330 0.000000 1.717860 
# 
# From -- ./inp_files/378417.got.cif
#   From: 2010.06.25/outbox.cif.g09.slc.cpg/sg12_190_cif.got.tgz:378417.got - 2010.06.28 00:19:55.
