data_PCOD8100617
_publ_section_title
;
Structure prediction by ZEFSAII (Michael W. Deem and Ramdas Pophale) SiO2 
 PCOD8100617
Probable space group: C 2/M
;
_chemical_formula_sum "Si O2"
_cell_formula_units_Z 40
_cell_length_a 19.149070
_cell_length_b 19.209360
_cell_length_c 11.906582
_cell_angle_alpha 90.000000
_cell_angle_beta 154.563444
_cell_angle_gamma 90.000000
_cell_volume 1881.145462
_symmetry_space_group_name_H-M "C 2/M"
_symmetry_group_IT_number 12
_symmetry_cell_setting 'monoclinic'
loop_
_space_group_symop_operation_xyz
x,y,z
-x,y,-z
-x,-y,-z
x,-y,z
1/2+x,1/2+y,z
1/2-x,1/2+y,-z
1/2-x,1/2-y,-z
1/2+x,1/2-y,z
loop_
_atom_site_type_symbol
_atom_site_label
_atom_site_fract_x
_atom_site_fract_y
_atom_site_fract_z
Si Si1 0.369806 0.692760 0.411480
Si Si2 0.670604 0.419961 0.286027
Si Si3 0.340517 0.713099 0.031218
Si Si4 0.689206 0.081720 0.277541
Si Si5 0.319068 0.079146 0.269493
O O1 0.500000 0.681909 0.500000
O O2 0.466967 0.719822 0.663824
O O3 0.280927 0.620104 0.308758
O O4 0.227863 0.749469 0.180119
O O5 0.631999 0.500000 0.255910
O O6 0.740964 0.388327 0.503025
O O7 0.803382 0.412212 0.380737
O O8 0.500000 0.383648 0.000000
O O9 0.250000 0.750000 0.000000
O O10 0.302851 0.630418 0.972316
O O11 0.718439 0.000000 0.303729
O O12 0.500000 0.100032 0.000000
O O13 0.500000 0.101333 0.500000
O O14 0.279194 0.000000 0.174014
#
# Coordination Sequence:
#
# PCOD8100617 Si02
#       5
#     8   8   8   8   8
#     4  10  22  40  63  85 115 161 204 243 294 359
#     4   9  18  34  55  80 113 150 188 235 287 337
#     4  10  21  39  60  87 123 156 191 250 307 345
#     4  10  22  40  60  88 127 159 189 244 310 357
#     4  10  20  35  60  89 113 149 204 251 288 345
#
# _framework density 21.263641
#
# number of rings (size 3 to 8) (size 9 to 14) (size 15 to 20)
#    0.000    2.200    0.000    3.000    0.000    7.600 
#    0.000   12.000    0.000    0.000    0.000    0.000 
#    0.000    0.000    0.000    0.000    0.000    0.000 
#
# Total GULP energy -247885.221632 kJ/mol
# GULP energy per Si atom -12394.261082 kJ/mol
# Density = 2.121524 g / cm^3
# Si number density = 21.263641 Si / 1000 Ang^3
#
#
#
# Elastic Constant Matrix: (Units=GPa)
#
#
# Indices 1 2 3 4 5 6 
#
# 1 75.9010 33.6834 50.9721 0.0000 8.2350 0.0000
# 2 33.6834 94.2271 58.6386 0.0000 -10.5962 0.0000
# 3 50.9721 58.6386 183.7643 0.0000 -15.9710 0.0000
# 4 0.0000 0.0000 0.0000 24.7096 0.0000 -2.2929
# 5 8.2350 -10.5962 -15.9710 0.0000 31.5685 0.0000
# 6 0.0000 0.0000 0.0000 -2.2929 0.0000 24.3480
#
#
#
# Elastic Compliance Matrix: (Units=1/GPa)
#
#
# Indices 1 2 3 4 5 6 
#
# 1 0.019522 -0.005168 -0.004560 0.000000 -0.009134 0.000000
# 2 -0.005168 0.014789 -0.002863 0.000000 0.004864 0.000000
# 3 -0.004560 -0.002863 0.007991 0.000000 0.004271 0.000000
# 4 0.000000 0.000000 0.000000 0.040827 0.000000 0.003845
# 5 -0.009134 0.004864 0.004271 0.000000 0.037853 0.000000
# 6 0.000000 0.000000 0.000000 0.003845 0.000000 0.041433
#
#
# Mechanical properties :
#
#
# Convention : Reuss Voigt Hill
#
# Bulk Modulus (GPa) = 58.40933 71.16451 64.78692
# Shear Modulus (GPa) = 25.86620 30.16510 28.01565
#
# Velocity S-wave (km/s) = 3.49155 3.77055 3.63373
# Velocity P-wave (km/s) = 6.61690 7.24544 6.93829
#
# Compressibility (1/GPa) = 0.01712055
#
# Stress axis : x y z
#
# Youngs Moduli (GPa) = 51.22535 67.61986 125.13757
#
# Poissons Ratio (x) = 0.34946 0.57057
# Poissons Ratio (y) = 0.26474 0.35824
# Poissons Ratio (z) = 0.23357 0.19358
#
# Static dielectric constant tensor:
#      x y z
#    x 3.676400 0.000000 -0.275200 
#    y 0.000000 3.796990 0.000000 
#    z -0.275200 0.000000 4.551590 
# 
# 
# High freq. dielectric constant tensor:
#      x y z
#    x 1.816770 0.000000 -0.003500 
#    y 0.000000 1.818820 0.000000 
#    z -0.003500 0.000000 1.846090 
# 
# From -- ./inp_files/158489.got.cif
#   From: 2010.06.25/outbox.cif.g09.slc.cpg/sg12_80_cif.got.tgz:158489.got - 2010.06.28 00:19:55.
