data_PCOD8100608
_publ_section_title
;
Structure prediction by ZEFSAII (Michael W. Deem and Ramdas Pophale) SiO2 
 PCOD8100608
Probable space group: C 2/M
;
_chemical_formula_sum "Si O2"
_cell_formula_units_Z 64
_cell_length_a 33.057866
_cell_length_b 14.365972
_cell_length_c 22.840817
_cell_angle_alpha 90.000000
_cell_angle_beta 162.078928
_cell_angle_gamma 90.000000
_cell_volume 3337.784047
_symmetry_space_group_name_H-M "C 2/M"
_symmetry_group_IT_number 12
_symmetry_cell_setting 'monoclinic'
loop_
_space_group_symop_operation_xyz
x,y,z
-x,y,-z
-x,-y,-z
x,-y,z
1/2+x,1/2+y,z
1/2-x,1/2+y,-z
1/2-x,1/2-y,-z
1/2+x,1/2-y,z
loop_
_atom_site_type_symbol
_atom_site_label
_atom_site_fract_x
_atom_site_fract_y
_atom_site_fract_z
Si Si1 0.400918 0.227097 0.412283
Si Si2 0.960434 0.745360 0.278047
Si Si3 0.731204 0.602148 0.832589
Si Si4 0.263456 0.394563 0.028004
Si Si5 0.969584 0.252625 0.894249
Si Si6 0.198668 0.893164 0.200741
Si Si7 0.482658 0.897141 0.809582
Si Si8 0.191882 0.326614 0.529007
O O1 0.500000 0.184639 0.500000
O O2 0.477654 0.263792 0.573845
O O3 0.332918 0.319348 0.294612
O O4 0.293830 0.149314 0.282035
O O5 0.861587 0.829838 0.124738
O O6 0.074703 0.743293 0.386685
O O7 0.883174 0.647307 0.175941
O O8 0.695297 0.500000 0.756957
O O9 0.680776 0.608243 0.829413
O O10 0.888092 0.614871 0.051869
O O11 0.260133 0.500000 0.998572
O O12 0.998492 0.327527 0.885015
O O13 0.816608 0.229854 0.678232
O O14 0.000000 0.296049 0.000000
O O15 0.060429 0.161365 0.010768
O O16 0.268694 0.889492 0.360787
O O17 0.169174 0.000000 0.144345
O O18 0.357541 0.884428 0.594902
O O19 0.472108 0.000000 0.822352
#
# Coordination Sequence:
#
# PCOD8100608 Si02
#       8
#     8   8   8   8   8   8   8   8
#     4  11  21  36  57  84 121 151 188 232 285 340
#     4  10  21  35  58  85 116 151 186 235 281 332
#     4  10  20  35  60  88 114 147 191 237 281 336
#     4  10  20  37  59  85 115 150 189 232 283 334
#     4  10  22  40  61  84 117 150 185 235 293 341
#     4  10  22  39  58  83 115 152 195 237 281 336
#     4  11  21  37  62  87 114 147 188 235 285 341
#     4  10  21  37  61  86 111 147 195 242 280 329
#
# _framework density 19.174396999999999
#
# number of rings (size 3 to 8) (size 9 to 14) (size 15 to 20)
#    0.000    1.750    3.750    0.750    0.000    6.000 
#    0.000    0.625    0.000    0.000    0.000    0.000 
#    0.000    0.000    0.000    0.000    0.000    0.000 
#
# Total GULP energy -396738.356269 kJ/mol
# GULP energy per Si atom -12398.073633 kJ/mol
# Density = 1.913076 g / cm^3
# Si number density = 19.174397 Si / 1000 Ang^3
#
#
#
# Elastic Constant Matrix: (Units=GPa)
#
#
# Indices 1 2 3 4 5 6 
#
# 1 69.7446 40.1883 31.3650 0.0000 10.2734 0.0000
# 2 40.1883 130.8717 52.0484 0.0000 3.8217 0.0000
# 3 31.3650 52.0484 99.9921 0.0001 9.4218 0.0001
# 4 0.0000 0.0000 0.0001 18.1011 0.0000 -4.8497
# 5 10.2734 3.8217 9.4218 0.0000 36.9347 0.0000
# 6 0.0000 0.0000 0.0001 -4.8497 0.0000 14.5681
#
#
#
# Elastic Compliance Matrix: (Units=1/GPa)
#
#
# Indices 1 2 3 4 5 6 
#
# 1 0.018928 -0.004394 -0.003276 0.000000 -0.003975 0.000000
# 2 -0.004394 0.010659 -0.004284 0.000000 0.001212 0.000000
# 3 -0.003276 -0.004284 0.013454 0.000000 -0.002078 0.000000
# 4 0.000000 0.000000 0.000000 0.060655 0.000000 0.020192
# 5 -0.003975 0.001212 -0.002078 0.000000 0.028585 0.000000
# 6 0.000000 0.000000 0.000000 0.020192 0.000000 0.075365
#
#
# Mechanical properties :
#
#
# Convention : Reuss Voigt Hill
#
# Bulk Modulus (GPa) = 52.26325 60.86798 56.56562
# Shear Modulus (GPa) = 21.01442 25.72121 23.36782
#
# Velocity S-wave (km/s) = 3.31412 3.66653 3.49477
# Velocity P-wave (km/s) = 6.47769 7.05251 6.77121
#
# Compressibility (1/GPa) = 0.01913390
#
# Stress axis : x y z
#
# Youngs Moduli (GPa) = 52.83066 93.81981 74.32669
#
# Poissons Ratio (x) = 0.41221 0.24348
# Poissons Ratio (y) = 0.23212 0.31843
# Poissons Ratio (z) = 0.17306 0.40194
#
# Static dielectric constant tensor:
#      x y z
#    x 3.473000 0.000000 0.153360 
#    y 0.000000 3.372550 0.000000 
#    z 0.153360 0.000000 3.597370 
# 
# 
# High freq. dielectric constant tensor:
#      x y z
#    x 1.736580 0.000000 0.007180 
#    y 0.000000 1.732680 0.000000 
#    z 0.007180 0.000000 1.758270 
# 
# From -- ./inp_files/189447.got.cif
#   From: 2010.06.25/outbox.cif.g09.slc.cpg/sg12_95_cif.got.tgz:189447.got - 2010.06.28 00:19:55.
