data_PCOD8100342
_publ_section_title
;
Structure prediction by ZEFSAII (Michael W. Deem and Ramdas Pophale) SiO2 
 PCOD8100342
Probable space group: C 2/M
;
_chemical_formula_sum "Si O2"
_cell_formula_units_Z 56
_cell_length_a 19.238883
_cell_length_b 9.103582
_cell_length_c 20.208674
_cell_angle_alpha 90.000000
_cell_angle_beta 55.868741
_cell_angle_gamma 90.000000
_cell_volume 2929.755968
_symmetry_space_group_name_H-M "C 2/M"
_symmetry_group_IT_number 12
_symmetry_cell_setting 'monoclinic'
loop_
_space_group_symop_operation_xyz
x,y,z
-x,y,-z
-x,-y,-z
x,-y,z
1/2+x,1/2+y,z
1/2-x,1/2+y,-z
1/2-x,1/2-y,-z
1/2+x,1/2-y,z
loop_
_atom_site_type_symbol
_atom_site_label
_atom_site_fract_x
_atom_site_fract_y
_atom_site_fract_z
Si Si1 0.176549 0.326883 0.189231
Si Si2 0.612663 0.829444 0.736560
Si Si3 0.307258 0.667332 0.019288
Si Si4 0.793917 0.829267 0.692078
Si Si5 0.908015 0.331769 0.531135
Si Si6 0.944799 0.172595 0.851221
Si Si7 0.167683 0.332885 0.565314
O O1 0.157484 0.500000 0.204344
O O2 0.272747 0.294947 0.111437
O O3 0.169398 0.256888 0.265017
O O4 0.107233 0.254704 0.178389
O O5 0.694534 0.803293 0.737743
O O6 0.538089 0.734999 0.807598
O O7 0.628780 0.769100 0.653649
O O8 0.586597 0.000000 0.749280
O O9 0.287438 0.500000 0.015702
O O10 0.250000 0.750000 0.000000
O O11 0.403682 0.701314 0.946839
O O12 0.838598 0.769495 0.602486
O O13 0.814936 0.000000 0.689009
O O14 0.894941 0.500000 0.561415
O O15 0.900919 0.318452 0.455772
O O16 0.000000 0.273538 0.500000
O O17 0.947080 0.000000 0.833263
O O18 0.194580 0.500000 0.564256
O O19 0.250000 0.250000 0.500000
#
# Coordination Sequence:
#
# PCOD8100342 Si02
#       7
#     8   8   8   8   8   8   8
#     4  10  20  36  59  83 112 149 184 225 282 334
#     4  10  22  38  55  79 114 152 186 226 276 328
#     4   8  16  32  54  81 111 142 179 225 273 326
#     4  11  23  39  56  80 114 149 188 234 278 324
#     4  10  22  38  58  83 109 143 185 230 279 334
#     4  10  20  35  58  88 114 141 185 231 272 328
#     4  10  20  37  58  79 107 144 185 225 273 329
#
# _framework density 19.11422
#
# number of rings (size 3 to 8) (size 9 to 14) (size 15 to 20)
#    0.000    2.143    1.429    1.286    2.000    3.143 
#    0.000    0.714    0.000    4.286    0.000    0.000 
#    0.000    0.000    0.000    0.000    0.000    0.000 
#
# Total GULP energy -347046.728020 kJ/mol
# GULP energy per Si atom -12394.526001 kJ/mol
# Density = 1.907071 g / cm^3
# Si number density = 19.114220 Si / 1000 Ang^3
#
#
#
# Elastic Constant Matrix: (Units=GPa)
#
#
# Indices 1 2 3 4 5 6 
#
# 1 62.9334 24.4512 5.0003 0.0000 -11.2371 -0.0001
# 2 24.4512 75.0194 23.8140 0.0001 -10.7301 -0.0005
# 3 5.0003 23.8140 53.1192 0.0000 -15.5603 0.0000
# 4 0.0000 0.0001 0.0000 28.4216 0.0000 -4.9366
# 5 -11.2371 -10.7301 -15.5603 0.0000 32.7199 0.0000
# 6 -0.0001 -0.0005 0.0000 -4.9366 0.0000 28.2029
#
#
#
# Elastic Compliance Matrix: (Units=1/GPa)
#
#
# Indices 1 2 3 4 5 6 
#
# 1 0.019148 -0.006270 0.002710 0.000000 0.005809 0.000000
# 2 -0.006270 0.017717 -0.007298 0.000000 0.000186 0.000000
# 3 0.002710 -0.007298 0.024880 0.000000 0.010369 0.000000
# 4 0.000000 0.000000 0.000000 0.036288 0.000000 0.006352
# 5 0.005809 0.000186 0.010369 0.000000 0.037550 0.000000
# 6 0.000000 0.000000 0.000000 0.006352 0.000000 0.036569
#
#
# Mechanical properties :
#
#
# Convention : Reuss Voigt Hill
#
# Bulk Modulus (GPa) = 24.98251 33.06701 29.02476
# Shear Modulus (GPa) = 24.13013 27.05598 25.59306
#
# Velocity S-wave (km/s) = 3.55691 3.76638 3.66314
# Velocity P-wave (km/s) = 5.47424 6.02091 5.75407
#
# Compressibility (1/GPa) = 0.04002800
#
# Stress axis : x y z
#
# Youngs Moduli (GPa) = 52.22531 56.44349 40.19337
#
# Poissons Ratio (x) = 0.35392 -0.10893
# Poissons Ratio (y) = 0.32747 0.29333
# Poissons Ratio (z) = -0.14154 0.41192
#
# Static dielectric constant tensor:
#      x y z
#    x 3.329700 0.000000 -0.104380 
#    y 0.000000 3.504500 0.000000 
#    z -0.104380 0.000000 4.172150 
# 
# 
# High freq. dielectric constant tensor:
#      x y z
#    x 1.724510 0.000000 -0.006330 
#    y 0.000000 1.746880 0.000000 
#    z -0.006330 0.000000 1.753070 
# 
# From -- ./inp_files/280992.got.cif
#   From: 2010.06.25/outbox.cif.g09.slc.cpg/sg12_141_cif.got.tgz:280992.got - 2010.06.28 00:19:55.
