data_PCOD8100655
_publ_section_title
;
Structure prediction by ZEFSAII (Michael W. Deem and Ramdas Pophale) SiO2 
 PCOD8100655
Probable space group: C 2/M
;
_chemical_formula_sum "Si O2"
_cell_formula_units_Z 48
_cell_length_a 26.103999
_cell_length_b 14.444541
_cell_length_c 8.452103
_cell_angle_alpha 90.000000
_cell_angle_beta 44.181540
_cell_angle_gamma 90.000000
_cell_volume 2221.095730
_symmetry_space_group_name_H-M "C 2/M"
_symmetry_group_IT_number 12
_symmetry_cell_setting 'monoclinic'
loop_
_space_group_symop_operation_xyz
x,y,z
-x,y,-z
-x,-y,-z
x,-y,z
1/2+x,1/2+y,z
1/2-x,1/2+y,-z
1/2-x,1/2-y,-z
1/2+x,1/2-y,z
loop_
_atom_site_type_symbol
_atom_site_label
_atom_site_fract_x
_atom_site_fract_y
_atom_site_fract_z
Si Si1 0.081814 0.102837 0.260887
Si Si2 0.785521 0.188787 0.553753
Si Si3 0.004014 0.397650 0.678196
Si Si4 0.426886 0.609251 0.077268
Si Si5 0.365323 0.228959 0.655256
Si Si6 0.845098 0.605131 0.991005
O O1 0.120680 0.171457 0.296596
O O2 0.000000 0.091694 0.500000
O O3 0.119289 0.000000 0.183342
O O4 0.083186 0.146065 0.080285
O O5 0.750000 0.250000 0.500000
O O6 0.857152 0.135066 0.337080
O O7 0.804930 0.257226 0.654470
O O8 0.723840 0.115147 0.740763
O O9 0.024563 0.500000 0.703679
O O10 0.000000 0.404850 0.500000
O O11 0.063240 0.318177 0.588169
O O12 0.921337 0.366356 0.913822
O O13 0.435219 0.500000 0.048291
O O14 0.500000 0.650763 0.000000
O O15 0.331341 0.162439 0.862091
O O16 0.853220 0.500000 0.917797
#
# Coordination Sequence:
#
# PCOD8100655 Si02
#       6
#     8   8   8   8   8   8
#     4  10  20  35  60  92 120 153 205 261 307 361
#     4  12  26  40  56  86 128 167 201 249 316 374
#     4   8  16  34  62  91 115 145 192 250 303 351
#     4  10  22  41  62  85 119 161 203 250 306 367
#     4  11  21  38  64  90 119 161 212 260 302 363
#     4  10  21  40  65  92 123 159 204 256 309 367
#
# _framework density 21.610956000000002
#
# number of rings (size 3 to 8) (size 9 to 14) (size 15 to 20)
#    0.000    1.833    0.000    6.000    0.000    4.000 
#    0.000    5.000    0.000    2.000    0.000    0.000 
#    0.000    0.667    0.000    0.000    0.000    0.000 
#
# Total GULP energy -297512.144472 kJ/mol
# GULP energy per Si atom -12396.339353 kJ/mol
# Density = 2.156177 g / cm^3
# Si number density = 21.610956 Si / 1000 Ang^3
#
#
#
# Elastic Constant Matrix: (Units=GPa)
#
#
# Indices 1 2 3 4 5 6 
#
# 1 115.4121 47.3211 31.4072 0.0000 -0.9497 0.0000
# 2 47.3211 90.5386 23.4150 0.0000 0.1605 0.0000
# 3 31.4072 23.4150 133.4450 0.0000 -20.6931 0.0000
# 4 0.0000 0.0000 0.0000 53.7215 0.0000 -86.0399
# 5 -0.9497 0.1605 -20.6931 0.0000 31.2277 0.0000
# 6 0.0000 0.0000 0.0000 -86.0399 0.0000 329.1581
#
#
#
# Elastic Compliance Matrix: (Units=1/GPa)
#
#
# Indices 1 2 3 4 5 6 
#
# 1 0.011411 -0.005482 -0.001856 0.000000 -0.000855 0.000000
# 2 -0.005482 0.014273 -0.001395 0.000000 -0.001164 0.000000
# 3 -0.001856 -0.001395 0.009103 0.000000 0.005983 0.000000
# 4 0.000000 0.000000 0.000000 0.032019 0.000000 0.008370
# 5 -0.000855 -0.001164 0.005983 0.000000 0.035967 0.000000
# 6 0.000000 0.000000 0.000000 0.008370 0.000000 0.005226
#
#
# Mechanical properties :
#
#
# Convention : Reuss Voigt Hill
#
# Bulk Modulus (GPa) = 57.73515 60.40914 59.07214
# Shear Modulus (GPa) = 38.09843 98.63829 68.36836
#
# Velocity S-wave (km/s) = 4.20327 6.76327 5.63069
# Velocity P-wave (km/s) = 7.09439 9.43413 8.34665
#
# Compressibility (1/GPa) = 0.01732047
#
# Stress axis : x y z
#
# Youngs Moduli (GPa) = 87.63834 70.06158 109.85328
#
# Poissons Ratio (x) = 0.38410 0.20390
# Poissons Ratio (y) = 0.48046 0.15321
# Poissons Ratio (z) = 0.16267 0.09771
#
# Static dielectric constant tensor:
#      x y z
#    x 3.587210 0.000000 0.658620 
#    y 0.000000 3.510750 0.000000 
#    z 0.658620 0.000000 1.647140 
# 
# 
# High freq. dielectric constant tensor:
#      x y z
#    x 1.825020 0.000000 -0.010430 
#    y 0.000000 1.854240 0.000000 
#    z -0.010430 0.000000 1.853590 
# 
# From -- ./inp_files/104961.got.cif
#   From: 2010.06.25/outbox.cif.g09.slc.cpg/sg12_53_cif.got.tgz:104961.got - 2010.06.28 00:19:55.
