data_PCOD8100093
_publ_section_title
;
Structure prediction by ZEFSAII (Michael W. Deem and Ramdas Pophale) SiO2 
 PCOD8100093
Probable space group: C 2/M
;
_chemical_formula_sum "Si O2"
_cell_formula_units_Z 64
_cell_length_a 25.427660
_cell_length_b 9.240957
_cell_length_c 32.323410
_cell_angle_alpha 90.000000
_cell_angle_beta 153.152749
_cell_angle_gamma 90.000000
_cell_volume 3430.105060
_symmetry_space_group_name_H-M "C 2/M"
_symmetry_group_IT_number 12
_symmetry_cell_setting 'monoclinic'
loop_
_space_group_symop_operation_xyz
x,y,z
-x,y,-z
-x,-y,-z
x,-y,z
1/2+x,1/2+y,z
1/2-x,1/2+y,-z
1/2-x,1/2-y,-z
1/2+x,1/2-y,z
loop_
_atom_site_type_symbol
_atom_site_label
_atom_site_fract_x
_atom_site_fract_y
_atom_site_fract_z
Si Si1 0.054788 0.170907 0.995731
Si Si2 0.312758 0.668152 0.675484
Si Si3 0.649769 0.670379 0.205294
Si Si4 0.397336 0.666298 0.513861
Si Si5 0.654641 0.662390 0.704761
Si Si6 0.712013 0.338193 0.838047
Si Si7 0.014714 0.162751 0.276401
Si Si8 0.366855 0.169196 0.573488
O O1 0.971201 0.223162 0.899828
O O2 0.067200 0.000000 0.005773
O O3 0.182567 0.232271 0.078359
O O4 0.000000 0.229347 0.000000
O O5 0.275535 0.500000 0.648416
O O6 0.348397 0.721471 0.745950
O O7 0.199966 0.762155 0.583591
O O8 0.428170 0.693193 0.728350
O O9 0.660198 0.500000 0.209161
O O10 0.758420 0.730200 0.256467
O O11 0.359533 0.500000 0.496619
O O12 0.531600 0.670436 0.592983
O O13 0.416181 0.764166 0.566851
O O14 0.703343 0.500000 0.734554
O O15 0.647224 0.701252 0.748925
O O16 0.762209 0.500000 0.870158
O O17 0.625144 0.328852 0.817018
O O18 0.052588 0.295109 0.331515
O O19 0.054390 0.000000 0.318797
O O20 0.250000 0.250000 0.500000
O O21 0.347992 0.000000 0.555035
#
# Coordination Sequence:
#
# PCOD8100093 Si02
#       8
#     8   8   8   8   8   8   8   8
#     4  10  20  36  59  86 114 143 182 236 292 342
#     4  10  22  39  59  80 110 158 200 232 279 338
#     4  10  22  40  59  82 113 149 193 238 285 347
#     4  11  22  37  56  83 118 152 194 239 282 337
#     4  10  21  36  56  84 116 148 184 234 293 343
#     4  10  20  35  57  87 117 143 181 235 291 347
#     4  10  20  37  57  81 115 151 192 236 282 335
#     4  12  22  32  52  82 114 149 192 237 283 329
#
# _framework density 18.658321000000001
#
# number of rings (size 3 to 8) (size 9 to 14) (size 15 to 20)
#    0.000    1.625    3.750    1.500    0.000    3.250 
#    0.000    3.125    0.000    0.000    0.000    0.000 
#    0.000    0.000    0.000    0.000    0.000    0.000 
#
# Total GULP energy -396488.065933 kJ/mol
# GULP energy per Si atom -12390.252060 kJ/mol
# Density = 1.861585 g / cm^3
# Si number density = 18.658321 Si / 1000 Ang^3
#
#
#
# Elastic Constant Matrix: (Units=GPa)
#
#
# Indices 1 2 3 4 5 6 
#
# 1 89.1456 28.9196 59.8511 -0.0009 -3.1991 -0.0004
# 2 28.9196 66.4365 41.1578 -0.0047 0.0321 -0.0008
# 3 59.8511 41.1578 125.3579 -0.0045 2.3208 -0.0005
# 4 -0.0009 -0.0047 -0.0045 29.5559 0.0005 4.5069
# 5 -3.1991 0.0321 2.3208 0.0005 29.7091 0.0001
# 6 -0.0004 -0.0008 -0.0005 4.5069 0.0001 23.4724
#
#
#
# Elastic Compliance Matrix: (Units=1/GPa)
#
#
# Indices 1 2 3 4 5 6 
#
# 1 0.017136 -0.002968 -0.007252 -0.000001 0.002415 0.000000
# 2 -0.002968 0.019416 -0.004958 0.000002 0.000047 0.000000
# 3 -0.007252 -0.004958 0.013101 0.000001 -0.001799 0.000000
# 4 -0.000001 0.000002 0.000001 0.034855 -0.000001 -0.006692
# 5 0.002415 0.000047 -0.001799 -0.000001 0.034060 0.000000
# 6 0.000000 0.000000 0.000000 -0.006692 0.000000 0.043888
#
#
# Mechanical properties :
#
#
# Convention : Reuss Voigt Hill
#
# Bulk Modulus (GPa) = 51.82388 60.08857 55.95622
# Shear Modulus (GPa) = 25.09496 26.61489 25.85493
#
# Velocity S-wave (km/s) = 3.67137 3.78092 3.72654
# Velocity P-wave (km/s) = 6.76812 7.16485 6.96931
#
# Compressibility (1/GPa) = 0.01929612
#
# Stress axis : x y z
#
# Youngs Moduli (GPa) = 58.35781 51.50482 76.33205
#
# Poissons Ratio (x) = 0.15286 0.55353
# Poissons Ratio (y) = 0.17320 0.37849
# Poissons Ratio (z) = 0.42319 0.25539
#
# Static dielectric constant tensor:
#      x y z
#    x 3.449500 0.000000 -0.009800 
#    y 0.000000 3.166720 0.000000 
#    z -0.009800 0.000000 3.482440 
# 
# 
# High freq. dielectric constant tensor:
#      x y z
#    x 1.716600 0.000000 0.012920 
#    y 0.000000 1.725190 0.000000 
#    z 0.012920 0.000000 1.715480 
# 
# From -- ./inp_files/382448.got.cif
#   From: 2010.06.25/outbox.cif.g09.slc.cpg/sg12_192_cif.got.tgz:382448.got - 2010.06.28 00:19:55.
