data_PCOD8100871
_publ_section_title
;
Structure prediction by ZEFSAII (Michael W. Deem and Ramdas Pophale) SiO2 
 PCOD8100871
Probable space group: C 2/M
;
_chemical_formula_sum "Si O2"
_cell_formula_units_Z 56
_cell_length_a 20.260953
_cell_length_b 8.550816
_cell_length_c 31.424373
_cell_angle_alpha 90.000000
_cell_angle_beta 149.551773
_cell_angle_gamma 90.000000
_cell_volume 2758.900378
_symmetry_space_group_name_H-M "C 2/M"
_symmetry_group_IT_number 12
_symmetry_cell_setting 'monoclinic'
loop_
_space_group_symop_operation_xyz
x,y,z
-x,y,-z
-x,-y,-z
x,-y,z
1/2+x,1/2+y,z
1/2-x,1/2+y,-z
1/2-x,1/2-y,-z
1/2+x,1/2-y,z
loop_
_atom_site_type_symbol
_atom_site_label
_atom_site_fract_x
_atom_site_fract_y
_atom_site_fract_z
Si Si1 0.900312 0.319133 0.622313
Si Si2 0.503990 0.318319 0.597733
Si Si3 0.104886 0.183641 0.253617
Si Si4 0.133191 0.317805 0.094137
Si Si5 0.217235 0.816823 0.229832
Si Si6 0.598116 0.682526 0.792689
Si Si7 0.693645 0.181559 0.567136
O O1 0.862728 0.500000 0.607198
O O2 0.790913 0.209767 0.581802
O O3 0.915219 0.278053 0.581308
O O4 0.039291 0.282519 0.721409
O O5 0.487779 0.500000 0.597643
O O6 0.653878 0.275030 0.685710
O O7 0.443363 0.271575 0.517834
O O8 0.111154 0.229808 0.207406
O O9 0.231753 0.250071 0.349586
O O10 0.968516 0.239536 0.199757
O O11 0.112447 0.000000 0.263456
O O12 0.121160 0.500000 0.098475
O O13 0.159514 0.229035 0.152548
O O14 0.246799 0.286532 0.122390
O O15 0.000000 0.252528 0.000000
O O16 0.248951 0.000000 0.248045
O O17 0.568750 0.500000 0.768022
O O18 0.660448 0.000000 0.553538
#
# Coordination Sequence:
#
# PCOD8100871 Si02
#       7
#     8   8   8   8   8   8   8
#     4  11  20  32  52  81 113 147 191 240 286 330
#     4  12  23  35  51  77 114 152 192 237 288 337
#     4   8  18  36  58  81 110 153 195 232 277 335
#     4  10  21  38  62  90 117 146 184 231 285 344
#     4  11  22  38  59  84 113 147 191 238 287 338
#     4   9  17  35  60  82 111 152 192 227 276 341
#     4  10  20  36  55  78 110 153 198 236 278 330
#
# _framework density 20.297941000000002
#
# number of rings (size 3 to 8) (size 9 to 14) (size 15 to 20)
#    0.000    1.857    1.429    4.714    0.000    0.857 
#    0.000   10.714    0.000    0.000    0.000    0.000 
#    0.000    0.000    0.000    0.000    0.000    0.000 
#
# Total GULP energy -347076.582791 kJ/mol
# GULP energy per Si atom -12395.592243 kJ/mol
# Density = 2.025174 g / cm^3
# Si number density = 20.297941 Si / 1000 Ang^3
#
#
#
# Elastic Constant Matrix: (Units=GPa)
#
#
# Indices 1 2 3 4 5 6 
#
# 1 94.3491 15.9795 53.2067 0.0001 -12.0373 0.0000
# 2 15.9795 61.9717 19.2016 0.0003 1.5432 -0.0007
# 3 53.2067 19.2016 120.8049 0.0000 13.4858 0.0002
# 4 0.0001 0.0003 0.0000 25.2448 0.0000 -0.5039
# 5 -12.0373 1.5432 13.4858 0.0000 17.3350 0.0001
# 6 0.0000 -0.0007 0.0002 -0.5039 0.0001 19.9090
#
#
#
# Elastic Compliance Matrix: (Units=1/GPa)
#
#
# Indices 1 2 3 4 5 6 
#
# 1 0.020119 -0.002337 -0.011030 0.000000 0.022759 0.000000
# 2 -0.002337 0.017250 -0.001489 0.000000 -0.002000 0.000001
# 3 -0.011030 -0.001489 0.015565 0.000000 -0.019635 0.000000
# 4 0.000000 0.000000 0.000000 0.039632 0.000000 0.001003
# 5 0.022759 -0.002000 -0.019635 0.000000 0.088944 0.000000
# 6 0.000000 0.000001 0.000000 0.001003 0.000000 0.050254
#
#
# Mechanical properties :
#
#
# Convention : Reuss Voigt Hill
#
# Bulk Modulus (GPa) = 43.06519 50.43348 46.74934
# Shear Modulus (GPa) = 18.57240 25.08028 21.82634
#
# Velocity S-wave (km/s) = 3.02816 3.51893 3.28273
# Velocity P-wave (km/s) = 5.78696 6.43514 6.11964
#
# Compressibility (1/GPa) = 0.02322061
#
# Stress axis : x y z
#
# Youngs Moduli (GPa) = 49.70489 57.97026 64.24831
#
# Poissons Ratio (x) = 0.13546 0.70868
# Poissons Ratio (y) = 0.11615 0.09570
# Poissons Ratio (z) = 0.54826 0.08635
#
# Static dielectric constant tensor:
#      x y z
#    x 3.913800 0.000000 0.054420 
#    y 0.000000 3.492810 0.000000 
#    z 0.054420 0.000000 3.649960 
# 
# 
# High freq. dielectric constant tensor:
#      x y z
#    x 1.794060 0.000000 0.005400 
#    y 0.000000 1.777020 0.000000 
#    z 0.005400 0.000000 1.774040 
# 
# From -- ./inp_files/281671.got.cif
#   From: 2010.06.25/outbox.cif.g09.slc.cpg/sg12_141_cif.got.tgz:281671.got - 2010.06.28 00:19:55.
