data_PCOD8100561
_publ_section_title
;
Structure prediction by ZEFSAII (Michael W. Deem and Ramdas Pophale) SiO2 
 PCOD8100561
Probable space group: C 2/M
;
_chemical_formula_sum "Si O2"
_cell_formula_units_Z 56
_cell_length_a 16.004578
_cell_length_b 8.887482
_cell_length_c 19.840916
_cell_angle_alpha 90.000000
_cell_angle_beta 101.315218
_cell_angle_gamma 90.000000
_cell_volume 2767.323912
_symmetry_space_group_name_H-M "C 2/M"
_symmetry_group_IT_number 12
_symmetry_cell_setting 'monoclinic'
loop_
_space_group_symop_operation_xyz
x,y,z
-x,y,-z
-x,-y,-z
x,-y,z
1/2+x,1/2+y,z
1/2-x,1/2+y,-z
1/2-x,1/2-y,-z
1/2+x,1/2-y,z
loop_
_atom_site_type_symbol
_atom_site_label
_atom_site_fract_x
_atom_site_fract_y
_atom_site_fract_z
Si Si1 0.058783 0.672845 0.350198
Si Si2 0.765505 0.674855 0.200894
Si Si3 0.972468 0.672303 0.071311
Si Si4 0.199845 0.175241 0.931794
Si Si5 0.231232 0.179026 0.425553
Si Si6 0.371354 0.178130 0.341995
Si Si7 0.602650 0.830326 0.208835
O O1 0.075613 0.500000 0.374336
O O2 0.137330 0.772429 0.387249
O O3 0.046815 0.685577 0.267620
O O4 0.969309 0.732271 0.368605
O O5 0.772316 0.500000 0.183658
O O6 0.763470 0.770993 0.133156
O O7 0.841533 0.726791 0.262406
O O8 0.677989 0.709352 0.226115
O O9 0.941019 0.500000 0.073649
O O10 0.898744 0.785419 0.079750
O O11 0.048603 0.707216 0.134090
O O12 0.000000 0.707882 0.000000
O O13 0.214733 0.000000 0.940039
O O14 0.250000 0.250000 0.000000
O O15 0.250000 0.250000 0.500000
O O16 0.305374 0.242067 0.387276
O O17 0.233717 0.000000 0.430369
O O18 0.368216 0.000000 0.345706
O O19 0.639465 0.000000 0.209465
#
# Coordination Sequence:
#
# PCOD8100561 Si02
#       7
#     8   8   8   8   8   8   8
#     4  10  20  38  63  90 122 165 212 255 305 369
#     4  11  21  38  63  89 121 161 205 253 307 368
#     4  10  21  38  59  84 118 159 202 252 310 371
#     4  12  25  40  58  84 117 156 204 257 313 371
#     4  11  23  42  64  92 127 164 208 258 315 374
#     4   9  20  39  64  91 124 166 208 248 305 379
#     4  10  20  35  59  90 124 159 202 253 310 369
#
# _framework density 20.236156000000001
#
# number of rings (size 3 to 8) (size 9 to 14) (size 15 to 20)
#    0.000    1.571    1.429    3.857    0.000    4.857 
#    0.000    7.143    0.000    0.000    0.000    0.000 
#    0.000    0.000    0.000    0.000    0.000    0.000 
#
# Total GULP energy -347213.205181 kJ/mol
# GULP energy per Si atom -12400.471614 kJ/mol
# Density = 2.019010 g / cm^3
# Si number density = 20.236156 Si / 1000 Ang^3
#
#
#
# Elastic Constant Matrix: (Units=GPa)
#
#
# Indices 1 2 3 4 5 6 
#
# 1 142.0132 38.5160 56.0048 0.0000 -2.6003 0.0000
# 2 38.5160 84.8848 37.9623 0.0000 -0.8077 0.0000
# 3 56.0048 37.9623 121.2986 0.0000 5.0692 0.0000
# 4 0.0000 0.0000 0.0000 2.1024 0.0000 -19.0749
# 5 -2.6003 -0.8077 5.0692 0.0000 27.9559 0.0000
# 6 0.0000 0.0000 0.0000 -19.0749 0.0000 21.9084
#
#
#
# Elastic Compliance Matrix: (Units=1/GPa)
#
#
# Indices 1 2 3 4 5 6 
#
# 1 0.009135 -0.002580 -0.003469 0.000000 0.001404 0.000000
# 2 -0.002580 0.014466 -0.003369 0.000000 0.000789 0.000000
# 3 -0.003469 -0.003369 0.011001 0.000000 -0.002415 0.000000
# 4 0.000000 0.000000 0.000000 -0.068939 0.000000 -0.060023
# 5 0.001404 0.000789 -0.002415 0.000000 0.036362 0.000000
# 6 0.000000 0.000000 0.000000 -0.060023 0.000000 -0.006616
#
#
# Mechanical properties :
#
#
# Convention : Reuss Voigt Hill
#
# Bulk Modulus (GPa) = 63.42921 68.12922 65.77921
# Shear Modulus (GPa) = 256.41283 24.77424 140.59354
#
# Velocity S-wave (km/s) = 11.26878 3.50273 8.34429
# Velocity P-wave (km/s) = 14.16779 7.07807 11.19878
#
# Compressibility (1/GPa) = 0.01576561
#
# Stress axis : x y z
#
# Youngs Moduli (GPa) = 109.46749 69.12956 90.90074
#
# Poissons Ratio (x) = 0.17837 0.31533
# Poissons Ratio (y) = 0.28246 0.30623
# Poissons Ratio (z) = 0.37973 0.23289
#
# Static dielectric constant tensor:
#      x y z
#    x 3.883140 0.000000 -0.108560 
#    y 0.000000 3.394230 0.000000 
#    z -0.108560 0.000000 3.745860 
# 
# 
# High freq. dielectric constant tensor:
#      x y z
#    x 1.799470 0.000000 -0.001480 
#    y 0.000000 1.771410 0.000000 
#    z -0.001480 0.000000 1.800350 
# 
# From -- ./inp_files/309023.got.cif
#   From: 2010.06.25/outbox.cif.g09.slc.cpg/sg12_155_cif.got.tgz:309023.got - 2010.06.28 00:19:55.
