data_PCOD8100241
_publ_section_title
;
Structure prediction by ZEFSAII (Michael W. Deem and Ramdas Pophale) SiO2 
 PCOD8100241
Probable space group: C 2/M
;
_chemical_formula_sum "Si O2"
_cell_formula_units_Z 56
_cell_length_a 17.634758
_cell_length_b 8.826479
_cell_length_c 19.600361
_cell_angle_alpha 90.000000
_cell_angle_beta 116.213211
_cell_angle_gamma 90.000000
_cell_volume 2737.091379
_symmetry_space_group_name_H-M "C 2/M"
_symmetry_group_IT_number 12
_symmetry_cell_setting 'monoclinic'
loop_
_space_group_symop_operation_xyz
x,y,z
-x,y,-z
-x,-y,-z
x,-y,z
1/2+x,1/2+y,z
1/2-x,1/2+y,-z
1/2-x,1/2-y,-z
1/2+x,1/2-y,z
loop_
_atom_site_type_symbol
_atom_site_label
_atom_site_fract_x
_atom_site_fract_y
_atom_site_fract_z
Si Si1 0.019217 0.324393 0.706597
Si Si2 0.359650 0.821916 0.877432
Si Si3 0.782302 0.324255 0.412941
Si Si4 0.290418 0.824403 0.260493
Si Si5 0.999473 0.174685 0.840884
Si Si6 0.117392 0.175499 0.433162
Si Si7 0.163974 0.175178 0.989850
O O1 0.002895 0.500000 0.715832
O O2 0.991332 0.225659 0.759927
O O3 0.964125 0.272424 0.620124
O O4 0.115856 0.292649 0.727734
O O5 0.270559 0.774009 0.810433
O O6 0.436725 0.773310 0.860893
O O7 0.372090 0.747826 0.955974
O O8 0.360679 0.000000 0.887417
O O9 0.806919 0.500000 0.429161
O O10 0.781088 0.269957 0.334580
O O11 0.853144 0.228019 0.480410
O O12 0.690550 0.290990 0.407425
O O13 0.265187 0.000000 0.243627
O O14 0.971926 0.000000 0.835666
O O15 0.095148 0.200111 0.903472
O O16 0.092977 0.000000 0.426161
O O17 0.181726 0.000000 0.010889
O O18 0.250000 0.250000 0.000000
#
# Coordination Sequence:
#
# PCOD8100241 Si02
#       7
#     8   8   8   8   8   8   8
#     4  11  23  38  59  87 118 154 197 245 296 352
#     4  12  25  40  63  92 121 156 199 246 293 348
#     4   9  19  37  59  82 111 151 197 243 295 354
#     4  10  22  40  61  85 118 159 199 244 298 353
#     4  11  24  42  63  87 118 157 199 243 294 351
#     4  10  20  35  58  85 115 153 195 244 298 353
#     4  11  24  42  65  92 124 160 197 242 295 350
#
# _framework density 20.459675000000001
#
# number of rings (size 3 to 8) (size 9 to 14) (size 15 to 20)
#    0.000    1.429    0.000    5.143    0.000   10.286 
#    0.000    2.857    0.000    0.000    0.000    0.000 
#    0.000    0.000    0.000    0.000    0.000    0.000 
#
# Total GULP energy -347419.587090 kJ/mol
# GULP energy per Si atom -12407.842396 kJ/mol
# Density = 2.041311 g / cm^3
# Si number density = 20.459675 Si / 1000 Ang^3
#
#
#
# Elastic Constant Matrix: (Units=GPa)
#
#
# Indices 1 2 3 4 5 6 
#
# 1 54.7717 27.9741 4.3891 0.0000 10.4579 0.0000
# 2 27.9741 100.6566 36.1981 0.0000 17.2674 0.0000
# 3 4.3891 36.1981 72.2110 0.0000 9.8264 0.0000
# 4 0.0000 0.0000 0.0000 39.6946 0.0000 -0.9943
# 5 10.4579 17.2674 9.8264 0.0000 35.7816 0.0000
# 6 0.0000 0.0000 0.0000 -0.9943 0.0000 32.1397
#
#
#
# Elastic Compliance Matrix: (Units=1/GPa)
#
#
# Indices 1 2 3 4 5 6 
#
# 1 0.022052 -0.006281 0.002361 0.000000 -0.004063 0.000000
# 2 -0.006281 0.014595 -0.006467 0.000000 -0.003431 0.000000
# 3 0.002361 -0.006467 0.017261 0.000000 -0.002309 0.000000
# 4 0.000000 0.000000 0.000000 0.025212 0.000000 0.000780
# 5 -0.004063 -0.003431 -0.002309 0.000000 0.031425 0.000000
# 6 0.000000 0.000000 0.000000 0.000780 0.000000 0.031138
#
#
# Mechanical properties :
#
#
# Convention : Reuss Voigt Hill
#
# Bulk Modulus (GPa) = 30.18117 40.52910 35.35514
# Shear Modulus (GPa) = 28.81822 32.12838 30.47330
#
# Velocity S-wave (km/s) = 3.75712 3.96703 3.86350
# Velocity P-wave (km/s) = 5.79697 6.39026 6.10083
#
# Compressibility (1/GPa) = 0.03313324
#
# Stress axis : x y z
#
# Youngs Moduli (GPa) = 45.34761 68.51797 57.93395
#
# Poissons Ratio (x) = 0.43034 -0.13677
# Poissons Ratio (y) = 0.28481 0.37468
# Poissons Ratio (z) = -0.10706 0.44313
#
# Static dielectric constant tensor:
#      x y z
#    x 3.552550 0.000000 0.229250 
#    y 0.000000 3.738210 0.000000 
#    z 0.229250 0.000000 3.341260 
# 
# 
# High freq. dielectric constant tensor:
#      x y z
#    x 1.803320 0.000000 0.002360 
#    y 0.000000 1.805420 0.000000 
#    z 0.002360 0.000000 1.814590 
# 
# From -- ./inp_files/314447.got.cif
#   From: 2010.06.25/outbox.cif.g09.slc.cpg/sg12_158_cif.got.tgz:314447.got - 2010.06.28 00:19:55.
