data_PCOD8100480
_publ_section_title
;
Structure prediction by ZEFSAII (Michael W. Deem and Ramdas Pophale) SiO2 
 PCOD8100480
Probable space group: C 2/M
;
_chemical_formula_sum "Si O2"
_cell_formula_units_Z 56
_cell_length_a 29.357068
_cell_length_b 8.953480
_cell_length_c 11.076380
_cell_angle_alpha 90.000000
_cell_angle_beta 110.905533
_cell_angle_gamma 90.000000
_cell_volume 2719.745826
_symmetry_space_group_name_H-M "C 2/M"
_symmetry_group_IT_number 12
_symmetry_cell_setting 'monoclinic'
loop_
_space_group_symop_operation_xyz
x,y,z
-x,y,-z
-x,-y,-z
x,-y,z
1/2+x,1/2+y,z
1/2-x,1/2+y,-z
1/2-x,1/2-y,-z
1/2+x,1/2-y,z
loop_
_atom_site_type_symbol
_atom_site_label
_atom_site_fract_x
_atom_site_fract_y
_atom_site_fract_z
Si Si1 0.378085 0.823896 0.469430
Si Si2 0.421174 0.175419 0.755442
Si Si3 0.128326 0.330256 0.063748
Si Si4 0.028975 0.331941 0.832195
Si Si5 0.547015 0.326717 0.613533
Si Si6 0.277554 0.676783 0.911690
Si Si7 0.267254 0.176482 0.390286
O O1 0.407959 0.759120 0.612063
O O2 0.402992 0.753857 0.376036
O O3 0.322585 0.772021 0.423948
O O4 0.381736 0.000000 0.461393
O O5 0.380411 0.237350 0.810363
O O6 0.477157 0.212085 0.844370
O O7 0.412563 0.000000 0.747244
O O8 0.148723 0.500000 0.080401
O O9 0.165849 0.226680 0.025967
O O10 0.073053 0.327497 0.965712
O O11 0.024356 0.500000 0.771801
O O12 0.039901 0.205349 0.746107
O O13 0.500000 0.260312 0.500000
O O14 0.552892 0.500000 0.593024
O O15 0.272273 0.500000 0.920830
O O16 0.259473 0.728583 0.760088
O O17 0.250000 0.750000 0.000000
O O18 0.250000 0.250000 0.500000
O O19 0.261717 0.000000 0.401270
#
# Coordination Sequence:
#
# PCOD8100480 Si02
#       7
#     8   8   8   8   8   8   8
#     4  10  20  36  61  87 114 151 197 242 290 352
#     4   9  17  33  59  90 118 148 188 237 292 350
#     4  10  21  38  62  89 118 153 198 248 296 350
#     4  10  20  35  59  87 117 154 197 240 286 351
#     4  11  23  37  53  81 120 157 195 241 292 349
#     4  11  25  44  63  89 126 165 208 257 310 368
#     4  10  23  42  66  95 123 156 204 259 311 366
#
# _framework density 20.590159
#
# number of rings (size 3 to 8) (size 9 to 14) (size 15 to 20)
#    0.000    1.857    1.429    2.143    2.000    5.714 
#    0.000    1.429    0.000    1.714    0.000    0.000 
#    0.000    0.000    0.000    0.000    0.000    0.000 
#
# Total GULP energy -346998.761900 kJ/mol
# GULP energy per Si atom -12392.812925 kJ/mol
# Density = 2.054329 g / cm^3
# Si number density = 20.590159 Si / 1000 Ang^3
#
#
#
# Elastic Constant Matrix: (Units=GPa)
#
#
# Indices 1 2 3 4 5 6 
#
# 1 158.8852 43.8214 37.8087 0.0000 -8.1946 0.0000
# 2 43.8214 47.1343 25.3957 0.0000 -3.3661 0.0000
# 3 37.8087 25.3957 72.8308 0.0000 -8.2506 0.0000
# 4 0.0000 0.0000 0.0000 25.7510 0.0000 -2.9882
# 5 -8.1946 -3.3661 -8.2506 0.0000 38.4594 0.0000
# 6 0.0000 0.0000 0.0000 -2.9882 0.0000 27.8712
#
#
#
# Elastic Compliance Matrix: (Units=1/GPa)
#
#
# Indices 1 2 3 4 5 6 
#
# 1 0.008741 -0.006986 -0.002009 0.000000 0.000820 0.000000
# 2 -0.006986 0.031711 -0.007467 0.000000 -0.000315 0.000000
# 3 -0.002009 -0.007467 0.017684 0.000000 0.002712 0.000000
# 4 0.000000 0.000000 0.000000 0.039323 0.000000 0.004216
# 5 0.000820 -0.000315 0.002712 0.000000 0.026730 0.000000
# 6 0.000000 0.000000 0.000000 0.004216 0.000000 0.036331
#
#
# Mechanical properties :
#
#
# Convention : Reuss Voigt Hill
#
# Bulk Modulus (GPa) = 39.66093 54.76688 47.21390
# Shear Modulus (GPa) = 24.77118 29.87129 27.32124
#
# Velocity S-wave (km/s) = 3.47228 3.81301 3.64663
# Velocity P-wave (km/s) = 5.94807 6.78540 6.38049
#
# Compressibility (1/GPa) = 0.02521373
#
# Stress axis : x y z
#
# Youngs Moduli (GPa) = 114.40546 31.53476 56.54762
#
# Poissons Ratio (x) = 0.22029 0.11360
# Poissons Ratio (y) = 0.79918 0.42223
# Poissons Ratio (z) = 0.22983 0.23546
#
# Static dielectric constant tensor:
#      x y z
#    x 3.848330 0.000000 0.004170 
#    y 0.000000 3.416050 0.000000 
#    z 0.004170 0.000000 4.059410 
# 
# 
# High freq. dielectric constant tensor:
#      x y z
#    x 1.824450 0.000000 -0.001630 
#    y 0.000000 1.773690 0.000000 
#    z -0.001630 0.000000 1.806560 
# 
# From -- ./inp_files/187705.got.cif
#   From: 2010.06.25/outbox.cif.g09.slc.cpg/sg12_94_cif.got.tgz:187705.got - 2010.06.28 00:19:55.
