data_PCOD8100478
_publ_section_title
;
Structure prediction by ZEFSAII (Michael W. Deem and Ramdas Pophale) SiO2 
 PCOD8100478
Probable space group: C 2/M
;
_chemical_formula_sum "Si O2"
_cell_formula_units_Z 56
_cell_length_a 28.548371
_cell_length_b 9.102587
_cell_length_c 11.413237
_cell_angle_alpha 90.000000
_cell_angle_beta 109.695474
_cell_angle_gamma 90.000000
_cell_volume 2792.376826
_symmetry_space_group_name_H-M "C 2/M"
_symmetry_group_IT_number 12
_symmetry_cell_setting 'monoclinic'
loop_
_space_group_symop_operation_xyz
x,y,z
-x,y,-z
-x,-y,-z
x,-y,z
1/2+x,1/2+y,z
1/2-x,1/2+y,-z
1/2-x,1/2-y,-z
1/2+x,1/2-y,z
loop_
_atom_site_type_symbol
_atom_site_label
_atom_site_fract_x
_atom_site_fract_y
_atom_site_fract_z
Si Si1 0.105057 0.170727 0.817345
Si Si2 0.443791 0.167115 0.435718
Si Si3 0.276383 0.831842 0.358864
Si Si4 0.507571 0.330261 0.874264
Si Si5 0.705642 0.172954 0.895140
Si Si6 0.421018 0.166268 0.679226
Si Si7 0.174936 0.830941 0.390984
O O1 0.084492 0.226987 0.676337
O O2 0.064492 0.196099 0.884843
O O3 0.153789 0.260330 0.896740
O O4 0.118632 0.000000 0.815612
O O5 0.500000 0.223014 0.500000
O O6 0.415130 0.174695 0.534339
O O7 0.443577 0.000000 0.386279
O O8 0.288900 0.791087 0.237091
O O9 0.217721 0.805558 0.330703
O O10 0.308276 0.727978 0.468764
O O11 0.290597 0.000000 0.400062
O O12 0.492460 0.500000 0.849914
O O13 0.472758 0.238791 0.758941
O O14 0.500000 0.274055 0.000000
O O15 0.706861 0.000000 0.921075
O O16 0.750000 0.250000 0.000000
O O17 0.374048 0.248375 0.697126
O O18 0.421113 0.000000 0.724449
O O19 0.161214 0.000000 0.394554
#
# Coordination Sequence:
#
# PCOD8100478 Si02
#       7
#     8   8   8   8   8   8   8
#     4  11  23  39  62  90 118 150 194 245 294 345
#     4  10  20  36  58  85 120 157 190 232 289 346
#     4   9  20  39  59  83 115 153 191 234 290 347
#     4  10  23  42  60  80 113 155 194 234 283 342
#     4  11  24  42  63  85 116 155 198 243 291 347
#     4  11  22  36  57  86 118 152 192 234 283 344
#     4  10  20  35  59  87 117 150 188 236 288 343
#
# _framework density 20.054599
#
# number of rings (size 3 to 8) (size 9 to 14) (size 15 to 20)
#    0.000    1.714    1.429    2.571    0.000    8.571 
#    0.000    5.714    0.000    0.000    0.000    0.000 
#    0.000    0.000    0.000    0.000    0.000    0.000 
#
# Total GULP energy -347351.986037 kJ/mol
# GULP energy per Si atom -12405.428073 kJ/mol
# Density = 2.000895 g / cm^3
# Si number density = 20.054599 Si / 1000 Ang^3
#
#
#
# Elastic Constant Matrix: (Units=GPa)
#
#
# Indices 1 2 3 4 5 6 
#
# 1 126.5286 64.6842 38.6005 0.0000 13.7121 0.0000
# 2 64.6842 118.1321 46.3785 0.0000 9.0084 0.0000
# 3 38.6005 46.3785 69.2375 0.0000 0.9550 0.0000
# 4 0.0000 0.0000 0.0000 28.5623 0.0000 5.5043
# 5 13.7121 9.0084 0.9550 0.0000 33.7273 0.0000
# 6 0.0000 0.0000 0.0000 5.5043 0.0000 37.1307
#
#
#
# Elastic Compliance Matrix: (Units=1/GPa)
#
#
# Indices 1 2 3 4 5 6 
#
# 1 0.011767 -0.004923 -0.003216 0.000000 -0.003378 0.000000
# 2 -0.004923 0.013826 -0.006496 0.000000 -0.001507 0.000000
# 3 -0.003216 -0.006496 0.020553 0.000000 0.002461 0.000000
# 4 0.000000 0.000000 0.000000 0.036041 0.000000 -0.005343
# 5 -0.003378 -0.001507 0.002461 0.000000 0.031356 0.000000
# 6 0.000000 0.000000 0.000000 -0.005343 0.000000 0.027724
#
#
# Mechanical properties :
#
#
# Convention : Reuss Voigt Hill
#
# Bulk Modulus (GPa) = 59.25350 68.13606 63.69478
# Shear Modulus (GPa) = 28.38281 30.83305 29.60793
#
# Velocity S-wave (km/s) = 3.76610 3.92529 3.84652
# Velocity P-wave (km/s) = 6.96574 7.38870 7.18034
#
# Compressibility (1/GPa) = 0.01687664
#
# Stress axis : x y z
#
# Youngs Moduli (GPa) = 84.98077 72.32760 48.65392
#
# Poissons Ratio (x) = 0.35607 0.15648
# Poissons Ratio (y) = 0.41837 0.31605
# Poissons Ratio (z) = 0.27331 0.46983
#
# Static dielectric constant tensor:
#      x y z
#    x 3.889180 0.000000 -0.031300 
#    y 0.000000 3.715110 0.000000 
#    z -0.031300 0.000000 3.421700 
# 
# 
# High freq. dielectric constant tensor:
#      x y z
#    x 1.801210 0.000000 0.002930 
#    y 0.000000 1.788450 0.000000 
#    z 0.002930 0.000000 1.764150 
# 
# From -- ./inp_files/181123.got.cif
#   From: 2010.06.25/outbox.cif.g09.slc.cpg/sg12_91_cif.got.tgz:181123.got - 2010.06.28 00:19:55.
