data_PCOD8100940
_publ_section_title
;
Structure prediction by ZEFSAII (Michael W. Deem and Ramdas Pophale) SiO2 
 PCOD8100940
Probable space group: C 2/M
;
_chemical_formula_sum "Si O2"
_cell_formula_units_Z 48
_cell_length_a 14.299620
_cell_length_b 8.906278
_cell_length_c 28.470025
_cell_angle_alpha 90.000000
_cell_angle_beta 137.526688
_cell_angle_gamma 90.000000
_cell_volume 2448.336305
_symmetry_space_group_name_H-M "C 2/M"
_symmetry_group_IT_number 12
_symmetry_cell_setting 'monoclinic'
loop_
_space_group_symop_operation_xyz
x,y,z
-x,y,-z
-x,-y,-z
x,-y,z
1/2+x,1/2+y,z
1/2-x,1/2+y,-z
1/2-x,1/2-y,-z
1/2+x,1/2-y,z
loop_
_atom_site_type_symbol
_atom_site_label
_atom_site_fract_x
_atom_site_fract_y
_atom_site_fract_z
Si Si1 0.921946 0.675402 0.658092
Si Si2 0.603190 0.674953 0.896351
Si Si3 0.409366 0.676780 0.362723
Si Si4 0.114934 0.822726 0.006969
Si Si5 0.166624 0.828575 0.509132
Si Si6 0.384282 0.675748 0.738064
O O1 0.962243 0.500000 0.668278
O O2 0.005867 0.773615 0.651884
O O3 0.752993 0.698058 0.589309
O O4 0.957733 0.735319 0.722879
O O5 0.636791 0.500000 0.907150
O O6 0.735717 0.758146 0.923631
O O7 0.468082 0.715721 0.816196
O O8 0.574823 0.727834 0.939254
O O9 0.373355 0.500000 0.346922
O O10 0.503182 0.716233 0.444546
O O11 0.271916 0.772995 0.312915
O O12 0.122923 0.000000 0.014638
O O13 0.000000 0.757101 0.000000
O O14 0.250000 0.750000 0.500000
O O15 0.171910 0.000000 0.496720
O O16 0.387815 0.500000 0.728107
#
# Coordination Sequence:
#
# PCOD8100940 Si02
#       6
#     8   8   8   8   8   8
#     4  10  20  36  56  78 105 141 185 232 280 324
#     4   9  20  37  54  78 112 141 171 215 259 308
#     4  10  20  36  56  79 107 141 182 228 280 332
#     4   9  18  35  60  85 106 134 172 212 259 314
#     4   8  16  31  52  75 101 134 177 230 279 324
#     4  11  23  37  52  77 114 151 184 219 264 320
#
# _framework density 19.605149000000001
#
# number of rings (size 3 to 8) (size 9 to 14) (size 15 to 20)
#    0.000    2.500    0.000    1.500    0.000    5.000 
#    0.000    5.000    0.000    0.000    0.000    0.000 
#    0.000    0.000    0.000    0.000    0.000    0.000 
#
# Total GULP energy -297410.871040 kJ/mol
# GULP energy per Si atom -12392.119627 kJ/mol
# Density = 1.956053 g / cm^3
# Si number density = 19.605149 Si / 1000 Ang^3
#
#
#
# Elastic Constant Matrix: (Units=GPa)
#
#
# Indices 1 2 3 4 5 6 
#
# 1 69.4815 9.1202 25.6097 0.0000 6.2803 0.0000
# 2 9.1202 35.8627 32.0758 0.0000 2.5972 0.0000
# 3 25.6097 32.0758 103.1053 0.0000 3.0897 0.0000
# 4 0.0000 0.0000 0.0000 29.0919 0.0000 3.2855
# 5 6.2803 2.5972 3.0897 0.0000 23.7629 0.0000
# 6 0.0000 0.0000 0.0000 3.2855 0.0000 31.7335
#
#
#
# Elastic Compliance Matrix: (Units=1/GPa)
#
#
# Indices 1 2 3 4 5 6 
#
# 1 0.016178 -0.000485 -0.003756 0.000000 -0.003734 0.000000
# 2 -0.000485 0.038818 -0.011879 0.000000 -0.002570 0.000000
# 3 -0.003756 -0.011879 0.014314 0.000000 0.000430 0.000000
# 4 0.000000 0.000000 0.000000 0.034780 0.000000 -0.003601
# 5 -0.003734 -0.002570 0.000430 0.000000 0.043294 0.000000
# 6 0.000000 0.000000 0.000000 -0.003601 0.000000 0.031885
#
#
# Mechanical properties :
#
#
# Convention : Reuss Voigt Hill
#
# Bulk Modulus (GPa) = 26.97466 38.00677 32.49072
# Shear Modulus (GPa) = 22.33485 26.36058 24.34771
#
# Velocity S-wave (km/s) = 3.37892 3.67082 3.52789
# Velocity P-wave (km/s) = 5.38624 6.11513 5.76222
#
# Compressibility (1/GPa) = 0.03707182
#
# Stress axis : x y z
#
# Youngs Moduli (GPa) = 61.81331 25.76129 69.86052
#
# Poissons Ratio (x) = 0.01249 0.26237
# Poissons Ratio (y) = 0.02996 0.82986
# Poissons Ratio (z) = 0.23215 0.30601
#
# Static dielectric constant tensor:
#      x y z
#    x 3.458330 0.000000 -0.029450 
#    y 0.000000 3.515800 0.000000 
#    z -0.029450 0.000000 3.916350 
# 
# 
# High freq. dielectric constant tensor:
#      x y z
#    x 1.754400 0.000000 0.001680 
#    y 0.000000 1.763340 0.000000 
#    z 0.001680 0.000000 1.769270 
# 
# From -- ./inp_files/360314.got.cif
#   From: 2010.06.25/outbox.cif.g09.slc.cpg/sg12_181_cif.got.tgz:360314.got - 2010.06.28 00:19:55.
