data_PCOD8100913
_publ_section_title
;
Structure prediction by ZEFSAII (Michael W. Deem and Ramdas Pophale) SiO2 
 PCOD8100913
Probable space group: C 2/M
;
_chemical_formula_sum "Si O2"
_cell_formula_units_Z 40
_cell_length_a 34.010226
_cell_length_b 10.497181
_cell_length_c 4.947088
_cell_angle_alpha 90.000000
_cell_angle_beta 87.197221
_cell_angle_gamma 90.000000
_cell_volume 1764.054551
_symmetry_space_group_name_H-M "C 2/M"
_symmetry_group_IT_number 12
_symmetry_cell_setting 'monoclinic'
loop_
_space_group_symop_operation_xyz
x,y,z
-x,y,-z
-x,-y,-z
x,-y,z
1/2+x,1/2+y,z
1/2-x,1/2+y,-z
1/2-x,1/2-y,-z
1/2+x,1/2-y,z
loop_
_atom_site_type_symbol
_atom_site_label
_atom_site_fract_x
_atom_site_fract_y
_atom_site_fract_z
Si Si1 0.296216 0.252978 0.429937
Si Si2 0.276264 0.500000 0.235827
Si Si3 0.853316 0.143772 0.817906
Si Si4 0.221438 0.500000 0.758215
Si Si5 0.405651 0.354485 0.290158
Si Si6 0.027568 0.356368 0.735606
O O1 0.250000 0.250000 0.500000
O O2 0.303744 0.372306 0.216529
O O3 0.319357 0.265517 0.704978
O O4 0.307017 0.121851 0.275315
O O5 0.258507 0.500000 0.544059
O O6 0.239381 0.500000 0.050681
O O7 0.890228 0.147877 0.600303
O O8 0.835606 0.000000 0.839664
O O9 0.870154 0.189563 0.101613
O O10 0.419293 0.500000 0.209972
O O11 0.439638 0.251451 0.243549
O O12 0.045549 0.500000 0.689582
O O13 0.000000 0.316530 0.500000
O O14 0.000000 0.354997 0.000000
#
# Coordination Sequence:
#
# PCOD8100913 Si02
#       6
#     8   4   8   4   8   8
#     4  10  21  39  58  82 110 151 200 251 294 346
#     4  10  20  36  56  74 104 142 178 240 300 340
#     4  10  21  39  59  82 116 159 194 241 299 349
#     4  10  22  34  52  82 104 130 188 246 292 338
#     4  10  22  39  61  89 119 153 197 236 284 344
#     4  10  21  39  64  93 124 158 189 226 281 344
#
# _framework density 22.675037
#
# number of rings (size 3 to 8) (size 9 to 14) (size 15 to 20)
#    0.000    2.000    1.000    1.800    0.000    7.200 
#    3.600    0.000    0.000    0.000    0.000    0.000 
#    0.000    0.000    0.000    0.000    0.000    0.000 
#
# Total GULP energy -247952.547314 kJ/mol
# GULP energy per Si atom -12397.627366 kJ/mol
# Density = 2.262343 g / cm^3
# Si number density = 22.675037 Si / 1000 Ang^3
#
#
#
# Elastic Constant Matrix: (Units=GPa)
#
#
# Indices 1 2 3 4 5 6 
#
# 1 72.5847 45.0780 8.6954 0.0000 30.1929 0.0000
# 2 45.0780 182.1597 28.3681 0.0000 31.1062 0.0000
# 3 8.6954 28.3681 96.9784 0.0000 24.2347 0.0000
# 4 0.0000 0.0000 0.0000 32.0752 0.0000 11.3680
# 5 30.1929 31.1062 24.2347 0.0000 32.0873 0.0000
# 6 0.0000 0.0000 0.0000 11.3680 0.0000 41.1240
#
#
#
# Elastic Compliance Matrix: (Units=1/GPa)
#
#
# Indices 1 2 3 4 5 6 
#
# 1 0.025119 -0.002762 0.004676 0.000000 -0.024490 0.000000
# 2 -0.002762 0.006896 -0.000923 0.000000 -0.003389 0.000000
# 3 0.004676 -0.000923 0.013606 0.000000 -0.013782 0.000000
# 4 0.000000 0.000000 0.000000 0.034563 0.000000 -0.009554
# 5 -0.024490 -0.003389 -0.013782 0.000000 0.067903 0.000000
# 6 0.000000 0.000000 0.000000 -0.009554 0.000000 0.026958
#
#
# Mechanical properties :
#
#
# Convention : Reuss Voigt Hill
#
# Bulk Modulus (GPa) = 21.00714 57.33398 39.17056
# Shear Modulus (GPa) = 26.46466 39.02937 32.74702
#
# Velocity S-wave (km/s) = 3.42003 4.15329 3.80437
# Velocity P-wave (km/s) = 4.98799 6.95268 6.05061
#
# Compressibility (1/GPa) = 0.04760287
#
# Stress axis : x y z
#
# Youngs Moduli (GPa) = 39.80982 145.01971 73.49573
#
# Poissons Ratio (x) = 0.40059 -0.34365
# Poissons Ratio (y) = 0.10997 0.06781
# Poissons Ratio (z) = -0.18614 0.13379
#
# Static dielectric constant tensor:
#      x y z
#    x 3.723420 0.000000 -0.101180 
#    y 0.000000 7.175350 0.000000 
#    z -0.101180 0.000000 4.300140 
# 
# 
# High freq. dielectric constant tensor:
#      x y z
#    x 1.868170 0.000000 -0.007310 
#    y 0.000000 1.904250 0.000000 
#    z -0.007310 0.000000 1.916610 
# 
# From -- ./inp_files/30944.got.cif
#   From: 2010.06.25/outbox.cif.g09.slc.cpg/sg12_16_cif.got.tgz:30944.got - 2010.06.28 00:19:55.
