data_PCOD8100687
_publ_section_title
;
Structure prediction by ZEFSAII (Michael W. Deem and Ramdas Pophale) SiO2 
 PCOD8100687
Probable space group: C 2/M
;
_chemical_formula_sum "Si O2"
_cell_formula_units_Z 48
_cell_length_a 20.328933
_cell_length_b 7.542965
_cell_length_c 16.813536
_cell_angle_alpha 90.000000
_cell_angle_beta 69.851086
_cell_angle_gamma 90.000000
_cell_volume 2420.410669
_symmetry_space_group_name_H-M "C 2/M"
_symmetry_group_IT_number 12
_symmetry_cell_setting 'monoclinic'
loop_
_space_group_symop_operation_xyz
x,y,z
-x,y,-z
-x,-y,-z
x,-y,z
1/2+x,1/2+y,z
1/2-x,1/2+y,-z
1/2-x,1/2-y,-z
1/2+x,1/2-y,z
loop_
_atom_site_type_symbol
_atom_site_label
_atom_site_fract_x
_atom_site_fract_y
_atom_site_fract_z
Si Si1 0.398397 0.500000 0.105149
Si Si2 0.419570 0.209148 0.338522
Si Si3 0.442582 0.500000 0.909514
Si Si4 0.422793 0.211353 0.512475
Si Si5 0.330191 0.800388 0.229458
Si Si6 0.674134 0.206261 0.306663
Si Si7 0.567997 0.793816 0.210191
O O1 0.474271 0.500000 0.113272
O O2 0.355968 0.675425 0.147728
O O3 0.401655 0.500000 0.009152
O O4 0.401126 0.283394 0.433996
O O5 0.361802 0.274581 0.299350
O O6 0.496348 0.274007 0.280411
O O7 0.420647 0.000000 0.344208
O O8 0.418781 0.677193 0.873514
O O9 0.500000 0.284561 0.500000
O O10 0.367854 0.284275 0.600126
O O11 0.423770 0.000000 0.516661
O O12 0.246818 0.808488 0.269660
O O13 0.358021 0.000000 0.201714
O O14 0.630566 0.240997 0.245137
O O15 0.690089 0.000000 0.311563
O O16 0.563615 0.000000 0.187019
#
# Coordination Sequence:
#
# PCOD8100687 Si02
#       7
#     4   8   4   8   8   8   8
#     4  11  24  44  64  95 117 150 201 249 312 370
#     4   9  17  32  56  87 120 158 204 241 292 352
#     4  11  24  40  70  94 117 145 200 261 298 374
#     4   9  15  28  54  89 121 158 205 252 290 342
#     4  11  23  40  62  85 124 167 196 247 306 361
#     4  10  20  35  61  89 123 166 206 243 298 358
#     4  10  20  37  62  91 120 159 198 245 302 358
#
# _framework density 19.831346
#
# number of rings (size 3 to 8) (size 9 to 14) (size 15 to 20)
#    0.000    2.000    4.167    0.000    1.167    1.333 
#    0.000    2.500    3.667    1.500    0.000    0.000 
#    0.000    0.000    0.000    0.000    0.000    0.000 
#
# Total GULP energy -297607.465325 kJ/mol
# GULP energy per Si atom -12400.311055 kJ/mol
# Density = 1.978621 g / cm^3
# Si number density = 19.831346 Si / 1000 Ang^3
#
#
#
# Elastic Constant Matrix: (Units=GPa)
#
#
# Indices 1 2 3 4 5 6 
#
# 1 125.9781 27.4047 61.0394 0.0000 -0.5626 0.0000
# 2 27.4047 79.6578 56.2262 0.0001 4.5250 0.0004
# 3 61.0394 56.2262 163.0941 0.0000 5.6236 0.0000
# 4 0.0000 0.0001 0.0000 8.4869 0.0000 8.2874
# 5 -0.5626 4.5250 5.6236 0.0000 29.9232 0.0000
# 6 0.0000 0.0004 0.0000 8.2874 0.0000 16.4120
#
#
#
# Elastic Compliance Matrix: (Units=1/GPa)
#
#
# Indices 1 2 3 4 5 6 
#
# 1 0.009788 -0.001075 -0.003326 0.000000 0.000972 0.000000
# 2 -0.001075 0.016771 -0.005326 0.000000 -0.001555 -0.000001
# 3 -0.003326 -0.005326 0.009247 0.000000 -0.000995 0.000000
# 4 0.000000 0.000000 0.000000 0.232443 0.000000 -0.117375
# 5 0.000972 -0.001555 -0.000995 0.000000 0.033859 0.000000
# 6 0.000000 -0.000001 0.000000 -0.117375 0.000000 0.120200
#
#
# Mechanical properties :
#
#
# Convention : Reuss Voigt Hill
#
# Bulk Modulus (GPa) = 61.15512 73.11895 67.13703
# Shear Modulus (GPa) = 11.18037 25.90176 18.54107
#
# Velocity S-wave (km/s) = 2.37697 3.61792 3.06099
# Velocity P-wave (km/s) = 6.19983 7.37583 6.81325
#
# Compressibility (1/GPa) = 0.01635186
#
# Stress axis : x y z
#
# Youngs Moduli (GPa) = 102.17025 59.62649 108.14728
#
# Poissons Ratio (x) = 0.06408 0.35971
# Poissons Ratio (y) = 0.10980 0.57598
# Poissons Ratio (z) = 0.33983 0.31757
#
# Static dielectric constant tensor:
#      x y z
#    x 3.592940 0.000000 0.112770 
#    y 0.000000 3.370890 0.000000 
#    z 0.112770 0.000000 3.646450 
# 
# 
# High freq. dielectric constant tensor:
#      x y z
#    x 1.771360 0.000000 0.009290 
#    y 0.000000 1.763950 0.000000 
#    z 0.009290 0.000000 1.763540 
# 
# From -- ./inp_files/229995.got.cif
#   From: 2010.06.25/outbox.cif.g09.slc.cpg/sg12_115_cif.got.tgz:229995.got - 2010.06.28 00:19:55.
