data_PCOD8100950
_publ_section_title
;
Structure prediction by ZEFSAII (Michael W. Deem and Ramdas Pophale) SiO2 
 PCOD8100950
Probable space group: C 2/M
;
_chemical_formula_sum "Si O2"
_cell_formula_units_Z 52
_cell_length_a 5.622733
_cell_length_b 29.277580
_cell_length_c 15.588150
_cell_angle_alpha 90.000000
_cell_angle_beta 81.413175
_cell_angle_gamma 90.000000
_cell_volume 2537.357168
_symmetry_space_group_name_H-M "C 2/M"
_symmetry_group_IT_number 12
_symmetry_cell_setting 'monoclinic'
loop_
_space_group_symop_operation_xyz
x,y,z
-x,y,-z
-x,-y,-z
x,-y,z
1/2+x,1/2+y,z
1/2-x,1/2+y,-z
1/2-x,1/2-y,-z
1/2+x,1/2-y,z
loop_
_atom_site_type_symbol
_atom_site_label
_atom_site_fract_x
_atom_site_fract_y
_atom_site_fract_z
Si Si1 0.412996 0.050257 0.908114
Si Si2 0.578754 0.349546 0.330983
Si Si3 0.054969 0.341634 0.398264
Si Si4 0.218963 0.633000 0.858180
Si Si5 0.000000 0.102754 0.000000
Si Si6 0.042369 0.271619 0.898006
Si Si7 0.116057 0.749847 0.289382
O O1 0.582853 0.085196 0.847738
O O2 0.145147 0.070459 0.926217
O O3 0.414362 0.000000 0.863812
O O4 0.500000 0.045918 0.000000
O O5 0.822103 0.367733 0.367303
O O6 0.592541 0.360966 0.229078
O O7 0.577786 0.295093 0.347905
O O8 0.314789 0.368609 0.375582
O O9 0.094937 0.292743 0.352915
O O10 0.000000 0.335009 0.500000
O O11 0.341337 0.634450 0.946179
O O12 0.032116 0.674926 0.870162
O O13 0.313664 0.252082 0.861748
O O14 0.000000 0.264994 0.000000
O O15 0.889093 0.747222 0.234868
#
# Coordination Sequence:
#
# PCOD8100950 Si02
#       7
#     8   8   8   8   4   8   8
#     4   9  19  37  61  89 116 149 197 251 315 376
#     4  10  22  33  52  80 112 145 187 238 290 350
#     4  10  20  36  56  78 108 150 197 245 301 355
#     4  11  24  37  58  83 123 159 204 252 307 355
#     4  10  21  36  62  84 118 164 198 248 311 362
#     4  10  23  37  55  75 108 158 216 251 281 330
#     4   8  16  29  46  70  99 138 184 233 282 333
#
# _framework density 20.493766999999998
#
# number of rings (size 3 to 8) (size 9 to 14) (size 15 to 20)
#    0.000    2.308    0.000    2.077    7.538    9.846 
#    0.000    0.000    0.000    0.000    0.000    0.000 
#    0.000    3.692    0.000    0.000    0.000    0.000 
#
# Total GULP energy -322116.084930 kJ/mol
# GULP energy per Si atom -12389.080190 kJ/mol
# Density = 2.044712 g / cm^3
# Si number density = 20.493767 Si / 1000 Ang^3
#
#
#
# Elastic Constant Matrix: (Units=GPa)
#
#
# Indices 1 2 3 4 5 6 
#
# 1 188.5885 22.7520 65.6570 0.0000 -15.5287 0.0000
# 2 22.7520 85.1779 21.9680 0.0000 -4.5284 0.0000
# 3 65.6570 21.9680 105.9484 0.0000 -6.9312 0.0000
# 4 0.0000 0.0000 0.0000 9.7356 0.0000 -4.5437
# 5 -15.5287 -4.5284 -6.9312 0.0000 33.5304 0.0000
# 6 0.0000 0.0000 0.0000 -4.5437 0.0000 23.2675
#
#
#
# Elastic Compliance Matrix: (Units=1/GPa)
#
#
# Indices 1 2 3 4 5 6 
#
# 1 0.006980 -0.000703 -0.004029 0.000000 0.002305 0.000000
# 2 -0.000703 0.012519 -0.002099 0.000000 0.000931 0.000000
# 3 -0.004029 -0.002099 0.012398 0.000000 0.000413 0.000000
# 4 0.000000 0.000000 0.000000 0.113017 0.000000 0.022070
# 5 0.002305 0.000931 0.000413 0.000000 0.031102 0.000000
# 6 0.000000 0.000000 0.000000 0.022070 0.000000 0.047288
#
#
# Mechanical properties :
#
#
# Convention : Reuss Voigt Hill
#
# Bulk Modulus (GPa) = 54.84189 66.71876 60.78032
# Shear Modulus (GPa) = 20.57245 31.26254 25.91750
#
# Velocity S-wave (km/s) = 3.17178 3.90996 3.56005
# Velocity P-wave (km/s) = 6.34287 7.28080 6.82796
#
# Compressibility (1/GPa) = 0.01823424
#
# Stress axis : x y z
#
# Youngs Moduli (GPa) = 143.27098 79.87998 80.66054
#
# Poissons Ratio (x) = 0.05614 0.32498
# Poissons Ratio (y) = 0.10068 0.16933
# Poissons Ratio (z) = 0.57723 0.16769
#
# Static dielectric constant tensor:
#      x y z
#    x 4.812910 0.000000 -0.130880 
#    y 0.000000 3.537440 0.000000 
#    z -0.130880 0.000000 3.552490 
# 
# 
# High freq. dielectric constant tensor:
#      x y z
#    x 1.847830 0.000000 -0.007630 
#    y 0.000000 1.736900 0.000000 
#    z -0.007630 0.000000 1.794740 
# 
# From -- ./inp_files/253463.got.cif
#   From: 2010.06.25/outbox.cif.g09.slc.cpg/sg12_127_cif.got.tgz:253463.got - 2010.06.28 00:19:55.
