data_PCOD8100404
_publ_section_title
;
Structure prediction by ZEFSAII (Michael W. Deem and Ramdas Pophale) SiO2 
 PCOD8100404
Probable space group: C 2/M
;
_chemical_formula_sum "Si O2"
_cell_formula_units_Z 56
_cell_length_a 22.509636
_cell_length_b 13.555365
_cell_length_c 16.818725
_cell_angle_alpha 90.000000
_cell_angle_beta 147.626880
_cell_angle_gamma 90.000000
_cell_volume 2747.742082
_symmetry_space_group_name_H-M "C 2/M"
_symmetry_group_IT_number 12
_symmetry_cell_setting 'monoclinic'
loop_
_space_group_symop_operation_xyz
x,y,z
-x,y,-z
-x,-y,-z
x,-y,z
1/2+x,1/2+y,z
1/2-x,1/2+y,-z
1/2-x,1/2-y,-z
1/2+x,1/2-y,z
loop_
_atom_site_type_symbol
_atom_site_label
_atom_site_fract_x
_atom_site_fract_y
_atom_site_fract_z
Si Si1 0.842646 0.112230 0.159578
Si Si2 0.124177 0.887447 0.625613
Si Si3 0.028063 0.390604 0.449501
Si Si4 0.473040 0.290713 0.733705
Si Si5 0.576201 0.615393 0.163821
Si Si6 0.705721 0.754638 0.585524
Si Si7 0.396930 0.111000 0.149998
O O1 0.815968 0.123206 0.222555
O O2 0.948375 0.174653 0.250493
O O3 0.870041 0.000000 0.167901
O O4 0.729115 0.149376 0.991669
O O5 0.195748 0.828304 0.641792
O O6 0.000000 0.847228 0.500000
O O7 0.119284 0.000000 0.589373
O O8 0.066172 0.500000 0.515096
O O9 0.923196 0.387954 0.273277
O O10 0.000000 0.333576 0.500000
O O11 0.132263 0.347379 0.523211
O O12 0.489302 0.363044 0.827783
O O13 0.345156 0.287865 0.555925
O O14 0.519275 0.180742 0.806058
O O15 0.615708 0.500000 0.207903
O O16 0.671041 0.699922 0.277619
O O17 0.500000 0.634952 0.000000
O O18 0.407554 0.000000 0.126479
#
# Coordination Sequence:
#
# PCOD8100404 Si02
#       7
#     8   8   8   8   8   8   8
#     4  10  20  35  58  91 126 157 193 243 301 358
#     4  10  20  35  59  93 126 154 189 242 300 360
#     4   9  18  32  54  85 119 155 195 238 293 359
#     4  11  22  39  64  89 118 165 208 246 301 361
#     4  11  27  47  64  87 119 158 209 264 310 359
#     4  11  22  38  63  87 119 159 203 249 300 362
#     4   9  20  35  55  89 127 157 191 242 300 357
#
# _framework density 20.380369999999999
#
# number of rings (size 3 to 8) (size 9 to 14) (size 15 to 20)
#    0.000    1.857    1.429    2.143    4.000    2.286 
#    0.000    3.571    0.000    0.857    0.000    0.000 
#    0.000    0.000    0.000    0.000    0.000    0.000 
#
# Total GULP energy -346942.900027 kJ/mol
# GULP energy per Si atom -12390.817858 kJ/mol
# Density = 2.033398 g / cm^3
# Si number density = 20.380370 Si / 1000 Ang^3
#
#
#
# Elastic Constant Matrix: (Units=GPa)
#
#
# Indices 1 2 3 4 5 6 
#
# 1 70.6128 32.4981 28.5235 0.0000 -14.8042 0.0000
# 2 32.4981 95.8553 34.2024 0.0000 -2.2824 0.0000
# 3 28.5235 34.2024 106.2990 0.0000 -6.9282 0.0000
# 4 0.0000 0.0000 0.0000 29.2930 0.0000 1.2613
# 5 -14.8042 -2.2824 -6.9282 0.0000 27.0081 0.0000
# 6 0.0000 0.0000 0.0000 1.2613 0.0000 31.0683
#
#
#
# Elastic Compliance Matrix: (Units=1/GPa)
#
#
# Indices 1 2 3 4 5 6 
#
# 1 0.019899 -0.005463 -0.002950 0.000000 0.009689 0.000000
# 2 -0.005463 0.013285 -0.002981 0.000000 -0.002636 0.000000
# 3 -0.002950 -0.002981 0.011224 0.000000 0.001010 0.000000
# 4 0.000000 0.000000 0.000000 0.034198 0.000000 -0.001388
# 5 0.009689 -0.002636 0.001010 0.000000 0.042373 0.000000
# 6 0.000000 0.000000 0.000000 -0.001388 0.000000 0.032243
#
#
# Mechanical properties :
#
#
# Convention : Reuss Voigt Hill
#
# Bulk Modulus (GPa) = 46.25241 51.46836 48.86039
# Shear Modulus (GPa) = 27.29001 29.31009 28.30005
#
# Velocity S-wave (km/s) = 3.66325 3.79641 3.73043
# Velocity P-wave (km/s) = 6.37467 6.67276 6.52542
#
# Compressibility (1/GPa) = 0.02162050
#
# Stress axis : x y z
#
# Youngs Moduli (GPa) = 50.25358 75.27132 89.09526
#
# Poissons Ratio (x) = 0.41121 0.26286
# Poissons Ratio (y) = 0.27454 0.26555
# Poissons Ratio (z) = 0.14826 0.22435
#
# Static dielectric constant tensor:
#      x y z
#    x 3.539900 0.000000 -0.292090 
#    y 0.000000 3.918480 0.000000 
#    z -0.292090 0.000000 3.807980 
# 
# 
# High freq. dielectric constant tensor:
#      x y z
#    x 1.772630 0.000000 -0.018950 
#    y 0.000000 1.812980 0.000000 
#    z -0.018950 0.000000 1.793810 
# 
# From -- ./inp_files/284566.got.cif
#   From: 2010.06.25/outbox.cif.g09.slc.cpg/sg12_143_cif.got.tgz:284566.got - 2010.06.28 00:19:55.
