data_PCOD8100313
_publ_section_title
;
Structure prediction by ZEFSAII (Michael W. Deem and Ramdas Pophale) SiO2 
 PCOD8100313
Probable space group: C 2/M
;
_chemical_formula_sum "Si O2"
_cell_formula_units_Z 48
_cell_length_a 24.436967
_cell_length_b 8.823124
_cell_length_c 11.386009
_cell_angle_alpha 90.000000
_cell_angle_beta 105.148208
_cell_angle_gamma 90.000000
_cell_volume 2369.640232
_symmetry_space_group_name_H-M "C 2/M"
_symmetry_group_IT_number 12
_symmetry_cell_setting 'monoclinic'
loop_
_space_group_symop_operation_xyz
x,y,z
-x,y,-z
-x,-y,-z
x,-y,z
1/2+x,1/2+y,z
1/2-x,1/2+y,-z
1/2-x,1/2-y,-z
1/2+x,1/2-y,z
loop_
_atom_site_type_symbol
_atom_site_label
_atom_site_fract_x
_atom_site_fract_y
_atom_site_fract_z
Si Si1 0.166171 0.671712 0.996702
Si Si2 0.564524 0.176249 0.515174
Si Si3 0.941381 0.327060 0.917580
Si Si4 0.834575 0.677506 0.263311
Si Si5 0.224284 0.319680 0.261124
Si Si6 0.878624 0.822483 0.675365
O O1 0.186120 0.500000 0.993228
O O2 0.170878 0.749334 0.871181
O O3 0.101061 0.681429 0.997374
O O4 0.204722 0.745189 0.121450
O O5 0.500000 0.232208 0.500000
O O6 0.601997 0.205964 0.652948
O O7 0.593925 0.271691 0.430391
O O8 0.564620 0.000000 0.479475
O O9 0.946461 0.500000 0.873419
O O10 0.922502 0.219966 0.801789
O O11 0.000000 0.264347 0.000000
O O12 0.820959 0.500000 0.257308
O O13 0.788118 0.761740 0.319227
O O14 0.220401 0.500000 0.263480
O O15 0.182183 0.257455 0.337594
O O16 0.867971 0.000000 0.667350
#
# Coordination Sequence:
#
# PCOD8100313 Si02
#       6
#     8   8   8   8   8   8
#     4   8  16  31  53  86 118 146 183 232 285 341
#     4  10  23  41  62  85 113 153 200 242 284 344
#     4   9  18  33  59  87 115 152 195 238 285 343
#     4  10  20  35  58  87 117 149 191 239 291 344
#     4  10  20  37  60  86 117 150 192 237 290 354
#     4  11  23  39  59  83 118 154 192 243 293 341
#
# _framework density 20.256238
#
# number of rings (size 3 to 8) (size 9 to 14) (size 15 to 20)
#    0.000    2.333    0.000    3.500    2.333    2.000 
#    0.000    3.333    0.000    0.000    0.000    0.000 
#    0.000    0.000    0.000    0.000    0.000    0.000 
#
# Total GULP energy -297536.445303 kJ/mol
# GULP energy per Si atom -12397.351888 kJ/mol
# Density = 2.021013 g / cm^3
# Si number density = 20.256238 Si / 1000 Ang^3
#
#
#
# Elastic Constant Matrix: (Units=GPa)
#
#
# Indices 1 2 3 4 5 6 
#
# 1 126.3367 39.3651 51.3011 0.0000 11.8102 0.0000
# 2 39.3651 77.3648 32.3182 0.0000 -4.0243 0.0000
# 3 51.3011 32.3182 58.9926 0.0000 -8.4202 0.0000
# 4 0.0000 0.0000 0.0000 19.5535 0.0000 -0.5514
# 5 11.8102 -4.0243 -8.4202 0.0000 36.0555 0.0000
# 6 0.0000 0.0000 0.0000 -0.5514 0.0000 30.4050
#
#
#
# Elastic Compliance Matrix: (Units=1/GPa)
#
#
# Indices 1 2 3 4 5 6 
#
# 1 0.014448 -0.002649 -0.012238 0.000000 -0.007886 0.000000
# 2 -0.002649 0.017250 -0.006981 0.000000 0.001163 0.000000
# 3 -0.012238 -0.006981 0.032978 0.000000 0.010931 0.000000
# 4 0.000000 0.000000 0.000000 0.051168 0.000000 0.000928
# 5 -0.007886 0.001163 0.010931 0.000000 0.033001 0.000000
# 6 0.000000 0.000000 0.000000 0.000928 0.000000 0.032906
#
#
# Mechanical properties :
#
#
# Convention : Reuss Voigt Hill
#
# Bulk Modulus (GPa) = 47.75482 56.51810 52.13646
# Shear Modulus (GPa) = 21.50846 26.51677 24.01262
#
# Velocity S-wave (km/s) = 3.26209 3.62203 3.44676
# Velocity P-wave (km/s) = 6.14938 6.74198 6.45249
#
# Compressibility (1/GPa) = 0.02094030
#
# Stress axis : x y z
#
# Youngs Moduli (GPa) = 69.21609 57.97012 30.32300
#
# Poissons Ratio (x) = 0.15357 0.37110
# Poissons Ratio (y) = 0.18336 0.21167
# Poissons Ratio (z) = 0.84708 0.40467
#
# Static dielectric constant tensor:
#      x y z
#    x 3.780000 0.000000 0.061450 
#    y 0.000000 3.355760 0.000000 
#    z 0.061450 0.000000 3.811880 
# 
# 
# High freq. dielectric constant tensor:
#      x y z
#    x 1.801830 0.000000 0.003380 
#    y 0.000000 1.761880 0.000000 
#    z 0.003380 0.000000 1.788380 
# 
# From -- ./inp_files/180248.got.cif
#   From: 2010.06.25/outbox.cif.g09.slc.cpg/sg12_91_cif.got.tgz:180248.got - 2010.06.28 00:19:55.
