data_PCOD8100493
_publ_section_title
;
Structure prediction by ZEFSAII (Michael W. Deem and Ramdas Pophale) SiO2 
 PCOD8100493
Probable space group: C 2/M
;
_chemical_formula_sum "Si O2"
_cell_formula_units_Z 56
_cell_length_a 21.512776
_cell_length_b 13.071864
_cell_length_c 18.864437
_cell_angle_alpha 90.000000
_cell_angle_beta 150.541958
_cell_angle_gamma 90.000000
_cell_volume 2608.879622
_symmetry_space_group_name_H-M "C 2/M"
_symmetry_group_IT_number 12
_symmetry_cell_setting 'monoclinic'
loop_
_space_group_symop_operation_xyz
x,y,z
-x,y,-z
-x,-y,-z
x,-y,z
1/2+x,1/2+y,z
1/2-x,1/2+y,-z
1/2-x,1/2-y,-z
1/2+x,1/2-y,z
loop_
_atom_site_type_symbol
_atom_site_label
_atom_site_fract_x
_atom_site_fract_y
_atom_site_fract_z
Si Si1 0.489979 0.116296 0.631427
Si Si2 0.002427 0.752796 0.083499
Si Si3 0.350062 0.382631 0.149173
Si Si4 0.070663 0.315802 0.848908
Si Si5 0.771379 0.700516 0.324524
Si Si6 0.364748 0.384609 0.330152
Si Si7 0.743449 0.387322 0.157243
O O1 0.476338 0.123121 0.702672
O O2 0.387548 0.189895 0.493379
O O3 0.631580 0.160065 0.755950
O O4 0.473139 0.000000 0.587657
O O5 0.137246 0.807069 0.231558
O O6 0.988391 0.668405 0.130979
O O7 0.000000 0.711139 0.000000
O O8 0.884388 0.826108 0.983773
O O9 0.392888 0.500000 0.176105
O O10 0.427788 0.302881 0.177276
O O11 0.369602 0.357596 0.251782
O O12 0.205531 0.370070 0.982544
O O13 0.773175 0.806190 0.280502
O O14 0.775520 0.607938 0.272630
O O15 0.500000 0.371794 0.500000
O O16 0.312915 0.500000 0.289480
O O17 0.719980 0.500000 0.103923
#
# Coordination Sequence:
#
# PCOD8100493 Si02
#       7
#     8   8   8   8   8   8   8
#     4  11  23  38  61  90 116 148 192 241 291 341
#     4  10  23  38  57  83 116 156 193 232 289 350
#     4  10  20  35  59  88 115 150 197 244 287 333
#     4  11  21  37  57  80 117 155 191 239 289 341
#     4  11  21  37  59  87 122 154 188 232 286 345
#     4  10  20  36  60  88 116 151 197 244 288 336
#     4  10  20  36  60  89 118 149 189 236 287 343
#
# _framework density 21.465153000000001
#
# number of rings (size 3 to 8) (size 9 to 14) (size 15 to 20)
#    0.000    1.571    0.000    7.286    0.000    6.571 
#    0.000    1.429    0.000    9.000    0.000    0.000 
#    0.000    0.000    0.000    0.000    0.000    0.000 
#
# Total GULP energy -346959.464167 kJ/mol
# GULP energy per Si atom -12391.409435 kJ/mol
# Density = 2.141630 g / cm^3
# Si number density = 21.465153 Si / 1000 Ang^3
#
#
#
# Elastic Constant Matrix: (Units=GPa)
#
#
# Indices 1 2 3 4 5 6 
#
# 1 92.1329 16.4320 58.1761 0.0000 -1.3191 0.0000
# 2 16.4320 79.3210 20.0678 0.0000 4.6380 0.0000
# 3 58.1761 20.0678 110.5685 -0.0001 -1.3479 0.0000
# 4 0.0000 0.0000 -0.0001 24.1961 0.0000 -10.3760
# 5 -1.3191 4.6380 -1.3479 0.0000 35.9203 0.0000
# 6 0.0000 0.0000 0.0000 -10.3760 0.0000 14.7507
#
#
#
# Elastic Compliance Matrix: (Units=1/GPa)
#
#
# Indices 1 2 3 4 5 6 
#
# 1 0.016383 -0.001301 -0.008378 0.000000 0.000455 0.000000
# 2 -0.001301 0.013434 -0.001776 0.000000 -0.001849 0.000000
# 3 -0.008378 -0.001776 0.013780 0.000000 0.000439 0.000000
# 4 0.000000 0.000000 0.000000 0.059181 0.000000 0.041629
# 5 0.000455 -0.001849 0.000439 0.000000 0.028111 0.000000
# 6 0.000000 0.000000 0.000000 0.041629 0.000000 0.097076
#
#
# Mechanical properties :
#
#
# Convention : Reuss Voigt Hill
#
# Bulk Modulus (GPa) = 48.34145 52.37490 50.35818
# Shear Modulus (GPa) = 19.39703 27.46318 23.43011
#
# Velocity S-wave (km/s) = 3.00934 3.58079 3.30743
# Velocity P-wave (km/s) = 5.88597 6.44586 6.17226
#
# Compressibility (1/GPa) = 0.02068618
#
# Stress axis : x y z
#
# Youngs Moduli (GPa) = 61.03996 74.43808 72.56816
#
# Poissons Ratio (x) = 0.09683 0.60799
# Poissons Ratio (y) = 0.07940 0.12891
# Poissons Ratio (z) = 0.51141 0.13223
#
# Static dielectric constant tensor:
#      x y z
#    x 3.954050 0.000000 -0.245790 
#    y 0.000000 3.797480 0.000000 
#    z -0.245790 0.000000 3.920040 
# 
# 
# High freq. dielectric constant tensor:
#      x y z
#    x 1.825820 0.000000 -0.025130 
#    y 0.000000 1.831520 0.000000 
#    z -0.025130 0.000000 1.850530 
# 
# From -- ./inp_files/284559.got.cif
#   From: 2010.06.25/outbox.cif.g09.slc.cpg/sg12_143_cif.got.tgz:284559.got - 2010.06.28 00:19:55.
