data_PCOD8100910
_publ_section_title
;
Structure prediction by ZEFSAII (Michael W. Deem and Ramdas Pophale) SiO2 
 PCOD8100910
Probable space group: C 2/M
;
_chemical_formula_sum "Si O2"
_cell_formula_units_Z 48
_cell_length_a 11.576365
_cell_length_b 23.222784
_cell_length_c 10.774864
_cell_angle_alpha 90.000000
_cell_angle_beta 122.130188
_cell_angle_gamma 90.000000
_cell_volume 2453.017173
_symmetry_space_group_name_H-M "C 2/M"
_symmetry_group_IT_number 12
_symmetry_cell_setting 'monoclinic'
loop_
_space_group_symop_operation_xyz
x,y,z
-x,y,-z
-x,-y,-z
x,-y,z
1/2+x,1/2+y,z
1/2-x,1/2+y,-z
1/2-x,1/2-y,-z
1/2+x,1/2-y,z
loop_
_atom_site_type_symbol
_atom_site_label
_atom_site_fract_x
_atom_site_fract_y
_atom_site_fract_z
Si Si1 0.350973 0.934985 0.148948
Si Si2 0.925194 0.291490 0.776270
Si Si3 0.497274 0.329715 0.144620
Si Si4 0.414430 0.879723 0.570774
Si Si5 0.175097 0.933485 0.290311
Si Si6 0.805702 0.332757 0.959566
O O1 0.498830 0.919715 0.287720
O O2 0.237411 0.923901 0.189418
O O3 0.351658 0.000000 0.104912
O O4 0.315980 0.899593 0.005137
O O5 0.876718 0.320463 0.620183
O O6 0.841183 0.323181 0.836574
O O7 0.900095 0.222534 0.757381
O O8 0.087991 0.298542 0.892346
O O9 0.547117 0.390287 0.231712
O O10 0.347883 0.312367 0.106214
O O11 0.500000 0.334890 0.000000
O O12 0.500000 0.861152 0.500000
O O13 0.283320 0.916892 0.458112
O O14 0.129456 0.000000 0.282602
#
# Coordination Sequence:
#
# PCOD8100910 Si02
#       6
#     8   8   8   8   8   8
#     4   9  17  32  57  83 111 147 191 239 276 323
#     4  10  22  37  60  83 112 151 186 234 280 334
#     4  12  22  35  59  87 117 151 181 229 288 338
#     4   9  19  37  59  83 111 148 193 235 277 324
#     4  10  21  36  56  84 114 148 193 232 275 332
#     4  10  20  36  55  86 118 145 186 229 287 336
#
# _framework density 19.567740000000001
#
# number of rings (size 3 to 8) (size 9 to 14) (size 15 to 20)
#    0.000    2.000    3.333    1.000    0.000    3.667 
#    0.000    8.333    0.000    1.000    0.000    0.000 
#    0.000    0.000    0.000    0.000    0.000    0.000 
#
# Total GULP energy -297540.711484 kJ/mol
# GULP energy per Si atom -12397.529645 kJ/mol
# Density = 1.952320 g / cm^3
# Si number density = 19.567740 Si / 1000 Ang^3
#
#
#
# Elastic Constant Matrix: (Units=GPa)
#
#
# Indices 1 2 3 4 5 6 
#
# 1 84.0664 35.0160 40.3525 0.0000 5.0882 0.0000
# 2 35.0160 153.3212 49.8856 0.0000 -11.5140 0.0000
# 3 40.3525 49.8856 50.0762 0.0000 -13.9761 0.0000
# 4 0.0000 0.0000 0.0000 17.1434 0.0000 9.3307
# 5 5.0882 -11.5140 -13.9761 0.0000 18.5292 0.0000
# 6 0.0000 0.0000 0.0000 9.3307 0.0000 15.6086
#
#
#
# Elastic Compliance Matrix: (Units=1/GPa)
#
#
# Indices 1 2 3 4 5 6 
#
# 1 0.030606 0.002335 -0.036644 0.000000 -0.034593 0.000000
# 2 0.002335 0.009865 -0.012891 0.000000 -0.004234 0.000000
# 3 -0.036644 -0.012891 0.079689 0.000000 0.062159 0.000000
# 4 0.000000 0.000000 0.000000 0.086463 0.000000 -0.051687
# 5 -0.034593 -0.004234 0.062159 0.000000 0.107722 0.000000
# 6 0.000000 0.000000 0.000000 -0.051687 0.000000 0.094965
#
#
# Mechanical properties :
#
#
# Convention : Reuss Voigt Hill
#
# Bulk Modulus (GPa) = 38.82030 59.77468 49.29749
# Shear Modulus (GPa) = 9.75996 21.07022 15.41509
#
# Velocity S-wave (km/s) = 2.23576 3.28500 2.80979
# Velocity P-wave (km/s) = 5.15236 6.70837 5.98118
#
# Compressibility (1/GPa) = 0.02575972
#
# Stress axis : x y z
#
# Youngs Moduli (GPa) = 32.67344 101.36470 12.54883
#
# Poissons Ratio (x) = -0.23668 0.45984
# Poissons Ratio (y) = -0.07629 0.16177
# Poissons Ratio (z) = 1.19728 1.30671
#
# Static dielectric constant tensor:
#      x y z
#    x 3.480170 0.000000 0.058350 
#    y 0.000000 3.795990 0.000000 
#    z 0.058350 0.000000 3.388270 
# 
# 
# High freq. dielectric constant tensor:
#      x y z
#    x 1.740990 0.000000 0.005520 
#    y 0.000000 1.773900 0.000000 
#    z 0.005520 0.000000 1.741160 
# 
# From -- ./inp_files/133414.got.cif
#   From: 2010.06.25/outbox.cif.g09.slc.cpg/sg12_67_cif.got.tgz:133414.got - 2010.06.28 00:19:55.
