data_PCOD8100323
_publ_section_title
;
Structure prediction by ZEFSAII (Michael W. Deem and Ramdas Pophale) SiO2 
 PCOD8100323
Probable space group: C 2/M
;
_chemical_formula_sum "Si O2"
_cell_formula_units_Z 64
_cell_length_a 18.501896
_cell_length_b 8.678271
_cell_length_c 31.923979
_cell_angle_alpha 90.000000
_cell_angle_beta 141.335680
_cell_angle_gamma 90.000000
_cell_volume 3202.412464
_symmetry_space_group_name_H-M "C 2/M"
_symmetry_group_IT_number 12
_symmetry_cell_setting 'monoclinic'
loop_
_space_group_symop_operation_xyz
x,y,z
-x,y,-z
-x,-y,-z
x,-y,z
1/2+x,1/2+y,z
1/2-x,1/2+y,-z
1/2-x,1/2-y,-z
1/2+x,1/2-y,z
loop_
_atom_site_type_symbol
_atom_site_label
_atom_site_fract_x
_atom_site_fract_y
_atom_site_fract_z
Si Si1 0.461486 0.822086 0.773733
Si Si2 0.250198 0.681289 0.629635
Si Si3 0.420023 0.675092 0.838896
Si Si4 0.058312 0.176889 0.599107
Si Si5 0.845187 0.177673 0.190316
Si Si6 0.350288 0.175071 0.278109
Si Si7 0.078870 0.679971 0.073858
Si Si8 0.710784 0.677443 0.525950
O O1 0.361432 0.719114 0.707977
O O2 0.477403 0.781679 0.829702
O O3 0.584376 0.786355 0.808730
O O4 0.428920 0.000000 0.753419
O O5 0.229298 0.500000 0.620904
O O6 0.136148 0.763259 0.596163
O O7 0.274568 0.737444 0.593265
O O8 0.460492 0.500000 0.850868
O O9 0.283446 0.693203 0.771541
O O10 0.461934 0.730411 0.903327
O O11 0.076815 0.276933 0.648832
O O12 0.925093 0.195785 0.526903
O O13 0.091077 0.000000 0.623047
O O14 0.884138 0.213772 0.255304
O O15 0.711172 0.219257 0.122858
O O16 0.871843 0.000000 0.192682
O O17 0.380948 0.000000 0.279725
O O18 0.062531 0.500000 0.075132
O O19 0.000000 0.737685 0.000000
O O20 0.748753 0.500000 0.542944
O O21 0.750000 0.750000 0.500000
#
# Coordination Sequence:
#
# PCOD8100323 Si02
#       8
#     8   8   8   8   8   8   8   8
#     4  12  24  39  61  88 122 159 200 250 304 359
#     4  12  25  42  64  89 118 156 202 249 305 367
#     4  10  20  36  59  90 123 155 197 245 293 348
#     4  11  23  40  63  88 118 155 200 248 302 361
#     4  10  21  37  59  87 124 159 197 247 299 352
#     4  10  20  35  58  87 118 154 198 245 295 355
#     4   9  19  38  64  92 123 162 203 242 290 350
#     4  11  26  45  63  87 120 157 200 251 305 363
#
# _framework density 19.984933000000002
#
# number of rings (size 3 to 8) (size 9 to 14) (size 15 to 20)
#    0.000    1.375    1.250    4.500    1.750    5.250 
#    0.000    0.625    0.000    0.000    0.000    0.000 
#    0.000    0.000    0.000    0.000    0.000    0.000 
#
# Total GULP energy -396999.517359 kJ/mol
# GULP energy per Si atom -12406.234917 kJ/mol
# Density = 1.993945 g / cm^3
# Si number density = 19.984933 Si / 1000 Ang^3
#
#
#
# Elastic Constant Matrix: (Units=GPa)
#
#
# Indices 1 2 3 4 5 6 
#
# 1 109.8080 38.8210 35.7217 0.0000 -13.2233 0.0000
# 2 38.8210 89.2683 26.1266 0.0000 -4.1846 -0.0003
# 3 35.7217 26.1266 85.5148 0.0000 -22.1530 0.0000
# 4 0.0000 0.0000 0.0000 27.4002 0.0000 -4.8562
# 5 -13.2233 -4.1846 -22.1530 0.0000 24.5207 0.0000
# 6 0.0000 -0.0003 0.0000 -4.8562 0.0000 38.8822
#
#
#
# Elastic Compliance Matrix: (Units=1/GPa)
#
#
# Indices 1 2 3 4 5 6 
#
# 1 0.011899 -0.004183 -0.002892 0.000000 0.003090 0.000000
# 2 -0.004183 0.013827 -0.003199 0.000000 -0.002786 0.000000
# 3 -0.002892 -0.003199 0.017408 0.000000 0.013622 0.000000
# 4 0.000000 0.000000 0.000000 0.037322 0.000000 0.004661
# 5 0.003090 -0.002786 0.013622 0.000000 0.054279 0.000000
# 6 0.000000 0.000000 0.000000 0.004661 0.000000 0.026301
#
#
# Mechanical properties :
#
#
# Convention : Reuss Voigt Hill
#
# Bulk Modulus (GPa) = 44.27537 53.99218 49.13377
# Shear Modulus (GPa) = 26.43939 30.42209 28.43074
#
# Velocity S-wave (km/s) = 3.64121 3.90584 3.77584
# Velocity P-wave (km/s) = 6.31509 6.88592 6.60667
#
# Compressibility (1/GPa) = 0.02258592
#
# Stress axis : x y z
#
# Youngs Moduli (GPa) = 84.04367 72.32235 57.44532
#
# Poissons Ratio (x) = 0.30254 0.16612
# Poissons Ratio (y) = 0.35158 0.18375
# Poissons Ratio (z) = 0.24303 0.23134
#
# Static dielectric constant tensor:
#      x y z
#    x 3.682230 0.000000 -0.086070 
#    y 0.000000 3.708040 0.000000 
#    z -0.086070 0.000000 3.512610 
# 
# 
# High freq. dielectric constant tensor:
#      x y z
#    x 1.784280 0.000000 -0.012390 
#    y 0.000000 1.791310 0.000000 
#    z -0.012390 0.000000 1.767630 
# 
# From -- ./inp_files/378534.got.cif
#   From: 2010.06.25/outbox.cif.g09.slc.cpg/sg12_190_cif.got.tgz:378534.got - 2010.06.28 00:19:55.
