data_PCOD8100161
_publ_section_title
;
Structure prediction by ZEFSAII (Michael W. Deem and Ramdas Pophale) SiO2 
 PCOD8100161
Probable space group: C 2/M
;
_chemical_formula_sum "Si O2"
_cell_formula_units_Z 64
_cell_length_a 18.502839
_cell_length_b 8.958101
_cell_length_c 22.174896
_cell_angle_alpha 90.000000
_cell_angle_beta 66.232399
_cell_angle_gamma 90.000000
_cell_volume 3363.768486
_symmetry_space_group_name_H-M "C 2/M"
_symmetry_group_IT_number 12
_symmetry_cell_setting 'monoclinic'
loop_
_space_group_symop_operation_xyz
x,y,z
-x,y,-z
-x,-y,-z
x,-y,z
1/2+x,1/2+y,z
1/2-x,1/2+y,-z
1/2-x,1/2-y,-z
1/2+x,1/2-y,z
loop_
_atom_site_type_symbol
_atom_site_label
_atom_site_fract_x
_atom_site_fract_y
_atom_site_fract_z
Si Si1 0.608133 0.677069 0.127871
Si Si2 0.919366 0.176497 0.499870
Si Si3 0.419543 0.322975 0.998702
Si Si4 0.108995 0.669046 0.613260
Si Si5 0.961593 0.674929 0.235651
Si Si6 0.691840 0.326527 0.757872
Si Si7 0.270119 0.326690 0.623148
Si Si8 0.235039 0.826185 0.879409
O O1 0.602829 0.500000 0.134916
O O2 0.544671 0.749931 0.193514
O O3 0.694592 0.729315 0.117462
O O4 0.589879 0.733270 0.066469
O O5 0.913566 0.222104 0.432681
O O6 0.847772 0.238633 0.564644
O O7 0.000000 0.241784 0.500000
O O8 0.917568 0.000000 0.502950
O O9 0.423946 0.500000 0.999292
O O10 0.345164 0.267712 0.062626
O O11 0.500000 0.255144 0.000000
O O12 0.095746 0.500000 0.596154
O O13 0.054337 0.706752 0.688743
O O14 0.199601 0.696564 0.599869
O O15 0.964773 0.500000 0.220907
O O16 0.891895 0.743406 0.218541
O O17 0.675818 0.500000 0.751452
O O18 0.755328 0.265755 0.688799
O O19 0.729069 0.297683 0.810417
O O20 0.278043 0.500000 0.638669
O O21 0.250081 0.000000 0.888822
#
# Coordination Sequence:
#
# PCOD8100161 Si02
#       8
#     8   8   8   8   8   8   8   8
#     4  11  22  35  56  84 111 145 188 225 265 325
#     4  10  21  35  52  77 108 140 174 217 270 322
#     4   9  18  35  58  81 108 143 183 229 275 319
#     4   9  19  35  55  77 101 136 178 218 264 319
#     4  10  21  38  58  81 112 144 176 223 280 327
#     4  10  20  35  58  84 106 139 188 228 266 323
#     4   9  19  36  55  77 108 142 176 219 272 321
#     4  10  21  37  56  80 115 151 180 222 277 323
#
# _framework density 19.02628
#
# number of rings (size 3 to 8) (size 9 to 14) (size 15 to 20)
#    0.000    2.250    0.000    3.375    0.000    7.250 
#    0.000    3.125    0.000    2.625    0.000    0.000 
#    0.000    0.000    0.000    0.000    0.000    0.000 
#
# Total GULP energy -396899.902582 kJ/mol
# GULP energy per Si atom -12403.121956 kJ/mol
# Density = 1.898298 g / cm^3
# Si number density = 19.026280 Si / 1000 Ang^3
#
#
#
# Elastic Constant Matrix: (Units=GPa)
#
#
# Indices 1 2 3 4 5 6 
#
# 1 134.7442 45.0459 82.9040 0.0000 -13.8844 0.0000
# 2 45.0459 63.4559 45.6502 -0.0001 -0.8676 -0.0003
# 3 82.9040 45.6502 127.3849 0.0000 -10.4185 0.0000
# 4 0.0000 -0.0001 0.0000 24.4819 0.0000 0.0679
# 5 -13.8844 -0.8676 -10.4185 0.0000 23.2311 0.0000
# 6 0.0000 -0.0003 0.0000 0.0679 0.0000 28.6130
#
#
#
# Elastic Compliance Matrix: (Units=1/GPa)
#
#
# Indices 1 2 3 4 5 6 
#
# 1 0.013720 -0.004770 -0.006814 0.000000 0.004966 0.000000
# 2 -0.004770 0.023058 -0.005524 0.000000 -0.004467 0.000000
# 3 -0.006814 -0.005524 0.014444 0.000000 0.002199 0.000000
# 4 0.000000 0.000000 0.000000 0.040847 0.000000 -0.000097
# 5 0.004966 -0.004467 0.002199 0.000000 0.046833 0.000000
# 6 0.000000 0.000000 0.000000 -0.000097 0.000000 0.034949
#
#
# Mechanical properties :
#
#
# Convention : Reuss Voigt Hill
#
# Bulk Modulus (GPa) = 58.80020 74.75389 66.77705
# Shear Modulus (GPa) = 23.39331 25.39753 24.39542
#
# Velocity S-wave (km/s) = 3.51026 3.65754 3.58466
# Velocity P-wave (km/s) = 6.88485 7.56386 7.23232
#
# Compressibility (1/GPa) = 0.01700674
#
# Stress axis : x y z
#
# Youngs Moduli (GPa) = 72.88613 43.36876 69.23175
#
# Poissons Ratio (x) = 0.20686 0.47172
# Poissons Ratio (y) = 0.34766 0.38245
# Poissons Ratio (z) = 0.49662 0.23958
#
# Static dielectric constant tensor:
#      x y z
#    x 3.561340 0.000000 -0.144200 
#    y 0.000000 3.332150 0.000000 
#    z -0.144200 0.000000 3.612660 
# 
# 
# High freq. dielectric constant tensor:
#      x y z
#    x 1.742460 0.000000 -0.005030 
#    y 0.000000 1.726500 0.000000 
#    z -0.005030 0.000000 1.752370 
# 
# From -- ./inp_files/319832.got.cif
#   From: 2010.06.25/outbox.cif.g09.slc.cpg/sg12_160_cif.got.tgz:319832.got - 2010.06.28 00:19:55.
