data_PCOD8100455
_publ_section_title
;
Structure prediction by ZEFSAII (Michael W. Deem and Ramdas Pophale) SiO2 
 PCOD8100455
Probable space group: C 2/M
;
_chemical_formula_sum "Si O2"
_cell_formula_units_Z 48
_cell_length_a 19.841193
_cell_length_b 8.801563
_cell_length_c 26.571630
_cell_angle_alpha 90.000000
_cell_angle_beta 33.457336
_cell_angle_gamma 90.000000
_cell_volume 2558.269519
_symmetry_space_group_name_H-M "C 2/M"
_symmetry_group_IT_number 12
_symmetry_cell_setting 'monoclinic'
loop_
_space_group_symop_operation_xyz
x,y,z
-x,y,-z
-x,-y,-z
x,-y,z
1/2+x,1/2+y,z
1/2-x,1/2+y,-z
1/2-x,1/2-y,-z
1/2+x,1/2-y,z
loop_
_atom_site_type_symbol
_atom_site_label
_atom_site_fract_x
_atom_site_fract_y
_atom_site_fract_z
Si Si1 0.860464 0.822172 0.081549
Si Si2 0.018179 0.673064 0.547608
Si Si3 0.712902 0.821846 0.075348
Si Si4 0.852161 0.176328 0.727856
Si Si5 0.997693 0.823239 0.265964
Si Si6 0.246928 0.678822 0.556472
O O1 0.814356 0.781473 0.054233
O O2 0.781049 0.733880 0.172462
O O3 0.846567 0.000000 0.101274
O O4 0.000000 0.767859 0.000000
O O5 0.045520 0.500000 0.547208
O O6 0.129603 0.782270 0.491605
O O7 0.000000 0.684519 0.500000
O O8 0.896018 0.730955 0.651755
O O9 0.583367 0.752311 0.171136
O O10 0.697875 0.000000 0.078112
O O11 0.750000 0.750000 0.000000
O O12 0.950357 0.206242 0.710672
O O13 0.842878 0.000000 0.719896
O O14 0.866185 0.746329 0.342018
O O15 0.986450 0.000000 0.260895
O O16 0.232977 0.500000 0.560167
O O17 0.250000 0.750000 0.500000
#
# Coordination Sequence:
#
# PCOD8100455 Si02
#       6
#     8   8   8   8   8   8
#     4   9  19  37  60  83 109 147 192 236 282 340
#     4  11  24  41  60  84 117 157 194 237 291 345
#     4  10  20  36  58  84 115 150 187 236 291 344
#     4  10  20  35  59  86 114 150 189 239 289 339
#     4  10  20  36  59  87 115 149 193 239 286 342
#     4  12  23  37  61  89 117 151 193 241 285 342
#
# _framework density 18.762682000000002
#
# number of rings (size 3 to 8) (size 9 to 14) (size 15 to 20)
#    0.000    1.667    1.667    3.500    0.000    3.667 
#    3.000    0.000    0.000    0.000    0.000    0.000 
#    0.000    0.000    0.000    0.000    0.000    0.000 
#
# Total GULP energy -297726.190158 kJ/mol
# GULP energy per Si atom -12405.257923 kJ/mol
# Density = 1.871998 g / cm^3
# Si number density = 18.762682 Si / 1000 Ang^3
#
#
#
# Elastic Constant Matrix: (Units=GPa)
#
#
# Indices 1 2 3 4 5 6 
#
# 1 65.6421 40.6916 62.9000 -0.0005 0.9890 0.0009
# 2 40.6916 113.6543 75.4964 -0.0002 9.5558 0.0008
# 3 62.9000 75.4964 166.8516 -0.0003 2.8216 0.0002
# 4 -0.0005 -0.0002 -0.0003 40.7553 0.0001 0.0793
# 5 0.9890 9.5558 2.8216 0.0001 35.4294 -0.0003
# 6 0.0009 0.0008 0.0002 0.0793 -0.0003 27.1633
#
#
#
# Elastic Compliance Matrix: (Units=1/GPa)
#
#
# Indices 1 2 3 4 5 6 
#
# 1 0.025003 -0.003949 -0.007655 0.000000 0.000977 -0.000001
# 2 -0.003949 0.013517 -0.004574 0.000000 -0.003171 0.000000
# 3 -0.007655 -0.004574 0.010939 0.000000 0.000576 0.000000
# 4 0.000000 0.000000 0.000000 0.024537 0.000000 -0.000072
# 5 0.000977 -0.003171 0.000576 0.000000 0.029007 0.000000
# 6 -0.000001 0.000000 0.000000 -0.000072 0.000000 0.036815
#
#
# Mechanical properties :
#
#
# Convention : Reuss Voigt Hill
#
# Bulk Modulus (GPa) = 58.46900 78.25822 68.36361
# Shear Modulus (GPa) = 28.10950 31.80692 29.95821
#
# Velocity S-wave (km/s) = 3.87481 4.12177 4.00020
# Velocity P-wave (km/s) = 7.15883 8.02821 7.60595
#
# Compressibility (1/GPa) = 0.01710308
#
# Stress axis : x y z
#
# Youngs Moduli (GPa) = 39.99538 73.97879 91.41378
#
# Poissons Ratio (x) = 0.29211 0.69982
# Poissons Ratio (y) = 0.15793 0.41814
# Poissons Ratio (z) = 0.30618 0.33839
#
# Static dielectric constant tensor:
#      x y z
#    x 3.051400 0.000000 0.003720 
#    y 0.000000 3.614920 0.000000 
#    z 0.003720 0.000000 3.621020 
# 
# 
# High freq. dielectric constant tensor:
#      x y z
#    x 1.706550 0.000000 -0.001770 
#    y 0.000000 1.744270 0.000000 
#    z -0.001770 0.000000 1.743140 
# 
# From -- ./inp_files/365355.got.cif
#   From: 2010.06.25/outbox.cif.g09.slc.cpg/sg12_183_cif.got.tgz:365355.got - 2010.06.28 00:19:55.
