data_PCOD8100148
_publ_section_title
;
Structure prediction by ZEFSAII (Michael W. Deem and Ramdas Pophale) SiO2 
 PCOD8100148
Probable space group: C 2/M
;
_chemical_formula_sum "Si O2"
_cell_formula_units_Z 56
_cell_length_a 28.384927
_cell_length_b 8.605897
_cell_length_c 19.282814
_cell_angle_alpha 90.000000
_cell_angle_beta 35.693850
_cell_angle_gamma 90.000000
_cell_volume 2748.280077
_symmetry_space_group_name_H-M "C 2/M"
_symmetry_group_IT_number 12
_symmetry_cell_setting 'monoclinic'
loop_
_space_group_symop_operation_xyz
x,y,z
-x,y,-z
-x,-y,-z
x,-y,z
1/2+x,1/2+y,z
1/2-x,1/2+y,-z
1/2-x,1/2-y,-z
1/2+x,1/2-y,z
loop_
_atom_site_type_symbol
_atom_site_label
_atom_site_fract_x
_atom_site_fract_y
_atom_site_fract_z
Si Si1 0.880339 0.315258 0.954251
Si Si2 0.520905 0.183587 0.689316
Si Si3 0.531742 0.683628 0.387032
Si Si4 0.313399 0.315413 0.479039
Si Si5 0.208975 0.184809 0.199593
Si Si6 0.075754 0.316261 0.948478
Si Si7 0.249178 0.316875 0.700324
O O1 0.879800 0.500000 0.955825
O O2 0.936854 0.254929 0.824198
O O3 0.786523 0.256245 0.061704
O O4 0.917617 0.250677 0.981452
O O5 0.521821 0.236663 0.608242
O O6 0.595487 0.256419 0.643210
O O7 0.527996 0.000000 0.686176
O O8 0.500000 0.737902 0.500000
O O9 0.521922 0.500000 0.390706
O O10 0.624855 0.739196 0.266247
O O11 0.310099 0.500000 0.479622
O O12 0.250000 0.250000 0.500000
O O13 0.290512 0.247464 0.582394
O O14 0.212787 0.250823 0.273933
O O15 0.211639 0.000000 0.201268
O O16 0.064802 0.500000 0.965936
O O17 0.154906 0.272690 0.810021
O O18 0.000000 0.238483 0.000000
O O19 0.261651 0.500000 0.685054
#
# Coordination Sequence:
#
# PCOD8100148 Si02
#       7
#     8   8   8   8   8   8   8
#     4   8  16  29  46  74 111 142 175 222 273 323
#     4  11  23  37  54  80 114 145 179 225 276 332
#     4  10  20  35  58  83 109 144 187 232 276 323
#     4  11  23  38  56  79 109 145 184 224 273 327
#     4   8  14  29  52  78 106 139 179 226 274 320
#     4   8  13  22  43  72 100 131 170 220 267 310
#     4   8  15  28  48  75 103 131 172 223 269 314
#
# _framework density 20.376380000000001
#
# number of rings (size 3 to 8) (size 9 to 14) (size 15 to 20)
#    0.000    2.857    0.000    3.429    2.000    3.143 
#    0.000    0.000    0.000    0.857    0.000   16.000 
#    0.000    0.000    0.000    0.000    0.000    0.000 
#
# Total GULP energy -346989.823404 kJ/mol
# GULP energy per Si atom -12392.493693 kJ/mol
# Density = 2.033000 g / cm^3
# Si number density = 20.376380 Si / 1000 Ang^3
#
#
#
# Elastic Constant Matrix: (Units=GPa)
#
#
# Indices 1 2 3 4 5 6 
#
# 1 117.0889 22.8410 48.3740 -0.0108 -19.3008 0.0024
# 2 22.8410 34.1066 24.9879 -0.0584 -1.4222 0.0240
# 3 48.3740 24.9879 121.2662 -0.0237 -4.1280 0.0122
# 4 -0.0108 -0.0584 -0.0237 16.8019 0.0119 -1.2558
# 5 -19.3008 -1.4222 -4.1280 0.0119 34.6116 -0.0006
# 6 0.0024 0.0240 0.0122 -1.2558 -0.0006 23.3660
#
#
#
# Elastic Compliance Matrix: (Units=1/GPa)
#
#
# Indices 1 2 3 4 5 6 
#
# 1 0.012007 -0.005218 -0.003508 -0.000019 0.006063 0.000005
# 2 -0.005218 0.036813 -0.005574 0.000116 -0.002062 -0.000028
# 3 -0.003508 -0.005574 0.010764 -0.000006 -0.000902 0.000000
# 4 -0.000019 0.000116 -0.000006 0.059757 -0.000027 0.003211
# 5 0.006063 -0.002062 -0.000902 -0.000027 0.032081 0.000001
# 6 0.000005 -0.000028 0.000000 0.003211 0.000001 0.042970
#
#
# Mechanical properties :
#
#
# Convention : Reuss Voigt Hill
#
# Bulk Modulus (GPa) = 32.27630 51.65194 41.96412
# Shear Modulus (GPa) = 21.42982 26.70648 24.06815
#
# Velocity S-wave (km/s) = 3.24651 3.62423 3.44056
# Velocity P-wave (km/s) = 5.47061 6.55113 6.03510
#
# Compressibility (1/GPa) = 0.03098249
#
# Stress axis : x y z
#
# Youngs Moduli (GPa) = 83.28328 27.16468 92.90538
#
# Poissons Ratio (x) = 0.14175 0.32592
# Poissons Ratio (y) = 0.43459 0.51786
# Poissons Ratio (z) = 0.29217 0.15142
#
# Static dielectric constant tensor:
#      x y z
#    x 3.908590 -0.000020 -0.116150 
#    y -0.000020 3.006900 0.000040 
#    z -0.116150 0.000040 4.155680 
# 
# 
# High freq. dielectric constant tensor:
#      x y z
#    x 1.800710 0.000000 -0.010660 
#    y 0.000000 1.729580 0.000000 
#    z -0.010660 0.000000 1.809550 
# 
# From -- ./inp_files/292397.got.cif
#   From: 2010.06.25/outbox.cif.g09.slc.cpg/sg12_147_cif.got.tgz:292397.got - 2010.06.28 00:19:55.
