data_PCOD8100262
_publ_section_title
;
Structure prediction by ZEFSAII (Michael W. Deem and Ramdas Pophale) SiO2 
 PCOD8100262
Probable space group: C 2/M
;
_chemical_formula_sum "Si O2"
_cell_formula_units_Z 64
_cell_length_a 24.358902
_cell_length_b 8.945440
_cell_length_c 15.050038
_cell_angle_alpha 90.000000
_cell_angle_beta 93.074803
_cell_angle_gamma 90.000000
_cell_volume 3274.698583
_symmetry_space_group_name_H-M "C 2/M"
_symmetry_group_IT_number 12
_symmetry_cell_setting 'monoclinic'
loop_
_space_group_symop_operation_xyz
x,y,z
-x,y,-z
-x,-y,-z
x,-y,z
1/2+x,1/2+y,z
1/2-x,1/2+y,-z
1/2-x,1/2-y,-z
1/2+x,1/2-y,z
loop_
_atom_site_type_symbol
_atom_site_label
_atom_site_fract_x
_atom_site_fract_y
_atom_site_fract_z
Si Si1 0.366278 0.672249 0.942813
Si Si2 0.333165 0.327573 0.484993
Si Si3 0.773043 0.327392 0.635780
Si Si4 0.547302 0.674162 0.574103
Si Si5 0.052083 0.323116 0.757481
Si Si6 0.973255 0.676642 0.907001
Si Si7 0.150839 0.176628 0.858530
Si Si8 0.261726 0.326942 0.815403
O O1 0.383098 0.500000 0.942232
O O2 0.411773 0.762517 0.892025
O O3 0.308107 0.699898 0.892520
O O4 0.363622 0.731710 0.043571
O O5 0.333135 0.500000 0.516106
O O6 0.289710 0.303423 0.401721
O O7 0.316508 0.223564 0.565523
O O8 0.393297 0.276717 0.458113
O O9 0.784196 0.500000 0.659459
O O10 0.783907 0.225910 0.722212
O O11 0.500000 0.712994 0.500000
O O12 0.547708 0.500000 0.598773
O O13 0.532490 0.767736 0.660049
O O14 0.057527 0.500000 0.758577
O O15 0.110957 0.253118 0.784425
O O16 0.008183 0.266065 0.826251
O O17 0.970973 0.500000 0.909149
O O18 0.000000 0.740154 0.000000
O O19 0.211949 0.223957 0.840508
O O20 0.146054 0.000000 0.848623
O O21 0.244143 0.500000 0.809013
#
# Coordination Sequence:
#
# PCOD8100262 Si02
#       8
#     8   8   8   8   8   8   8   8
#     4  10  23  39  58  85 116 155 198 243 292 346
#     4   9  19  37  59  82 112 147 188 238 291 346
#     4  10  20  35  58  86 113 148 192 237 288 345
#     4  10  22  40  61  86 118 156 196 243 297 351
#     4  11  23  39  62  90 118 156 200 246 299 352
#     4  10  21  39  61  86 119 155 196 244 294 347
#     4  11  22  38  60  86 116 152 198 245 292 349
#     4  11  23  38  56  84 121 156 193 237 293 353
#
# _framework density 19.543783999999999
#
# number of rings (size 3 to 8) (size 9 to 14) (size 15 to 20)
#    0.000    1.750    1.250    2.625    0.000    6.000 
#    0.000    3.750    0.000    0.000    0.000    0.000 
#    0.000    0.000    0.000    0.000    0.000    0.000 
#
# Total GULP energy -396993.898176 kJ/mol
# GULP energy per Si atom -12406.059318 kJ/mol
# Density = 1.949930 g / cm^3
# Si number density = 19.543784 Si / 1000 Ang^3
#
#
#
# Elastic Constant Matrix: (Units=GPa)
#
#
# Indices 1 2 3 4 5 6 
#
# 1 89.2686 34.4949 56.9482 0.0000 -13.2392 0.0000
# 2 34.4949 57.8809 48.1809 0.0000 0.0848 0.0000
# 3 56.9482 48.1809 113.7543 0.0000 -1.7140 0.0000
# 4 0.0000 0.0000 0.0000 34.7065 0.0000 -1.9305
# 5 -13.2392 0.0848 -1.7140 0.0000 27.5590 0.0000
# 6 0.0000 0.0000 0.0000 -1.9305 0.0000 33.0256
#
#
#
# Elastic Compliance Matrix: (Units=1/GPa)
#
#
# Indices 1 2 3 4 5 6 
#
# 1 0.019189 -0.005503 -0.007144 0.000000 0.008791 0.000000
# 2 -0.005503 0.028280 -0.009273 0.000000 -0.003307 0.000000
# 3 -0.007144 -0.009273 0.016259 0.000000 -0.002392 0.000000
# 4 0.000000 0.000000 0.000000 0.028907 0.000000 0.001690
# 5 0.008791 -0.003307 -0.002392 0.000000 0.040371 0.000000
# 6 0.000000 0.000000 0.000000 0.001690 0.000000 0.030378
#
#
# Mechanical properties :
#
#
# Convention : Reuss Voigt Hill
#
# Bulk Modulus (GPa) = 50.27765 60.01685 55.14725
# Shear Modulus (GPa) = 23.38053 27.14355 25.26204
#
# Velocity S-wave (km/s) = 3.46253 3.73078 3.59916
# Velocity P-wave (km/s) = 6.46274 7.02381 6.74911
#
# Compressibility (1/GPa) = 0.01988955
#
# Stress axis : x y z
#
# Youngs Moduli (GPa) = 52.11195 35.36035 61.50521
#
# Poissons Ratio (x) = 0.19458 0.43937
# Poissons Ratio (y) = 0.28675 0.57035
# Poissons Ratio (z) = 0.37227 0.32790
#
# Static dielectric constant tensor:
#      x y z
#    x 3.531520 0.000000 -0.039130 
#    y 0.000000 3.495230 0.000000 
#    z -0.039130 0.000000 3.647340 
# 
# 
# High freq. dielectric constant tensor:
#      x y z
#    x 1.764580 0.000000 -0.004710 
#    y 0.000000 1.761360 0.000000 
#    z -0.004710 0.000000 1.767310 
# 
# From -- ./inp_files/238620.got.cif
#   From: 2010.06.25/outbox.cif.g09.slc.cpg/sg12_120_cif.got.tgz:238620.got - 2010.06.28 00:19:55.
