data_PCOD8100456
_publ_section_title
;
Structure prediction by ZEFSAII (Michael W. Deem and Ramdas Pophale) SiO2 
 PCOD8100456
Probable space group: C 2/M
;
_chemical_formula_sum "Si O2"
_cell_formula_units_Z 48
_cell_length_a 31.242178
_cell_length_b 19.878937
_cell_length_c 8.956431
_cell_angle_alpha 90.000000
_cell_angle_beta 151.974390
_cell_angle_gamma 90.000000
_cell_volume 2613.627108
_symmetry_space_group_name_H-M "C 2/M"
_symmetry_group_IT_number 12
_symmetry_cell_setting 'monoclinic'
loop_
_space_group_symop_operation_xyz
x,y,z
-x,y,-z
-x,-y,-z
x,-y,z
1/2+x,1/2+y,z
1/2-x,1/2+y,-z
1/2-x,1/2-y,-z
1/2+x,1/2-y,z
loop_
_atom_site_type_symbol
_atom_site_label
_atom_site_fract_x
_atom_site_fract_y
_atom_site_fract_z
Si Si1 0.662850 0.305642 0.855362
Si Si2 0.804247 0.181695 0.706138
Si Si3 0.807025 0.349362 0.086662
Si Si4 0.685941 0.921955 0.194559
Si Si5 0.508353 0.151398 0.692691
Si Si6 0.481626 0.715407 0.117404
O O1 0.697420 0.229248 0.965784
O O2 0.567353 0.312251 0.474609
O O3 0.655091 0.324720 0.003249
O O4 0.734884 0.357300 0.999111
O O5 0.750000 0.250000 0.500000
O O6 0.739987 0.117377 0.488360
O O7 0.891540 0.171769 0.867714
O O8 0.909417 0.372043 0.449724
O O9 0.780231 0.393296 0.860628
O O10 0.708475 0.000000 0.272381
O O11 0.578210 0.910735 0.894979
O O12 0.500000 0.183196 0.500000
O O13 0.545745 0.209169 0.915930
O O14 0.500000 0.714570 0.000000
#
# Coordination Sequence:
#
# PCOD8100456 Si02
#       6
#     8   8   8   8   8   8
#     4  10  20  35  59  86 115 144 194 252 294 345
#     4  12  21  36  59  86 115 157 196 248 291 345
#     4   9  18  33  56  85 114 149 194 241 289 344
#     4  11  22  36  55  84 123 163 200 237 292 355
#     4   9  18  32  52  81 115 154 191 233 284 350
#     4  11  21  33  59  90 118 146 193 254 306 338
#
# _framework density 18.365282000000001
#
# number of rings (size 3 to 8) (size 9 to 14) (size 15 to 20)
#    0.000    1.667    3.333    3.500    4.667    3.000 
#    0.000    0.833    0.000   10.000    0.000    0.000 
#    0.000    0.000    0.000    0.000    0.000    0.000 
#
# Total GULP energy -297477.466857 kJ/mol
# GULP energy per Si atom -12394.894452 kJ/mol
# Density = 1.832348 g / cm^3
# Si number density = 18.365282 Si / 1000 Ang^3
#
#
#
# Elastic Constant Matrix: (Units=GPa)
#
#
# Indices 1 2 3 4 5 6 
#
# 1 125.8331 32.9015 60.5494 0.0000 4.4038 0.0000
# 2 32.9015 85.2806 47.3821 0.0000 2.2228 0.0000
# 3 60.5494 47.3821 106.4072 0.0000 -4.1462 0.0000
# 4 0.0000 0.0000 0.0000 19.9467 0.0000 0.1678
# 5 4.4038 2.2228 -4.1462 0.0000 36.6686 0.0000
# 6 0.0000 0.0000 0.0000 0.1678 0.0000 17.9928
#
#
#
# Elastic Compliance Matrix: (Units=1/GPa)
#
#
# Indices 1 2 3 4 5 6 
#
# 1 0.011148 -0.000907 -0.006016 0.000000 -0.001964 0.000000
# 2 -0.000907 0.015765 -0.006566 0.000000 -0.001589 0.000000
# 3 -0.006016 -0.006566 0.015859 0.000000 0.002914 0.000000
# 4 0.000000 0.000000 0.000000 0.050137 0.000000 -0.000467
# 5 -0.001964 -0.001589 0.002914 0.000000 0.027933 0.000000
# 6 0.000000 0.000000 0.000000 -0.000467 0.000000 0.055582
#
#
# Mechanical properties :
#
#
# Convention : Reuss Voigt Hill
#
# Bulk Modulus (GPa) = 63.31732 66.57633 64.94683
# Shear Modulus (GPa) = 23.96159 26.70082 25.33120
#
# Velocity S-wave (km/s) = 3.61601 3.81711 3.71792
# Velocity P-wave (km/s) = 7.21010 7.46706 7.33970
#
# Compressibility (1/GPa) = 0.01579347
#
# Stress axis : x y z
#
# Youngs Moduli (GPa) = 89.70351 63.42989 63.05754
#
# Poissons Ratio (x) = 0.05754 0.37936
# Poissons Ratio (y) = 0.08137 0.41403
# Poissons Ratio (z) = 0.53967 0.41648
#
# Static dielectric constant tensor:
#      x y z
#    x 3.627840 0.000000 0.186220 
#    y 0.000000 2.889690 0.000000 
#    z 0.186220 0.000000 3.548470 
# 
# 
# High freq. dielectric constant tensor:
#      x y z
#    x 1.719830 0.000000 0.008310 
#    y 0.000000 1.648570 0.000000 
#    z 0.008310 0.000000 1.725490 
# 
# From -- ./inp_files/75114.got.cif
#   From: 2010.06.25/outbox.cif.g09.slc.cpg/sg12_38_cif.got.tgz:75114.got - 2010.06.28 00:19:55.
