data_PCOD8100158
_publ_section_title
;
Structure prediction by ZEFSAII (Michael W. Deem and Ramdas Pophale) SiO2 
 PCOD8100158
Probable space group: C 2/M
;
_chemical_formula_sum "Si O2"
_cell_formula_units_Z 56
_cell_length_a 18.541274
_cell_length_b 19.997553
_cell_length_c 16.340116
_cell_angle_alpha 90.000000
_cell_angle_beta 152.257549
_cell_angle_gamma 90.000000
_cell_volume 2820.261012
_symmetry_space_group_name_H-M "C 2/M"
_symmetry_group_IT_number 12
_symmetry_cell_setting 'monoclinic'
loop_
_space_group_symop_operation_xyz
x,y,z
-x,y,-z
-x,-y,-z
x,-y,z
1/2+x,1/2+y,z
1/2-x,1/2+y,-z
1/2-x,1/2-y,-z
1/2+x,1/2-y,z
loop_
_atom_site_type_symbol
_atom_site_label
_atom_site_fract_x
_atom_site_fract_y
_atom_site_fract_z
Si Si1 0.580404 0.077405 0.784451
Si Si2 0.671394 0.802025 0.983849
Si Si3 0.402736 0.574216 0.828862
Si Si4 0.664574 0.124537 0.698680
Si Si5 0.681819 0.785658 0.323432
Si Si6 0.819870 0.226428 0.296022
Si Si7 0.243034 0.354274 0.540019
O O1 0.657431 0.124467 0.930117
O O2 0.675981 0.086646 0.796455
O O3 0.404113 0.099111 0.590299
O O4 0.587449 0.000000 0.819513
O O5 0.499597 0.776703 0.837300
O O6 0.750000 0.750000 0.000000
O O7 0.780766 0.812259 0.172698
O O8 0.466152 0.500000 0.876961
O O9 0.232230 0.576081 0.696518
O O10 0.396759 0.611616 0.735021
O O11 0.500000 0.610271 0.000000
O O12 0.500000 0.142650 0.500000
O O13 0.741117 0.197986 0.781607
O O14 0.713771 0.805302 0.261805
O O15 0.777874 0.717311 0.436665
O O16 0.759449 0.842836 0.459193
O O17 0.000000 0.217863 0.500000
#
# Coordination Sequence:
#
# PCOD8100158 Si02
#       7
#     8   8   8   8   8   8   8
#     4  11  22  39  61  90 125 164 209 262 314 380
#     4  11  24  39  64  98 124 166 213 262 317 376
#     4  11  23  34  48  80 120 157 195 237 296 375
#     4  11  20  34  58  84 117 161 200 232 308 375
#     4  10  22  37  61  89 124 158 205 265 312 361
#     4  11  22  39  63  92 126 158 211 261 317 376
#     4  10  20  35  58  83 116 159 204 242 309 358
#
# _framework density 19.856318000000002
#
# number of rings (size 3 to 8) (size 9 to 14) (size 15 to 20)
#    0.000    1.286    4.286    2.143    6.000    0.571 
#    0.000    0.000    0.000    9.000    0.000    0.000 
#    0.000    0.000    0.000    0.000    0.000    0.000 
#
# Total GULP energy -346943.215511 kJ/mol
# GULP energy per Si atom -12390.829125 kJ/mol
# Density = 1.981112 g / cm^3
# Si number density = 19.856318 Si / 1000 Ang^3
#
#
#
# Elastic Constant Matrix: (Units=GPa)
#
#
# Indices 1 2 3 4 5 6 
#
# 1 116.3504 38.2233 50.4090 0.0004 -20.4211 -0.0004
# 2 38.2233 102.2689 53.0376 -0.0001 -13.3224 0.0002
# 3 50.4090 53.0376 127.2554 0.0007 -30.4603 -0.0008
# 4 0.0004 -0.0001 0.0007 16.1158 0.0006 13.2197
# 5 -20.4211 -13.3224 -30.4603 0.0006 37.0348 -0.0008
# 6 -0.0004 0.0002 -0.0008 13.2197 -0.0008 -9.7563
#
#
#
# Elastic Compliance Matrix: (Units=1/GPa)
#
#
# Indices 1 2 3 4 5 6 
#
# 1 0.011060 -0.002351 -0.002670 0.000000 0.003057 0.000000
# 2 -0.002351 0.012976 -0.004570 0.000000 -0.000387 0.000001
# 3 -0.002670 -0.004570 0.012544 0.000000 0.007201 -0.000001
# 4 0.000000 0.000000 0.000000 0.029387 0.000001 0.039820
# 5 0.003057 -0.000387 0.007201 0.000001 0.034471 -0.000003
# 6 0.000000 0.000001 -0.000001 0.039820 -0.000003 -0.048543
#
#
# Mechanical properties :
#
#
# Convention : Reuss Voigt Hill
#
# Bulk Modulus (GPa) = 57.47091 69.91274 63.69182
# Shear Modulus (GPa) = 65.03953 22.29252 43.66603
#
# Velocity S-wave (km/s) = 5.72941 3.35429 4.69454
# Velocity P-wave (km/s) = 8.53080 7.09137 7.84417
#
# Compressibility (1/GPa) = 0.01740011
#
# Stress axis : x y z
#
# Youngs Moduli (GPa) = 90.41347 77.06369 79.71994
#
# Poissons Ratio (x) = 0.18118 0.21282
# Poissons Ratio (y) = 0.21257 0.36428
# Poissons Ratio (z) = 0.24136 0.35214
#
# Static dielectric constant tensor:
#      x y z
#    x 2.402390 0.000000 -1.194350 
#    y 0.000000 3.372740 0.000000 
#    z -1.194350 0.000000 2.930520 
# 
# 
# High freq. dielectric constant tensor:
#      x y z
#    x 1.767840 0.000000 -0.009800 
#    y 0.000000 1.740420 0.000000 
#    z -0.009800 0.000000 1.785580 
# 
# From -- ./inp_files/77369.got.cif
#   From: 2010.06.25/outbox.cif.g09.slc.cpg/sg12_39_cif.got.tgz:77369.got - 2010.06.28 00:19:55.
