data_PCOD8100866
_publ_section_title
;
Structure prediction by ZEFSAII (Michael W. Deem and Ramdas Pophale) SiO2 
 PCOD8100866
Probable space group: C 2/M
;
_chemical_formula_sum "Si O2"
_cell_formula_units_Z 56
_cell_length_a 29.048371
_cell_length_b 8.716722
_cell_length_c 14.297845
_cell_angle_alpha 90.000000
_cell_angle_beta 59.573814
_cell_angle_gamma 90.000000
_cell_volume 3121.727836
_symmetry_space_group_name_H-M "C 2/M"
_symmetry_group_IT_number 12
_symmetry_cell_setting 'monoclinic'
loop_
_space_group_symop_operation_xyz
x,y,z
-x,y,-z
-x,-y,-z
x,-y,z
1/2+x,1/2+y,z
1/2-x,1/2+y,-z
1/2-x,1/2-y,-z
1/2+x,1/2-y,z
loop_
_atom_site_type_symbol
_atom_site_label
_atom_site_fract_x
_atom_site_fract_y
_atom_site_fract_z
Si Si1 0.781863 0.320277 0.737036
Si Si2 0.402209 0.673041 0.922811
Si Si3 0.495067 0.179880 0.113067
Si Si4 0.667292 0.671686 0.828751
Si Si5 0.699537 0.819481 0.496281
Si Si6 0.387977 0.683022 0.293965
Si Si7 0.804008 0.819067 0.901206
O O1 0.788149 0.500000 0.752541
O O2 0.721449 0.255029 0.812443
O O3 0.799335 0.278397 0.614539
O O4 0.814192 0.227947 0.782931
O O5 0.418828 0.500000 0.876138
O O6 0.453431 0.782189 0.876269
O O7 0.356880 0.740905 0.900846
O O8 0.379828 0.672235 0.049895
O O9 0.447868 0.258917 0.219658
O O10 0.485145 0.000000 0.121360
O O11 0.500000 0.240895 0.000000
O O12 0.684168 0.500000 0.781799
O O13 0.646120 0.752797 0.757364
O O14 0.750000 0.750000 0.500000
O O15 0.642367 0.749878 0.584950
O O16 0.700905 0.000000 0.511696
O O17 0.389058 0.500000 0.296438
O O18 0.800050 0.000000 0.918476
O O19 0.750000 0.750000 0.000000
#
# Coordination Sequence:
#
# PCOD8100866 Si02
#       7
#     8   8   8   8   8   8   8
#     4  10  20  37  55  78 114 152 186 224 276 333
#     4  10  20  36  55  77 110 150 187 223 270 333
#     4  11  23  36  53  83 115 143 183 233 279 328
#     4   9  16  30  52  78 110 146 183 218 263 329
#     4  11  22  36  56  83 115 150 188 232 280 332
#     4  11  21  36  57  80 111 152 189 225 277 334
#     4  11  22  35  55  83 113 147 188 231 277 330
#
# _framework density 17.938783000000001
#
# number of rings (size 3 to 8) (size 9 to 14) (size 15 to 20)
#    0.000    1.571    4.286    1.714    0.000    2.857 
#    0.000    0.000    0.000    0.857    0.000    6.000 
#    0.000    0.000    0.000    0.000    0.000    0.000 
#
# Total GULP energy -347045.440612 kJ/mol
# GULP energy per Si atom -12394.480022 kJ/mol
# Density = 1.789795 g / cm^3
# Si number density = 17.938783 Si / 1000 Ang^3
#
#
#
# Elastic Constant Matrix: (Units=GPa)
#
#
# Indices 1 2 3 4 5 6 
#
# 1 121.1788 36.5091 52.0759 0.0000 0.8335 0.0000
# 2 36.5091 64.1045 36.5918 0.0000 -2.4939 0.0000
# 3 52.0759 36.5918 97.8181 0.0000 -5.5330 0.0000
# 4 0.0000 0.0000 0.0000 28.2531 0.0000 -1.1400
# 5 0.8335 -2.4939 -5.5330 0.0000 32.3523 0.0000
# 6 0.0000 0.0000 0.0000 -1.1400 0.0000 27.7842
#
#
#
# Elastic Compliance Matrix: (Units=1/GPa)
#
#
# Indices 1 2 3 4 5 6 
#
# 1 0.011465 -0.003884 -0.004730 0.000000 -0.001404 0.000000
# 2 -0.003884 0.021153 -0.005803 0.000000 0.000738 0.000000
# 3 -0.004730 -0.005803 0.015039 0.000000 0.002247 0.000000
# 4 0.000000 0.000000 0.000000 0.035453 0.000000 0.001455
# 5 -0.001404 0.000738 0.002247 0.000000 0.031387 0.000000
# 6 0.000000 0.000000 0.000000 0.001455 0.000000 0.036051
#
#
# Mechanical properties :
#
#
# Convention : Reuss Voigt Hill
#
# Bulk Modulus (GPa) = 53.12927 59.27279 56.20103
# Shear Modulus (GPa) = 26.93132 28.20623 27.56878
#
# Velocity S-wave (km/s) = 3.87885 3.96960 3.92449
# Velocity P-wave (km/s) = 7.05280 7.35688 7.20644
#
# Compressibility (1/GPa) = 0.01882202
#
# Stress axis : x y z
#
# Youngs Moduli (GPa) = 87.22306 47.27459 66.49297
#
# Poissons Ratio (x) = 0.18362 0.31451
# Poissons Ratio (y) = 0.33879 0.38588
# Poissons Ratio (z) = 0.41257 0.27435
#
# Static dielectric constant tensor:
#      x y z
#    x 3.408370 0.000000 0.038970 
#    y 0.000000 3.221910 0.000000 
#    z 0.038970 0.000000 3.300230 
# 
# 
# High freq. dielectric constant tensor:
#      x y z
#    x 1.690850 0.000000 -0.000060 
#    y 0.000000 1.684990 0.000000 
#    z -0.000060 0.000000 1.684450 
# 
# From -- ./inp_files/243658.got.cif
#   From: 2010.06.25/outbox.cif.g09.slc.cpg/sg12_122_cif.got.tgz:243658.got - 2010.06.28 00:19:55.
