data_PCOD8100102
_publ_section_title
;
Structure prediction by ZEFSAII (Michael W. Deem and Ramdas Pophale) SiO2 
 PCOD8100102
Probable space group: C 2/M
;
_chemical_formula_sum "Si O2"
_cell_formula_units_Z 64
_cell_length_a 16.105623
_cell_length_b 9.124171
_cell_length_c 21.078362
_cell_angle_alpha 90.000000
_cell_angle_beta 94.395500
_cell_angle_gamma 90.000000
_cell_volume 3088.364585
_symmetry_space_group_name_H-M "C 2/M"
_symmetry_group_IT_number 12
_symmetry_cell_setting 'monoclinic'
loop_
_space_group_symop_operation_xyz
x,y,z
-x,y,-z
-x,-y,-z
x,-y,z
1/2+x,1/2+y,z
1/2-x,1/2+y,-z
1/2-x,1/2-y,-z
1/2+x,1/2-y,z
loop_
_atom_site_type_symbol
_atom_site_label
_atom_site_fract_x
_atom_site_fract_y
_atom_site_fract_z
Si Si1 0.488886 0.829144 0.697781
Si Si2 0.956299 0.836347 0.928990
Si Si3 0.770561 0.674340 0.435387
Si Si4 0.699246 0.171037 0.313763
Si Si5 0.852384 0.173773 0.231827
Si Si6 0.042075 0.672164 0.564605
Si Si7 0.327222 0.840406 0.984524
Si Si8 0.909242 0.662292 0.123125
O O1 0.394757 0.797679 0.717944
O O2 0.559613 0.735121 0.736987
O O3 0.490108 0.783579 0.623740
O O4 0.512017 0.000000 0.707083
O O5 0.872349 0.742917 0.930061
O O6 0.007707 0.760636 0.875331
O O7 0.934685 0.000000 0.905403
O O8 0.000000 0.840261 0.000000
O O9 0.760873 0.500000 0.440908
O O10 0.750000 0.750000 0.500000
O O11 0.709424 0.734204 0.377753
O O12 0.863283 0.725177 0.421504
O O13 0.770858 0.217785 0.267694
O O14 0.708283 0.000000 0.331637
O O15 0.841782 0.251224 0.162284
O O16 0.858789 0.000000 0.224746
O O17 0.042189 0.500000 0.554431
O O18 0.000000 0.746567 0.500000
O O19 0.300782 0.000000 0.957396
O O20 0.250000 0.750000 0.000000
O O21 0.383236 0.857269 0.049459
O O22 0.927315 0.500000 0.152832
#
# Coordination Sequence:
#
# PCOD8100102 Si02
#       8
#     8   8   8   8   8   8   8   8
#     4  10  20  39  63  84 113 157 201 243 297 368
#     4   9  17  32  56  83 112 146 184 232 287 340
#     4  11  21  34  56  85 117 154 193 243 302 362
#     4  10  22  40  62  86 117 154 197 247 303 362
#     4  11  23  40  61  88 122 157 198 254 306 353
#     4   9  17  31  54  82 110 146 193 237 287 354
#     4  10  20  35  57  87 122 159 198 244 293 348
#     4  10  21  38  60  85 115 157 203 240 286 353
#
# _framework density 20.722942
#
# number of rings (size 3 to 8) (size 9 to 14) (size 15 to 20)
#    0.000    2.000    1.250    2.625    0.000    6.000 
#    2.250    0.000    0.000    1.875    0.000    0.000 
#    0.000    0.000    0.000    0.000    0.000    0.000 
#
# Total GULP energy -396633.841899 kJ/mol
# GULP energy per Si atom -12394.807559 kJ/mol
# Density = 2.067578 g / cm^3
# Si number density = 20.722942 Si / 1000 Ang^3
#
#
#
# Elastic Constant Matrix: (Units=GPa)
#
#
# Indices 1 2 3 4 5 6 
#
# 1 118.6667 48.5742 16.7026 0.0000 -30.7534 0.0000
# 2 48.5742 134.9583 23.4344 0.0000 -26.5480 0.0000
# 3 16.7026 23.4344 47.8066 0.0000 -26.9065 0.0000
# 4 0.0000 0.0000 0.0000 31.4677 0.0000 -3.8678
# 5 -30.7534 -26.5480 -26.9065 0.0000 36.1873 0.0000
# 6 0.0000 0.0000 0.0000 -3.8678 0.0000 32.0965
#
#
#
# Elastic Compliance Matrix: (Units=1/GPa)
#
#
# Indices 1 2 3 4 5 6 
#
# 1 0.011778 -0.002748 0.002977 0.000000 0.010206 0.000000
# 2 -0.002748 0.009338 -0.001850 0.000000 0.003139 0.000000
# 3 0.002977 -0.001850 0.036876 0.000000 0.028591 0.000000
# 4 0.000000 0.000000 0.000000 0.032256 0.000000 0.003887
# 5 0.010206 0.003139 0.028591 0.000000 0.059869 0.000000
# 6 0.000000 0.000000 0.000000 0.003887 0.000000 0.031624
#
#
# Mechanical properties :
#
#
# Convention : Reuss Voigt Hill
#
# Bulk Modulus (GPa) = 18.26565 53.20600 35.73583
# Shear Modulus (GPa) = 24.60209 34.13167 29.36688
#
# Velocity S-wave (km/s) = 3.44930 4.06279 3.76855
# Velocity P-wave (km/s) = 4.96960 6.90934 6.01814
#
# Compressibility (1/GPa) = 0.05474757
#
# Stress axis : x y z
#
# Youngs Moduli (GPa) = 84.90382 107.09360 27.11778
#
# Poissons Ratio (x) = 0.29432 -0.08072
# Poissons Ratio (y) = 0.23334 0.05018
# Poissons Ratio (z) = -0.25272 0.19817
#
# Static dielectric constant tensor:
#      x y z
#    x 3.693380 0.000000 -0.333020 
#    y 0.000000 3.827300 0.000000 
#    z -0.333020 0.000000 3.615430 
# 
# 
# High freq. dielectric constant tensor:
#      x y z
#    x 1.810930 0.000000 -0.018790 
#    y 0.000000 1.806530 0.000000 
#    z -0.018790 0.000000 1.801600 
# 
# From -- ./inp_files/314006.got.cif
#   From: 2010.06.25/outbox.cif.g09.slc.cpg/sg12_158_cif.got.tgz:314006.got - 2010.06.28 00:19:55.
