data_PCOD8100141
_publ_section_title
;
Structure prediction by ZEFSAII (Michael W. Deem and Ramdas Pophale) SiO2 
 PCOD8100141
Probable space group: C 2/M
;
_chemical_formula_sum "Si O2"
_cell_formula_units_Z 56
_cell_length_a 8.843729
_cell_length_b 26.080408
_cell_length_c 13.350628
_cell_angle_alpha 90.000000
_cell_angle_beta 109.773750
_cell_angle_gamma 90.000000
_cell_volume 2897.728396
_symmetry_space_group_name_H-M "C 2/M"
_symmetry_group_IT_number 12
_symmetry_cell_setting 'monoclinic'
loop_
_space_group_symop_operation_xyz
x,y,z
-x,y,-z
-x,-y,-z
x,-y,z
1/2+x,1/2+y,z
1/2-x,1/2+y,-z
1/2-x,1/2-y,-z
1/2+x,1/2-y,z
loop_
_atom_site_type_symbol
_atom_site_label
_atom_site_fract_x
_atom_site_fract_y
_atom_site_fract_z
Si Si1 0.340189 0.917127 0.523055
Si Si2 0.738462 0.785373 0.636254
Si Si3 0.866943 0.059697 0.886132
Si Si4 0.731352 0.443589 0.699931
Si Si5 0.030995 0.439321 0.896932
Si Si6 0.421262 0.613174 0.690242
Si Si7 0.902639 0.692930 0.609327
O O1 0.500000 0.934444 0.500000
O O2 0.278746 0.955498 0.594512
O O3 0.211433 0.913965 0.407028
O O4 0.363680 0.866932 0.598627
O O5 0.886052 0.825772 0.679838
O O6 0.806325 0.727627 0.669230
O O7 0.650985 0.786555 0.510159
O O8 0.592143 0.799064 0.678095
O O9 0.697801 0.081521 0.889003
O O10 0.916355 0.092329 0.801194
O O11 0.855420 0.000000 0.853491
O O12 0.000000 0.068670 0.000000
O O13 0.678289 0.500000 0.730477
O O14 0.592959 0.400947 0.680514
O O15 0.885047 0.422228 0.793834
O O16 0.044921 0.500000 0.907674
O O17 0.000000 0.415696 0.000000
#
# Coordination Sequence:
#
# PCOD8100141 Si02
#       7
#     8   8   8   8   8   8   8
#     4  11  21  37  52  75 112 147 188 228 274 336
#     4   9  18  31  53  77 105 139 174 225 285 324
#     4  10  20  35  58  82 108 145 186 234 280 325
#     4  11  24  36  51  76 111 154 190 226 273 330
#     4   9  18  34  54  76 102 136 183 232 274 315
#     4  11  21  35  53  80 111 144 186 226 277 333
#     4   9  17  33  50  77 105 137 178 225 277 331
#
# _framework density 19.325483999999999
#
# number of rings (size 3 to 8) (size 9 to 14) (size 15 to 20)
#    0.000    2.000    2.857    2.571    2.000    4.286 
#    0.000    0.000    0.000    0.000    0.000    2.000 
#    0.000    0.000    0.000    0.000    0.000    0.000 
#
# Total GULP energy -346920.915046 kJ/mol
# GULP energy per Si atom -12390.032680 kJ/mol
# Density = 1.928150 g / cm^3
# Si number density = 19.325484 Si / 1000 Ang^3
#
#
#
# Elastic Constant Matrix: (Units=GPa)
#
#
# Indices 1 2 3 4 5 6 
#
# 1 131.1859 28.4937 30.8808 0.0000 6.9772 0.0000
# 2 28.4937 63.7098 7.3465 0.0000 5.4071 0.0000
# 3 30.8808 7.3465 76.3370 0.0000 -6.0843 0.0000
# 4 0.0000 0.0000 0.0000 3.3979 0.0000 -4.7774
# 5 6.9772 5.4071 -6.0843 0.0000 31.3538 0.0000
# 6 0.0000 0.0000 0.0000 -4.7774 0.0000 17.9992
#
#
#
# Elastic Compliance Matrix: (Units=1/GPa)
#
#
# Indices 1 2 3 4 5 6 
#
# 1 0.009369 -0.003589 -0.003618 0.000000 -0.002168 0.000000
# 2 -0.003589 0.017546 -0.000421 0.000000 -0.002309 0.000000
# 3 -0.003618 -0.000421 0.014904 0.000000 0.003770 0.000000
# 4 0.000000 0.000000 0.000000 0.469511 0.000000 0.124619
# 5 -0.002168 -0.002309 0.003770 0.000000 0.033506 0.000000
# 6 0.000000 0.000000 0.000000 0.124619 0.000000 0.088635
#
#
# Mechanical properties :
#
#
# Convention : Reuss Voigt Hill
#
# Bulk Modulus (GPa) = 37.64423 44.96388 41.30405
# Shear Modulus (GPa) = 7.60364 24.18430 15.89397
#
# Velocity S-wave (km/s) = 1.98571 3.54138 2.87093
# Velocity P-wave (km/s) = 4.97783 6.32763 5.69288
#
# Compressibility (1/GPa) = 0.02656450
#
# Stress axis : x y z
#
# Youngs Moduli (GPa) = 106.73260 56.99356 67.09533
#
# Poissons Ratio (x) = 0.20456 0.24272
# Poissons Ratio (y) = 0.38308 0.02822
# Poissons Ratio (z) = 0.38611 0.02397
#
# Static dielectric constant tensor:
#      x y z
#    x 4.068680 0.000000 0.102620 
#    y 0.000000 3.419620 0.000000 
#    z 0.102620 0.000000 3.277490 
# 
# 
# High freq. dielectric constant tensor:
#      x y z
#    x 1.769670 0.000000 0.006090 
#    y 0.000000 1.726100 0.000000 
#    z 0.006090 0.000000 1.720290 
# 
# From -- ./inp_files/124343.got.cif
#   From: 2010.06.25/outbox.cif.g09.slc.cpg/sg12_63_cif.got.tgz:124343.got - 2010.06.28 00:19:55.
