data_PCOD8100390
_publ_section_title
;
Structure prediction by ZEFSAII (Michael W. Deem and Ramdas Pophale) SiO2 
 PCOD8100390
Probable space group: C 2/M
;
_chemical_formula_sum "Si O2"
_cell_formula_units_Z 56
_cell_length_a 20.415292
_cell_length_b 8.721999
_cell_length_c 17.281683
_cell_angle_alpha 90.000000
_cell_angle_beta 108.503440
_cell_angle_gamma 90.000000
_cell_volume 2918.135955
_symmetry_space_group_name_H-M "C 2/M"
_symmetry_group_IT_number 12
_symmetry_cell_setting 'monoclinic'
loop_
_space_group_symop_operation_xyz
x,y,z
-x,y,-z
-x,-y,-z
x,-y,z
1/2+x,1/2+y,z
1/2-x,1/2+y,-z
1/2-x,1/2-y,-z
1/2+x,1/2-y,z
loop_
_atom_site_type_symbol
_atom_site_label
_atom_site_fract_x
_atom_site_fract_y
_atom_site_fract_z
Si Si1 0.186600 0.824802 0.671200
Si Si2 0.302767 0.179398 0.913901
Si Si3 0.840884 0.319915 0.098890
Si Si4 0.829060 0.820258 0.767289
Si Si5 0.567576 0.680342 0.745735
Si Si6 0.176842 0.823219 0.490590
Si Si7 0.420429 0.818917 0.669544
O O1 0.252162 0.717862 0.710102
O O2 0.124965 0.775360 0.704154
O O3 0.159134 0.804476 0.574033
O O4 0.209615 0.000000 0.695292
O O5 0.225378 0.243389 0.886614
O O6 0.343395 0.259151 0.859212
O O7 0.297745 0.000000 0.896380
O O8 0.342926 0.216781 0.008269
O O9 0.837763 0.500000 0.113666
O O10 0.908933 0.246357 0.162190
O O11 0.885057 0.744038 0.733222
O O12 0.840427 0.000000 0.769657
O O13 0.555245 0.500000 0.747440
O O14 0.498253 0.761709 0.693383
O O15 0.250000 0.750000 0.500000
O O16 0.117843 0.737286 0.421512
O O17 0.178622 0.000000 0.465601
O O18 0.417998 0.000000 0.671413
#
# Coordination Sequence:
#
# PCOD8100390 Si02
#       7
#     8   8   8   8   8   8   8
#     4  10  22  39  63  90 122 160 199 248 305 360
#     4  10  20  35  58  89 125 160 201 250 301 354
#     4  10  20  35  58  90 124 161 202 248 300 356
#     4  12  23  37  62  92 121 156 207 255 300 362
#     4  11  23  41  63  89 124 163 203 250 308 365
#     4  11  22  39  63  92 123 158 203 252 304 358
#     4  12  26  43  62  86 124 164 203 252 310 367
#
# _framework density 19.190332999999999
#
# number of rings (size 3 to 8) (size 9 to 14) (size 15 to 20)
#    0.000    1.143    2.857    4.286    0.000    3.429 
#    0.000    3.571    0.000    4.286    0.000    0.000 
#    0.000    0.000    0.000    0.000    0.000    0.000 
#
# Total GULP energy -347364.135004 kJ/mol
# GULP energy per Si atom -12405.861964 kJ/mol
# Density = 1.914665 g / cm^3
# Si number density = 19.190333 Si / 1000 Ang^3
#
#
#
# Elastic Constant Matrix: (Units=GPa)
#
#
# Indices 1 2 3 4 5 6 
#
# 1 84.3801 42.1336 40.3821 0.0000 5.8674 0.0000
# 2 42.1336 131.1781 37.2197 0.0000 2.0944 0.0000
# 3 40.3821 37.2197 105.3124 0.0000 2.4085 0.0000
# 4 0.0000 0.0000 0.0000 36.9051 0.0000 1.9678
# 5 5.8674 2.0944 2.4085 0.0000 36.5343 0.0000
# 6 0.0000 0.0000 0.0000 1.9678 0.0000 33.3971
#
#
#
# Elastic Compliance Matrix: (Units=1/GPa)
#
#
# Indices 1 2 3 4 5 6 
#
# 1 0.016201 -0.003803 -0.004821 0.000000 -0.002066 0.000000
# 2 -0.003803 0.009369 -0.001857 0.000000 0.000196 0.000000
# 3 -0.004821 -0.001857 0.011999 0.000000 0.000090 0.000000
# 4 0.000000 0.000000 0.000000 0.027182 0.000000 -0.001602
# 5 -0.002066 0.000196 0.000090 0.000000 0.027686 0.000000
# 6 0.000000 0.000000 0.000000 -0.001602 0.000000 0.030037
#
#
# Mechanical properties :
#
#
# Convention : Reuss Voigt Hill
#
# Bulk Modulus (GPa) = 60.22030 62.26017 61.24024
# Shear Modulus (GPa) = 33.56368 34.77630 34.16999
#
# Velocity S-wave (km/s) = 4.18663 4.26159 4.22427
# Velocity P-wave (km/s) = 7.40400 7.53185 7.46820
#
# Compressibility (1/GPa) = 0.01660570
#
# Stress axis : x y z
#
# Youngs Moduli (GPa) = 61.72524 106.74063 83.34344
#
# Poissons Ratio (x) = 0.40591 0.40180
# Poissons Ratio (y) = 0.23473 0.15480
# Poissons Ratio (z) = 0.29758 0.19826
#
# Static dielectric constant tensor:
#      x y z
#    x 3.390470 0.000000 -0.124500 
#    y 0.000000 3.860290 0.000000 
#    z -0.124500 0.000000 3.825790 
# 
# 
# High freq. dielectric constant tensor:
#      x y z
#    x 1.728780 0.000000 -0.008350 
#    y 0.000000 1.763130 0.000000 
#    z -0.008350 0.000000 1.764140 
# 
# From -- ./inp_files/275524.got.cif
#   From: 2010.06.25/outbox.cif.g09.slc.cpg/sg12_138_cif.got.tgz:275524.got - 2010.06.28 00:19:55.
