data_PCOD8100861
_publ_section_title
;
Structure prediction by ZEFSAII (Michael W. Deem and Ramdas Pophale) SiO2 
 PCOD8100861
Probable space group: C 2/M
;
_chemical_formula_sum "Si O2"
_cell_formula_units_Z 48
_cell_length_a 14.644964
_cell_length_b 20.572042
_cell_length_c 8.927471
_cell_angle_alpha 90.000000
_cell_angle_beta 70.179338
_cell_angle_gamma 90.000000
_cell_volume 2530.301855
_symmetry_space_group_name_H-M "C 2/M"
_symmetry_group_IT_number 12
_symmetry_cell_setting 'monoclinic'
loop_
_space_group_symop_operation_xyz
x,y,z
-x,y,-z
-x,-y,-z
x,-y,z
1/2+x,1/2+y,z
1/2-x,1/2+y,-z
1/2-x,1/2-y,-z
1/2+x,1/2-y,z
loop_
_atom_site_type_symbol
_atom_site_label
_atom_site_fract_x
_atom_site_fract_y
_atom_site_fract_z
Si Si1 0.785414 0.927199 0.466517
Si Si2 0.321879 0.196473 0.395125
Si Si3 0.007407 0.228320 0.332895
Si Si4 0.648929 0.429836 0.240032
Si Si5 0.717870 0.293666 0.153318
Si Si6 0.033769 0.895512 0.812321
O O1 0.700007 0.873513 0.516411
O O2 0.845311 0.915625 0.586275
O O3 0.856143 0.917969 0.283660
O O4 0.740592 0.000000 0.484671
O O5 0.250000 0.250000 0.500000
O O6 0.435768 0.209499 0.364058
O O7 0.302969 0.199673 0.227749
O O8 0.973441 0.180990 0.219049
O O9 0.000000 0.194469 0.500000
O O10 0.121275 0.245111 0.259196
O O11 0.699011 0.500000 0.174276
O O12 0.693186 0.368877 0.121659
O O13 0.536190 0.435378 0.259460
O O14 0.750000 0.250000 0.000000
O O15 0.000000 0.909963 0.000000
#
# Coordination Sequence:
#
# PCOD8100861 Si02
#       6
#     8   8   8   8   8   8
#     4  10  20  36  55  77 108 150 191 228 273 338
#     4  11  20  35  60  81 107 146 194 228 275 332
#     4  11  21  37  57  81 113 151 189 231 278 336
#     4   9  19  35  53  74 109 150 183 220 276 351
#     4  10  22  35  56  87 115 142 185 235 288 336
#     4  11  21  30  50  83 116 144 177 226 292 350
#
# _framework density 18.97007
#
# number of rings (size 3 to 8) (size 9 to 14) (size 15 to 20)
#    0.000    1.667    3.333    3.000    4.667    2.667 
#    0.000    0.000    0.000    1.500    0.000    4.667 
#    0.000    0.000    0.000    0.000    0.000    0.167 
#
# Total GULP energy -297318.122483 kJ/mol
# GULP energy per Si atom -12388.255103 kJ/mol
# Density = 1.892689 g / cm^3
# Si number density = 18.970070 Si / 1000 Ang^3
#
#
#
# Elastic Constant Matrix: (Units=GPa)
#
#
# Indices 1 2 3 4 5 6 
#
# 1 72.8644 33.3628 17.5009 0.0000 -8.2222 0.0000
# 2 33.3628 134.7164 48.4312 0.0000 -11.5533 0.0000
# 3 17.5009 48.4312 93.8708 0.0000 -13.5012 0.0000
# 4 0.0000 0.0000 0.0000 21.8230 0.0000 0.0929
# 5 -8.2222 -11.5533 -13.5012 0.0000 19.3733 0.0000
# 6 0.0000 0.0000 0.0000 0.0929 0.0000 22.4267
#
#
#
# Elastic Compliance Matrix: (Units=1/GPa)
#
#
# Indices 1 2 3 4 5 6 
#
# 1 0.015890 -0.003343 -0.000616 0.000000 0.004321 0.000000
# 2 -0.003343 0.009918 -0.004276 0.000000 0.001516 0.000000
# 3 -0.000616 -0.004276 0.013970 0.000000 0.006924 0.000000
# 4 0.000000 0.000000 0.000000 0.045824 0.000000 -0.000190
# 5 0.004321 0.001516 0.006924 0.000000 0.059181 0.000000
# 6 0.000000 0.000000 0.000000 -0.000190 0.000000 0.044591
#
#
# Mechanical properties :
#
#
# Convention : Reuss Voigt Hill
#
# Bulk Modulus (GPa) = 42.90388 55.56018 49.23203
# Shear Modulus (GPa) = 23.40679 26.20171 24.80425
#
# Velocity S-wave (km/s) = 3.51647 3.72050 3.61992
# Velocity P-wave (km/s) = 6.25725 6.91434 6.59398
#
# Compressibility (1/GPa) = 0.02330792
#
# Stress axis : x y z
#
# Youngs Moduli (GPa) = 62.93074 100.82541 71.58344
#
# Poissons Ratio (x) = 0.33708 0.04411
# Poissons Ratio (y) = 0.21039 0.30607
# Poissons Ratio (z) = 0.03878 0.43111
#
# Static dielectric constant tensor:
#      x y z
#    x 3.726040 0.000000 -0.327610 
#    y 0.000000 3.668280 0.000000 
#    z -0.327610 0.000000 3.942330 
# 
# 
# High freq. dielectric constant tensor:
#      x y z
#    x 1.709910 0.000000 0.012730 
#    y 0.000000 1.735010 0.000000 
#    z 0.012730 0.000000 1.724250 
# 
# From -- ./inp_files/63321.got.cif
#   From: 2010.06.25/outbox.cif.g09.slc.cpg/sg12_32_cif.got.tgz:63321.got - 2010.06.28 00:19:55.
