data_PCOD8100587
_publ_section_title
;
Structure prediction by ZEFSAII (Michael W. Deem and Ramdas Pophale) SiO2 
 PCOD8100587
Probable space group: C 2/M
;
_chemical_formula_sum "Si O2"
_cell_formula_units_Z 64
_cell_length_a 12.766449
_cell_length_b 13.933655
_cell_length_c 20.695157
_cell_angle_alpha 90.000000
_cell_angle_beta 62.777493
_cell_angle_gamma 90.000000
_cell_volume 3273.567455
_symmetry_space_group_name_H-M "C 2/M"
_symmetry_group_IT_number 12
_symmetry_cell_setting 'monoclinic'
loop_
_space_group_symop_operation_xyz
x,y,z
-x,y,-z
-x,-y,-z
x,-y,z
1/2+x,1/2+y,z
1/2-x,1/2+y,-z
1/2-x,1/2-y,-z
1/2+x,1/2-y,z
loop_
_atom_site_type_symbol
_atom_site_label
_atom_site_fract_x
_atom_site_fract_y
_atom_site_fract_z
Si Si1 0.974080 0.887514 0.165627
Si Si2 0.217820 0.112837 0.526345
Si Si3 0.033851 0.387087 0.184130
Si Si4 0.199985 0.229506 0.083992
Si Si5 0.187632 0.891664 0.677657
Si Si6 0.671022 0.778537 0.830848
Si Si7 0.939931 0.725208 0.451961
Si Si8 0.884198 0.311026 0.707465
O O1 0.931232 0.856818 0.250839
O O2 0.887759 0.826739 0.144210
O O3 0.106702 0.857363 0.113069
O O4 0.955714 0.000000 0.157895
O O5 0.208089 0.157288 0.602498
O O6 0.116842 0.170497 0.516677
O O7 0.343697 0.143522 0.461907
O O8 0.199156 0.000000 0.523280
O O9 0.047248 0.500000 0.167028
O O10 0.142558 0.330035 0.122136
O O11 0.039318 0.365873 0.259328
O O12 0.911638 0.351789 0.185517
O O13 0.304934 0.192614 0.101466
O O14 0.250000 0.250000 0.000000
O O15 0.300904 0.884668 0.692117
O O16 0.167578 0.000000 0.663995
O O17 0.798958 0.771951 0.760291
O O18 0.000000 0.687919 0.500000
O O19 0.027705 0.737883 0.367428
#
# Coordination Sequence:
#
# PCOD8100587 Si02
#       8
#     8   8   8   8   8   8   8   8
#     4   9  19  35  58  84 110 146 189 233 280 333
#     4  10  23  38  55  83 116 150 192 241 291 346
#     4  10  22  39  59  86 118 156 195 239 292 347
#     4  10  22  39  58  86 120 154 188 233 284 342
#     4   9  17  33  57  82 107 141 189 241 286 333
#     4   9  21  37  58  83 116 151 187 239 281 342
#     4  11  23  38  59  84 116 157 195 240 296 350
#     4  10  20  35  60  82 114 149 197 241 290 340
#
# _framework density 19.550536999999998
#
# number of rings (size 3 to 8) (size 9 to 14) (size 15 to 20)
#    0.000    2.250    1.250    0.375    7.000    7.500 
#    0.000    1.875    0.000    0.000    0.000    0.000 
#    0.000    0.000    0.000    0.000    0.000    0.000 
#
# Total GULP energy -396510.956841 kJ/mol
# GULP energy per Si atom -12390.967401 kJ/mol
# Density = 1.950604 g / cm^3
# Si number density = 19.550537 Si / 1000 Ang^3
#
#
#
# Elastic Constant Matrix: (Units=GPa)
#
#
# Indices 1 2 3 4 5 6 
#
# 1 86.5422 20.6883 30.9451 0.0000 -4.8931 0.0000
# 2 20.6883 93.7187 13.7106 0.0000 -13.2441 0.0000
# 3 30.9451 13.7106 88.7992 0.0000 -2.1406 0.0000
# 4 0.0000 0.0000 0.0000 19.0261 0.0000 -1.1027
# 5 -4.8931 -13.2441 -2.1406 0.0000 22.2594 0.0000
# 6 0.0000 0.0000 0.0000 -1.1027 0.0000 17.9721
#
#
#
# Elastic Compliance Matrix: (Units=1/GPa)
#
#
# Indices 1 2 3 4 5 6 
#
# 1 0.013733 -0.002204 -0.004414 0.000000 0.001283 0.000000
# 2 -0.002204 0.012246 -0.000961 0.000000 0.006709 0.000000
# 3 -0.004414 -0.000961 0.012941 0.000000 -0.000298 0.000000
# 4 0.000000 0.000000 0.000000 0.052747 0.000000 0.003236
# 5 0.001283 0.006709 -0.000298 0.000000 0.049170 0.000000
# 6 0.000000 0.000000 0.000000 0.003236 0.000000 0.055840
#
#
# Mechanical properties :
#
#
# Convention : Reuss Voigt Hill
#
# Bulk Modulus (GPa) = 42.08738 44.41644 43.25191
# Shear Modulus (GPa) = 22.75249 25.43259 24.09254
#
# Velocity S-wave (km/s) = 3.41512 3.61066 3.51425
# Velocity P-wave (km/s) = 6.09302 6.33645 6.21593
#
# Compressibility (1/GPa) = 0.02376009
#
# Stress axis : x y z
#
# Youngs Moduli (GPa) = 72.81698 81.66248 77.27445
#
# Poissons Ratio (x) = 0.18002 0.34112
# Poissons Ratio (y) = 0.16052 0.07424
# Poissons Ratio (z) = 0.32145 0.07846
#
# Static dielectric constant tensor:
#      x y z
#    x 3.660500 0.000000 0.055530 
#    y 0.000000 3.303480 0.000000 
#    z 0.055530 0.000000 3.646050 
# 
# 
# High freq. dielectric constant tensor:
#      x y z
#    x 1.766090 0.000000 -0.001590 
#    y 0.000000 1.741110 0.000000 
#    z -0.001590 0.000000 1.757700 
# 
# From -- ./inp_files/305432.got.cif
#   From: 2010.06.25/outbox.cif.g09.slc.cpg/sg12_153_cif.got.tgz:305432.got - 2010.06.28 00:19:55.
