data_PCOD8100339
_publ_section_title
;
Structure prediction by ZEFSAII (Michael W. Deem and Ramdas Pophale) SiO2 
 PCOD8100339
Probable space group: C 2/M
;
_chemical_formula_sum "Si O2"
_cell_formula_units_Z 64
_cell_length_a 18.389584
_cell_length_b 20.730554
_cell_length_c 18.890434
_cell_angle_alpha 90.000000
_cell_angle_beta 154.000677
_cell_angle_gamma 90.000000
_cell_volume 3156.866301
_symmetry_space_group_name_H-M "C 2/M"
_symmetry_group_IT_number 12
_symmetry_cell_setting 'monoclinic'
loop_
_space_group_symop_operation_xyz
x,y,z
-x,y,-z
-x,-y,-z
x,-y,z
1/2+x,1/2+y,z
1/2-x,1/2+y,-z
1/2-x,1/2-y,-z
1/2+x,1/2-y,z
loop_
_atom_site_type_symbol
_atom_site_label
_atom_site_fract_x
_atom_site_fract_y
_atom_site_fract_z
Si Si1 0.373037 0.236597 0.719781
Si Si2 0.074820 0.075578 0.140075
Si Si3 0.379906 0.344329 0.071915
Si Si4 0.191555 0.427557 0.154601
Si Si5 0.419882 0.659506 0.267470
Si Si6 0.533214 0.195675 0.722083
Si Si7 0.120865 0.659222 0.542678
Si Si8 0.347170 0.642241 0.409176
O O1 0.534025 0.278387 0.882279
O O2 0.389800 0.208142 0.655007
O O3 0.210503 0.280823 0.583185
O O4 0.326745 0.181639 0.736504
O O5 0.252105 0.106623 0.315721
O O6 0.936684 0.094317 0.076355
O O7 0.105777 0.000000 0.166057
O O8 0.000000 0.100173 0.000000
O O9 0.440422 0.359045 0.203782
O O10 0.184551 0.334626 0.898677
O O11 0.221473 0.500000 0.151976
O O12 0.254554 0.374202 0.153638
O O13 0.294867 0.420850 0.318796
O O14 0.000000 0.414458 0.000000
O O15 0.410201 0.737254 0.266063
O O16 0.581077 0.629876 0.449125
O O17 0.487491 0.141074 0.622263
O O18 0.000000 0.680007 0.500000
O O19 0.500000 0.677297 0.500000
#
# Coordination Sequence:
#
# PCOD8100339 Si02
#       8
#     8   8   8   8   8   8   8   8
#     4  10  20  35  58  87 127 159 184 242 300 356
#     4  10  23  45  64  84 116 158 202 252 307 360
#     4  10  23  38  61  93 117 159 202 243 301 363
#     4  10  24  42  59  85 120 162 211 253 292 346
#     4  10  21  37  61  87 124 161 196 244 300 359
#     4  11  22  37  58  92 130 155 192 248 309 363
#     4  11  22  36  62  90 122 154 197 245 300 365
#     4  10  21  36  59  88 119 165 196 243 296 351
#
# _framework density 20.273268999999999
#
# number of rings (size 3 to 8) (size 9 to 14) (size 15 to 20)
#    0.000    1.750    1.250    3.000    8.750    3.000 
#    0.000    0.625    0.000    0.000    0.000    0.000 
#    0.000    0.000    0.000    0.000    0.000    0.000 
#
# Total GULP energy -396428.759851 kJ/mol
# GULP energy per Si atom -12388.398745 kJ/mol
# Density = 2.022713 g / cm^3
# Si number density = 20.273269 Si / 1000 Ang^3
#
#
#
# Elastic Constant Matrix: (Units=GPa)
#
#
# Indices 1 2 3 4 5 6 
#
# 1 135.0052 48.5089 63.8542 -0.0073 0.5994 0.0035
# 2 48.5089 67.3693 32.5141 -0.0186 0.4705 -0.0062
# 3 63.8542 32.5141 113.6034 -0.0147 -10.9134 -0.0075
# 4 -0.0073 -0.0186 -0.0147 23.3453 -0.0206 -4.2337
# 5 0.5994 0.4705 -10.9134 -0.0206 39.1700 -0.0062
# 6 0.0035 -0.0062 -0.0075 -4.2337 -0.0062 17.5063
#
#
#
# Elastic Compliance Matrix: (Units=1/GPa)
#
#
# Indices 1 2 3 4 5 6 
#
# 1 0.012085 -0.006197 -0.005168 -0.000007 -0.001550 -0.000009
# 2 -0.006197 0.020501 -0.002465 0.000014 -0.000838 0.000011
# 3 -0.005168 -0.002465 0.012765 0.000009 0.003665 0.000009
# 4 -0.000007 0.000014 0.000009 0.044800 0.000028 0.010834
# 5 -0.001550 -0.000838 0.003665 0.000028 0.026585 0.000018
# 6 -0.000009 0.000011 0.000009 0.010834 0.000018 0.059742
#
#
# Mechanical properties :
#
#
# Convention : Reuss Voigt Hill
#
# Bulk Modulus (GPa) = 56.52468 67.30359 61.91413
# Shear Modulus (GPa) = 23.80559 27.41104 25.60832
#
# Velocity S-wave (km/s) = 3.43043 3.68105 3.55795
# Velocity P-wave (km/s) = 6.60548 7.16499 6.89092
#
# Compressibility (1/GPa) = 0.01769139
#
# Stress axis : x y z
#
# Youngs Moduli (GPa) = 82.74797 48.77826 78.33879
#
# Poissons Ratio (x) = 0.30226 0.40486
# Poissons Ratio (y) = 0.51275 0.19311
# Poissons Ratio (z) = 0.42765 0.12024
#
# Static dielectric constant tensor:
#      x y z
#    x 3.864780 -0.000140 0.041200 
#    y -0.000140 3.343460 -0.000090 
#    z 0.041200 -0.000090 3.879460 
# 
# 
# High freq. dielectric constant tensor:
#      x y z
#    x 1.802140 0.000000 0.002080 
#    y 0.000000 1.747740 -0.000010 
#    z 0.002080 -0.000010 1.805770 
# 
# From -- ./inp_files/279120.got.cif
#   From: 2010.06.25/outbox.cif.g09.slc.cpg/sg12_140_cif.got.tgz:279120.got - 2010.06.28 00:19:55.
