data_PCOD8100316
_publ_section_title
;
Structure prediction by ZEFSAII (Michael W. Deem and Ramdas Pophale) SiO2 
 PCOD8100316
Probable space group: C 2/M
;
_chemical_formula_sum "Si O2"
_cell_formula_units_Z 64
_cell_length_a 34.574958
_cell_length_b 13.765669
_cell_length_c 9.426672
_cell_angle_alpha 90.000000
_cell_angle_beta 45.359929
_cell_angle_gamma 90.000000
_cell_volume 3192.372268
_symmetry_space_group_name_H-M "C 2/M"
_symmetry_group_IT_number 12
_symmetry_cell_setting 'monoclinic'
loop_
_space_group_symop_operation_xyz
x,y,z
-x,y,-z
-x,-y,-z
x,-y,z
1/2+x,1/2+y,z
1/2-x,1/2+y,-z
1/2-x,1/2-y,-z
1/2+x,1/2-y,z
loop_
_atom_site_type_symbol
_atom_site_label
_atom_site_fract_x
_atom_site_fract_y
_atom_site_fract_z
Si Si1 0.970688 0.389313 0.224902
Si Si2 0.813685 0.247799 0.311990
Si Si3 0.354787 0.886665 0.975150
Si Si4 0.859577 0.725510 0.498822
Si Si5 0.881953 0.889792 0.963575
Si Si6 0.159219 0.889290 0.245399
Si Si7 0.781962 0.386371 0.892898
Si Si8 0.039549 0.727340 0.272735
O O1 0.963689 0.500000 0.296093
O O2 0.911865 0.342162 0.367111
O O3 0.008151 0.331656 0.235716
O O4 0.000000 0.385928 0.000000
O O5 0.750000 0.250000 0.500000
O O6 0.846326 0.243387 0.373961
O O7 0.831204 0.343964 0.181696
O O8 0.829687 0.151577 0.181856
O O9 0.314451 0.861044 0.951718
O O10 0.412515 0.839526 0.786988
O O11 0.362624 0.000000 0.977963
O O12 0.871047 0.822620 0.561136
O O13 0.808431 0.666419 0.690935
O O14 0.872001 0.881985 0.821817
O O15 0.934994 0.824947 0.862331
O O16 0.892426 0.000000 0.984771
O O17 0.159694 0.000000 0.300452
O O18 0.220487 0.849003 0.069615
O O19 0.782094 0.500000 0.859126
O O20 0.000000 0.758986 0.500000
#
# Coordination Sequence:
#
# PCOD8100316 Si02
#       8
#     8   8   8   8   8   8   8   8
#     4  11  24  41  59  82 115 152 189 234 288 342
#     4  11  23  37  58  88 121 158 193 232 287 345
#     4  10  21  37  56  83 119 154 192 238 288 348
#     4  12  22  36  60  86 117 150 193 241 284 342
#     4  10  22  41  61  83 115 152 194 240 287 345
#     4  10  21  38  60  85 115 151 189 235 288 342
#     4  10  20  35  58  87 117 151 190 233 286 346
#     4  11  22  38  60  85 112 145 192 243 293 340
#
# _framework density 20.047787
#
# number of rings (size 3 to 8) (size 9 to 14) (size 15 to 20)
#    0.000    1.375    0.000    7.125    0.000    5.250 
#    0.000    0.625    0.000    1.500    0.000    0.000 
#    0.000    0.000    0.000    0.000    0.000    0.000 
#
# Total GULP energy -396971.826658 kJ/mol
# GULP energy per Si atom -12405.369583 kJ/mol
# Density = 2.000216 g / cm^3
# Si number density = 20.047787 Si / 1000 Ang^3
#
#
#
# Elastic Constant Matrix: (Units=GPa)
#
#
# Indices 1 2 3 4 5 6 
#
# 1 69.0383 41.9078 20.7483 0.0000 -9.0219 0.0000
# 2 41.9078 131.4892 55.1019 0.0000 -8.3711 0.0000
# 3 20.7483 55.1019 104.9100 0.0000 -9.5179 0.0000
# 4 0.0000 0.0000 0.0000 35.9808 0.0000 0.9801
# 5 -9.0219 -8.3711 -9.5179 0.0000 36.9605 0.0000
# 6 0.0000 0.0000 0.0000 0.9801 0.0000 33.1037
#
#
#
# Elastic Compliance Matrix: (Units=1/GPa)
#
#
# Indices 1 2 3 4 5 6 
#
# 1 0.018343 -0.005444 -0.000485 0.000000 0.003119 0.000000
# 2 -0.005444 0.011397 -0.004911 0.000000 -0.000012 0.000000
# 3 -0.000485 -0.004911 0.012385 0.000000 0.001959 0.000000
# 4 0.000000 0.000000 0.000000 0.027815 0.000000 -0.000823
# 5 0.003119 -0.000012 0.001959 0.000000 0.028319 0.000000
# 6 0.000000 0.000000 0.000000 -0.000823 0.000000 0.030233
#
#
# Mechanical properties :
#
#
# Convention : Reuss Voigt Hill
#
# Bulk Modulus (GPa) = 48.91178 60.10598 54.50888
# Shear Modulus (GPa) = 31.84973 33.72096 32.78535
#
# Velocity S-wave (km/s) = 3.99016 4.10570 4.04835
# Velocity P-wave (km/s) = 6.75863 7.24722 7.00718
#
# Compressibility (1/GPa) = 0.02044497
#
# Stress axis : x y z
#
# Youngs Moduli (GPa) = 54.51675 87.73882 80.74367
#
# Poissons Ratio (x) = 0.47768 0.03918
# Poissons Ratio (y) = 0.29680 0.39650
# Poissons Ratio (z) = 0.02645 0.43086
#
# Static dielectric constant tensor:
#      x y z
#    x 3.714550 0.000000 -0.080250 
#    y 0.000000 3.887060 0.000000 
#    z -0.080250 0.000000 3.826210 
# 
# 
# High freq. dielectric constant tensor:
#      x y z
#    x 1.784660 0.000000 -0.002300 
#    y 0.000000 1.795210 0.000000 
#    z -0.002300 0.000000 1.785360 
# 
# From -- ./inp_files/111973.got.cif
#   From: 2010.06.25/outbox.cif.g09.slc.cpg/sg12_56_cif.got.tgz:111973.got - 2010.06.28 00:19:55.
