data_PCOD8100264
_publ_section_title
;
Structure prediction by ZEFSAII (Michael W. Deem and Ramdas Pophale) SiO2 
 PCOD8100264
Probable space group: C 2/M
;
_chemical_formula_sum "Si O2"
_cell_formula_units_Z 64
_cell_length_a 8.754634
_cell_length_b 30.967718
_cell_length_c 14.856975
_cell_angle_alpha 90.000000
_cell_angle_beta 53.889275
_cell_angle_gamma 90.000000
_cell_volume 3254.049999
_symmetry_space_group_name_H-M "C 2/M"
_symmetry_group_IT_number 12
_symmetry_cell_setting 'monoclinic'
loop_
_space_group_symop_operation_xyz
x,y,z
-x,y,-z
-x,-y,-z
x,-y,z
1/2+x,1/2+y,z
1/2-x,1/2+y,-z
1/2-x,1/2-y,-z
1/2+x,1/2-y,z
loop_
_atom_site_type_symbol
_atom_site_label
_atom_site_fract_x
_atom_site_fract_y
_atom_site_fract_z
Si Si1 0.681871 0.675841 0.500010
Si Si2 0.194100 0.625364 0.124496
Si Si3 0.943013 0.125365 0.875553
Si Si4 0.320341 0.422530 0.499983
Si Si5 0.900534 0.048379 0.276266
Si Si6 0.953039 0.451623 0.723691
Si Si7 0.910208 0.205773 0.271540
Si Si8 0.953265 0.705776 0.728430
O O1 0.500000 0.679619 0.500000
O O2 0.740212 0.626526 0.499998
O O3 0.642469 0.699507 0.606712
O O4 0.855908 0.699522 0.393339
O O5 0.381749 0.624536 0.118265
O O6 0.071111 0.582352 0.186455
O O7 0.070442 0.667280 0.191462
O O8 0.248985 0.626464 0.000034
O O9 0.943910 0.082352 0.813614
O O10 0.953261 0.167283 0.808605
O O11 0.500000 0.423198 0.500000
O O12 0.370989 0.447533 0.392180
O O13 0.155322 0.447546 0.607747
O O14 0.700431 0.058250 0.299605
O O15 0.971847 0.000000 0.229014
O O16 0.929834 0.500000 0.770952
O O17 0.721623 0.208048 0.278404
O O18 0.028729 0.250001 0.221303
#
# Coordination Sequence:
#
# PCOD8100264 Si02
#       8
#     8   8   8   8   8   8   8   8
#     4  11  22  37  58  84 113 146 186 228 277 335
#     4   9  19  36  57  82 112 147 187 230 276 323
#     4   9  19  36  57  82 112 147 187 230 276 323
#     4  11  22  35  56  83 116 150 182 226 279 335
#     4  10  20  35  58  86 114 146 186 229 273 328
#     4  10  20  35  58  86 114 146 186 229 273 328
#     4  11  22  37  59  84 114 148 183 227 277 331
#     4  11  22  37  59  84 114 148 183 227 277 331
#
# _framework density 19.667798999999999
#
# number of rings (size 3 to 8) (size 9 to 14) (size 15 to 20)
#    0.000    1.750    2.500    2.250    0.000    4.000 
#    0.000    2.500    0.000    6.000    0.000    1.750 
#    0.000    0.000    0.000    0.000    0.000    0.000 
#
# Total GULP energy -396894.834795 kJ/mol
# GULP energy per Si atom -12402.963587 kJ/mol
# Density = 1.962303 g / cm^3
# Si number density = 19.667799 Si / 1000 Ang^3
#
#
#
# Elastic Constant Matrix: (Units=GPa)
#
#
# Indices 1 2 3 4 5 6 
#
# 1 48.6443 33.9016 22.4750 0.0000 -0.5987 0.0000
# 2 33.9016 174.0154 75.7710 0.0000 1.1626 0.0000
# 3 22.4750 75.7710 158.4373 0.0000 3.6102 0.0000
# 4 0.0000 0.0000 0.0000 13.7089 0.0000 -0.3849
# 5 -0.5987 1.1626 3.6102 0.0000 1.9205 0.0000
# 6 0.0000 0.0000 0.0000 -0.3849 0.0000 28.0957
#
#
#
# Elastic Compliance Matrix: (Units=1/GPa)
#
#
# Indices 1 2 3 4 5 6 
#
# 1 0.024388 -0.004043 -0.001834 0.000000 0.013497 0.000000
# 2 -0.004043 0.007937 -0.003222 0.000000 -0.000008 0.000000
# 3 -0.001834 -0.003222 0.008443 0.000000 -0.014492 0.000000
# 4 0.000000 0.000000 0.000000 0.072974 0.000000 0.001000
# 5 0.013497 -0.000008 -0.014492 0.000000 0.552159 0.000000
# 6 0.000000 0.000000 0.000000 0.001000 0.000000 0.035606
#
#
# Mechanical properties :
#
#
# Convention : Reuss Voigt Hill
#
# Bulk Modulus (GPa) = 44.30480 71.71027 58.00753
# Shear Modulus (GPa) = 6.87541 25.34163 16.10852
#
# Velocity S-wave (km/s) = 1.87173 3.59344 2.86497
# Velocity P-wave (km/s) = 5.21983 7.33191 6.36410
#
# Compressibility (1/GPa) = 0.02257092
#
# Stress axis : x y z
#
# Youngs Moduli (GPa) = 41.00298 125.98557 118.44164
#
# Poissons Ratio (x) = 0.50938 0.21717
# Poissons Ratio (y) = 0.16578 0.38165
# Poissons Ratio (z) = 0.07518 0.40596
#
# Static dielectric constant tensor:
#      x y z
#    x 3.303660 0.000000 0.009900 
#    y 0.000000 3.942040 0.000000 
#    z 0.009900 0.000000 3.665180 
# 
# 
# High freq. dielectric constant tensor:
#      x y z
#    x 1.740410 0.000000 0.000570 
#    y 0.000000 1.787840 0.000000 
#    z 0.000570 0.000000 1.761180 
# 
# From -- ./inp_files/201232.got.cif
#   From: 2010.06.25/outbox.cif.g09.slc.cpg/sg12_101_cif.got.tgz:201232.got - 2010.06.28 00:19:55.
