data_PCOD8100767
_publ_section_title
;
Structure prediction by ZEFSAII (Michael W. Deem and Ramdas Pophale) SiO2 
 PCOD8100767
Probable space group: C 2/M
;
_chemical_formula_sum "Si O2"
_cell_formula_units_Z 64
_cell_length_a 24.145248
_cell_length_b 9.170503
_cell_length_c 21.222207
_cell_angle_alpha 90.000000
_cell_angle_beta 128.075249
_cell_angle_gamma 90.000000
_cell_volume 3699.144417
_symmetry_space_group_name_H-M "C 2/M"
_symmetry_group_IT_number 12
_symmetry_cell_setting 'monoclinic'
loop_
_space_group_symop_operation_xyz
x,y,z
-x,y,-z
-x,-y,-z
x,-y,z
1/2+x,1/2+y,z
1/2-x,1/2+y,-z
1/2-x,1/2-y,-z
1/2+x,1/2-y,z
loop_
_atom_site_type_symbol
_atom_site_label
_atom_site_fract_x
_atom_site_fract_y
_atom_site_fract_z
Si Si1 0.985490 0.331577 0.211793
Si Si2 0.649893 0.167510 0.951429
Si Si3 0.273283 0.829488 0.368745
Si Si4 0.837711 0.671980 0.280580
Si Si5 0.643355 0.833685 0.327538
Si Si6 0.384913 0.171591 0.549553
Si Si7 0.255728 0.830427 0.100185
Si Si8 0.026635 0.174128 0.667519
O O1 0.976657 0.500000 0.228563
O O2 0.065174 0.303282 0.245392
O O3 0.933117 0.299432 0.116630
O O4 0.965056 0.227852 0.255070
O O5 0.688056 0.214717 0.913486
O O6 0.663820 0.000000 0.976158
O O7 0.680741 0.255341 0.032457
O O8 0.299919 0.785647 0.318724
O O9 0.196883 0.762405 0.325680
O O10 0.328341 0.772208 0.459352
O O11 0.264232 0.000000 0.369786
O O12 0.855216 0.500000 0.288361
O O13 0.785560 0.721890 0.188095
O O14 0.909096 0.763973 0.328208
O O15 0.645482 0.792598 0.402771
O O16 0.665441 0.000000 0.333307
O O17 0.455640 0.262425 0.587007
O O18 0.402021 0.000000 0.554655
O O19 0.240799 0.000000 0.090633
O O20 0.025683 0.000000 0.664613
#
# Coordination Sequence:
#
# PCOD8100767 Si02
#       8
#     8   8   8   8   8   8   8   8
#     4   9  17  33  53  74 102 136 164 196 250 304
#     4   9  16  28  49  74 100 128 160 199 240 290
#     4  10  21  35  54  74  94 130 177 209 240 294
#     4  10  20  36  52  68 100 141 169 197 243 303
#     4   9  18  32  53  75 100 128 159 206 258 296
#     4   9  19  36  54  73  98 131 165 204 253 303
#     4   9  17  29  47  71 100 131 160 198 242 288
#     4  11  21  31  49  77 102 129 164 208 250 290
#
# _framework density 17.301297999999999
#
# number of rings (size 3 to 8) (size 9 to 14) (size 15 to 20)
#    0.000    2.500    1.250    2.250    0.000    4.500 
#    0.000    2.500    0.000    0.750    0.000    5.250 
#    0.000    0.000    0.000    0.000    0.000    0.000 
#
# Total GULP energy -396799.322057 kJ/mol
# GULP energy per Si atom -12399.978814 kJ/mol
# Density = 1.726192 g / cm^3
# Si number density = 17.301298 Si / 1000 Ang^3
#
#
#
# Elastic Constant Matrix: (Units=GPa)
#
#
# Indices 1 2 3 4 5 6 
#
# 1 110.2655 51.9331 64.2690 0.0000 13.9888 0.0000
# 2 51.9331 59.7117 37.2048 0.0000 9.8827 0.0000
# 3 64.2690 37.2048 97.2772 0.0000 24.8185 0.0000
# 4 0.0000 0.0000 0.0000 26.2539 0.0000 6.1222
# 5 13.9888 9.8827 24.8185 0.0000 19.6665 0.0000
# 6 0.0000 0.0000 0.0000 6.1222 0.0000 27.1567
#
#
#
# Elastic Compliance Matrix: (Units=1/GPa)
#
#
# Indices 1 2 3 4 5 6 
#
# 1 0.019673 -0.011865 -0.009455 0.000000 0.003901 0.000000
# 2 -0.011865 0.029148 -0.002545 0.000000 -0.002996 0.000000
# 3 -0.009455 -0.002545 0.022798 0.000000 -0.020766 0.000000
# 4 0.000000 0.000000 0.000000 0.040203 0.000000 -0.009063
# 5 0.003901 -0.002996 -0.020766 0.000000 0.075786 0.000000
# 6 0.000000 0.000000 0.000000 -0.009063 0.000000 0.038867
#
#
# Mechanical properties :
#
#
# Convention : Reuss Voigt Hill
#
# Bulk Modulus (GPa) = 41.85825 63.78534 52.82179
# Shear Modulus (GPa) = 17.72005 22.20524 19.96265
#
# Velocity S-wave (km/s) = 3.20379 3.58640 3.40048
# Velocity P-wave (km/s) = 6.15889 7.35508 6.78340
#
# Compressibility (1/GPa) = 0.02389016
#
# Stress axis : x y z
#
# Youngs Moduli (GPa) = 50.83063 34.30801 43.86365
#
# Poissons Ratio (x) = 0.40706 0.41473
# Poissons Ratio (y) = 0.60309 0.11161
# Poissons Ratio (z) = 0.48060 0.08730
#
# Static dielectric constant tensor:
#      x y z
#    x 2.997270 0.000000 0.158300 
#    y 0.000000 3.106390 0.000000 
#    z 0.158300 0.000000 3.424480 
# 
# 
# High freq. dielectric constant tensor:
#      x y z
#    x 1.641070 0.000000 0.017840 
#    y 0.000000 1.659670 0.000000 
#    z 0.017840 0.000000 1.673980 
# 
# From -- ./inp_files/320130.got.cif
#   From: 2010.06.25/outbox.cif.g09.slc.cpg/sg12_161_cif.got.tgz:320130.got - 2010.06.28 00:19:55.
