data_PCOD8100151
_publ_section_title
;
Structure prediction by ZEFSAII (Michael W. Deem and Ramdas Pophale) SiO2 
 PCOD8100151
Probable space group: C 2/M
;
_chemical_formula_sum "Si O2"
_cell_formula_units_Z 64
_cell_length_a 21.551897
_cell_length_b 9.366621
_cell_length_c 19.221226
_cell_angle_alpha 90.000000
_cell_angle_beta 59.115575
_cell_angle_gamma 90.000000
_cell_volume 3329.969910
_symmetry_space_group_name_H-M "C 2/M"
_symmetry_group_IT_number 12
_symmetry_cell_setting 'monoclinic'
loop_
_space_group_symop_operation_xyz
x,y,z
-x,y,-z
-x,-y,-z
x,-y,z
1/2+x,1/2+y,z
1/2-x,1/2+y,-z
1/2-x,1/2-y,-z
1/2+x,1/2-y,z
loop_
_atom_site_type_symbol
_atom_site_label
_atom_site_fract_x
_atom_site_fract_y
_atom_site_fract_z
Si Si1 0.288207 0.666532 0.663039
Si Si2 0.952713 0.836004 0.595608
Si Si3 0.689702 0.155724 0.006220
Si Si4 0.079478 0.156453 0.850042
Si Si5 0.665944 0.663405 0.658137
Si Si6 0.035516 0.670166 0.669476
Si Si7 0.689247 0.844971 0.846589
Si Si8 0.962112 0.334775 0.857176
O O1 0.283830 0.500000 0.643908
O O2 0.371797 0.716983 0.621123
O O3 0.242601 0.755839 0.630458
O O4 0.256520 0.695018 0.758354
O O5 0.990774 0.736072 0.631132
O O6 0.000000 0.824398 0.500000
O O7 0.949750 0.000000 0.624715
O O8 0.709499 0.145402 0.914358
O O9 0.693340 0.000000 0.038227
O O10 0.750000 0.250000 0.000000
O O11 0.615704 0.224530 0.076212
O O12 0.122860 0.155185 0.753738
O O13 0.129234 0.223488 0.880210
O O14 0.010417 0.253842 0.884631
O O15 0.055842 0.000000 0.887204
O O16 0.680124 0.500000 0.622490
O O17 0.614416 0.752383 0.633756
O O18 0.048220 0.500000 0.651307
O O19 0.984291 0.699568 0.765344
O O20 0.659283 0.000000 0.838148
O O21 0.970243 0.500000 0.869436
#
# Coordination Sequence:
#
# PCOD8100151 Si02
#       8
#     8   8   8   8   8   8   8   8
#     4   9  18  34  57  81 108 143 182 221 268 327
#     4  10  22  39  58  83 114 144 177 223 275 326
#     4  10  22  36  49  70 103 140 180 221 262 306
#     4   9  17  30  51  78 103 131 173 221 264 307
#     4   9  17  32  55  84 112 140 179 226 271 319
#     4  10  20  35  58  83 110 146 185 223 268 325
#     4   9  18  33  52  74 101 138 175 212 261 315
#     4   9  19  35  52  74 105 141 175 214 264 314
#
# _framework density 19.219393
#
# number of rings (size 3 to 8) (size 9 to 14) (size 15 to 20)
#    0.000    2.625    0.000    1.125    1.750    5.750 
#    0.000    3.125    0.000    0.000    0.000    0.000 
#    0.000    0.000    0.000    0.000    0.000    0.000 
#
# Total GULP energy -396441.307948 kJ/mol
# GULP energy per Si atom -12388.790873 kJ/mol
# Density = 1.917565 g / cm^3
# Si number density = 19.219393 Si / 1000 Ang^3
#
#
#
# Elastic Constant Matrix: (Units=GPa)
#
#
# Indices 1 2 3 4 5 6 
#
# 1 158.6655 77.9798 43.4224 0.0000 -20.9863 -0.0001
# 2 77.9798 100.3401 29.8519 -0.0001 -6.6901 -0.0008
# 3 43.4224 29.8519 60.3820 0.0000 -14.8732 0.0001
# 4 0.0000 -0.0001 0.0000 16.0016 0.0000 1.1211
# 5 -20.9863 -6.6901 -14.8732 0.0000 17.8615 0.0000
# 6 -0.0001 -0.0008 0.0001 1.1211 0.0000 41.1690
#
#
#
# Elastic Compliance Matrix: (Units=1/GPa)
#
#
# Indices 1 2 3 4 5 6 
#
# 1 0.012193 -0.008123 -0.002482 0.000000 0.009217 0.000000
# 2 -0.008123 0.017100 -0.004260 0.000000 -0.006686 0.000000
# 3 -0.002482 -0.004260 0.024331 0.000000 0.015748 0.000000
# 4 0.000000 0.000000 0.000000 0.062613 0.000000 -0.001705
# 5 0.009217 -0.006686 0.015748 0.000000 0.077425 0.000000
# 6 0.000000 0.000000 0.000000 -0.001705 0.000000 0.024337
#
#
# Mechanical properties :
#
#
# Convention : Reuss Voigt Hill
#
# Bulk Modulus (GPa) = 41.84946 69.09952 55.47449
# Shear Modulus (GPa) = 19.55456 26.21531 22.88494
#
# Velocity S-wave (km/s) = 3.19319 3.69725 3.45443
# Velocity P-wave (km/s) = 5.95123 7.36595 6.69606
#
# Compressibility (1/GPa) = 0.02389517
#
# Stress axis : x y z
#
# Youngs Moduli (GPa) = 82.01260 58.47814 41.09928
#
# Poissons Ratio (x) = 0.47502 0.10202
# Poissons Ratio (y) = 0.66619 0.17506
# Poissons Ratio (z) = 0.20358 0.24909
#
# Static dielectric constant tensor:
#      x y z
#    x 3.540840 0.000000 -0.117380 
#    y 0.000000 3.795440 0.000000 
#    z -0.117380 0.000000 3.018120 
# 
# 
# High freq. dielectric constant tensor:
#      x y z
#    x 1.746340 0.000000 -0.007970 
#    y 0.000000 1.752610 0.000000 
#    z -0.007970 0.000000 1.729930 
# 
# From -- ./inp_files/319922.got.cif
#   From: 2010.06.25/outbox.cif.g09.slc.cpg/sg12_160_cif.got.tgz:319922.got - 2010.06.28 00:19:55.
