data_PCOD8100666
_publ_section_title
;
Structure prediction by ZEFSAII (Michael W. Deem and Ramdas Pophale) SiO2 
 PCOD8100666
Probable space group: C 2/M
;
_chemical_formula_sum "Si O2"
_cell_formula_units_Z 48
_cell_length_a 21.675932
_cell_length_b 18.545497
_cell_length_c 10.088996
_cell_angle_alpha 90.000000
_cell_angle_beta 35.679007
_cell_angle_gamma 90.000000
_cell_volume 2365.452374
_symmetry_space_group_name_H-M "C 2/M"
_symmetry_group_IT_number 12
_symmetry_cell_setting 'monoclinic'
loop_
_space_group_symop_operation_xyz
x,y,z
-x,y,-z
-x,-y,-z
x,-y,z
1/2+x,1/2+y,z
1/2-x,1/2+y,-z
1/2-x,1/2-y,-z
1/2+x,1/2-y,z
loop_
_atom_site_type_symbol
_atom_site_label
_atom_site_fract_x
_atom_site_fract_y
_atom_site_fract_z
Si Si1 0.722400 0.585270 0.491687
Si Si2 0.564202 0.922424 0.016076
Si Si3 0.677419 0.192117 0.199239
Si Si4 0.003777 0.297720 0.295707
Si Si5 0.504525 0.345385 0.840547
Si Si6 0.705620 0.582485 0.821703
O O1 0.700509 0.500000 0.526562
O O2 0.820006 0.607695 0.227411
O O3 0.622103 0.626592 0.603178
O O4 0.744224 0.608006 0.607418
O O5 0.575326 0.000000 0.073898
O O6 0.500000 0.942083 0.000000
O O7 0.492302 0.863651 0.214900
O O8 0.607376 0.223152 0.442091
O O9 0.593042 0.168772 0.236043
O O10 0.743698 0.126267 0.144383
O O11 0.750000 0.250000 0.000000
O O12 0.036620 0.223478 0.169573
O O13 0.500000 0.321184 0.000000
O O14 0.421512 0.408862 0.953440
O O15 0.735991 0.500000 0.794148
#
# Coordination Sequence:
#
# PCOD8100666 Si02
#       6
#     8   8   8   8   8   8
#     4   9  19  35  61  94 125 153 187 242 303 359
#     4  10  21  39  61  90 125 156 194 244 297 354
#     4  11  24  42  59  81 117 160 202 246 287 341
#     4  11  24  39  61  85 117 157 202 246 293 347
#     4  10  20  35  60  93 123 153 193 243 301 361
#     4  10  20  38  63  89 119 157 198 243 297 355
#
# _framework density 20.292100999999999
#
# number of rings (size 3 to 8) (size 9 to 14) (size 15 to 20)
#    0.000    1.833    1.667    2.000    2.333    4.667 
#    0.000    5.833    0.000    1.000    0.000    0.000 
#    0.000    0.000    0.000    0.000    0.000    0.000 
#
# Total GULP energy -297370.477785 kJ/mol
# GULP energy per Si atom -12390.436574 kJ/mol
# Density = 2.024592 g / cm^3
# Si number density = 20.292101 Si / 1000 Ang^3
#
#
#
# Elastic Constant Matrix: (Units=GPa)
#
#
# Indices 1 2 3 4 5 6 
#
# 1 87.8692 40.9680 25.0747 0.0000 -7.6818 0.0000
# 2 40.9680 93.9419 39.0779 0.0000 8.0013 0.0000
# 3 25.0747 39.0779 117.1679 0.0000 -1.9985 0.0000
# 4 0.0000 0.0000 0.0000 -105.3381 0.0000 -83.6941
# 5 -7.6818 8.0013 -1.9985 0.0000 26.9934 0.0000
# 6 0.0000 0.0000 0.0000 -83.6941 0.0000 -14.9269
#
#
#
# Elastic Compliance Matrix: (Units=1/GPa)
#
#
# Indices 1 2 3 4 5 6 
#
# 1 0.015402 -0.006888 -0.000890 0.000000 0.006359 0.000000
# 2 -0.006888 0.015881 -0.003941 0.000000 -0.006959 0.000000
# 3 -0.000890 -0.003941 0.010068 0.000000 0.001660 0.000000
# 4 0.000000 0.000000 0.000000 0.002748 0.000000 -0.015407
# 5 0.006359 -0.006959 0.001660 0.000000 0.041042 0.000000
# 6 0.000000 0.000000 0.000000 -0.015407 0.000000 0.019391
#
#
# Mechanical properties :
#
#
# Convention : Reuss Voigt Hill
#
# Bulk Modulus (GPa) = 55.82915 56.58001 56.20458
# Shear Modulus (GPa) = 37.32977 -5.73042 15.79967
#
# Velocity S-wave (km/s) = 4.29373 -1.68229 2.79339
# Velocity P-wave (km/s) = 7.22177 4.91628 6.17753
#
# Compressibility (1/GPa) = 0.01791179
#
# Stress axis : x y z
#
# Youngs Moduli (GPa) = 64.92654 62.96841 99.32349
#
# Poissons Ratio (x) = 0.43373 0.08843
# Poissons Ratio (y) = 0.44722 0.39146
# Poissons Ratio (z) = 0.05781 0.24817
#
# Static dielectric constant tensor:
#      x y z
#    x 3.725610 0.000000 -0.052240 
#    y 0.000000 3.421620 0.000000 
#    z -0.052240 0.000000 3.890270 
# 
# 
# High freq. dielectric constant tensor:
#      x y z
#    x 1.786000 0.000000 -0.012310 
#    y 0.000000 1.782880 0.000000 
#    z -0.012310 0.000000 1.800340 
# 
# From -- ./inp_files/177298.got.cif
#   From: 2010.06.25/outbox.cif.g09.slc.cpg/sg12_89_cif.got.tgz:177298.got - 2010.06.28 00:19:55.
