data_PCOD8100294
_publ_section_title
;
Structure prediction by ZEFSAII (Michael W. Deem and Ramdas Pophale) SiO2 
 PCOD8100294
Probable space group: C 2/M
;
_chemical_formula_sum "Si O2"
_cell_formula_units_Z 56
_cell_length_a 20.407473
_cell_length_b 8.620500
_cell_length_c 30.042615
_cell_angle_alpha 90.000000
_cell_angle_beta 33.591457
_cell_angle_gamma 90.000000
_cell_volume 2924.115092
_symmetry_space_group_name_H-M "C 2/M"
_symmetry_group_IT_number 12
_symmetry_cell_setting 'monoclinic'
loop_
_space_group_symop_operation_xyz
x,y,z
-x,y,-z
-x,-y,-z
x,-y,z
1/2+x,1/2+y,z
1/2-x,1/2+y,-z
1/2-x,1/2-y,-z
1/2+x,1/2-y,z
loop_
_atom_site_type_symbol
_atom_site_label
_atom_site_fract_x
_atom_site_fract_y
_atom_site_fract_z
Si Si1 0.794392 0.320056 0.406135
Si Si2 0.601654 0.317724 0.821840
Si Si3 0.080437 0.680291 0.573083
Si Si4 0.664779 0.318904 0.271761
Si Si5 0.434445 0.316934 0.994008
Si Si6 0.319732 0.818618 0.833864
Si Si7 0.541243 0.320164 0.755583
O O1 0.800599 0.500000 0.390437
O O2 0.878379 0.278739 0.400288
O O3 0.659584 0.273646 0.492874
O O4 0.839962 0.221232 0.338567
O O5 0.626400 0.500000 0.814086
O O6 0.720593 0.225414 0.764940
O O7 0.497802 0.256806 0.913394
O O8 0.560821 0.276590 0.795575
O O9 0.096365 0.500000 0.553937
O O10 0.945157 0.729632 0.643873
O O11 0.639830 0.500000 0.289475
O O12 0.680334 0.274637 0.211743
O O13 0.446711 0.500000 0.988982
O O14 0.500000 0.244303 0.000000
O O15 0.296595 0.268572 0.072392
O O16 0.432986 0.782064 0.799413
O O17 0.318434 0.000000 0.822483
O O18 0.510477 0.500000 0.766775
#
# Coordination Sequence:
#
# PCOD8100294 Si02
#       7
#     8   8   8   8   8   8   8
#     4  10  20  35  58  86 119 155 191 237 288 342
#     4  10  22  41  61  83 116 159 198 238 295 353
#     4  10  20  35  59  88 117 151 192 240 289 341
#     4  12  23  36  58  89 120 151 194 245 291 343
#     4   9  17  34  61  86 111 149 200 245 288 345
#     4  11  21  36  61  86 114 155 199 242 290 347
#     4  11  23  38  58  86 122 157 193 240 292 349
#
# _framework density 19.151092999999999
#
# number of rings (size 3 to 8) (size 9 to 14) (size 15 to 20)
#    0.000    1.571    2.857    3.000    0.000    2.857 
#    0.000    2.857    0.000    4.286    0.000    0.000 
#    0.000    0.000    0.000    0.000    0.000    0.000 
#
# Total GULP energy -347320.863522 kJ/mol
# GULP energy per Si atom -12404.316554 kJ/mol
# Density = 1.910750 g / cm^3
# Si number density = 19.151093 Si / 1000 Ang^3
#
#
#
# Elastic Constant Matrix: (Units=GPa)
#
#
# Indices 1 2 3 4 5 6 
#
# 1 75.3469 18.9644 35.7466 0.0063 7.9583 -0.0258
# 2 18.9644 40.4347 13.8504 0.0027 3.3724 0.0003
# 3 35.7466 13.8504 123.8220 0.0013 1.5172 0.0047
# 4 0.0063 0.0027 0.0013 25.4468 -0.0002 -2.3448
# 5 7.9583 3.3724 1.5172 -0.0002 31.4542 0.0013
# 6 -0.0258 0.0003 0.0047 -2.3448 0.0013 26.2316
#
#
#
# Elastic Compliance Matrix: (Units=1/GPa)
#
#
# Indices 1 2 3 4 5 6 
#
# 1 0.017242 -0.006349 -0.004225 -0.000002 -0.003478 0.000018
# 2 -0.006349 0.028272 -0.001313 -0.000002 -0.001362 -0.000006
# 3 -0.004225 -0.001313 0.009433 0.000000 0.000755 -0.000006
# 4 -0.000002 -0.000002 0.000000 0.039624 0.000001 0.003542
# 5 -0.003478 -0.001362 0.000755 0.000001 0.032782 -0.000005
# 6 0.000018 -0.000006 -0.000006 0.003542 -0.000005 0.038439
#
#
# Mechanical properties :
#
#
# Convention : Reuss Voigt Hill
#
# Bulk Modulus (GPa) = 32.07832 41.85849 36.96841
# Shear Modulus (GPa) = 25.00540 28.02935 26.51738
#
# Velocity S-wave (km/s) = 3.61735 3.82984 3.72511
# Velocity P-wave (km/s) = 5.85094 6.43905 6.15202
#
# Compressibility (1/GPa) = 0.03117370
#
# Stress axis : x y z
#
# Youngs Moduli (GPa) = 57.99886 35.37017 106.00679
#
# Poissons Ratio (x) = 0.22458 0.44785
# Poissons Ratio (y) = 0.36826 0.13916
# Poissons Ratio (z) = 0.24503 0.04643
#
# Static dielectric constant tensor:
#      x y z
#    x 3.400810 -0.000020 0.000710 
#    y -0.000020 3.386420 0.000010 
#    z 0.000710 0.000010 3.774610 
# 
# 
# High freq. dielectric constant tensor:
#      x y z
#    x 1.724200 0.000000 -0.005510 
#    y 0.000000 1.738670 0.000000 
#    z -0.005510 0.000000 1.762990 
# 
# From -- ./inp_files/380567.got.cif
#   From: 2010.06.25/outbox.cif.g09.slc.cpg/sg12_191_cif.got.tgz:380567.got - 2010.06.28 00:19:55.
