data_PCOD8100593
_publ_section_title
;
Structure prediction by ZEFSAII (Michael W. Deem and Ramdas Pophale) SiO2 
 PCOD8100593
Probable space group: C 2/M
;
_chemical_formula_sum "Si O2"
_cell_formula_units_Z 64
_cell_length_a 20.927970
_cell_length_b 18.458098
_cell_length_c 17.624169
_cell_angle_alpha 90.000000
_cell_angle_beta 28.087044
_cell_angle_gamma 90.000000
_cell_volume 3205.314080
_symmetry_space_group_name_H-M "C 2/M"
_symmetry_group_IT_number 12
_symmetry_cell_setting 'monoclinic'
loop_
_space_group_symop_operation_xyz
x,y,z
-x,y,-z
-x,-y,-z
x,-y,z
1/2+x,1/2+y,z
1/2-x,1/2+y,-z
1/2-x,1/2-y,-z
1/2+x,1/2-y,z
loop_
_atom_site_type_symbol
_atom_site_label
_atom_site_fract_x
_atom_site_fract_y
_atom_site_fract_z
Si Si1 0.165895 0.814989 0.623805
Si Si2 0.849638 0.319124 0.651177
Si Si3 0.115698 0.082360 0.322109
Si Si4 0.403002 0.327697 0.808861
Si Si5 0.877516 0.731172 0.186951
Si Si6 0.647392 0.922883 0.813412
Si Si7 0.154917 0.664159 0.173022
Si Si8 0.620387 0.085801 0.522717
O O1 0.250000 0.750000 0.500000
O O2 0.087734 0.782109 0.778854
O O3 0.265624 0.880180 0.541908
O O4 0.050755 0.845513 0.688697
O O5 0.758789 0.256436 0.711349
O O6 0.796844 0.340145 0.789917
O O7 0.853741 0.388852 0.591224
O O8 0.000000 0.285626 0.500000
O O9 0.113643 0.132438 0.251999
O O10 0.259999 0.091665 0.210712
O O11 0.000000 0.109328 0.500000
O O12 0.088463 0.000000 0.325091
O O13 0.394407 0.242586 0.802365
O O14 0.285183 0.358168 0.987275
O O15 0.849084 0.647908 0.244703
O O16 0.000000 0.734394 0.000000
O O17 0.690048 0.000000 0.728221
O O18 0.500000 0.933111 0.000000
O O19 0.028983 0.609659 0.292131
O O20 0.632947 0.000000 0.513417
#
# Coordination Sequence:
#
# PCOD8100593 Si02
#       8
#     8   8   8   8   8   8   8   8
#     4  11  23  40  61  91 125 160 207 251 305 368
#     4   9  19  35  61  90 113 152 201 249 302 359
#     4  10  23  40  59  85 115 155 204 248 297 360
#     4  11  23  39  63  87 128 160 205 256 308 363
#     4  10  20  35  60  85 118 156 204 251 301 361
#     4   9  19  36  57  85 118 151 197 249 301 359
#     4  10  21  37  60  94 121 157 201 254 311 366
#     4  10  22  42  64  90 125 161 202 252 309 374
#
# _framework density 19.966842
#
# number of rings (size 3 to 8) (size 9 to 14) (size 15 to 20)
#    0.000    2.000    1.250    1.500    1.750    8.250 
#    0.000    0.625    0.000   12.750    0.000    0.000 
#    0.000    0.000    0.000    0.000    0.000    0.000 
#
# Total GULP energy -396705.163333 kJ/mol
# GULP energy per Si atom -12397.036354 kJ/mol
# Density = 1.992140 g / cm^3
# Si number density = 19.966842 Si / 1000 Ang^3
#
#
#
# Elastic Constant Matrix: (Units=GPa)
#
#
# Indices 1 2 3 4 5 6 
#
# 1 70.6744 10.1973 46.1552 0.0011 -16.0524 -0.0007
# 2 10.1973 113.0342 39.6476 0.0020 -5.1463 -0.0012
# 3 46.1552 39.6476 115.4189 0.0042 -3.4729 -0.0032
# 4 0.0011 0.0020 0.0042 22.0013 -0.0031 -5.3902
# 5 -16.0524 -5.1463 -3.4729 -0.0031 33.8886 0.0029
# 6 -0.0007 -0.0012 -0.0032 -5.3902 0.0029 21.3161
#
#
#
# Elastic Compliance Matrix: (Units=1/GPa)
#
#
# Indices 1 2 3 4 5 6 
#
# 1 0.022073 0.001645 -0.009098 0.000001 0.009773 -0.000002
# 2 0.001645 0.010228 -0.004114 0.000000 0.001911 0.000000
# 3 -0.009098 -0.004114 0.013609 -0.000002 -0.003540 0.000002
# 4 0.000001 0.000000 -0.000002 0.048454 0.000004 0.012252
# 5 0.009773 0.001911 -0.003540 0.000004 0.034065 -0.000004
# 6 -0.000002 0.000000 0.000002 0.012252 -0.000004 0.050011
#
#
# Mechanical properties :
#
#
# Convention : Reuss Voigt Hill
#
# Bulk Modulus (GPa) = 43.90417 54.56974 49.23696
# Shear Modulus (GPa) = 23.90431 28.98301 26.44366
#
# Velocity S-wave (km/s) = 3.46381 3.81406 3.64315
# Velocity P-wave (km/s) = 6.16714 6.84000 6.51227
#
# Compressibility (1/GPa) = 0.02277688
#
# Stress axis : x y z
#
# Youngs Moduli (GPa) = 45.30324 97.76650 73.48110
#
# Poissons Ratio (x) = -0.16081 0.66853
# Poissons Ratio (y) = -0.07451 0.30229
# Poissons Ratio (z) = 0.41217 0.40219
#
# Static dielectric constant tensor:
#      x y z
#    x 3.883710 0.000000 -0.218850 
#    y 0.000000 3.723760 0.000000 
#    z -0.218850 0.000000 4.044550 
# 
# 
# High freq. dielectric constant tensor:
#      x y z
#    x 1.781640 0.000000 -0.012180 
#    y 0.000000 1.771630 0.000000 
#    z -0.012180 0.000000 1.783740 
# 
# From -- ./inp_files/285207.got.cif
#   From: 2010.06.25/outbox.cif.g09.slc.cpg/sg12_143_cif.got.tgz:285207.got - 2010.06.28 00:19:55.
