data_PCOD8100142
_publ_section_title
;
Structure prediction by ZEFSAII (Michael W. Deem and Ramdas Pophale) SiO2 
 PCOD8100142
Probable space group: C 2/M
;
_chemical_formula_sum "Si O2"
_cell_formula_units_Z 56
_cell_length_a 30.049066
_cell_length_b 9.299626
_cell_length_c 17.963611
_cell_angle_alpha 90.000000
_cell_angle_beta 144.246773
_cell_angle_gamma 90.000000
_cell_volume 2933.070828
_symmetry_space_group_name_H-M "C 2/M"
_symmetry_group_IT_number 12
_symmetry_cell_setting 'monoclinic'
loop_
_space_group_symop_operation_xyz
x,y,z
-x,y,-z
-x,-y,-z
x,-y,z
1/2+x,1/2+y,z
1/2-x,1/2+y,-z
1/2-x,1/2-y,-z
1/2+x,1/2-y,z
loop_
_atom_site_type_symbol
_atom_site_label
_atom_site_fract_x
_atom_site_fract_y
_atom_site_fract_z
Si Si1 0.292293 0.835434 0.296882
Si Si2 0.271632 0.334592 0.415663
Si Si3 0.636082 0.337697 0.009507
Si Si4 0.829458 0.831755 0.105613
Si Si5 0.138113 0.336837 0.347818
Si Si6 0.017305 0.332327 0.941393
Si Si7 0.087941 0.167412 0.631378
O O1 0.262396 0.755829 0.329061
O O2 0.226176 0.824077 0.146034
O O3 0.367519 0.759124 0.369064
O O4 0.311883 0.000000 0.342754
O O5 0.289513 0.500000 0.421566
O O6 0.192374 0.315464 0.350748
O O7 0.341127 0.272781 0.558657
O O8 0.607624 0.500000 0.984328
O O9 0.624745 0.291725 0.907938
O O10 0.591186 0.237892 0.005511
O O11 0.884547 0.788330 0.248578
O O12 0.809884 0.000000 0.080227
O O13 0.750000 0.750000 0.000000
O O14 0.145098 0.500000 0.387058
O O15 0.053145 0.299850 0.207954
O O16 0.035088 0.500000 0.973070
O O17 0.000000 0.268542 0.000000
O O18 0.000000 0.205470 0.500000
O O19 0.103887 0.000000 0.638091
#
# Coordination Sequence:
#
# PCOD8100142 Si02
#       7
#     8   8   8   8   8   8   8
#     4  11  22  37  57  83 116 148 189 240 289 347
#     4  10  20  35  58  82 109 149 193 236 287 347
#     4  10  22  37  56  85 116 152 196 242 291 345
#     4  10  20  38  61  84 115 151 193 241 289 349
#     4   9  19  36  55  80 114 150 190 237 289 342
#     4  10  21  37  57  83 117 153 192 239 286 340
#     4  10  22  39  60  87 118 152 191 240 296 353
#
# _framework density 19.092617000000001
#
# number of rings (size 3 to 8) (size 9 to 14) (size 15 to 20)
#    0.000    2.000    1.429    1.714    0.000    5.714 
#    0.000    1.429    0.000    0.000    0.000    0.000 
#    0.000    0.000    0.000    0.000    0.000    0.000 
#
# Total GULP energy -347287.023471 kJ/mol
# GULP energy per Si atom -12403.107981 kJ/mol
# Density = 1.904916 g / cm^3
# Si number density = 19.092617 Si / 1000 Ang^3
#
#
#
# Elastic Constant Matrix: (Units=GPa)
#
#
# Indices 1 2 3 4 5 6 
#
# 1 83.6312 36.9948 40.1760 0.0000 -2.3789 0.0000
# 2 36.9948 76.3535 40.4004 0.0000 1.1643 0.0000
# 3 40.1760 40.4004 88.6657 0.0000 1.1102 0.0000
# 4 0.0000 0.0000 0.0000 27.4526 0.0000 0.3554
# 5 -2.3789 1.1643 1.1102 0.0000 30.7295 0.0000
# 6 0.0000 0.0000 0.0000 0.3554 0.0000 35.4721
#
#
#
# Elastic Compliance Matrix: (Units=1/GPa)
#
#
# Indices 1 2 3 4 5 6 
#
# 1 0.016924 -0.005478 -0.005194 0.000000 0.001705 0.000000
# 2 -0.005478 0.019035 -0.006180 0.000000 -0.000922 0.000000
# 3 -0.005194 -0.006180 0.016457 0.000000 -0.000763 0.000000
# 4 0.000000 0.000000 0.000000 0.036431 0.000000 -0.000365
# 5 0.001705 -0.000922 -0.000763 0.000000 0.032736 0.000000
# 6 0.000000 0.000000 0.000000 -0.000365 0.000000 0.028195
#
#
# Mechanical properties :
#
#
# Convention : Reuss Voigt Hill
#
# Bulk Modulus (GPa) = 53.43799 53.75476 53.59637
# Shear Modulus (GPa) = 26.35475 27.46945 26.91210
#
# Velocity S-wave (km/s) = 3.71935 3.79720 3.75848
# Velocity P-wave (km/s) = 6.81868 6.88773 6.85329
#
# Compressibility (1/GPa) = 0.01871328
#
# Stress axis : x y z
#
# Youngs Moduli (GPa) = 59.08741 52.53506 60.76409
#
# Poissons Ratio (x) = 0.28778 0.31561
# Poissons Ratio (y) = 0.32367 0.37550
# Poissons Ratio (z) = 0.30690 0.32465
#
# Static dielectric constant tensor:
#      x y z
#    x 3.413380 0.000000 -0.159920 
#    y 0.000000 3.504960 0.000000 
#    z -0.159920 0.000000 3.511160 
# 
# 
# High freq. dielectric constant tensor:
#      x y z
#    x 1.742920 0.000000 -0.009470 
#    y 0.000000 1.741320 0.000000 
#    z -0.009470 0.000000 1.745840 
# 
# From -- ./inp_files/281019.got.cif
#   From: 2010.06.25/outbox.cif.g09.slc.cpg/sg12_141_cif.got.tgz:281019.got - 2010.06.28 00:19:55.
