data_PCOD8100669
_publ_section_title
;
Structure prediction by ZEFSAII (Michael W. Deem and Ramdas Pophale) SiO2 
 PCOD8100669
Probable space group: C 2/M
;
_chemical_formula_sum "Si O2"
_cell_formula_units_Z 64
_cell_length_a 15.299607
_cell_length_b 8.638860
_cell_length_c 33.386177
_cell_angle_alpha 90.000000
_cell_angle_beta 134.515458
_cell_angle_gamma 90.000000
_cell_volume 3146.518454
_symmetry_space_group_name_H-M "C 2/M"
_symmetry_group_IT_number 12
_symmetry_cell_setting 'monoclinic'
loop_
_space_group_symop_operation_xyz
x,y,z
-x,y,-z
-x,-y,-z
x,-y,z
1/2+x,1/2+y,z
1/2-x,1/2+y,-z
1/2-x,1/2-y,-z
1/2+x,1/2-y,z
loop_
_atom_site_type_symbol
_atom_site_label
_atom_site_fract_x
_atom_site_fract_y
_atom_site_fract_z
Si Si1 0.204228 0.319669 0.368260
Si Si2 0.254286 0.319161 0.238045
Si Si3 0.449007 0.176767 0.245818
Si Si4 0.907319 0.680091 0.935117
Si Si5 0.850883 0.322991 0.129256
Si Si6 0.886693 0.183364 0.359614
Si Si7 0.339878 0.318165 0.561424
Si Si8 0.022902 0.820415 0.124766
O O1 0.210472 0.500000 0.381327
O O2 0.322312 0.267600 0.380369
O O3 0.207211 0.222238 0.409620
O O4 0.084995 0.281088 0.303733
O O5 0.220379 0.500000 0.229471
O O6 0.354331 0.294036 0.235636
O O7 0.308846 0.253411 0.297094
O O8 0.133303 0.222905 0.189769
O O9 0.442987 0.199783 0.196224
O O10 0.414548 0.000000 0.246229
O O11 0.873622 0.500000 0.924676
O O12 0.784681 0.777558 0.901050
O O13 0.970819 0.722197 0.913721
O O14 0.000000 0.724827 0.000000
O O15 0.850498 0.500000 0.114883
O O16 0.896305 0.218803 0.106826
O O17 0.024095 0.252257 0.402037
O O18 0.891697 0.000000 0.357121
O O19 0.342498 0.500000 0.556847
O O20 0.250000 0.250000 0.500000
O O21 0.027049 0.000000 0.115028
#
# Coordination Sequence:
#
# PCOD8100669 Si02
#       8
#     8   8   8   8   8   8   8   8
#     4  10  20  38  62  87 118 156 196 241 296 358
#     4  11  20  36  63  91 124 163 202 247 302 364
#     4  10  20  35  60  93 126 157 195 245 306 368
#     4  11  25  45  67  92 123 162 210 262 314 369
#     4  11  23  41  66  95 128 166 207 254 309 368
#     4   9  20  38  61  87 118 158 198 239 297 366
#     4  11  23  41  60  84 115 153 203 250 301 356
#     4  12  25  41  63  94 129 166 208 253 308 371
#
# _framework density 20.339941
#
# number of rings (size 3 to 8) (size 9 to 14) (size 15 to 20)
#    0.000    1.375    2.500    3.375    0.000    4.500 
#    0.000    6.250    0.000    0.000    0.000    0.000 
#    0.000    0.000    0.000    0.000    0.000    0.000 
#
# Total GULP energy -396964.610853 kJ/mol
# GULP energy per Si atom -12405.144089 kJ/mol
# Density = 2.029365 g / cm^3
# Si number density = 20.339941 Si / 1000 Ang^3
#
#
#
# Elastic Constant Matrix: (Units=GPa)
#
#
# Indices 1 2 3 4 5 6 
#
# 1 113.6700 15.4901 38.1111 0.0000 -18.8734 0.0000
# 2 15.4901 50.7527 30.1408 0.0000 -0.3349 0.0000
# 3 38.1111 30.1408 130.7510 0.0000 -12.4458 0.0000
# 4 0.0000 0.0000 0.0000 27.9750 0.0000 -2.3379
# 5 -18.8734 -0.3349 -12.4458 0.0000 14.7783 0.0000
# 6 0.0000 0.0000 0.0000 -2.3379 0.0000 34.6822
#
#
#
# Elastic Compliance Matrix: (Units=1/GPa)
#
#
# Indices 1 2 3 4 5 6 
#
# 1 0.011996 -0.002643 -0.001560 0.000000 0.013947 0.000000
# 2 -0.002643 0.023660 -0.005386 0.000000 -0.007375 0.000000
# 3 -0.001560 -0.005386 0.009940 0.000000 0.006257 0.000000
# 4 0.000000 0.000000 0.000000 0.035949 0.000000 0.002423
# 5 0.013947 -0.007375 0.006257 0.000000 0.090581 0.000000
# 6 0.000000 0.000000 0.000000 0.002423 0.000000 0.028997
#
#
# Mechanical properties :
#
#
# Convention : Reuss Voigt Hill
#
# Bulk Modulus (GPa) = 37.85158 51.40640 44.62899
# Shear Modulus (GPa) = 21.82404 29.58254 25.70329
#
# Velocity S-wave (km/s) = 3.27917 3.81781 3.55869
# Velocity P-wave (km/s) = 5.74344 6.69049 6.23497
#
# Compressibility (1/GPa) = 0.02641897
#
# Stress axis : x y z
#
# Youngs Moduli (GPa) = 83.35953 42.26581 100.60495
#
# Poissons Ratio (x) = 0.11171 0.15693
# Poissons Ratio (y) = 0.22032 0.54183
# Poissons Ratio (z) = 0.13003 0.22763
#
# Static dielectric constant tensor:
#      x y z
#    x 3.089280 0.000000 0.193870 
#    y 0.000000 3.565280 0.000000 
#    z 0.193870 0.000000 3.751230 
# 
# 
# High freq. dielectric constant tensor:
#      x y z
#    x 1.805360 0.000000 -0.002790 
#    y 0.000000 1.783170 0.000000 
#    z -0.002790 0.000000 1.795890 
# 
# From -- ./inp_files/375555.got.cif
#   From: 2010.06.25/outbox.cif.g09.slc.cpg/sg12_188_cif.got.tgz:375555.got - 2010.06.28 00:19:55.
