data_PCOD8100815
_publ_section_title
;
Structure prediction by ZEFSAII (Michael W. Deem and Ramdas Pophale) SiO2 
 PCOD8100815
Probable space group: C 2/M
;
_chemical_formula_sum "Si O2"
_cell_formula_units_Z 64
_cell_length_a 26.978091
_cell_length_b 18.081709
_cell_length_c 12.687388
_cell_angle_alpha 90.000000
_cell_angle_beta 33.961597
_cell_angle_gamma 90.000000
_cell_volume 3457.424405
_symmetry_space_group_name_H-M "C 2/M"
_symmetry_group_IT_number 12
_symmetry_cell_setting 'monoclinic'
loop_
_space_group_symop_operation_xyz
x,y,z
-x,y,-z
-x,-y,-z
x,-y,z
1/2+x,1/2+y,z
1/2-x,1/2+y,-z
1/2-x,1/2-y,-z
1/2+x,1/2-y,z
loop_
_atom_site_type_symbol
_atom_site_label
_atom_site_fract_x
_atom_site_fract_y
_atom_site_fract_z
Si Si1 0.412316 0.153569 0.105223
Si Si2 0.151471 0.223202 0.653997
Si Si3 0.919214 0.235159 0.452575
Si Si4 0.719760 0.914942 0.028432
Si Si5 0.897415 0.309063 0.896982
Si Si6 0.242680 0.288787 0.125409
Si Si7 0.770009 0.081937 0.540157
Si Si8 0.358775 0.418803 0.601686
O O1 0.408813 0.240087 0.149170
O O2 0.330312 0.108948 0.299524
O O3 0.500000 0.116424 0.000000
O O4 0.416625 0.149664 0.972345
O O5 0.250000 0.250000 0.500000
O O6 0.113437 0.249263 0.608523
O O7 0.157445 0.133583 0.647583
O O8 0.848308 0.270616 0.655998
O O9 0.929378 0.147276 0.461396
O O10 0.013414 0.273217 0.306951
O O11 0.636656 0.871077 0.124366
O O12 0.744858 0.877018 0.096973
O O13 0.692933 0.000000 0.094617
O O14 0.805522 0.907442 0.803187
O O15 0.825902 0.243035 0.045060
O O16 0.250000 0.250000 0.000000
O O17 0.786280 0.085269 0.636660
O O18 0.781674 0.000000 0.473101
O O19 0.406115 0.500000 0.517369
#
# Coordination Sequence:
#
# PCOD8100815 Si02
#       8
#     8   8   8   8   8   8   8   8
#     4  11  19  32  51  83 113 142 183 230 277 323
#     4   9  18  31  53  75 109 148 186 232 271 326
#     4  11  19  34  55  83 115 147 189 236 279 337
#     4  10  20  38  60  82 110 149 186 230 289 341
#     4  11  21  35  59  85 113 150 191 237 281 336
#     4  10  20  36  54  81 109 146 190 231 284 338
#     4   9  17  30  51  75 104 144 183 225 276 321
#     4   9  16  31  54  78 106 137 180 233 280 319
#
# _framework density 18.510888999999999
#
# number of rings (size 3 to 8) (size 9 to 14) (size 15 to 20)
#    0.000    2.000    5.000    1.500    0.000    2.250 
#    0.000    1.875    0.000    9.375    0.000    0.000 
#    0.000    0.000    0.000    0.000    0.000    0.000 
#
# Total GULP energy -396551.138506 kJ/mol
# GULP energy per Si atom -12392.223078 kJ/mol
# Density = 1.846876 g / cm^3
# Si number density = 18.510889 Si / 1000 Ang^3
#
#
#
# Elastic Constant Matrix: (Units=GPa)
#
#
# Indices 1 2 3 4 5 6 
#
# 1 47.0151 19.2988 -2.1075 0.0000 -6.8407 0.0000
# 2 19.2988 125.8388 18.9899 0.0000 -5.2567 0.0000
# 3 -2.1075 18.9899 55.8393 0.0000 -9.1177 0.0000
# 4 0.0000 0.0000 0.0000 26.1889 0.0000 -1.1636
# 5 -6.8407 -5.2567 -9.1177 0.0000 20.5566 0.0000
# 6 0.0000 0.0000 0.0000 -1.1636 0.0000 23.2971
#
#
#
# Elastic Compliance Matrix: (Units=1/GPa)
#
#
# Indices 1 2 3 4 5 6 
#
# 1 0.024311 -0.003919 0.003674 0.000000 0.008717 0.000000
# 2 -0.003919 0.009025 -0.003292 0.000000 -0.000456 0.000000
# 3 0.003674 -0.003292 0.020730 0.000000 0.009575 0.000000
# 4 0.000000 0.000000 0.000000 0.038269 0.000000 0.001911
# 5 0.008717 -0.000456 0.009575 0.000000 0.055677 0.000000
# 6 0.000000 0.000000 0.000000 0.001911 0.000000 0.043019
#
#
# Mechanical properties :
#
#
# Convention : Reuss Voigt Hill
#
# Bulk Modulus (GPa) = 21.27960 33.45062 27.36511
# Shear Modulus (GPa) = 23.38958 26.84265 25.11611
#
# Velocity S-wave (km/s) = 3.55851 3.81215 3.68751
# Velocity P-wave (km/s) = 5.32960 6.12264 5.73983
#
# Compressibility (1/GPa) = 0.04699337
#
# Stress axis : x y z
#
# Youngs Moduli (GPa) = 41.13307 110.79932 48.23896
#
# Poissons Ratio (x) = 0.43418 -0.17721
# Poissons Ratio (y) = 0.16119 0.15879
# Poissons Ratio (z) = -0.15111 0.36472
#
# Static dielectric constant tensor:
#      x y z
#    x 3.503190 0.000000 -0.023280 
#    y 0.000000 4.129470 0.000000 
#    z -0.023280 0.000000 3.216700 
# 
# 
# High freq. dielectric constant tensor:
#      x y z
#    x 1.709840 0.000000 -0.003960 
#    y 0.000000 1.715090 0.000000 
#    z -0.003960 0.000000 1.695410 
# 
# From -- ./inp_files/251643.got.cif
#   From: 2010.06.25/outbox.cif.g09.slc.cpg/sg12_126_cif.got.tgz:251643.got - 2010.06.28 00:19:55.
