data_PCOD8100912
_publ_section_title
;
Structure prediction by ZEFSAII (Michael W. Deem and Ramdas Pophale) SiO2 
 PCOD8100912
Probable space group: C 2/M
;
_chemical_formula_sum "Si O2"
_cell_formula_units_Z 56
_cell_length_a 13.415034
_cell_length_b 18.481234
_cell_length_c 16.903249
_cell_angle_alpha 90.000000
_cell_angle_beta 42.777189
_cell_angle_gamma 90.000000
_cell_volume 2846.151954
_symmetry_space_group_name_H-M "C 2/M"
_symmetry_group_IT_number 12
_symmetry_cell_setting 'monoclinic'
loop_
_space_group_symop_operation_xyz
x,y,z
-x,y,-z
-x,-y,-z
x,-y,z
1/2+x,1/2+y,z
1/2-x,1/2+y,-z
1/2-x,1/2-y,-z
1/2+x,1/2-y,z
loop_
_atom_site_type_symbol
_atom_site_label
_atom_site_fract_x
_atom_site_fract_y
_atom_site_fract_z
Si Si1 0.575051 0.815418 0.634631
Si Si2 0.616028 0.717870 0.030994
Si Si3 0.450458 0.579619 0.178654
Si Si4 0.743057 0.843676 0.203374
Si Si5 0.685037 0.418158 0.571453
Si Si6 0.971172 0.827355 0.607849
Si Si7 0.327800 0.782629 0.246925
O O1 0.420225 0.858514 0.733174
O O2 0.679052 0.864092 0.519993
O O3 0.543915 0.737286 0.616124
O O4 0.652061 0.803960 0.673828
O O5 0.571457 0.642252 0.098953
O O6 0.485941 0.777928 0.111565
O O7 0.750000 0.750000 0.000000
O O8 0.660746 0.702283 0.915211
O O9 0.524351 0.500000 0.130914
O O10 0.329878 0.583670 0.177137
O O11 0.368451 0.590223 0.308604
O O12 0.747415 0.795607 0.282007
O O13 0.735957 0.500000 0.523437
O O14 0.549667 0.400181 0.591415
O O15 0.000000 0.810969 0.500000
O O16 0.793337 0.836456 0.722816
#
# Coordination Sequence:
#
# PCOD8100912 Si02
#       7
#     8   8   8   8   8   8   8
#     4  11  22  37  60  92 122 156 202 251 305 354
#     4  11  21  38  63  93 122 151 202 259 303 356
#     4  10  23  41  60  85 123 165 199 241 309 372
#     4  10  22  36  61  91 121 155 195 255 304 359
#     4  11  25  42  59  86 127 165 203 251 300 365
#     4  11  22  34  61  88 115 160 200 250 297 358
#     4  10  20  36  55  89 119 152 198 244 307 348
#
# _framework density 19.675689999999999
#
# number of rings (size 3 to 8) (size 9 to 14) (size 15 to 20)
#    0.000    1.429    2.857    3.857    8.000    2.000 
#    0.000    1.429    0.000    0.857    0.000    2.000 
#    0.000    0.000    0.000    0.000    0.000    0.000 
#
# Total GULP energy -346929.327586 kJ/mol
# GULP energy per Si atom -12390.333128 kJ/mol
# Density = 1.963091 g / cm^3
# Si number density = 19.675690 Si / 1000 Ang^3
#
#
#
# Elastic Constant Matrix: (Units=GPa)
#
#
# Indices 1 2 3 4 5 6 
#
# 1 120.4135 41.3262 42.3886 0.0004 -14.6975 -0.0003
# 2 41.3262 77.0122 41.0723 0.0002 -3.7143 -0.0002
# 3 42.3886 41.0723 89.0226 0.0013 -15.0195 -0.0011
# 4 0.0004 0.0002 0.0013 22.1496 -0.0007 -0.4082
# 5 -14.6975 -3.7143 -15.0195 -0.0007 40.2369 0.0004
# 6 -0.0003 -0.0002 -0.0011 -0.4082 0.0004 19.6097
#
#
#
# Elastic Compliance Matrix: (Units=1/GPa)
#
#
# Indices 1 2 3 4 5 6 
#
# 1 0.011108 -0.004308 -0.002864 0.000000 0.002591 0.000000
# 2 -0.004308 0.018975 -0.007122 0.000000 -0.002480 0.000000
# 3 -0.002864 -0.007122 0.016643 -0.000001 0.004509 0.000001
# 4 0.000000 0.000000 -0.000001 0.045165 0.000001 0.000940
# 5 0.002591 -0.002480 0.004509 0.000001 0.027253 0.000000
# 6 0.000000 0.000000 0.000001 0.000940 0.000000 0.051015
#
#
# Mechanical properties :
#
#
# Convention : Reuss Voigt Hill
#
# Bulk Modulus (GPa) = 55.13249 59.55805 57.34527
# Shear Modulus (GPa) = 24.41481 27.17667 25.79574
#
# Velocity S-wave (km/s) = 3.52641 3.72052 3.62477
# Velocity P-wave (km/s) = 6.68298 6.98513 6.83572
#
# Compressibility (1/GPa) = 0.01813812
#
# Stress axis : x y z
#
# Youngs Moduli (GPa) = 90.02702 52.69998 60.08356
#
# Poissons Ratio (x) = 0.22704 0.17210
# Poissons Ratio (y) = 0.38784 0.42790
# Poissons Ratio (z) = 0.25787 0.37532
#
# Static dielectric constant tensor:
#      x y z
#    x 4.100330 0.000010 -0.110660 
#    y 0.000010 3.667920 0.000000 
#    z -0.110660 0.000000 3.785560 
# 
# 
# High freq. dielectric constant tensor:
#      x y z
#    x 1.786510 0.000000 -0.003410 
#    y 0.000000 1.729680 0.000000 
#    z -0.003410 0.000000 1.771090 
# 
# From -- ./inp_files/271397.got.cif
#   From: 2010.06.25/outbox.cif.g09.slc.cpg/sg12_136_cif.got.tgz:271397.got - 2010.06.28 00:19:55.
