data_PCOD8100711
_publ_section_title
;
Structure prediction by ZEFSAII (Michael W. Deem and Ramdas Pophale) SiO2 
 PCOD8100711
Probable space group: C 2/M
;
_chemical_formula_sum "Si O2"
_cell_formula_units_Z 40
_cell_length_a 14.750315
_cell_length_b 17.505250
_cell_length_c 7.198720
_cell_angle_alpha 90.000000
_cell_angle_beta 76.631940
_cell_angle_gamma 90.000000
_cell_volume 1808.403306
_symmetry_space_group_name_H-M "C 2/M"
_symmetry_group_IT_number 12
_symmetry_cell_setting 'monoclinic'
loop_
_space_group_symop_operation_xyz
x,y,z
-x,y,-z
-x,-y,-z
x,-y,z
1/2+x,1/2+y,z
1/2-x,1/2+y,-z
1/2-x,1/2-y,-z
1/2+x,1/2-y,z
loop_
_atom_site_type_symbol
_atom_site_label
_atom_site_fract_x
_atom_site_fract_y
_atom_site_fract_z
Si Si1 0.397283 0.413760 0.028724
Si Si2 0.401440 0.414541 0.597819
Si Si3 0.775736 0.335775 0.339053
Si Si4 0.723686 0.176806 0.251976
Si Si5 0.604604 0.911129 0.010747
O O1 0.402705 0.500000 0.104562
O O2 0.371650 0.412417 0.826040
O O3 0.500000 0.375269 0.000000
O O4 0.317424 0.372293 0.182315
O O5 0.500000 0.375465 0.500000
O O6 0.403816 0.500000 0.516772
O O7 0.321826 0.367585 0.535217
O O8 0.757302 0.264713 0.206138
O O9 0.822151 0.319691 0.518170
O O10 0.833783 0.399493 0.202494
O O11 0.641814 0.144890 0.156506
O O12 0.611850 0.000000 0.070195
O O13 0.500000 0.888910 0.000000
#
# Coordination Sequence:
#
# PCOD8100711 Si02
#       5
#     8   8   8   8   8
#     4  10  20  35  61  95 127 166 212 265 331 395
#     4  10  20  36  60  93 128 163 207 260 323 397
#     4  11  24  43  64  96 132 171 216 272 339 398
#     4  11  24  43  64  96 134 172 219 272 338 400
#     4  11  25  45  69  96 128 178 234 278 325 385
#
# _framework density 22.118962
#
# number of rings (size 3 to 8) (size 9 to 14) (size 15 to 20)
#    0.000    1.400    2.000    3.000    0.000    6.400 
#    7.200    2.000    0.000    0.000    0.000    0.000 
#    0.000    0.000    0.000    0.000    0.000    0.000 
#
# Total GULP energy -247818.795938 kJ/mol
# GULP energy per Si atom -12390.939797 kJ/mol
# Density = 2.206862 g / cm^3
# Si number density = 22.118962 Si / 1000 Ang^3
#
#
#
# Elastic Constant Matrix: (Units=GPa)
#
#
# Indices 1 2 3 4 5 6 
#
# 1 143.5782 52.8654 40.1041 0.0000 -8.7594 0.0000
# 2 52.8654 91.5336 33.3935 0.0000 -4.2472 0.0000
# 3 40.1041 33.3935 94.6701 0.0000 1.2805 0.0000
# 4 0.0000 0.0000 0.0000 913.5487 0.0000 -139.1145
# 5 -8.7594 -4.2472 1.2805 0.0000 34.4601 0.0000
# 6 0.0000 0.0000 0.0000 -139.1145 0.0000 44.9673
#
#
#
# Elastic Compliance Matrix: (Units=1/GPa)
#
#
# Indices 1 2 3 4 5 6 
#
# 1 0.009403 -0.004451 -0.002439 0.000000 0.001932 0.000000
# 2 -0.004451 0.014747 -0.003327 0.000000 0.000810 0.000000
# 3 -0.002439 -0.003327 0.012790 0.000000 -0.001505 0.000000
# 4 0.000000 0.000000 0.000000 0.002070 0.000000 0.006403
# 5 0.001932 0.000810 -0.001505 0.000000 0.029666 0.000000
# 6 0.000000 0.000000 0.000000 0.006403 0.000000 0.042047
#
#
# Mechanical properties :
#
#
# Convention : Reuss Voigt Hill
#
# Bulk Modulus (GPa) = 60.58740 64.72310 62.65525
# Shear Modulus (GPa) = 36.58719 212.15648 124.37184
#
# Velocity S-wave (km/s) = 4.07149 9.80430 7.50671
# Velocity P-wave (km/s) = 7.03944 12.54953 10.17459
#
# Compressibility (1/GPa) = 0.01650508
#
# Stress axis : x y z
#
# Youngs Moduli (GPa) = 106.34923 67.80990 78.18404
#
# Poissons Ratio (x) = 0.30183 0.19072
# Poissons Ratio (y) = 0.47337 0.26013
# Poissons Ratio (z) = 0.25942 0.22562
#
# Static dielectric constant tensor:
#      x y z
#    x 4.015990 0.000000 0.065220 
#    y 0.000000 3.915740 0.000000 
#    z 0.065220 0.000000 3.903070 
# 
# 
# High freq. dielectric constant tensor:
#      x y z
#    x 1.868070 0.000000 0.004140 
#    y 0.000000 1.859160 0.000000 
#    z 0.004140 0.000000 1.882440 
# 
# From -- ./inp_files/58928.got.cif
#   From: 2010.06.25/outbox.cif.g09.slc.cpg/sg12_30_cif.got.tgz:58928.got - 2010.06.28 00:19:55.
