data_PCOD8100018
_publ_section_title
;
Structure prediction by ZEFSAII (Michael W. Deem and Ramdas Pophale) SiO2 
 PCOD8100018
Probable space group: C 2/M
;
_chemical_formula_sum "Si O2"
_cell_formula_units_Z 56
_cell_length_a 9.709592
_cell_length_b 17.808877
_cell_length_c 19.413627
_cell_angle_alpha 90.000000
_cell_angle_beta 58.600535
_cell_angle_gamma 90.000000
_cell_volume 2865.339220
_symmetry_space_group_name_H-M "C 2/M"
_symmetry_group_IT_number 12
_symmetry_cell_setting 'monoclinic'
loop_
_space_group_symop_operation_xyz
x,y,z
-x,y,-z
-x,-y,-z
x,-y,z
1/2+x,1/2+y,z
1/2-x,1/2+y,-z
1/2-x,1/2-y,-z
1/2+x,1/2-y,z
loop_
_atom_site_type_symbol
_atom_site_label
_atom_site_fract_x
_atom_site_fract_y
_atom_site_fract_z
Si Si1 0.113868 0.087848 0.775145
Si Si2 0.353359 0.168851 0.226325
Si Si3 0.113582 0.300622 0.277467
Si Si4 0.410112 0.589318 0.956096
Si Si5 0.072826 0.220797 0.555554
Si Si6 0.537435 0.587085 0.332551
Si Si7 0.056728 0.584018 0.062329
O O1 0.293709 0.121462 0.733562
O O2 0.999440 0.121102 0.865211
O O3 0.025554 0.107565 0.727116
O O4 0.138958 0.000000 0.777949
O O5 0.252232 0.239766 0.225144
O O6 0.483464 0.192279 0.250232
O O7 0.226767 0.108110 0.289964
O O8 0.441539 0.135178 0.137559
O O9 0.023754 0.278063 0.370835
O O10 0.400392 0.500000 0.952646
O O11 0.500000 0.617564 0.000000
O O12 0.231839 0.622298 0.012277
O O13 0.250000 0.250000 0.500000
O O14 0.000000 0.218740 0.500000
O O15 0.068757 0.136516 0.587421
O O16 0.512787 0.500000 0.357094
O O17 0.061669 0.500000 0.093768
O O18 0.000000 0.578255 0.000000
#
# Coordination Sequence:
#
# PCOD8100018 Si02
#       7
#     8   8   8   8   8   8   8
#     4  10  20  37  60  85 118 156 194 239 289 345
#     4  11  22  38  59  83 118 158 199 243 285 342
#     4  11  23  40  60  86 116 152 198 239 290 357
#     4   9  17  30  50  78 111 147 187 230 277 326
#     4  11  22  40  63  85 113 150 188 234 294 356
#     4  10  21  38  61  89 118 152 193 237 290 348
#     4  10  20  35  57  85 115 151 196 242 288 335
#
# _framework density 19.543934
#
# number of rings (size 3 to 8) (size 9 to 14) (size 15 to 20)
#    0.000    1.714    0.000    6.429    0.000    4.857 
#    0.000    4.286    0.000    2.571    0.000    0.000 
#    0.000    0.000    0.000    0.000    0.000    0.000 
#
# Total GULP energy -347174.784118 kJ/mol
# GULP energy per Si atom -12399.099433 kJ/mol
# Density = 1.949945 g / cm^3
# Si number density = 19.543934 Si / 1000 Ang^3
#
#
#
# Elastic Constant Matrix: (Units=GPa)
#
#
# Indices 1 2 3 4 5 6 
#
# 1 153.7865 63.0592 67.0489 0.0000 -5.8222 0.0000
# 2 63.0592 82.0118 68.0079 0.0000 -7.3968 0.0000
# 3 67.0489 68.0079 152.7695 0.0000 -5.7476 0.0000
# 4 0.0000 0.0000 0.0000 42.2059 0.0000 -0.3621
# 5 -5.8222 -7.3968 -5.7476 0.0000 38.5225 0.0000
# 6 0.0000 0.0000 0.0000 -0.3621 0.0000 30.3205
#
#
#
# Elastic Compliance Matrix: (Units=1/GPa)
#
#
# Indices 1 2 3 4 5 6 
#
# 1 0.009705 -0.006225 -0.001486 0.000000 0.000050 0.000000
# 2 -0.006225 0.023553 -0.007661 0.000000 0.002438 0.000000
# 3 -0.001486 -0.007661 0.010604 0.000000 -0.000113 0.000000
# 4 0.000000 0.000000 0.000000 0.023696 0.000000 0.000283
# 5 0.000050 0.002438 -0.000113 0.000000 0.026418 0.000000
# 6 0.000000 0.000000 0.000000 0.000283 0.000000 0.032984
#
#
# Mechanical properties :
#
#
# Convention : Reuss Voigt Hill
#
# Bulk Modulus (GPa) = 76.23676 87.19997 81.71837
# Shear Modulus (GPa) = 30.84952 34.90658 32.87805
#
# Velocity S-wave (km/s) = 3.97731 4.23076 4.10599
# Velocity P-wave (km/s) = 7.75787 8.28131 8.02386
#
# Compressibility (1/GPa) = 0.01311703
#
# Stress axis : x y z
#
# Youngs Moduli (GPa) = 103.03930 42.45796 94.30182
#
# Poissons Ratio (x) = 0.26431 0.14016
# Poissons Ratio (y) = 0.64145 0.72244
# Poissons Ratio (z) = 0.15315 0.32527
#
# Static dielectric constant tensor:
#      x y z
#    x 3.767540 0.000000 -0.080270 
#    y 0.000000 3.521130 0.000000 
#    z -0.080270 0.000000 3.669040 
# 
# 
# High freq. dielectric constant tensor:
#      x y z
#    x 1.777760 0.000000 -0.002700 
#    y 0.000000 1.749560 0.000000 
#    z -0.002700 0.000000 1.764670 
# 
# From -- ./inp_files/300700.got.cif
#   From: 2010.06.25/outbox.cif.g09.slc.cpg/sg12_151_cif.got.tgz:300700.got - 2010.06.28 00:19:55.
