data_PCOD8100050
_publ_section_title
;
Structure prediction by ZEFSAII (Michael W. Deem and Ramdas Pophale) SiO2 
 PCOD8100050
Probable space group: C 2/M
;
_chemical_formula_sum "Si O2"
_cell_formula_units_Z 48
_cell_length_a 19.718170
_cell_length_b 11.427308
_cell_length_c 11.004480
_cell_angle_alpha 90.000000
_cell_angle_beta 86.265885
_cell_angle_gamma 90.000000
_cell_volume 2474.326950
_symmetry_space_group_name_H-M "C 2/M"
_symmetry_group_IT_number 12
_symmetry_cell_setting 'monoclinic'
loop_
_space_group_symop_operation_xyz
x,y,z
-x,y,-z
-x,-y,-z
x,-y,z
1/2+x,1/2+y,z
1/2-x,1/2+y,-z
1/2-x,1/2-y,-z
1/2+x,1/2-y,z
loop_
_atom_site_type_symbol
_atom_site_label
_atom_site_fract_x
_atom_site_fract_y
_atom_site_fract_z
Si Si1 0.864958 0.000000 0.123959
Si Si2 0.596176 0.500000 0.142388
Si Si3 0.465288 0.864498 0.126992
Si Si4 0.325710 0.247427 0.108972
Si Si5 0.924801 0.635797 0.677370
Si Si6 0.678678 0.731004 0.164581
Si Si7 0.966082 0.000000 0.321979
Si Si8 0.000000 0.199347 0.500000
O O1 0.817798 0.887068 0.118366
O O2 0.898450 0.000000 0.251589
O O3 0.916412 0.000000 0.001765
O O4 0.636766 0.612766 0.182055
O O5 0.525445 0.500000 0.217613
O O6 0.394929 0.797339 0.163970
O O7 0.516279 0.841461 0.230807
O O8 0.447429 0.000000 0.111861
O O9 0.500000 0.814554 0.000000
O O10 0.257822 0.199613 0.183342
O O11 0.326834 0.209509 0.967778
O O12 0.921625 0.500000 0.639055
O O13 0.851775 0.674345 0.738125
O O14 0.941338 0.716195 0.559405
O O15 0.966516 0.116921 0.402274
#
# Coordination Sequence:
#
# PCOD8100050 Si02
#       8
#     4   4   8   8   8   8   4   4
#     4  10  22  35  58  91 120 150 181 239 297 357
#     4  10  20  37  58  91 117 151 190 232 299 348
#     4  10  20  35  57  86 114 152 188 237 293 343
#     4  10  21  34  55  87 127 150 185 227 294 358
#     4  11  22  38  61  85 116 152 201 245 287 342
#     4  10  21  35  55  86 121 157 185 232 284 356
#     4  11  21  38  64  86 115 148 196 247 293 345
#     4  11  23  38  58  90 109 155 200 250 290 327
#
# _framework density 19.399215000000002
#
# number of rings (size 3 to 8) (size 9 to 14) (size 15 to 20)
#    0.000    1.667    3.333    1.500    2.333    0.000 
#    0.000    0.000    0.000    4.000    0.000    0.000 
#    0.000    0.000    0.000    0.000    0.000    0.000 
#
# Total GULP energy -297609.022791 kJ/mol
# GULP energy per Si atom -12400.375950 kJ/mol
# Density = 1.935506 g / cm^3
# Si number density = 19.399215 Si / 1000 Ang^3
#
#
#
# Elastic Constant Matrix: (Units=GPa)
#
#
# Indices 1 2 3 4 5 6 
#
# 1 76.8567 5.5872 12.1015 0.0000 -13.4136 0.0000
# 2 5.5872 88.4364 26.5274 0.0000 -7.8263 0.0000
# 3 12.1015 26.5274 74.1631 0.0000 -7.8479 0.0000
# 4 0.0000 0.0000 0.0000 32.0155 0.0000 -15.3073
# 5 -13.4136 -7.8263 -7.8479 0.0000 23.8600 0.0000
# 6 0.0000 0.0000 0.0000 -15.3073 0.0000 -215.2513
#
#
#
# Elastic Compliance Matrix: (Units=1/GPa)
#
#
# Indices 1 2 3 4 5 6 
#
# 1 0.014606 0.000260 -0.001656 0.000000 0.007752 0.000000
# 2 0.000260 0.012849 -0.004328 0.000000 0.002937 0.000000
# 3 -0.001656 -0.004328 0.015596 0.000000 0.002779 0.000000
# 4 0.000000 0.000000 0.000000 0.030208 0.000000 -0.002148
# 5 0.007752 0.002937 0.002779 0.000000 0.048147 0.000000
# 6 0.000000 0.000000 0.000000 -0.002148 0.000000 -0.004493
#
#
# Mechanical properties :
#
#
# Convention : Reuss Voigt Hill
#
# Bulk Modulus (GPa) = 31.64168 36.43203 34.03685
# Shear Modulus (GPa) = 35.99850 -18.85916 8.56967
#
# Velocity S-wave (km/s) = 4.31242 -3.12133 2.10407
# Velocity P-wave (km/s) = 6.41422 2.41467 4.84628
#
# Compressibility (1/GPa) = 0.03160389
#
# Stress axis : x y z
#
# Youngs Moduli (GPa) = 68.46521 77.82583 64.11878
#
# Poissons Ratio (x) = -0.02023 0.10618
# Poissons Ratio (y) = -0.01780 0.27748
# Poissons Ratio (z) = 0.11338 0.33680
#
# Static dielectric constant tensor:
#      x y z
#    x 3.381760 0.000000 -0.136580 
#    y 0.000000 3.669780 0.000000 
#    z -0.136580 0.000000 3.445330 
# 
# 
# High freq. dielectric constant tensor:
#      x y z
#    x 1.740610 0.000000 -0.013520 
#    y 0.000000 1.769130 0.000000 
#    z -0.013520 0.000000 1.731660 
# 
# From -- ./inp_files/164147.got.cif
#   From: 2010.06.25/outbox.cif.g09.slc.cpg/sg12_83_cif.got.tgz:164147.got - 2010.06.28 00:19:55.
