data_PCOD8100817
_publ_section_title
;
Structure prediction by ZEFSAII (Michael W. Deem and Ramdas Pophale) SiO2 
 PCOD8100817
Probable space group: C 2/M
;
_chemical_formula_sum "Si O2"
_cell_formula_units_Z 64
_cell_length_a 20.490052
_cell_length_b 24.133516
_cell_length_c 18.406356
_cell_angle_alpha 90.000000
_cell_angle_beta 159.392027
_cell_angle_gamma 90.000000
_cell_volume 3203.608759
_symmetry_space_group_name_H-M "C 2/M"
_symmetry_group_IT_number 12
_symmetry_cell_setting 'monoclinic'
loop_
_space_group_symop_operation_xyz
x,y,z
-x,y,-z
-x,-y,-z
x,-y,z
1/2+x,1/2+y,z
1/2-x,1/2+y,-z
1/2-x,1/2-y,-z
1/2+x,1/2-y,z
loop_
_atom_site_type_symbol
_atom_site_label
_atom_site_fract_x
_atom_site_fract_y
_atom_site_fract_z
Si Si1 0.476290 0.562820 0.688628
Si Si2 0.451175 0.235023 0.530540
Si Si3 0.010462 0.858097 0.592019
Si Si4 0.249884 0.061538 0.406156
Si Si5 0.335170 0.171317 0.020085
Si Si6 0.602265 0.337632 0.181343
Si Si7 0.905022 0.438743 0.150144
Si Si8 0.172301 0.791585 0.995400
O O1 0.433380 0.500000 0.620760
O O2 0.436263 0.599065 0.574939
O O3 0.338551 0.580964 0.609297
O O4 0.686866 0.567830 0.937864
O O5 0.500000 0.215869 0.500000
O O6 0.398893 0.300172 0.478397
O O7 0.266638 0.205284 0.365657
O O8 0.619738 0.217887 0.758363
O O9 0.000000 0.884311 0.500000
O O10 0.224187 0.842390 0.830849
O O11 0.188179 0.100848 0.276160
O O12 0.474007 0.063404 0.649837
O O13 0.182392 0.000000 0.315190
O O14 0.465506 0.116917 0.168089
O O15 0.186029 0.179917 0.930895
O O16 0.434849 0.231311 0.117577
O O17 0.500000 0.327353 0.000000
O O18 0.447301 0.332647 0.081407
O O19 0.942527 0.500000 0.151798
#
# Coordination Sequence:
#
# PCOD8100817 Si02
#       8
#     8   8   8   8   8   8   8   8
#     4   9  18  35  58  82 108 143 183 224 271 320
#     4  10  20  37  53  77 115 149 180 226 279 319
#     4   9  18  32  54  80 112 147 178 220 274 326
#     4  10  22  38  57  81 110 140 178 232 279 318
#     4   9  18  34  56  80 111 145 180 234 277 319
#     4  12  23  35  58  82 106 148 190 220 269 342
#     4   9  17  33  56  79 105 139 180 220 269 323
#     4  10  20  36  54  81 113 142 187 230 275 325
#
# _framework density 19.97747
#
# number of rings (size 3 to 8) (size 9 to 14) (size 15 to 20)
#    0.000    2.250    1.250    2.250    0.000    1.500 
#    0.000    6.875    0.000    0.375    0.000   11.375 
#    0.000    0.000    0.000    0.000    0.000    0.000 
#
# Total GULP energy -396442.514399 kJ/mol
# GULP energy per Si atom -12388.828575 kJ/mol
# Density = 1.993200 g / cm^3
# Si number density = 19.977470 Si / 1000 Ang^3
#
#
#
# Elastic Constant Matrix: (Units=GPa)
#
#
# Indices 1 2 3 4 5 6 
#
# 1 46.4695 3.4883 19.3508 0.0002 1.2464 0.0000
# 2 3.4883 119.6419 31.8117 0.0000 -2.6549 0.0000
# 3 19.3508 31.8117 77.0609 0.0001 0.2678 -0.0001
# 4 0.0002 0.0000 0.0001 26.0801 0.0001 -2.8716
# 5 1.2464 -2.6549 0.2678 0.0001 16.1823 -0.0001
# 6 0.0000 0.0000 -0.0001 -2.8716 -0.0001 25.9461
#
#
#
# Elastic Compliance Matrix: (Units=1/GPa)
#
#
# Indices 1 2 3 4 5 6 
#
# 1 0.024184 0.000980 -0.006472 0.000000 -0.001595 0.000000
# 2 0.000980 0.009470 -0.004161 0.000000 0.001547 0.000000
# 3 -0.006472 -0.004161 0.016321 0.000000 -0.000454 0.000000
# 4 0.000000 0.000000 0.000000 0.038816 0.000000 0.004296
# 5 -0.001595 0.001547 -0.000454 0.000000 0.062180 0.000000
# 6 0.000000 0.000000 0.000000 0.004296 0.000000 0.039017
#
#
# Mechanical properties :
#
#
# Convention : Reuss Voigt Hill
#
# Bulk Modulus (GPa) = 32.60510 39.16377 35.88444
# Shear Modulus (GPa) = 22.77723 26.20980 24.49352
#
# Velocity S-wave (km/s) = 3.38027 3.62604 3.50531
# Velocity P-wave (km/s) = 5.62062 6.09733 5.86382
#
# Compressibility (1/GPa) = 0.03067004
#
# Stress axis : x y z
#
# Youngs Moduli (GPa) = 41.35021 105.59199 61.26988
#
# Poissons Ratio (x) = -0.10352 0.39653
# Poissons Ratio (y) = -0.04054 0.25495
# Poissons Ratio (z) = 0.26761 0.43937
#
# Static dielectric constant tensor:
#      x y z
#    x 3.295630 0.000000 -0.138820 
#    y 0.000000 4.101250 0.000000 
#    z -0.138820 0.000000 3.574560 
# 
# 
# High freq. dielectric constant tensor:
#      x y z
#    x 1.736310 0.000000 -0.010440 
#    y 0.000000 1.803020 0.000000 
#    z -0.010440 0.000000 1.771540 
# 
# From -- ./inp_files/286450.got.cif
#   From: 2010.06.25/outbox.cif.g09.slc.cpg/sg12_144_cif.got.tgz:286450.got - 2010.06.28 00:19:55.
