data_PCOD8100720
_publ_section_title
;
Structure prediction by ZEFSAII (Michael W. Deem and Ramdas Pophale) SiO2 
 PCOD8100720
Probable space group: C 2/M
;
_chemical_formula_sum "Si O2"
_cell_formula_units_Z 32
_cell_length_a 10.816235
_cell_length_b 15.165090
_cell_length_c 10.943589
_cell_angle_alpha 90.000000
_cell_angle_beta 51.864831
_cell_angle_gamma 90.000000
_cell_volume 1411.921657
_symmetry_space_group_name_H-M "C 2/M"
_symmetry_group_IT_number 12
_symmetry_cell_setting 'monoclinic'
loop_
_space_group_symop_operation_xyz
x,y,z
-x,y,-z
-x,-y,-z
x,-y,z
1/2+x,1/2+y,z
1/2-x,1/2+y,-z
1/2-x,1/2-y,-z
1/2+x,1/2-y,z
loop_
_atom_site_type_symbol
_atom_site_label
_atom_site_fract_x
_atom_site_fract_y
_atom_site_fract_z
Si Si1 0.724443 0.658414 0.947537
Si Si2 0.601596 0.601339 0.776473
Si Si3 0.460545 0.899546 0.154352
Si Si4 0.845052 0.894657 0.527411
O O1 0.677722 0.664854 0.832878
O O2 0.887745 0.605370 0.851873
O O3 0.750000 0.750000 0.000000
O O4 0.587991 0.606030 0.102466
O O5 0.652554 0.500000 0.768127
O O6 0.658061 0.637376 0.611085
O O7 0.309323 0.855163 0.311301
O O8 0.414087 0.000000 0.156579
O O9 0.500000 0.852362 0.000000
O O10 0.000000 0.857431 0.500000
O O11 0.846709 0.000000 0.527213
#
# Coordination Sequence:
#
# PCOD8100720 Si02
#       4
#     8   8   8   8
#     4  11  23  37  59  86 126 160 201 253 311 365
#     4  10  21  41  66  88 120 166 213 252 306 371
#     4  10  20  35  62  91 118 155 206 255 302 363
#     4   9  18  35  62  95 122 154 204 262 307 357
#
# _framework density 22.664145999999999
#
# number of rings (size 3 to 8) (size 9 to 14) (size 15 to 20)
#    0.000    2.000    0.000    4.500    3.500    5.000 
#    0.000    5.000    5.500    0.000    0.000    0.000 
#    0.000    0.000    0.000    0.000    0.000    0.000 
#
# Total GULP energy -198368.504856 kJ/mol
# GULP energy per Si atom -12398.031553 kJ/mol
# Density = 2.261256 g / cm^3
# Si number density = 22.664146 Si / 1000 Ang^3
#
#
#
# Elastic Constant Matrix: (Units=GPa)
#
#
# Indices 1 2 3 4 5 6 
#
# 1 167.6911 24.6768 112.0848 0.0000 -4.0279 0.0000
# 2 24.6768 45.8736 15.6960 0.0000 19.1993 0.0000
# 3 112.0848 15.6960 235.4691 0.0000 5.0820 0.0000
# 4 0.0000 0.0000 0.0000 11.2045 0.0000 10.3219
# 5 -4.0279 19.1993 5.0820 0.0000 48.9507 0.0000
# 6 0.0000 0.0000 0.0000 10.3219 0.0000 27.8698
#
#
#
# Elastic Compliance Matrix: (Units=1/GPa)
#
#
# Indices 1 2 3 4 5 6 
#
# 1 0.009694 -0.005085 -0.004345 0.000000 0.003243 0.000000
# 2 -0.005085 0.029303 0.000726 0.000000 -0.011987 0.000000
# 3 -0.004345 0.000726 0.006295 0.000000 -0.001296 0.000000
# 4 0.000000 0.000000 0.000000 0.135471 0.000000 -0.050173
# 5 0.003243 -0.011987 -0.001296 0.000000 0.025532 0.000000
# 6 0.000000 0.000000 0.000000 -0.050173 0.000000 0.054463
#
#
# Mechanical properties :
#
#
# Convention : Reuss Voigt Hill
#
# Bulk Modulus (GPa) = 35.86472 83.77209 59.81841
# Shear Modulus (GPa) = 17.39364 37.37674 27.38519
#
# Velocity S-wave (km/s) = 2.77330 4.06539 3.47984
# Velocity P-wave (km/s) = 5.11016 7.68629 6.52659
#
# Compressibility (1/GPa) = 0.02788256
#
# Stress axis : x y z
#
# Youngs Moduli (GPa) = 103.15542 34.12610 158.85912
#
# Poissons Ratio (x) = 0.17354 0.69032
# Poissons Ratio (y) = 0.52458 -0.11534
# Poissons Ratio (z) = 0.44826 -0.02478
#
# Static dielectric constant tensor:
#      x y z
#    x 4.254410 0.000000 -0.026500 
#    y 0.000000 3.558330 0.000000 
#    z -0.026500 0.000000 4.428190 
# 
# 
# High freq. dielectric constant tensor:
#      x y z
#    x 1.898670 0.000000 0.000960 
#    y 0.000000 1.857650 0.000000 
#    z 0.000960 0.000000 1.902020 
# 
# From -- ./inp_files/45417.got.cif
#   From: 2010.06.25/outbox.cif.g09.slc.cpg/sg12_23_cif.got.tgz:45417.got - 2010.06.28 00:19:55.
