data_PCOD8100355
_publ_section_title
;
Structure prediction by ZEFSAII (Michael W. Deem and Ramdas Pophale) SiO2 
 PCOD8100355
Probable space group: C 2/M
;
_chemical_formula_sum "Si O2"
_cell_formula_units_Z 36
_cell_length_a 25.111526
_cell_length_b 7.726164
_cell_length_c 12.654446
_cell_angle_alpha 90.000000
_cell_angle_beta 43.095720
_cell_angle_gamma 90.000000
_cell_volume 1677.413930
_symmetry_space_group_name_H-M "C 2/M"
_symmetry_group_IT_number 12
_symmetry_cell_setting 'monoclinic'
loop_
_space_group_symop_operation_xyz
x,y,z
-x,y,-z
-x,-y,-z
x,-y,z
1/2+x,1/2+y,z
1/2-x,1/2+y,-z
1/2-x,1/2-y,-z
1/2+x,1/2-y,z
loop_
_atom_site_type_symbol
_atom_site_label
_atom_site_fract_x
_atom_site_fract_y
_atom_site_fract_z
Si Si1 0.010987 0.000000 0.356773
Si Si2 0.090855 0.000000 0.884655
Si Si3 0.160993 0.000000 0.012001
Si Si4 0.566796 0.814268 0.488315
Si Si5 0.696653 0.196749 0.673889
Si Si6 0.266974 0.303316 0.800263
O O1 0.101377 0.000000 0.195863
O O2 0.000000 0.000000 0.500000
O O3 0.964872 0.171200 0.381282
O O4 0.123906 0.826686 0.782491
O O5 0.000000 0.000000 0.000000
O O6 0.109977 0.000000 0.980556
O O7 0.213636 0.172479 0.945536
O O8 0.500000 0.843109 0.500000
O O9 0.643164 0.747681 0.316398
O O10 0.583307 0.000000 0.520940
O O11 0.750000 0.250000 0.500000
O O12 0.747982 0.217525 0.704424
O O13 0.666010 0.000000 0.705952
O O14 0.252221 0.500000 0.861637
#
# Coordination Sequence:
#
# PCOD8100355 Si02
#       6
#     4   4   4   8   8   8
#     4  10  22  40  58  83 117 152 193 247 290 352
#     4  10  22  38  56  87 124 153 189 245 297 346
#     4  10  22  40  59  84 120 153 195 244 298 348
#     4  10  20  36  61  85 116 148 193 244 293 350
#     4  10  20  35  58  88 119 154 200 237 283 352
#     4  10  20  36  61  87 116 156 195 242 293 348
#
# _framework density 21.461607000000001
#
# number of rings (size 3 to 8) (size 9 to 14) (size 15 to 20)
#    0.000    2.000    3.333    0.000    0.000    3.111 
#    0.000    4.444    0.000    0.000    0.000    0.000 
#    0.000    0.000    0.000    0.000    0.000    0.000 
#
# Total GULP energy -223115.386331 kJ/mol
# GULP energy per Si atom -12395.299241 kJ/mol
# Density = 2.141276 g / cm^3
# Si number density = 21.461607 Si / 1000 Ang^3
#
#
#
# Elastic Constant Matrix: (Units=GPa)
#
#
# Indices 1 2 3 4 5 6 
#
# 1 31.4600 27.1419 37.8412 0.0000 -18.3904 0.0000
# 2 27.1419 246.2556 98.3923 0.0006 -14.3377 0.0000
# 3 37.8412 98.3923 189.1302 0.0001 -23.6178 0.0000
# 4 0.0000 0.0006 0.0001 39.7738 0.0000 -6.0998
# 5 -18.3904 -14.3377 -23.6178 0.0000 34.9917 0.0000
# 6 0.0000 0.0000 0.0000 -6.0998 0.0000 18.8535
#
#
#
# Elastic Compliance Matrix: (Units=1/GPa)
#
#
# Indices 1 2 3 4 5 6 
#
# 1 0.056057 -0.001892 -0.007261 0.000000 0.023785 0.000000
# 2 -0.001892 0.005194 -0.002383 0.000000 -0.000475 0.000000
# 3 -0.007261 -0.002383 0.008061 0.000000 0.000648 0.000000
# 4 0.000000 0.000000 0.000000 0.026455 0.000000 0.008559
# 5 0.023785 -0.000475 0.000648 0.000000 0.041322 0.000000
# 6 0.000000 0.000000 0.000000 0.008559 0.000000 0.055810
#
#
# Mechanical properties :
#
#
# Convention : Reuss Voigt Hill
#
# Bulk Modulus (GPa) = 21.62680 88.17738 54.90209
# Shear Modulus (GPa) = 21.60916 38.95516 30.28216
#
# Velocity S-wave (km/s) = 3.17657 4.26503 3.76039
# Velocity P-wave (km/s) = 4.85314 8.08884 6.67017
#
# Compressibility (1/GPa) = 0.04623894
#
# Stress axis : x y z
#
# Youngs Moduli (GPa) = 17.83899 192.53930 124.05986
#
# Poissons Ratio (x) = 0.36437 0.90082
# Poissons Ratio (y) = 0.03376 0.29559
# Poissons Ratio (z) = 0.12953 0.45874
#
# Static dielectric constant tensor:
#      x y z
#    x 3.600830 0.000000 -0.061740 
#    y 0.000000 6.125870 0.000000 
#    z -0.061740 0.000000 3.102110 
# 
# 
# High freq. dielectric constant tensor:
#      x y z
#    x 1.813920 0.000000 -0.016720 
#    y 0.000000 1.878530 0.000000 
#    z -0.016720 0.000000 1.833250 
# 
# From -- ./inp_files/210709.got.cif
#   From: 2010.06.25/outbox.cif.g09.slc.cpg/sg12_106_cif.got.tgz:210709.got - 2010.06.28 00:19:55.
