data_PCOD8100224
_publ_section_title
;
Structure prediction by ZEFSAII (Michael W. Deem and Ramdas Pophale) SiO2 
 PCOD8100224
Probable space group: C 2/M
;
_chemical_formula_sum "Si O2"
_cell_formula_units_Z 40
_cell_length_a 18.172174
_cell_length_b 8.871633
_cell_length_c 26.151097
_cell_angle_alpha 90.000000
_cell_angle_beta 29.468868
_cell_angle_gamma 90.000000
_cell_volume 2074.062494
_symmetry_space_group_name_H-M "C 2/M"
_symmetry_group_IT_number 12
_symmetry_cell_setting 'monoclinic'
loop_
_space_group_symop_operation_xyz
x,y,z
-x,y,-z
-x,-y,-z
x,-y,z
1/2+x,1/2+y,z
1/2-x,1/2+y,-z
1/2-x,1/2-y,-z
1/2+x,1/2-y,z
loop_
_atom_site_type_symbol
_atom_site_label
_atom_site_fract_x
_atom_site_fract_y
_atom_site_fract_z
Si Si1 0.691732 0.822365 0.282871
Si Si2 0.335908 0.674761 0.901696
Si Si3 0.829017 0.326659 0.104082
Si Si4 0.098958 0.665698 0.490354
Si Si5 0.151455 0.322589 0.716248
O O1 0.737338 0.775740 0.198679
O O2 0.515705 0.777920 0.396191
O O3 0.795649 0.739023 0.261104
O O4 0.712727 0.000000 0.278549
O O5 0.361593 0.500000 0.898399
O O6 0.235905 0.699234 0.912493
O O7 0.493496 0.753298 0.797003
O O8 0.250000 0.750000 0.000000
O O9 0.816631 0.500000 0.129117
O O10 0.000000 0.272663 0.000000
O O11 0.165328 0.500000 0.463497
O O12 0.234247 0.781213 0.398939
O O13 0.000000 0.652541 0.500000
O O14 0.136546 0.500000 0.729347
#
# Coordination Sequence:
#
# PCOD8100224 Si02
#       5
#     8   8   8   8   8
#     4  10  20  35  58  85 113 146 184 229 278 328
#     4  11  23  39  59  83 113 146 181 227 280 332
#     4  10  22  39  58  82 111 142 180 228 279 332
#     4   8  16  32  53  80 112 144 182 228 276 323
#     4  11  21  34  56  84 114 149 189 228 268 323
#
# _framework density 19.285820000000001
#
# number of rings (size 3 to 8) (size 9 to 14) (size 15 to 20)
#    0.000    2.000    0.000    5.400    0.000    8.000 
#    0.000    1.000    0.000    0.000    0.000    0.000 
#    0.000    0.000    0.000    0.000    0.000    0.000 
#
# Total GULP energy -248013.523834 kJ/mol
# GULP energy per Si atom -12400.676192 kJ/mol
# Density = 1.924193 g / cm^3
# Si number density = 19.285820 Si / 1000 Ang^3
#
#
#
# Elastic Constant Matrix: (Units=GPa)
#
#
# Indices 1 2 3 4 5 6 
#
# 1 67.2122 51.1483 57.5729 0.0000 -1.7047 -0.0002
# 2 51.1483 132.1108 75.5820 -0.0001 -2.8759 -0.0004
# 3 57.5729 75.5820 167.2061 0.0003 3.3581 0.0000
# 4 0.0000 -0.0001 0.0003 35.5893 0.0001 4.8397
# 5 -1.7047 -2.8759 3.3581 0.0001 31.8734 0.0000
# 6 -0.0002 -0.0004 0.0000 4.8397 0.0000 23.9745
#
#
#
# Elastic Compliance Matrix: (Units=1/GPa)
#
#
# Indices 1 2 3 4 5 6 
#
# 1 0.024480 -0.006219 -0.005645 0.000000 0.001343 0.000000
# 2 -0.006219 0.011853 -0.003238 0.000000 0.001078 0.000000
# 3 -0.005645 -0.003238 0.009420 0.000000 -0.001587 0.000000
# 4 0.000000 0.000000 0.000000 0.028891 0.000000 -0.005832
# 5 0.001343 0.001078 -0.001587 0.000000 0.031710 0.000000
# 6 0.000000 0.000000 0.000000 -0.005832 0.000000 0.042888
#
#
# Mechanical properties :
#
#
# Convention : Reuss Voigt Hill
#
# Bulk Modulus (GPa) = 64.31273 81.68173 72.99723
# Shear Modulus (GPa) = 27.08098 30.43585 28.75842
#
# Velocity S-wave (km/s) = 3.75132 3.97690 3.86575
# Velocity P-wave (km/s) = 7.22376 7.97075 7.60643
#
# Compressibility (1/GPa) = 0.01554902
#
# Stress axis : x y z
#
# Youngs Moduli (GPa) = 40.84905 84.36425 106.15728
#
# Poissons Ratio (x) = 0.52467 0.59925
# Poissons Ratio (y) = 0.25405 0.34377
# Poissons Ratio (z) = 0.23059 0.27320
#
# Static dielectric constant tensor:
#      x y z
#    x 3.256140 0.000000 -0.009210 
#    y 0.000000 3.628490 0.000000 
#    z -0.009210 0.000000 4.129370 
# 
# 
# High freq. dielectric constant tensor:
#      x y z
#    x 1.723330 0.000000 0.001760 
#    y 0.000000 1.755340 0.000000 
#    z 0.001760 0.000000 1.771620 
# 
# From -- ./inp_files/220608.got.cif
#   From: 2010.06.25/outbox.cif.g09.slc.cpg/sg12_111_cif.got.tgz:220608.got - 2010.06.28 00:19:55.
