data_PCOD8100372
_publ_section_title
;
Structure prediction by ZEFSAII (Michael W. Deem and Ramdas Pophale) SiO2 
 PCOD8100372
Probable space group: C 2/M
;
_chemical_formula_sum "Si O2"
_cell_formula_units_Z 56
_cell_length_a 19.149869
_cell_length_b 8.886867
_cell_length_c 27.788682
_cell_angle_alpha 90.000000
_cell_angle_beta 38.133270
_cell_angle_gamma 90.000000
_cell_volume 2920.211318
_symmetry_space_group_name_H-M "C 2/M"
_symmetry_group_IT_number 12
_symmetry_cell_setting 'monoclinic'
loop_
_space_group_symop_operation_xyz
x,y,z
-x,y,-z
-x,-y,-z
x,-y,z
1/2+x,1/2+y,z
1/2-x,1/2+y,-z
1/2-x,1/2-y,-z
1/2+x,1/2-y,z
loop_
_atom_site_type_symbol
_atom_site_label
_atom_site_fract_x
_atom_site_fract_y
_atom_site_fract_z
Si Si1 0.176489 0.326240 0.194588
Si Si2 0.003238 0.176307 0.643800
Si Si3 0.331036 0.675092 0.361617
Si Si4 0.367712 0.676811 0.949496
Si Si5 0.070393 0.675777 0.509413
Si Si6 0.619791 0.167424 0.959073
Si Si7 0.504872 0.827067 0.201721
O O1 0.202793 0.500000 0.190604
O O2 0.292350 0.234765 0.127061
O O3 0.107907 0.304086 0.182512
O O4 0.106949 0.260940 0.276960
O O5 0.112168 0.216950 0.617813
O O6 0.022078 0.229104 0.579482
O O7 0.979037 0.000000 0.657708
O O8 0.347139 0.500000 0.341702
O O9 0.200590 0.722407 0.432208
O O10 0.389189 0.766755 0.287228
O O11 0.357245 0.500000 0.949882
O O12 0.468125 0.735645 0.861092
O O13 0.250000 0.750000 0.000000
O O14 0.395325 0.719242 0.988804
O O15 0.059269 0.500000 0.527711
O O16 0.000000 0.718011 0.500000
O O17 0.660549 0.000000 0.953266
O O18 0.500000 0.153349 0.000000
O O19 0.487856 0.000000 0.197171
#
# Coordination Sequence:
#
# PCOD8100372 Si02
#       7
#     8   8   8   8   8   8   8
#     4  10  20  36  60  86 115 151 193 239 287 345
#     4  10  20  35  59  86 112 145 188 238 287 339
#     4   9  19  36  58  84 113 147 189 236 285 341
#     4  12  23  37  61  88 118 156 197 243 292 346
#     4  10  21  38  58  82 115 151 187 230 283 346
#     4  11  24  41  60  85 119 156 196 244 294 348
#     4  10  20  35  58  89 117 147 191 244 292 339
#
# _framework density 19.176693
#
# number of rings (size 3 to 8) (size 9 to 14) (size 15 to 20)
#    0.000    1.714    1.429    3.429    0.000    3.714 
#    2.571    0.000    0.000    0.000    0.000    0.000 
#    0.000    0.000    0.000    0.000    0.000    0.000 
#
# Total GULP energy -347327.158513 kJ/mol
# GULP energy per Si atom -12404.541375 kJ/mol
# Density = 1.913305 g / cm^3
# Si number density = 19.176693 Si / 1000 Ang^3
#
#
#
# Elastic Constant Matrix: (Units=GPa)
#
#
# Indices 1 2 3 4 5 6 
#
# 1 73.5397 36.5623 54.6504 0.0001 1.0784 -0.0005
# 2 36.5623 125.9145 74.4652 0.0001 3.0019 -0.0011
# 3 54.6504 74.4652 145.0459 0.0000 1.8651 -0.0001
# 4 0.0001 0.0001 0.0000 40.0576 0.0000 4.9594
# 5 1.0784 3.0019 1.8651 0.0000 25.6391 0.0002
# 6 -0.0005 -0.0011 -0.0001 4.9594 0.0002 24.4211
#
#
#
# Elastic Compliance Matrix: (Units=1/GPa)
#
#
# Indices 1 2 3 4 5 6 
#
# 1 0.019186 -0.001858 -0.006273 0.000000 -0.000133 0.000000
# 2 -0.001858 0.011606 -0.005247 0.000000 -0.000899 0.000000
# 3 -0.006273 -0.005247 0.011951 0.000000 0.000009 0.000000
# 4 0.000000 0.000000 0.000000 0.025608 0.000000 -0.005200
# 5 -0.000133 -0.000899 0.000009 0.000000 0.039113 0.000000
# 6 0.000000 0.000000 0.000000 -0.005200 0.000000 0.042004
#
#
# Mechanical properties :
#
#
# Convention : Reuss Voigt Hill
#
# Bulk Modulus (GPa) = 62.55000 75.09512 68.82256
# Shear Modulus (GPa) = 27.54020 29.94503 28.74261
#
# Velocity S-wave (km/s) = 3.79374 3.95591 3.87567
# Velocity P-wave (km/s) = 7.20267 7.75308 7.48294
#
# Compressibility (1/GPa) = 0.01598721
#
# Stress axis : x y z
#
# Youngs Moduli (GPa) = 52.12232 86.16479 83.67168
#
# Poissons Ratio (x) = 0.16008 0.52489
# Poissons Ratio (y) = 0.09684 0.43900
# Poissons Ratio (z) = 0.32698 0.45208
#
# Static dielectric constant tensor:
#      x y z
#    x 3.245970 0.000000 -0.045960 
#    y 0.000000 3.804630 0.000000 
#    z -0.045960 0.000000 3.609240 
# 
# 
# High freq. dielectric constant tensor:
#      x y z
#    x 1.723790 0.000000 0.002890 
#    y 0.000000 1.757890 0.000000 
#    z 0.002890 0.000000 1.758850 
# 
# From -- ./inp_files/342496.got.cif
#   From: 2010.06.25/outbox.cif.g09.slc.cpg/sg12_172_cif.got.tgz:342496.got - 2010.06.28 00:19:55.
