data_PCOD8100335
_publ_section_title
;
Structure prediction by ZEFSAII (Michael W. Deem and Ramdas Pophale) SiO2 
 PCOD8100335
Probable space group: C 2/M
;
_chemical_formula_sum "Si O2"
_cell_formula_units_Z 56
_cell_length_a 7.973473
_cell_length_b 18.299993
_cell_length_c 27.514439
_cell_angle_alpha 90.000000
_cell_angle_beta 137.266367
_cell_angle_gamma 90.000000
_cell_volume 2724.376836
_symmetry_space_group_name_H-M "C 2/M"
_symmetry_group_IT_number 12
_symmetry_cell_setting 'monoclinic'
loop_
_space_group_symop_operation_xyz
x,y,z
-x,y,-z
-x,-y,-z
x,-y,z
1/2+x,1/2+y,z
1/2-x,1/2+y,-z
1/2-x,1/2-y,-z
1/2+x,1/2-y,z
loop_
_atom_site_type_symbol
_atom_site_label
_atom_site_fract_x
_atom_site_fract_y
_atom_site_fract_z
Si Si1 0.761772 0.087098 0.421039
Si Si2 0.390277 0.806464 0.206910
Si Si3 0.468937 0.689736 0.047384
Si Si4 0.304713 0.412796 0.317910
Si Si5 0.252291 0.583087 0.652206
Si Si6 0.022348 0.153897 0.213186
Si Si7 0.731941 0.581344 0.921446
O O1 0.777850 0.111758 0.368192
O O2 0.517793 0.120578 0.396377
O O3 0.000000 0.117875 0.500000
O O4 0.755475 0.000000 0.421191
O O5 0.234223 0.784148 0.124791
O O6 0.603208 0.867197 0.243264
O O7 0.232750 0.834971 0.217990
O O8 0.499857 0.726321 0.241599
O O9 0.427709 0.619430 0.071425
O O10 0.500000 0.661013 0.000000
O O11 0.250000 0.750000 0.000000
O O12 0.262167 0.500000 0.301265
O O13 0.577953 0.388495 0.356588
O O14 0.195075 0.500000 0.628694
O O15 0.403566 0.589591 0.734537
O O16 0.779505 0.126213 0.131819
O O17 0.627978 0.500000 0.890813
O O18 0.000000 0.580505 0.000000
#
# Coordination Sequence:
#
# PCOD8100335 Si02
#       7
#     8   8   8   8   8   8   8
#     4   9  18  35  60  89 123 161 199 245 299 355
#     4  11  22  35  58  84 113 157 199 250 302 359
#     4  11  22  38  58  82 117 156 203 252 300 358
#     4  10  21  37  58  91 125 154 202 252 298 364
#     4  10  20  35  58  87 121 160 198 247 301 353
#     4  11  21  36  56  82 114 151 199 246 299 362
#     4  10  22  38  57  81 114 155 195 244 302 357
#
# _framework density 20.555159
#
# number of rings (size 3 to 8) (size 9 to 14) (size 15 to 20)
#    0.000    1.714    1.429    4.286    0.000    4.286 
#    0.000    4.286    0.000    0.857    0.000    0.000 
#    0.000    0.000    0.000    0.000    0.000    0.000 
#
# Total GULP energy -346872.209983 kJ/mol
# GULP energy per Si atom -12388.293214 kJ/mol
# Density = 2.050837 g / cm^3
# Si number density = 20.555159 Si / 1000 Ang^3
#
#
#
# Elastic Constant Matrix: (Units=GPa)
#
#
# Indices 1 2 3 4 5 6 
#
# 1 109.5945 20.3371 46.0469 0.0007 12.3089 0.0002
# 2 20.3371 73.0872 26.7162 -0.0001 5.9791 0.0000
# 3 46.0469 26.7162 113.1211 -0.0008 13.6413 -0.0003
# 4 0.0007 -0.0001 -0.0008 31.9309 -0.0006 -8.1900
# 5 12.3089 5.9791 13.6413 -0.0006 28.4521 0.0001
# 6 0.0002 0.0000 -0.0003 -8.1900 0.0001 32.9884
#
#
#
# Elastic Compliance Matrix: (Units=1/GPa)
#
#
# Indices 1 2 3 4 5 6 
#
# 1 0.011365 -0.001498 -0.003945 0.000000 -0.002710 0.000000
# 2 -0.001498 0.015237 -0.002845 0.000000 -0.001190 0.000000
# 3 -0.003945 -0.002845 0.011505 0.000000 -0.003211 0.000000
# 4 0.000000 0.000000 0.000000 0.033448 0.000001 0.008304
# 5 -0.002710 -0.001190 -0.003211 0.000001 0.038109 0.000000
# 6 0.000000 0.000000 0.000000 0.008304 0.000000 0.032375
#
#
# Mechanical properties :
#
#
# Convention : Reuss Voigt Hill
#
# Bulk Modulus (GPa) = 46.44952 53.55590 50.00271
# Shear Modulus (GPa) = 30.15820 32.18776 31.17298
#
# Velocity S-wave (km/s) = 3.83454 3.96147 3.89852
# Velocity P-wave (km/s) = 6.50011 6.85825 6.68158
#
# Compressibility (1/GPa) = 0.02152875
#
# Stress axis : x y z
#
# Youngs Moduli (GPa) = 87.99204 65.63170 86.91652
#
# Poissons Ratio (x) = 0.09834 0.34292
# Poissons Ratio (y) = 0.13185 0.24728
# Poissons Ratio (z) = 0.34716 0.18673
#
# Static dielectric constant tensor:
#      x y z
#    x 4.690520 0.000000 1.891370 
#    y 0.000000 3.862410 -0.000010 
#    z 1.891370 -0.000010 7.788170 
# 
# 
# High freq. dielectric constant tensor:
#      x y z
#    x 1.810230 0.000000 0.005970 
#    y 0.000000 1.780890 0.000000 
#    z 0.005970 0.000000 1.798780 
# 
# From -- ./inp_files/372803.got.cif
#   From: 2010.06.25/outbox.cif.g09.slc.cpg/sg12_187_cif.got.tgz:372803.got - 2010.06.28 00:19:55.
