data_PCOD8100523
_publ_section_title
;
Structure prediction by ZEFSAII (Michael W. Deem and Ramdas Pophale) SiO2 
 PCOD8100523
Probable space group: C 2/M
;
_chemical_formula_sum "Si O2"
_cell_formula_units_Z 64
_cell_length_a 31.823384
_cell_length_b 8.778636
_cell_length_c 17.954914
_cell_angle_alpha 90.000000
_cell_angle_beta 139.231191
_cell_angle_gamma 90.000000
_cell_volume 3275.484169
_symmetry_space_group_name_H-M "C 2/M"
_symmetry_group_IT_number 12
_symmetry_cell_setting 'monoclinic'
loop_
_space_group_symop_operation_xyz
x,y,z
-x,y,-z
-x,-y,-z
x,-y,z
1/2+x,1/2+y,z
1/2-x,1/2+y,-z
1/2-x,1/2-y,-z
1/2+x,1/2-y,z
loop_
_atom_site_type_symbol
_atom_site_label
_atom_site_fract_x
_atom_site_fract_y
_atom_site_fract_z
Si Si1 0.028719 0.675208 0.318975
Si Si2 0.343014 0.177519 0.589862
Si Si3 0.817868 0.177959 0.109344
Si Si4 0.290973 0.323465 0.663235
Si Si5 0.545446 0.320629 0.493338
Si Si6 0.607588 0.172645 0.917924
Si Si7 0.203508 0.676255 0.174254
Si Si8 0.830987 0.320122 0.281641
O O1 0.037957 0.500000 0.355313
O O2 0.092648 0.735680 0.364109
O O3 0.013578 0.773081 0.372394
O O4 0.969408 0.694288 0.181821
O O5 0.336081 0.273163 0.655891
O O6 0.283500 0.210874 0.455145
O O7 0.346551 0.000000 0.615684
O O8 0.865874 0.209221 0.106513
O O9 0.846882 0.249447 0.222876
O O10 0.809155 0.000000 0.110134
O O11 0.750000 0.250000 0.000000
O O12 0.302228 0.500000 0.695064
O O13 0.311469 0.227728 0.762436
O O14 0.500000 0.265749 0.500000
O O15 0.556117 0.500000 0.510985
O O16 0.614389 0.237779 0.588893
O O17 0.624946 0.000000 0.916206
O O18 0.638675 0.206996 0.039938
O O19 0.223321 0.500000 0.199504
O O20 0.261177 0.772196 0.216520
O O21 0.832953 0.500000 0.278922
#
# Coordination Sequence:
#
# PCOD8100523 Si02
#       8
#     8   8   8   8   8   8   8   8
#     4  10  21  39  62  86 115 155 200 242 291 353
#     4   9  19  37  60  86 114 147 188 236 292 354
#     4  12  23  37  57  82 114 153 196 243 291 343
#     4  10  20  35  59  89 118 147 187 238 295 354
#     4  11  24  40  58  85 119 155 195 242 293 347
#     4  10  22  39  59  84 116 156 199 243 292 348
#     4  11  22  37  58  85 118 152 191 240 293 348
#     4  12  24  38  59  85 115 153 196 244 295 349
#
# _framework density 19.539097000000002
#
# number of rings (size 3 to 8) (size 9 to 14) (size 15 to 20)
#    0.000    1.375    1.250    4.875    0.000    6.000 
#    0.000    0.625    0.000    3.750    0.000    0.000 
#    0.000    0.000    0.000    0.000    0.000    0.000 
#
# Total GULP energy -396990.972992 kJ/mol
# GULP energy per Si atom -12405.967906 kJ/mol
# Density = 1.949463 g / cm^3
# Si number density = 19.539097 Si / 1000 Ang^3
#
#
#
# Elastic Constant Matrix: (Units=GPa)
#
#
# Indices 1 2 3 4 5 6 
#
# 1 113.2597 38.1235 54.4980 0.0000 1.4374 0.0000
# 2 38.1235 105.0349 44.4885 0.0000 -4.3522 0.0000
# 3 54.4980 44.4885 122.9072 0.0000 -3.4044 0.0000
# 4 0.0000 0.0000 0.0000 26.7495 0.0000 -4.2507
# 5 1.4374 -4.3522 -3.4044 0.0000 32.6307 0.0000
# 6 0.0000 0.0000 0.0000 -4.2507 0.0000 32.2213
#
#
#
# Elastic Compliance Matrix: (Units=1/GPa)
#
#
# Indices 1 2 3 4 5 6 
#
# 1 0.011780 -0.002483 -0.004361 0.000000 -0.001305 0.000000
# 2 -0.002483 0.011806 -0.003135 0.000000 0.001357 0.000000
# 3 -0.004361 -0.003135 0.011231 0.000000 0.000946 0.000000
# 4 0.000000 0.000000 0.000000 0.038184 0.000000 0.005037
# 5 -0.001305 0.001357 0.000946 0.000000 0.030983 0.000000
# 6 0.000000 0.000000 0.000000 0.005037 0.000000 0.031700
#
#
# Mechanical properties :
#
#
# Convention : Reuss Voigt Hill
#
# Bulk Modulus (GPa) = 67.29608 68.38021 67.83815
# Shear Modulus (GPa) = 31.13451 31.92644 31.53048
#
# Velocity S-wave (km/s) = 3.99613 4.04663 4.02146
# Velocity P-wave (km/s) = 7.47052 7.54362 7.50716
#
# Compressibility (1/GPa) = 0.01485971
#
# Stress axis : x y z
#
# Youngs Moduli (GPa) = 84.89113 84.70425 89.04129
#
# Poissons Ratio (x) = 0.21029 0.38829
# Poissons Ratio (y) = 0.21075 0.27914
# Poissons Ratio (z) = 0.37019 0.26554
#
# Static dielectric constant tensor:
#      x y z
#    x 3.531700 0.000000 -0.010800 
#    y 0.000000 3.614660 0.000000 
#    z -0.010800 0.000000 3.710910 
# 
# 
# High freq. dielectric constant tensor:
#      x y z
#    x 1.750730 0.000000 -0.002340 
#    y 0.000000 1.766420 0.000000 
#    z -0.002340 0.000000 1.767180 
# 
# From -- ./inp_files/295679.got.cif
#   From: 2010.06.25/outbox.cif.g09.slc.cpg/sg12_148_cif.got.tgz:295679.got - 2010.06.28 00:19:55.
