data_PCOD8100957
_publ_section_title
;
Structure prediction by ZEFSAII (Michael W. Deem and Ramdas Pophale) SiO2 
 PCOD8100957
Probable space group: C 2/M
;
_chemical_formula_sum "Si O2"
_cell_formula_units_Z 64
_cell_length_a 32.421357
_cell_length_b 8.771340
_cell_length_c 24.280665
_cell_angle_alpha 90.000000
_cell_angle_beta 151.320585
_cell_angle_gamma 90.000000
_cell_volume 3313.721445
_symmetry_space_group_name_H-M "C 2/M"
_symmetry_group_IT_number 12
_symmetry_cell_setting 'monoclinic'
loop_
_space_group_symop_operation_xyz
x,y,z
-x,y,-z
-x,-y,-z
x,-y,z
1/2+x,1/2+y,z
1/2-x,1/2+y,-z
1/2-x,1/2-y,-z
1/2+x,1/2-y,z
loop_
_atom_site_type_symbol
_atom_site_label
_atom_site_fract_x
_atom_site_fract_y
_atom_site_fract_z
Si Si1 0.390345 0.165865 0.267708
Si Si2 0.370715 0.318285 0.841040
Si Si3 0.593693 0.322405 0.606397
Si Si4 0.688498 0.680434 0.610234
Si Si5 0.962267 0.178868 0.154414
Si Si6 0.518767 0.181550 0.940296
Si Si7 0.713406 0.337294 0.007374
Si Si8 0.972459 0.822636 0.650358
O O1 0.368766 0.284554 0.290624
O O2 0.293207 0.134606 0.138925
O O3 0.451216 0.234800 0.291709
O O4 0.429000 0.000000 0.330423
O O5 0.375269 0.500000 0.850488
O O6 0.278156 0.267727 0.709407
O O7 0.438534 0.256707 0.876687
O O8 0.393830 0.246455 0.928384
O O9 0.500000 0.245246 0.500000
O O10 0.586103 0.500000 0.586557
O O11 0.647493 0.255043 0.618823
O O12 0.706407 0.500000 0.632579
O O13 0.622141 0.723859 0.483164
O O14 0.991343 0.274076 0.135499
O O15 0.023048 0.212770 0.278872
O O16 0.963447 0.000000 0.140557
O O17 0.866699 0.242693 0.056231
O O18 0.516911 0.000000 0.944457
O O19 0.675900 0.500000 0.942502
O O20 0.750000 0.250000 0.000000
O O21 0.987808 0.000000 0.655973
#
# Coordination Sequence:
#
# PCOD8100957 Si02
#       8
#     8   8   8   8   8   8   8   8
#     4  11  22  33  49  79 117 154 197 248 296 339
#     4  11  23  42  67  92 120 151 186 235 297 355
#     4  10  20  36  56  78 110 155 202 240 285 344
#     4  10  21  38  60  88 117 152 202 247 290 347
#     4  10  21  38  60  87 118 157 200 243 294 347
#     4  11  23  42  67  93 120 150 188 237 291 349
#     4  10  21  35  53  79 114 154 197 242 285 340
#     4  10  20  38  61  81 114 163 204 241 289 346
#
# _framework density 19.313631999999998
#
# number of rings (size 3 to 8) (size 9 to 14) (size 15 to 20)
#    0.000    1.625    2.500    3.375    1.750    2.750 
#    0.000    0.625    0.000    0.000    0.000    0.000 
#    0.000    0.000    0.000    0.000    0.000    0.000 
#
# Total GULP energy -396485.304171 kJ/mol
# GULP energy per Si atom -12390.165755 kJ/mol
# Density = 1.926967 g / cm^3
# Si number density = 19.313632 Si / 1000 Ang^3
#
#
#
# Elastic Constant Matrix: (Units=GPa)
#
#
# Indices 1 2 3 4 5 6 
#
# 1 107.5117 34.0593 47.7801 0.0000 -14.3693 0.0000
# 2 34.0593 72.4627 35.3793 0.0000 -1.5123 -0.0001
# 3 47.7801 35.3793 123.7376 0.0000 -1.0364 0.0000
# 4 0.0000 0.0000 0.0000 -3.3172 0.0000 -37.9040
# 5 -14.3693 -1.5123 -1.0364 0.0000 30.4309 0.0000
# 6 0.0000 -0.0001 0.0000 -37.9040 0.0000 -35.9739
#
#
#
# Elastic Compliance Matrix: (Units=1/GPa)
#
#
# Indices 1 2 3 4 5 6 
#
# 1 0.013101 -0.004172 -0.003817 0.000000 0.005849 0.000000
# 2 -0.004172 0.017380 -0.003369 0.000000 -0.001221 0.000000
# 3 -0.003817 -0.003369 0.010505 0.000000 -0.001612 0.000000
# 4 0.000000 0.000000 0.000000 0.027307 0.000000 -0.028772
# 5 0.005849 -0.001221 -0.001612 0.000000 0.035508 0.000000
# 6 0.000000 0.000000 0.000000 -0.028772 0.000000 0.002518
#
#
# Mechanical properties :
#
#
# Convention : Reuss Voigt Hill
#
# Bulk Modulus (GPa) = 54.73101 59.79437 57.26269
# Shear Modulus (GPa) = 37.00266 10.66084 23.83175
#
# Velocity S-wave (km/s) = 4.38183 2.35199 3.51655
# Velocity P-wave (km/s) = 7.34848 6.19699 6.79716
#
# Compressibility (1/GPa) = 0.01827118
#
# Stress axis : x y z
#
# Youngs Moduli (GPa) = 76.32947 57.53590 95.19123
#
# Poissons Ratio (x) = 0.24005 0.36334
# Poissons Ratio (y) = 0.31846 0.32066
# Poissons Ratio (z) = 0.29135 0.19382
#
# Static dielectric constant tensor:
#      x y z
#    x 3.361230 0.000000 -0.699230 
#    y 0.000000 3.513710 0.000000 
#    z -0.699230 0.000000 0.641480 
# 
# 
# High freq. dielectric constant tensor:
#      x y z
#    x 1.742430 0.000000 -0.005640 
#    y 0.000000 1.750000 0.000000 
#    z -0.005640 0.000000 1.757510 
# 
# From -- ./inp_files/353458.got.cif
#   From: 2010.06.25/outbox.cif.g09.slc.cpg/sg12_177_cif.got.tgz:353458.got - 2010.06.28 00:19:55.
