data_PCOD8100993
_publ_section_title
;
Structure prediction by ZEFSAII (Michael W. Deem and Ramdas Pophale) SiO2 
 PCOD8100993
Probable space group: C 2/M
;
_chemical_formula_sum "Si O2"
_cell_formula_units_Z 52
_cell_length_a 12.906654
_cell_length_b 26.740693
_cell_length_c 7.307670
_cell_angle_alpha 90.000000
_cell_angle_beta 88.371213
_cell_angle_gamma 90.000000
_cell_volume 2521.098101
_symmetry_space_group_name_H-M "C 2/M"
_symmetry_group_IT_number 12
_symmetry_cell_setting 'monoclinic'
loop_
_space_group_symop_operation_xyz
x,y,z
-x,y,-z
-x,-y,-z
x,-y,z
1/2+x,1/2+y,z
1/2-x,1/2+y,-z
1/2-x,1/2-y,-z
1/2+x,1/2-y,z
loop_
_atom_site_type_symbol
_atom_site_label
_atom_site_fract_x
_atom_site_fract_y
_atom_site_fract_z
Si Si1 0.435259 0.201215 0.815975
Si Si2 0.839030 0.000000 0.401872
Si Si3 0.357806 0.603188 0.853580
Si Si4 0.000000 0.625872 0.500000
Si Si5 0.498543 0.306136 0.788188
Si Si6 0.217467 0.408016 0.520908
Si Si7 0.718024 0.661703 0.790404
Si Si8 0.048564 0.000000 0.220898
O O1 0.477561 0.159031 0.679032
O O2 0.446925 0.255335 0.713530
O O3 0.312215 0.194828 0.866871
O O4 0.500000 0.197072 0.000000
O O5 0.764225 0.952694 0.398499
O O6 0.904494 0.000000 0.582391
O O7 0.922666 0.000000 0.233509
O O8 0.435059 0.642878 0.748009
O O9 0.261768 0.594665 0.723427
O O10 0.415933 0.550439 0.885576
O O11 0.318382 0.622509 0.051754
O O12 0.906225 0.588344 0.455693
O O13 0.618337 0.307928 0.721855
O O14 0.500000 0.298038 0.000000
O O15 0.241229 0.359586 0.401588
#
# Coordination Sequence:
#
# PCOD8100993 Si02
#       8
#     8   4   8   4   8   8   8   4
#     4  10  21  37  56  76 108 145 178 222 266 312
#     4   9  18  34  55  80 108 143 174 214 272 317
#     4  10  20  36  56  80 111 142 172 218 270 318
#     4  10  22  37  54  82 104 137 190 222 258 316
#     4   9  20  35  54  80 108 142 179 217 265 320
#     4  10  21  36  56  78 108 142 178 222 266 316
#     4  10  21  36  54  81 109 140 181 219 265 317
#     4   9  18  33  57  84 107 137 178 214 264 326
#
# _framework density 20.625933
#
# number of rings (size 3 to 8) (size 9 to 14) (size 15 to 20)
#    0.000    2.308    0.000    1.846    0.000   10.769 
#    0.000    7.308    0.000    0.000    0.000   10.769 
#    0.000    0.000    0.000    0.000    0.000    0.000 
#
# Total GULP energy -322168.887729 kJ/mol
# GULP energy per Si atom -12391.111067 kJ/mol
# Density = 2.057899 g / cm^3
# Si number density = 20.625933 Si / 1000 Ang^3
#
#
#
# Elastic Constant Matrix: (Units=GPa)
#
#
# Indices 1 2 3 4 5 6 
#
# 1 163.5795 71.4270 18.5360 0.0000 -13.3087 0.0000
# 2 71.4270 118.9048 10.9153 0.0000 -0.2935 0.0000
# 3 18.5360 10.9153 57.1317 0.0000 0.3982 0.0000
# 4 0.0000 0.0000 0.0000 17.3216 0.0000 -0.4185
# 5 -13.3087 -0.2935 0.3982 0.0000 21.4300 0.0000
# 6 0.0000 0.0000 0.0000 -0.4185 0.0000 23.9776
#
#
#
# Elastic Compliance Matrix: (Units=1/GPa)
#
#
# Indices 1 2 3 4 5 6 
#
# 1 0.009095 -0.005267 -0.001983 0.000000 0.005613 0.000000
# 2 -0.005267 0.011611 -0.000488 0.000000 -0.003103 0.000000
# 3 -0.001983 -0.000488 0.018251 0.000000 -0.001578 0.000000
# 4 0.000000 0.000000 0.000000 0.057756 0.000000 0.001008
# 5 0.005613 -0.003103 -0.001578 0.000000 0.050136 0.000000
# 6 0.000000 0.000000 0.000000 0.001008 0.000000 0.041723
#
#
# Mechanical properties :
#
#
# Convention : Reuss Voigt Hill
#
# Bulk Modulus (GPa) = 42.58960 60.15251 51.37106
# Shear Modulus (GPa) = 23.59873 28.46168 26.03021
#
# Velocity S-wave (km/s) = 3.38617 3.71873 3.55634
# Velocity P-wave (km/s) = 5.99846 6.90402 6.46711
#
# Compressibility (1/GPa) = 0.02347991
#
# Stress axis : x y z
#
# Youngs Moduli (GPa) = 109.95555 86.12310 54.79104
#
# Poissons Ratio (x) = 0.45363 0.10868
# Poissons Ratio (y) = 0.57916 0.02673
# Poissons Ratio (z) = 0.21809 0.04201
#
# Static dielectric constant tensor:
#      x y z
#    x 3.481010 0.000000 0.020480 
#    y 0.000000 4.144190 0.000000 
#    z 0.020480 0.000000 3.449310 
# 
# 
# High freq. dielectric constant tensor:
#      x y z
#    x 1.817070 0.000000 0.001100 
#    y 0.000000 1.801340 0.000000 
#    z 0.001100 0.000000 1.799590 
# 
# From -- ./inp_files/52630.got.cif
#   From: 2010.06.25/outbox.cif.g09.slc.cpg/sg12_27_cif.got.tgz:52630.got - 2010.06.28 00:19:55.
