data_PCOD8100173
_publ_section_title
;
Structure prediction by ZEFSAII (Michael W. Deem and Ramdas Pophale) SiO2 
 PCOD8100173
Probable space group: C 2/M
;
_chemical_formula_sum "Si O2"
_cell_formula_units_Z 64
_cell_length_a 28.565275
_cell_length_b 9.474726
_cell_length_c 23.145760
_cell_angle_alpha 90.000000
_cell_angle_beta 32.205600
_cell_angle_gamma 90.000000
_cell_volume 3338.645424
_symmetry_space_group_name_H-M "C 2/M"
_symmetry_group_IT_number 12
_symmetry_cell_setting 'monoclinic'
loop_
_space_group_symop_operation_xyz
x,y,z
-x,y,-z
-x,-y,-z
x,-y,z
1/2+x,1/2+y,z
1/2-x,1/2+y,-z
1/2-x,1/2-y,-z
1/2+x,1/2-y,z
loop_
_atom_site_type_symbol
_atom_site_label
_atom_site_fract_x
_atom_site_fract_y
_atom_site_fract_z
Si Si1 0.781506 0.340115 0.913835
Si Si2 0.250045 0.834418 0.320183
Si Si3 0.485500 0.841072 0.228293
Si Si4 0.097447 0.661762 0.922016
Si Si5 0.944693 0.165738 0.502582
Si Si6 0.287939 0.163195 0.407294
Si Si7 0.525066 0.838024 0.315971
Si Si8 0.112032 0.838582 0.021362
O O1 0.791608 0.500000 0.925761
O O2 0.874799 0.284942 0.793768
O O3 0.750000 0.250000 0.000000
O O4 0.713910 0.329125 0.931818
O O5 0.331644 0.775200 0.197512
O O6 0.158779 0.797068 0.382991
O O7 0.251228 0.774757 0.384709
O O8 0.263868 0.000000 0.311942
O O9 0.392516 0.818434 0.294990
O O10 0.475151 0.816986 0.307516
O O11 0.554374 0.729647 0.132081
O O12 0.520332 0.000000 0.179864
O O13 0.120787 0.500000 0.913366
O O14 0.099866 0.755602 0.975665
O O15 0.000000 0.672994 0.000000
O O16 0.000000 0.220622 0.500000
O O17 0.978058 0.240600 0.410840
O O18 0.958802 0.000000 0.479538
O O19 0.250000 0.250000 0.500000
O O20 0.261474 0.000000 0.444119
O O21 0.520630 0.000000 0.341410
O O22 0.081914 0.000000 0.044765
#
# Coordination Sequence:
#
# PCOD8100173 Si02
#       8
#     8   8   8   8   8   8   8   8
#     4  10  21  37  56  83 117 151 188 231 285 344
#     4   9  19  37  57  80 112 145 184 233 276 326
#     4  10  20  36  58  83 111 148 189 228 276 345
#     4  10  21  39  63  85 110 152 197 233 280 340
#     4  10  22  38  56  80 109 147 192 233 278 336
#     4  10  20  35  58  84 110 141 181 228 281 334
#     4  10  21  37  57  81 112 146 186 235 281 331
#     4  11  23  36  55  86 118 147 185 233 289 341
#
# _framework density 19.169452
#
# number of rings (size 3 to 8) (size 9 to 14) (size 15 to 20)
#    0.000    2.000    1.250    1.875    1.750    4.500 
#    0.000    1.250    0.000    0.000    0.000    0.000 
#    0.000    0.000    0.000    0.000    0.000    0.000 
#
# Total GULP energy -396848.292466 kJ/mol
# GULP energy per Si atom -12401.509140 kJ/mol
# Density = 1.912582 g / cm^3
# Si number density = 19.169452 Si / 1000 Ang^3
#
#
#
# Elastic Constant Matrix: (Units=GPa)
#
#
# Indices 1 2 3 4 5 6 
#
# 1 110.8985 35.5491 38.4915 0.0035 -3.0545 -0.0027
# 2 35.5491 66.5804 38.9740 -0.0171 5.6722 0.0084
# 3 38.4915 38.9740 108.9408 -0.0074 1.7527 0.0041
# 4 0.0035 -0.0171 -0.0074 30.9423 0.0072 9.6855
# 5 -3.0545 5.6722 1.7527 0.0072 31.8019 -0.0021
# 6 -0.0027 0.0084 0.0041 9.6855 -0.0021 23.0931
#
#
#
# Elastic Compliance Matrix: (Units=1/GPa)
#
#
# Indices 1 2 3 4 5 6 
#
# 1 0.011464 -0.004946 -0.002315 -0.000007 0.002111 0.000007
# 2 -0.004946 0.021425 -0.005854 0.000017 -0.003974 -0.000015
# 3 -0.002315 -0.005854 0.012089 0.000000 0.000155 0.000000
# 4 -0.000007 0.000017 0.000000 0.037202 -0.000013 -0.015603
# 5 0.002111 -0.003974 0.000155 -0.000013 0.032348 0.000010
# 6 0.000007 -0.000015 0.000000 -0.015603 0.000010 0.049847
#
#
# Mechanical properties :
#
#
# Convention : Reuss Voigt Hill
#
# Bulk Modulus (GPa) = 53.33498 56.93877 55.13688
# Shear Modulus (GPa) = 25.39953 28.72781 27.06367
#
# Velocity S-wave (km/s) = 3.64400 3.87541 3.76149
# Velocity P-wave (km/s) = 6.75191 7.05637 6.90582
#
# Compressibility (1/GPa) = 0.01874942
#
# Stress axis : x y z
#
# Youngs Moduli (GPa) = 87.22686 46.67431 82.72001
#
# Poissons Ratio (x) = 0.23084 0.19152
# Poissons Ratio (y) = 0.43140 0.48420
# Poissons Ratio (z) = 0.20195 0.27321
#
# Static dielectric constant tensor:
#      x y z
#    x 3.778300 -0.000700 -0.292940 
#    y -0.000700 4.093110 0.001680 
#    z -0.292940 0.001680 3.799480 
# 
# 
# High freq. dielectric constant tensor:
#      x y z
#    x 1.759170 0.000000 -0.008400 
#    y 0.000000 1.727400 0.000000 
#    z -0.008400 0.000000 1.749340 
# 
# From -- ./inp_files/353336.got.cif
#   From: 2010.06.25/outbox.cif.g09.slc.cpg/sg12_177_cif.got.tgz:353336.got - 2010.06.28 00:19:55.
