data_PCOD8100382
_publ_section_title
;
Structure prediction by ZEFSAII (Michael W. Deem and Ramdas Pophale) SiO2 
 PCOD8100382
Probable space group: C 2/M
;
_chemical_formula_sum "Si O2"
_cell_formula_units_Z 48
_cell_length_a 30.251683
_cell_length_b 15.589420
_cell_length_c 13.516989
_cell_angle_alpha 90.000000
_cell_angle_beta 19.154216
_cell_angle_gamma 90.000000
_cell_volume 2091.613573
_symmetry_space_group_name_H-M "C 2/M"
_symmetry_group_IT_number 12
_symmetry_cell_setting 'monoclinic'
loop_
_space_group_symop_operation_xyz
x,y,z
-x,y,-z
-x,-y,-z
x,-y,z
1/2+x,1/2+y,z
1/2-x,1/2+y,-z
1/2-x,1/2-y,-z
1/2+x,1/2-y,z
loop_
_atom_site_type_symbol
_atom_site_label
_atom_site_fract_x
_atom_site_fract_y
_atom_site_fract_z
Si Si1 0.159800 0.326784 0.140134
Si Si2 0.497745 0.101263 0.115271
Si Si3 0.634812 0.595902 0.171210
Si Si4 0.219803 0.398341 0.802961
Si Si5 0.276281 0.602507 0.222132
Si Si6 0.992433 0.101494 0.125534
O O1 0.000000 0.321957 0.500000
O O2 0.250000 0.250000 0.000000
O O3 0.234554 0.407715 0.033085
O O4 0.177905 0.339465 0.984452
O O5 0.370116 0.139762 0.443493
O O6 0.481159 0.000000 0.140429
O O7 0.500000 0.141247 0.000000
O O8 0.628114 0.125411 0.902686
O O9 0.500000 0.642833 0.500000
O O10 0.590097 0.500000 0.239643
O O11 0.674026 0.643988 0.986471
O O12 0.209766 0.500000 0.850085
O O13 0.367139 0.368771 0.456923
O O14 0.272580 0.500000 0.219846
O O15 0.373998 0.632953 0.102314
O O16 0.985171 0.000000 0.130660
O O17 0.000000 0.142713 0.000000
#
# Coordination Sequence:
#
# PCOD8100382 Si02
#       6
#     8   8   8   8   8   8
#     4  12  26  42  59  82 113 158 210 260 313 365
#     4   9  16  27  46  77 116 149 177 219 279 345
#     4  10  20  36  59  86 115 147 188 242 301 363
#     4  10  20  35  58  89 122 155 194 242 297 360
#     4   9  16  26  43  70 103 139 175 214 267 326
#     4   9  16  27  47  80 120 154 183 223 281 350
#
# _framework density 22.948791
#
# number of rings (size 3 to 8) (size 9 to 14) (size 15 to 20)
#    0.000    2.167    0.000    4.000    0.000    9.333 
#    0.000    0.000    0.000    0.000    0.000   19.833 
#    0.000    0.000    0.000    0.000    0.000    0.333 
#
# Total GULP energy -297364.436882 kJ/mol
# GULP energy per Si atom -12390.184870 kJ/mol
# Density = 2.289656 g / cm^3
# Si number density = 22.948791 Si / 1000 Ang^3
#
#
#
# Elastic Constant Matrix: (Units=GPa)
#
#
# Indices 1 2 3 4 5 6 
#
# 1 112.0623 10.1535 37.9836 0.0005 17.0417 -0.0002
# 2 10.1535 36.7779 12.5834 -0.0008 3.2873 0.0004
# 3 37.9836 12.5834 152.2465 -0.0004 1.4850 0.0002
# 4 0.0005 -0.0008 -0.0004 0.7358 0.0004 -3.7453
# 5 17.0417 3.2873 1.4850 0.0004 54.5598 -0.0001
# 6 -0.0002 0.0004 0.0002 -3.7453 -0.0001 7.0439
#
#
#
# Elastic Compliance Matrix: (Units=1/GPa)
#
#
# Indices 1 2 3 4 5 6 
#
# 1 0.010367 -0.001763 -0.002411 0.000003 -0.003066 0.000002
# 2 -0.001763 0.028426 -0.001899 -0.000014 -0.001110 -0.000009
# 3 -0.002411 -0.001899 0.007320 -0.000001 0.000668 -0.000001
# 4 0.000003 -0.000014 -0.000001 -0.796473 0.000005 -0.423487
# 5 -0.003066 -0.001110 0.000668 0.000005 0.019335 0.000003
# 6 0.000002 -0.000009 -0.000001 -0.423487 0.000003 -0.083204
#
#
# Mechanical properties :
#
#
# Convention : Reuss Voigt Hill
#
# Bulk Modulus (GPa) = 29.43982 46.94751 38.19367
# Shear Modulus (GPa) = -6.32302 28.49232 11.08465
#
# Velocity S-wave (km/s) = -1.66170 3.52740 2.20015
# Velocity P-wave (km/s) = 3.02897 6.09032 4.80971
#
# Compressibility (1/GPa) = 0.03396760
#
# Stress axis : x y z
#
# Youngs Moduli (GPa) = 96.46208 35.17923 136.60897
#
# Poissons Ratio (x) = 0.06203 0.32933
# Poissons Ratio (y) = 0.17007 0.25938
# Poissons Ratio (z) = 0.23255 0.06680
#
# Static dielectric constant tensor:
#      x y z
#    x 4.481990 0.000000 0.103290 
#    y 0.000000 3.725020 0.000000 
#    z 0.103290 0.000000 4.625690 
# 
# 
# High freq. dielectric constant tensor:
#      x y z
#    x 1.921040 0.000000 0.003170 
#    y 0.000000 1.857880 0.000000 
#    z 0.003170 0.000000 1.922170 
# 
# From -- ./inp_files/190255.got.cif
#   From: 2010.06.25/outbox.cif.g09.slc.cpg/sg12_96_cif.got.tgz:190255.got - 2010.06.28 00:19:55.
