data_PCOD8100607
_publ_section_title
;
Structure prediction by ZEFSAII (Michael W. Deem and Ramdas Pophale) SiO2 
 PCOD8100607
Probable space group: C 2/M
;
_chemical_formula_sum "Si O2"
_cell_formula_units_Z 64
_cell_length_a 29.380724
_cell_length_b 9.307390
_cell_length_c 12.377176
_cell_angle_alpha 90.000000
_cell_angle_beta 88.311953
_cell_angle_gamma 90.000000
_cell_volume 3383.167182
_symmetry_space_group_name_H-M "C 2/M"
_symmetry_group_IT_number 12
_symmetry_cell_setting 'monoclinic'
loop_
_space_group_symop_operation_xyz
x,y,z
-x,y,-z
-x,-y,-z
x,-y,z
1/2+x,1/2+y,z
1/2-x,1/2+y,-z
1/2-x,1/2-y,-z
1/2+x,1/2-y,z
loop_
_atom_site_type_symbol
_atom_site_label
_atom_site_fract_x
_atom_site_fract_y
_atom_site_fract_z
Si Si1 0.418154 0.837251 0.197775
Si Si2 0.723496 0.163608 0.913079
Si Si3 0.363524 0.334964 0.048035
Si Si4 0.485303 0.162982 0.882670
Si Si5 0.656928 0.671916 0.390923
Si Si6 0.398862 0.335163 0.814306
Si Si7 0.147132 0.329337 0.603492
Si Si8 0.755368 0.337034 0.327978
O O1 0.408711 0.727773 0.099901
O O2 0.472743 0.830323 0.205498
O O3 0.391883 0.787292 0.307600
O O4 0.402676 0.000000 0.169197
O O5 0.675226 0.236623 0.897461
O O6 0.751013 0.171556 0.800163
O O7 0.717230 0.000000 0.951971
O O8 0.750000 0.250000 0.000000
O O9 0.355704 0.500000 0.081144
O O10 0.365516 0.317266 0.919120
O O11 0.445205 0.250422 0.829621
O O12 0.468123 0.000000 0.899744
O O13 0.500000 0.223466 0.000000
O O14 0.656124 0.500000 0.401780
O O15 0.628529 0.721775 0.287869
O O16 0.633558 0.747771 0.494764
O O17 0.709272 0.731665 0.380555
O O18 0.412847 0.500000 0.797961
O O19 0.147939 0.500000 0.585231
O O20 0.196746 0.267142 0.637590
O O21 0.757659 0.500000 0.366586
#
# Coordination Sequence:
#
# PCOD8100607 Si02
#       8
#     8   8   8   8   8   8   8   8
#     4  10  20  37  58  84 115 144 178 231 288 334
#     4  11  21  35  53  78 115 155 189 230 283 338
#     4  11  21  34  55  83 113 148 187 226 277 342
#     4  10  20  35  60  88 112 143 188 234 280 340
#     4  10  21  38  57  80 111 149 191 235 279 324
#     4  10  22  38  56  81 118 154 185 230 288 342
#     4  10  20  37  59  82 110 149 189 229 284 336
#     4   9  18  35  58  79 109 149 186 230 282 329
#
# _framework density 18.917186999999998
#
# number of rings (size 3 to 8) (size 9 to 14) (size 15 to 20)
#    0.000    1.875    2.500    1.875    0.000    4.250 
#    0.000    3.125    0.000    3.750    0.000    0.000 
#    0.000    0.000    0.000    0.000    0.000    0.000 
#
# Total GULP energy -396717.255826 kJ/mol
# GULP energy per Si atom -12397.414245 kJ/mol
# Density = 1.887413 g / cm^3
# Si number density = 18.917187 Si / 1000 Ang^3
#
#
#
# Elastic Constant Matrix: (Units=GPa)
#
#
# Indices 1 2 3 4 5 6 
#
# 1 92.3592 27.8880 39.8379 0.0000 -7.8097 0.0000
# 2 27.8880 68.6036 34.8318 0.0000 0.0043 0.0000
# 3 39.8379 34.8318 106.4358 0.0000 -1.9916 0.0000
# 4 0.0000 0.0000 0.0000 32.5096 0.0000 2.9374
# 5 -7.8097 0.0043 -1.9916 0.0000 24.3889 0.0000
# 6 0.0000 0.0000 0.0000 2.9374 0.0000 28.6978
#
#
#
# Elastic Compliance Matrix: (Units=1/GPa)
#
#
# Indices 1 2 3 4 5 6 
#
# 1 0.013997 -0.003681 -0.003956 0.000000 0.004160 0.000000
# 2 -0.003681 0.018455 -0.004691 0.000000 -0.001565 0.000000
# 3 -0.003956 -0.004691 0.012407 0.000000 -0.000253 0.000000
# 4 0.000000 0.000000 0.000000 0.031047 0.000000 -0.003178
# 5 0.004160 -0.001565 -0.000253 0.000000 0.042314 0.000000
# 6 0.000000 0.000000 0.000000 -0.003178 0.000000 0.035171
#
#
# Mechanical properties :
#
#
# Convention : Reuss Voigt Hill
#
# Bulk Modulus (GPa) = 49.50210 52.50158 51.00184
# Shear Modulus (GPa) = 27.05893 28.10864 27.58378
#
# Velocity S-wave (km/s) = 3.78615 3.85889 3.82269
# Velocity P-wave (km/s) = 6.73334 6.90423 6.81932
#
# Compressibility (1/GPa) = 0.02020116
#
# Stress axis : x y z
#
# Youngs Moduli (GPa) = 71.44289 54.18648 80.60266
#
# Poissons Ratio (x) = 0.19949 0.31890
# Poissons Ratio (y) = 0.26302 0.37809
# Poissons Ratio (z) = 0.28266 0.25418
#
# Static dielectric constant tensor:
#      x y z
#    x 18.870300 0.000000 1.443860 
#    y 0.000000 3.302420 0.000000 
#    z 1.443860 0.000000 3.547530 
# 
# 
# High freq. dielectric constant tensor:
#      x y z
#    x 1.735600 0.000000 -0.006680 
#    y 0.000000 1.720120 0.000000 
#    z -0.006680 0.000000 1.729520 
# 
# From -- ./inp_files/187425.got.cif
#   From: 2010.06.25/outbox.cif.g09.slc.cpg/sg12_94_cif.got.tgz:187425.got - 2010.06.28 00:19:55.
