data_PCOD8100920
_publ_section_title
;
Structure prediction by ZEFSAII (Michael W. Deem and Ramdas Pophale) SiO2 
 PCOD8100920
Probable space group: C 2/M
;
_chemical_formula_sum "Si O2"
_cell_formula_units_Z 56
_cell_length_a 30.154036
_cell_length_b 8.977722
_cell_length_c 16.692493
_cell_angle_alpha 90.000000
_cell_angle_beta 45.193449
_cell_angle_gamma 90.000000
_cell_volume 3206.115660
_symmetry_space_group_name_H-M "C 2/M"
_symmetry_group_IT_number 12
_symmetry_cell_setting 'monoclinic'
loop_
_space_group_symop_operation_xyz
x,y,z
-x,y,-z
-x,-y,-z
x,-y,z
1/2+x,1/2+y,z
1/2-x,1/2+y,-z
1/2-x,1/2-y,-z
1/2+x,1/2-y,z
loop_
_atom_site_type_symbol
_atom_site_label
_atom_site_fract_x
_atom_site_fract_y
_atom_site_fract_z
Si Si1 0.060635 0.670905 0.090099
Si Si2 0.250175 0.171172 0.288143
Si Si3 0.581359 0.172501 0.754026
Si Si4 0.718313 0.673800 0.154431
Si Si5 0.118983 0.176018 0.865165
Si Si6 0.841833 0.672910 0.905741
Si Si7 0.806811 0.828049 0.472174
O O1 0.077097 0.500000 0.046140
O O2 0.093686 0.714595 0.131796
O O3 0.987137 0.692512 0.196188
O O4 0.086432 0.777408 0.988639
O O5 0.215544 0.222689 0.250905
O O6 0.309327 0.274280 0.229917
O O7 0.201040 0.188593 0.422510
O O8 0.273394 0.000000 0.250329
O O9 0.581577 0.247941 0.840537
O O10 0.628686 0.250581 0.633070
O O11 0.599986 0.000000 0.739811
O O12 0.709264 0.500000 0.156671
O O13 0.662074 0.748266 0.175848
O O14 0.785111 0.727183 0.034785
O O15 0.115231 0.000000 0.860065
O O16 0.836807 0.500000 0.894850
O O17 0.750000 0.750000 0.500000
O O18 0.808595 0.000000 0.443412
#
# Coordination Sequence:
#
# PCOD8100920 Si02
#       7
#     8   8   8   8   8   8   8
#     4  10  21  38  56  75 106 149 182 211 265 328
#     4  10  20  36  56  76 107 145 177 213 265 323
#     4  11  23  38  56  75 105 147 185 219 263 319
#     4   9  17  31  52  77 105 136 171 213 263 317
#     4  12  23  33  52  81 111 140 176 222 266 313
#     4   9  17  31  52  77 106 135 171 216 261 317
#     4  11  22  36  57  80 105 140 182 226 267 310
#
# _framework density 17.466619000000001
#
# number of rings (size 3 to 8) (size 9 to 14) (size 15 to 20)
#    0.000    1.714    2.857    2.571    0.000    4.571 
#    0.000    0.000    0.000    0.857    0.000    6.000 
#    0.000    0.000    0.000    0.000    0.000    0.000 
#
# Total GULP energy -347266.940839 kJ/mol
# GULP energy per Si atom -12402.390744 kJ/mol
# Density = 1.742686 g / cm^3
# Si number density = 17.466619 Si / 1000 Ang^3
#
#
#
# Elastic Constant Matrix: (Units=GPa)
#
#
# Indices 1 2 3 4 5 6 
#
# 1 144.5045 53.7654 45.7378 0.0002 12.9006 0.0000
# 2 53.7654 95.9370 33.7961 0.0031 -0.1898 -0.0015
# 3 45.7378 33.7961 57.7452 0.0007 2.0253 -0.0005
# 4 0.0002 0.0031 0.0007 26.9917 -0.0001 2.4189
# 5 12.9006 -0.1898 2.0253 -0.0001 29.2623 0.0000
# 6 0.0000 -0.0015 -0.0005 2.4189 0.0000 27.0674
#
#
#
# Elastic Compliance Matrix: (Units=1/GPa)
#
#
# Indices 1 2 3 4 5 6 
#
# 1 0.010644 -0.003851 -0.006026 0.000001 -0.004301 0.000000
# 2 -0.003851 0.014535 -0.005533 -0.000002 0.002175 0.000001
# 3 -0.006026 -0.005533 0.025298 0.000000 0.000870 0.000000
# 4 0.000001 -0.000002 0.000000 0.037348 0.000000 -0.003338
# 5 -0.004301 0.002175 0.000870 0.000000 0.036024 0.000000
# 6 0.000000 0.000001 0.000000 -0.003338 0.000000 0.037243
#
#
# Mechanical properties :
#
#
# Convention : Reuss Voigt Hill
#
# Bulk Modulus (GPa) = 50.87142 62.75391 56.81266
# Shear Modulus (GPa) = 25.19338 27.65677 26.42508
#
# Velocity S-wave (km/s) = 3.80198 3.98352 3.89381
# Velocity P-wave (km/s) = 6.96143 7.56068 7.26723
#
# Compressibility (1/GPa) = 0.01965740
#
# Stress axis : x y z
#
# Youngs Moduli (GPa) = 93.94638 68.79915 39.52819
#
# Poissons Ratio (x) = 0.26494 0.23821
# Poissons Ratio (y) = 0.36178 0.21871
# Poissons Ratio (z) = 0.56615 0.38066
#
# Static dielectric constant tensor:
#      x y z
#    x 3.359110 0.000000 0.134300 
#    y 0.000000 3.313000 0.000000 
#    z 0.134300 0.000000 3.205700 
# 
# 
# High freq. dielectric constant tensor:
#      x y z
#    x 1.675030 0.000000 0.012190 
#    y 0.000000 1.679270 0.000000 
#    z 0.012190 0.000000 1.654970 
# 
# From -- ./inp_files/248870.got.cif
#   From: 2010.06.25/outbox.cif.g09.slc.cpg/sg12_125_cif.got.tgz:248870.got - 2010.06.28 00:19:55.
