data_PCOD8100685
_publ_section_title
;
Structure prediction by ZEFSAII (Michael W. Deem and Ramdas Pophale) SiO2 
 PCOD8100685
Probable space group: C 2/M
;
_chemical_formula_sum "Si O2"
_cell_formula_units_Z 48
_cell_length_a 11.640469
_cell_length_b 16.405932
_cell_length_c 12.087671
_cell_angle_alpha 90.000000
_cell_angle_beta 103.370538
_cell_angle_gamma 90.000000
_cell_volume 2245.845886
_symmetry_space_group_name_H-M "C 2/M"
_symmetry_group_IT_number 12
_symmetry_cell_setting 'monoclinic'
loop_
_space_group_symop_operation_xyz
x,y,z
-x,y,-z
-x,-y,-z
x,-y,z
1/2+x,1/2+y,z
1/2-x,1/2+y,-z
1/2-x,1/2-y,-z
1/2+x,1/2-y,z
loop_
_atom_site_type_symbol
_atom_site_label
_atom_site_fract_x
_atom_site_fract_y
_atom_site_fract_z
Si Si1 0.259099 0.403933 0.054684
Si Si2 0.234129 0.403707 0.806917
Si Si3 0.991862 0.909864 0.834078
Si Si4 0.471828 0.826877 0.368931
Si Si5 0.933002 0.137268 0.378355
Si Si6 0.823360 0.596555 0.727804
O O1 0.276195 0.500000 0.073504
O O2 0.393972 0.366792 0.082244
O O3 0.186022 0.373327 0.145547
O O4 0.193076 0.383367 0.924580
O O5 0.229880 0.500000 0.783188
O O6 0.366121 0.365704 0.823927
O O7 0.153983 0.361035 0.697832
O O8 0.021453 0.917315 0.711494
O O9 0.975052 0.000000 0.880199
O O10 0.500000 0.857157 0.500000
O O11 0.466934 0.730285 0.362341
O O12 0.568203 0.858282 0.304277
O O13 0.793410 0.124111 0.364071
O O14 0.000000 0.104186 0.500000
O O15 0.844132 0.500000 0.724120
#
# Coordination Sequence:
#
# PCOD8100685 Si02
#       6
#     8   8   8   8   8   8
#     4   8  16  35  61  89 116 149 194 244 298 346
#     4  10  20  35  61  89 117 156 196 238 295 360
#     4   9  18  34  60  92 117 143 195 255 292 341
#     4  11  26  40  57  84 126 162 195 240 300 353
#     4  10  23  39  61  83 117 163 202 239 296 354
#     4  10  22  41  64  88 120 155 197 252 293 347
#
# _framework density 21.372793999999999
#
# number of rings (size 3 to 8) (size 9 to 14) (size 15 to 20)
#    0.000    2.333    0.000    2.500    4.667    6.667 
#    0.000    5.833    7.333    0.000    0.000    0.000 
#    0.000    0.000    0.000    0.000    0.000    0.000 
#
# Total GULP energy -297445.164613 kJ/mol
# GULP energy per Si atom -12393.548526 kJ/mol
# Density = 2.132415 g / cm^3
# Si number density = 21.372794 Si / 1000 Ang^3
#
#
#
# Elastic Constant Matrix: (Units=GPa)
#
#
# Indices 1 2 3 4 5 6 
#
# 1 109.0197 14.0158 28.8336 0.0000 -6.1278 0.0000
# 2 14.0158 37.5761 11.2500 0.0000 1.7493 0.0000
# 3 28.8336 11.2500 132.9055 0.0000 15.3670 0.0000
# 4 0.0000 0.0000 0.0000 11.4539 0.0000 -5.6353
# 5 -6.1278 1.7493 15.3670 0.0000 18.1285 0.0000
# 6 0.0000 0.0000 0.0000 -5.6353 0.0000 31.3965
#
#
#
# Elastic Compliance Matrix: (Units=1/GPa)
#
#
# Indices 1 2 3 4 5 6 
#
# 1 0.010699 -0.003459 -0.002755 0.000000 0.006286 0.000000
# 2 -0.003459 0.028432 -0.001335 0.000000 -0.002781 0.000000
# 3 -0.002755 -0.001335 0.009233 0.000000 -0.008629 0.000000
# 4 0.000000 0.000000 0.000000 0.095763 0.000000 0.017188
# 5 0.006286 -0.002781 -0.008629 0.000000 0.064869 0.000000
# 6 0.000000 0.000000 0.000000 0.017188 0.000000 0.034936
#
#
# Mechanical properties :
#
#
# Convention : Reuss Voigt Hill
#
# Bulk Modulus (GPa) = 30.06020 43.07779 36.56900
# Shear Modulus (GPa) = 18.51044 27.22257 22.86650
#
# Velocity S-wave (km/s) = 2.94611 3.57277 3.27446
# Velocity P-wave (km/s) = 5.06636 6.10072 5.60744
#
# Compressibility (1/GPa) = 0.03326657
#
# Stress axis : x y z
#
# Youngs Moduli (GPa) = 93.46394 35.17186 108.31240
#
# Poissons Ratio (x) = 0.12164 0.29843
# Poissons Ratio (y) = 0.32325 0.14457
# Poissons Ratio (z) = 0.25752 0.04695
#
# Static dielectric constant tensor:
#      x y z
#    x 3.892080 0.000000 0.022060 
#    y 0.000000 3.471260 0.000000 
#    z 0.022060 0.000000 4.123720 
# 
# 
# High freq. dielectric constant tensor:
#      x y z
#    x 1.840500 0.000000 -0.000380 
#    y 0.000000 1.803700 0.000000 
#    z -0.000380 0.000000 1.851210 
# 
# From -- ./inp_files/131020.got.cif
#   From: 2010.06.25/outbox.cif.g09.slc.cpg/sg12_66_cif.got.tgz:131020.got - 2010.06.28 00:19:55.
