data_PCOD8100187
_publ_section_title
;
Structure prediction by ZEFSAII (Michael W. Deem and Ramdas Pophale) SiO2 
 PCOD8100187
Probable space group: C 2/M
;
_chemical_formula_sum "Si O2"
_cell_formula_units_Z 64
_cell_length_a 20.267256
_cell_length_b 9.045317
_cell_length_c 18.257817
_cell_angle_alpha 90.000000
_cell_angle_beta 96.521872
_cell_angle_gamma 90.000000
_cell_volume 3325.431104
_symmetry_space_group_name_H-M "C 2/M"
_symmetry_group_IT_number 12
_symmetry_cell_setting 'monoclinic'
loop_
_space_group_symop_operation_xyz
x,y,z
-x,y,-z
-x,-y,-z
x,-y,z
1/2+x,1/2+y,z
1/2-x,1/2+y,-z
1/2-x,1/2-y,-z
1/2+x,1/2-y,z
loop_
_atom_site_type_symbol
_atom_site_label
_atom_site_fract_x
_atom_site_fract_y
_atom_site_fract_z
Si Si1 0.243794 0.825430 0.353133
Si Si2 0.437172 0.174621 0.036540
Si Si3 0.089093 0.828396 0.816549
Si Si4 0.007901 0.172586 0.661779
Si Si5 0.611232 0.830479 0.573888
Si Si6 0.263620 0.326818 0.206383
Si Si7 0.620150 0.828962 0.404329
Si Si8 0.800016 0.671946 0.952784
O O1 0.315563 0.779341 0.392998
O O2 0.235253 0.765777 0.270121
O O3 0.189486 0.751198 0.398199
O O4 0.233185 0.000000 0.353042
O O5 0.437200 0.242031 0.116955
O O6 0.440369 0.000000 0.046318
O O7 0.500000 0.235709 0.000000
O O8 0.373707 0.225463 0.981532
O O9 0.039028 0.794379 0.744598
O O10 0.162241 0.772279 0.803445
O O11 0.092361 0.000000 0.837066
O O12 0.057299 0.228129 0.605332
O O13 0.938005 0.256613 0.650928
O O14 0.995586 0.000000 0.647545
O O15 0.602115 0.809399 0.486669
O O16 0.598538 0.000000 0.595511
O O17 0.263334 0.500000 0.226298
O O18 0.215151 0.288564 0.133076
O O19 0.626901 0.000000 0.383366
O O20 0.790644 0.500000 0.965575
O O21 0.750000 0.750000 0.000000
#
# Coordination Sequence:
#
# PCOD8100187 Si02
#       8
#     8   8   8   8   8   8   8   8
#     4  11  23  39  61  90 120 153 199 247 294 350
#     4  10  22  38  57  86 120 152 190 236 289 346
#     4  10  21  38  60  86 117 153 192 238 290 347
#     4  11  23  39  61  89 120 155 200 247 295 351
#     4  10  22  40  62  88 118 156 200 243 294 356
#     4  10  20  37  59  85 117 155 198 241 293 350
#     4  11  24  41  60  85 121 159 196 244 301 355
#     4  10  20  35  58  84 113 149 192 237 283 339
#
# _framework density 19.245625
#
# number of rings (size 3 to 8) (size 9 to 14) (size 15 to 20)
#    0.000    1.625    2.500    1.875    0.000    6.250 
#    0.000    1.250    0.000    0.000    0.000    0.000 
#    0.000    0.000    0.000    0.000    0.000    0.000 
#
# Total GULP energy -396983.303380 kJ/mol
# GULP energy per Si atom -12405.728231 kJ/mol
# Density = 1.920182 g / cm^3
# Si number density = 19.245625 Si / 1000 Ang^3
#
#
#
# Elastic Constant Matrix: (Units=GPa)
#
#
# Indices 1 2 3 4 5 6 
#
# 1 99.7258 31.8811 28.2241 0.0000 8.1404 0.0000
# 2 31.8811 59.0849 34.0599 0.0000 -1.2226 0.0000
# 3 28.2241 34.0599 78.5034 0.0000 10.3913 0.0000
# 4 0.0000 0.0000 0.0000 33.4445 0.0000 -6.6246
# 5 8.1404 -1.2226 10.3913 0.0000 29.7239 0.0000
# 6 0.0000 0.0000 0.0000 -6.6246 0.0000 32.7608
#
#
#
# Elastic Compliance Matrix: (Units=1/GPa)
#
#
# Indices 1 2 3 4 5 6 
#
# 1 0.012637 -0.006012 -0.001514 0.000000 -0.003179 0.000000
# 2 -0.006012 0.026035 -0.009955 0.000000 0.006197 0.000000
# 3 -0.001514 -0.009955 0.018455 0.000000 -0.006447 0.000000
# 4 0.000000 0.000000 0.000000 0.031148 0.000000 0.006298
# 5 -0.003179 0.006197 -0.006447 0.000000 0.037022 0.000000
# 6 0.000000 0.000000 0.000000 0.006298 0.000000 0.031798
#
#
# Mechanical properties :
#
#
# Convention : Reuss Voigt Hill
#
# Bulk Modulus (GPa) = 45.11410 47.29381 46.20396
# Shear Modulus (GPa) = 25.06938 28.72910 26.89924
#
# Velocity S-wave (km/s) = 3.61307 3.86782 3.74261
# Velocity P-wave (km/s) = 6.39514 6.67636 6.53726
#
# Compressibility (1/GPa) = 0.02216602
#
# Stress axis : x y z
#
# Youngs Moduli (GPa) = 79.12979 38.40932 54.18547
#
# Poissons Ratio (x) = 0.23091 0.08206
# Poissons Ratio (y) = 0.47570 0.53941
# Poissons Ratio (z) = 0.11984 0.38236
#
# Static dielectric constant tensor:
#      x y z
#    x 3.652840 0.000000 0.155050 
#    y 0.000000 3.506760 0.000000 
#    z 0.155050 0.000000 3.532840 
# 
# 
# High freq. dielectric constant tensor:
#      x y z
#    x 1.757400 0.000000 0.007170 
#    y 0.000000 1.747750 0.000000 
#    z 0.007170 0.000000 1.757360 
# 
# From -- ./inp_files/281306.got.cif
#   From: 2010.06.25/outbox.cif.g09.slc.cpg/sg12_141_cif.got.tgz:281306.got - 2010.06.28 00:19:55.
