data_PCOD8100035
_publ_section_title
;
Structure prediction by ZEFSAII (Michael W. Deem and Ramdas Pophale) SiO2 
 PCOD8100035
Probable space group: C 2/M
;
_chemical_formula_sum "Si O2"
_cell_formula_units_Z 56
_cell_length_a 19.834446
_cell_length_b 9.117379
_cell_length_c 19.294072
_cell_angle_alpha 90.000000
_cell_angle_beta 123.080715
_cell_angle_gamma 90.000000
_cell_volume 2923.529319
_symmetry_space_group_name_H-M "C 2/M"
_symmetry_group_IT_number 12
_symmetry_cell_setting 'monoclinic'
loop_
_space_group_symop_operation_xyz
x,y,z
-x,y,-z
-x,-y,-z
x,-y,z
1/2+x,1/2+y,z
1/2-x,1/2+y,-z
1/2-x,1/2-y,-z
1/2+x,1/2-y,z
loop_
_atom_site_type_symbol
_atom_site_label
_atom_site_fract_x
_atom_site_fract_y
_atom_site_fract_z
Si Si1 0.488020 0.330833 0.571121
Si Si2 0.947513 0.669180 0.139803
Si Si3 0.130162 0.329614 0.271433
Si Si4 0.168651 0.829141 0.433086
Si Si5 0.285663 0.671297 0.801594
Si Si6 0.894712 0.671834 0.259048
Si Si7 0.917237 0.172345 0.986835
O O1 0.500000 0.271620 0.500000
O O2 0.512901 0.500000 0.590234
O O3 0.395477 0.307179 0.541238
O O4 0.546946 0.242651 0.653035
O O5 0.924195 0.500000 0.119230
O O6 0.914464 0.733123 0.193711
O O7 0.043073 0.693438 0.188644
O O8 0.903527 0.754517 0.053551
O O9 0.148991 0.500000 0.296034
O O10 0.132294 0.243244 0.344305
O O11 0.196230 0.264349 0.256735
O O12 0.250000 0.750000 0.500000
O O13 0.185855 0.000000 0.428874
O O14 0.296408 0.500000 0.790128
O O15 0.196358 0.711506 0.774379
O O16 0.344138 0.719044 0.896554
O O17 0.911784 0.500000 0.270474
O O18 0.920842 0.000000 0.000702
O O19 0.000000 0.230794 0.000000
#
# Coordination Sequence:
#
# PCOD8100035 Si02
#       7
#     8   8   8   8   8   8   8
#     4  10  23  42  62  87 120 155 192 240 292 346
#     4  10  21  37  59  85 116 154 196 242 293 349
#     4  11  22  38  61  87 118 156 199 245 291 348
#     4  11  24  41  63  91 123 156 194 243 292 349
#     4  10  22  39  59  87 120 156 199 246 296 351
#     4  10  22  41  61  85 118 156 196 241 294 355
#     4  10  20  35  57  85 118 155 197 244 295 349
#
# _framework density 19.154931000000001
#
# number of rings (size 3 to 8) (size 9 to 14) (size 15 to 20)
#    0.000    1.714    2.857    0.857    2.000    4.000 
#    0.000    0.000    0.000    0.000    0.000    0.000 
#    0.000    0.000    0.000    0.000    0.000    0.000 
#
# Total GULP energy -347342.941924 kJ/mol
# GULP energy per Si atom -12405.105069 kJ/mol
# Density = 1.911133 g / cm^3
# Si number density = 19.154931 Si / 1000 Ang^3
#
#
#
# Elastic Constant Matrix: (Units=GPa)
#
#
# Indices 1 2 3 4 5 6 
#
# 1 120.8825 43.2347 45.7458 0.0000 -13.6943 0.0000
# 2 43.2347 64.8761 36.0377 0.0000 -6.5133 0.0000
# 3 45.7458 36.0377 86.5057 0.0000 -20.5841 0.0000
# 4 0.0000 0.0000 0.0000 38.3059 0.0000 -5.1350
# 5 -13.6943 -6.5133 -20.5841 0.0000 39.4113 0.0000
# 6 0.0000 0.0000 0.0000 -5.1350 0.0000 22.2350
#
#
#
# Elastic Compliance Matrix: (Units=1/GPa)
#
#
# Indices 1 2 3 4 5 6 
#
# 1 0.011828 -0.005789 -0.003532 0.000000 0.001309 0.000000
# 2 -0.005789 0.022938 -0.006933 0.000000 -0.001842 0.000000
# 3 -0.003532 -0.006933 0.017986 0.000000 0.007021 0.000000
# 4 0.000000 0.000000 0.000000 0.026940 0.000000 0.006222
# 5 0.001309 -0.001842 0.007021 0.000000 0.029191 0.000000
# 6 0.000000 0.000000 0.000000 0.006222 0.000000 0.046411
#
#
# Mechanical properties :
#
#
# Convention : Reuss Voigt Hill
#
# Bulk Modulus (GPa) = 49.39413 58.03341 53.71377
# Shear Modulus (GPa) = 25.70048 29.80685 27.75367
#
# Velocity S-wave (km/s) = 3.66692 3.94901 3.81058
# Velocity P-wave (km/s) = 6.61597 7.15231 6.88936
#
# Compressibility (1/GPa) = 0.02024532
#
# Stress axis : x y z
#
# Youngs Moduli (GPa) = 84.54698 43.59565 55.59774
#
# Poissons Ratio (x) = 0.25238 0.19635
# Poissons Ratio (y) = 0.48945 0.38544
# Poissons Ratio (z) = 0.29859 0.30223
#
# Static dielectric constant tensor:
#      x y z
#    x 3.737540 0.000000 -0.123110 
#    y 0.000000 3.455770 0.000000 
#    z -0.123110 0.000000 3.549900 
# 
# 
# High freq. dielectric constant tensor:
#      x y z
#    x 1.752990 0.000000 -0.005850 
#    y 0.000000 1.741120 0.000000 
#    z -0.005850 0.000000 1.752600 
# 
# From -- ./inp_files/280949.got.cif
#   From: 2010.06.25/outbox.cif.g09.slc.cpg/sg12_141_cif.got.tgz:280949.got - 2010.06.28 00:19:55.
