data_PCOD8100138
_publ_section_title
;
Structure prediction by ZEFSAII (Michael W. Deem and Ramdas Pophale) SiO2 
 PCOD8100138
Probable space group: C 2/M
;
_chemical_formula_sum "Si O2"
_cell_formula_units_Z 56
_cell_length_a 28.001411
_cell_length_b 13.701744
_cell_length_c 14.944127
_cell_angle_alpha 90.000000
_cell_angle_beta 150.493264
_cell_angle_gamma 90.000000
_cell_volume 2823.939387
_symmetry_space_group_name_H-M "C 2/M"
_symmetry_group_IT_number 12
_symmetry_cell_setting 'monoclinic'
loop_
_space_group_symop_operation_xyz
x,y,z
-x,y,-z
-x,-y,-z
x,-y,z
1/2+x,1/2+y,z
1/2-x,1/2+y,-z
1/2-x,1/2-y,-z
1/2+x,1/2-y,z
loop_
_atom_site_type_symbol
_atom_site_label
_atom_site_fract_x
_atom_site_fract_y
_atom_site_fract_z
Si Si1 0.779416 0.386988 0.529271
Si Si2 0.716861 0.110036 0.025480
Si Si3 0.883444 0.238663 0.816499
Si Si4 0.798513 0.780638 0.870450
Si Si5 0.870253 0.611452 0.489684
Si Si6 0.966007 0.304163 0.347605
Si Si7 0.395387 0.609406 0.188704
O O1 0.765086 0.500000 0.527065
O O2 0.835381 0.340219 0.705041
O O3 0.671742 0.343712 0.333599
O O4 0.849802 0.366719 0.559900
O O5 0.716925 0.172040 0.116757
O O6 0.820398 0.109034 0.147839
O O7 0.683025 0.000000 0.992724
O O8 0.645634 0.163879 0.839719
O O9 0.863272 0.223552 0.887683
O O10 0.000000 0.234517 0.000000
O O11 0.692674 0.821159 0.677377
O O12 0.848977 0.855681 0.020256
O O13 0.846476 0.500000 0.428651
O O14 0.980448 0.637974 0.645111
O O15 0.978309 0.187354 0.351730
O O16 0.000000 0.337424 0.500000
O O17 0.438690 0.500000 0.246917
#
# Coordination Sequence:
#
# PCOD8100138 Si02
#       7
#     8   8   8   8   8   8   8
#     4   9  21  41  60  86 121 155 198 249 298 349
#     4  10  21  36  55  82 113 146 188 234 278 337
#     4  10  22  38  63  89 119 159 200 245 296 355
#     4  10  20  37  59  82 113 148 189 234 285 338
#     4  10  20  35  58  81 110 148 187 235 288 340
#     4  11  21  33  53  82 111 144 186 230 285 335
#     4  10  21  37  56  79 111 149 188 230 280 341
#
# _framework density 19.830454
#
# number of rings (size 3 to 8) (size 9 to 14) (size 15 to 20)
#    0.000    2.000    0.000    4.286    4.000    4.286 
#    0.000    0.714    0.000    0.000    0.000    0.000 
#    0.000    0.000    0.000    0.000    0.000    0.000 
#
# Total GULP energy -347147.923406 kJ/mol
# GULP energy per Si atom -12398.140122 kJ/mol
# Density = 1.978532 g / cm^3
# Si number density = 19.830454 Si / 1000 Ang^3
#
#
#
# Elastic Constant Matrix: (Units=GPa)
#
#
# Indices 1 2 3 4 5 6 
#
# 1 59.5264 21.4995 21.9328 0.0000 5.0599 0.0000
# 2 21.4995 133.3423 17.2519 0.0000 0.9683 0.0000
# 3 21.9328 17.2519 63.8398 0.0000 6.7399 0.0000
# 4 0.0000 0.0000 0.0000 23.6299 0.0000 0.0628
# 5 5.0599 0.9683 6.7399 0.0000 19.5432 0.0000
# 6 0.0000 0.0000 0.0000 0.0628 0.0000 28.1545
#
#
#
# Elastic Compliance Matrix: (Units=1/GPa)
#
#
# Indices 1 2 3 4 5 6 
#
# 1 0.020130 -0.002456 -0.005931 0.000000 -0.003045 0.000000
# 2 -0.002456 0.008073 -0.001414 0.000000 0.000724 0.000000
# 3 -0.005931 -0.001414 0.018591 0.000000 -0.004806 0.000000
# 4 0.000000 0.000000 0.000000 0.042319 0.000000 -0.000094
# 5 -0.003045 0.000724 -0.004806 0.000000 0.053579 0.000000
# 6 0.000000 0.000000 0.000000 -0.000094 0.000000 0.035519
#
#
# Mechanical properties :
#
#
# Convention : Reuss Voigt Hill
#
# Bulk Modulus (GPa) = 36.77481 42.00853 39.39167
# Shear Modulus (GPa) = 24.16879 27.33382 25.75130
#
# Velocity S-wave (km/s) = 3.49488 3.71668 3.60748
# Velocity P-wave (km/s) = 5.90512 6.29667 6.10404
#
# Compressibility (1/GPa) = 0.02719252
#
# Stress axis : x y z
#
# Youngs Moduli (GPa) = 49.67595 123.86578 53.78846
#
# Poissons Ratio (x) = 0.30425 0.31901
# Poissons Ratio (y) = 0.12202 0.07607
# Poissons Ratio (z) = 0.29462 0.17517
#
# Static dielectric constant tensor:
#      x y z
#    x 3.510440 0.000000 -0.020650 
#    y 0.000000 3.887080 0.000000 
#    z -0.020650 0.000000 3.509440 
# 
# 
# High freq. dielectric constant tensor:
#      x y z
#    x 1.768530 0.000000 -0.005430 
#    y 0.000000 1.784050 0.000000 
#    z -0.005430 0.000000 1.764490 
# 
# From -- ./inp_files/246608.got.cif
#   From: 2010.06.25/outbox.cif.g09.slc.cpg/sg12_124_cif.got.tgz:246608.got - 2010.06.28 00:19:55.
