data_PCOD8100974
_publ_section_title
;
Structure prediction by ZEFSAII (Michael W. Deem and Ramdas Pophale) SiO2 
 PCOD8100974
Probable space group: C 2/M
;
_chemical_formula_sum "Si O2"
_cell_formula_units_Z 56
_cell_length_a 18.842918
_cell_length_b 8.680935
_cell_length_c 17.399550
_cell_angle_alpha 90.000000
_cell_angle_beta 80.645403
_cell_angle_gamma 90.000000
_cell_volume 2808.266822
_symmetry_space_group_name_H-M "C 2/M"
_symmetry_group_IT_number 12
_symmetry_cell_setting 'monoclinic'
loop_
_space_group_symop_operation_xyz
x,y,z
-x,y,-z
-x,-y,-z
x,-y,z
1/2+x,1/2+y,z
1/2-x,1/2+y,-z
1/2-x,1/2-y,-z
1/2+x,1/2-y,z
loop_
_atom_site_type_symbol
_atom_site_label
_atom_site_fract_x
_atom_site_fract_y
_atom_site_fract_z
Si Si1 0.534649 0.683775 0.274078
Si Si2 0.873239 0.817488 0.288832
Si Si3 0.674917 0.683618 0.534585
Si Si4 0.067353 0.171096 0.433750
Si Si5 0.809685 0.317822 0.152576
Si Si6 0.848334 0.183101 0.866855
Si Si7 0.082659 0.182926 0.987049
O O1 0.534143 0.500000 0.278351
O O2 0.455643 0.735718 0.259526
O O3 0.550561 0.755567 0.355907
O O4 0.595722 0.747533 0.206182
O O5 0.850735 0.760166 0.377404
O O6 0.820387 0.733491 0.238505
O O7 0.864227 0.000000 0.280911
O O8 0.671964 0.500000 0.533201
O O9 0.750000 0.750000 0.500000
O O10 0.626539 0.756910 0.474969
O O11 0.000000 0.158962 0.500000
O O12 0.094748 0.000000 0.407622
O O13 0.811769 0.500000 0.145541
O O14 0.732211 0.255108 0.136020
O O15 0.875041 0.247474 0.093047
O O16 0.849175 0.000000 0.864496
O O17 0.876164 0.243441 0.944271
O O18 0.083534 0.000000 0.982500
O O19 0.000000 0.242139 0.000000
#
# Coordination Sequence:
#
# PCOD8100974 Si02
#       7
#     8   8   8   8   8   8   8
#     4   9  16  30  54  79 105 136 182 234 268 307
#     4  10  20  36  56  79 108 145 188 229 267 316
#     4  10  21  34  53  81 111 144 183 228 278 327
#     4   9  15  28  51  80 105 134 181 232 272 307
#     4  11  23  36  54  83 117 146 173 214 273 331
#     4   9  19  33  52  82 111 139 176 220 271 323
#     4  10  20  38  63  85 106 139 184 225 265 314
#
# _framework density 19.941126000000001
#
# number of rings (size 3 to 8) (size 9 to 14) (size 15 to 20)
#    0.000    2.286    1.429    1.714    2.000    3.143 
#    0.000    0.714    0.000    3.000    0.000    0.000 
#    0.000    0.000    0.000    0.000    0.000    0.000 
#
# Total GULP energy -347067.777029 kJ/mol
# GULP energy per Si atom -12395.277751 kJ/mol
# Density = 1.989574 g / cm^3
# Si number density = 19.941126 Si / 1000 Ang^3
#
#
#
# Elastic Constant Matrix: (Units=GPa)
#
#
# Indices 1 2 3 4 5 6 
#
# 1 170.2021 18.5659 52.8446 0.0000 10.0950 0.0000
# 2 18.5659 8.6742 12.4393 0.0000 0.5425 0.0000
# 3 52.8446 12.4393 104.5350 0.0000 9.2648 0.0000
# 4 0.0000 0.0000 0.0000 18.1282 0.0000 -1.2144
# 5 10.0950 0.5425 9.2648 0.0000 46.9207 0.0000
# 6 0.0000 0.0000 0.0000 -1.2144 0.0000 15.2273
#
#
#
# Elastic Compliance Matrix: (Units=1/GPa)
#
#
# Indices 1 2 3 4 5 6 
#
# 1 0.008220 -0.014117 -0.002375 0.000000 -0.001136 0.000000
# 2 -0.014117 0.163382 -0.012628 0.000000 0.003642 0.000000
# 3 -0.002375 -0.012628 0.012429 0.000000 -0.001797 0.000000
# 4 0.000000 0.000000 0.000000 0.055459 0.000000 0.004423
# 5 -0.001136 0.003642 -0.001797 0.000000 0.021870 0.000000
# 6 0.000000 0.000000 0.000000 0.004423 0.000000 0.066024
#
#
# Mechanical properties :
#
#
# Convention : Reuss Voigt Hill
#
# Bulk Modulus (GPa) = 7.94972 50.12344 29.03658
# Shear Modulus (GPa) = 11.69443 29.35935 20.52689
#
# Velocity S-wave (km/s) = 2.42430 3.84122 3.21187
# Velocity P-wave (km/s) = 3.43970 6.69803 5.32424
#
# Compressibility (1/GPa) = 0.12579056
#
# Stress axis : x y z
#
# Youngs Moduli (GPa) = 121.65440 6.12062 80.45913
#
# Poissons Ratio (x) = 0.08641 0.19107
# Poissons Ratio (y) = 1.71741 1.01606
# Poissons Ratio (z) = 0.28890 0.07729
#
# Static dielectric constant tensor:
#      x y z
#    x 3.919320 0.000000 0.107240 
#    y 0.000000 3.061280 0.000000 
#    z 0.107240 0.000000 3.802070 
# 
# 
# High freq. dielectric constant tensor:
#      x y z
#    x 1.797010 0.000000 0.007660 
#    y 0.000000 1.715720 0.000000 
#    z 0.007660 0.000000 1.794120 
# 
# From -- ./inp_files/275175.got.cif
#   From: 2010.06.25/outbox.cif.g09.slc.cpg/sg12_138_cif.got.tgz:275175.got - 2010.06.28 00:19:55.
