data_PCOD8100254
_publ_section_title
;
Structure prediction by ZEFSAII (Michael W. Deem and Ramdas Pophale) SiO2 
 PCOD8100254
Probable space group: C 2/M
;
_chemical_formula_sum "Si O2"
_cell_formula_units_Z 64
_cell_length_a 22.092816
_cell_length_b 9.023983
_cell_length_c 24.121407
_cell_angle_alpha 90.000000
_cell_angle_beta 45.631228
_cell_angle_gamma 90.000000
_cell_volume 3437.710327
_symmetry_space_group_name_H-M "C 2/M"
_symmetry_group_IT_number 12
_symmetry_cell_setting 'monoclinic'
loop_
_space_group_symop_operation_xyz
x,y,z
-x,y,-z
-x,-y,-z
x,-y,z
1/2+x,1/2+y,z
1/2-x,1/2+y,-z
1/2-x,1/2-y,-z
1/2+x,1/2-y,z
loop_
_atom_site_type_symbol
_atom_site_label
_atom_site_fract_x
_atom_site_fract_y
_atom_site_fract_z
Si Si1 0.997269 0.672633 0.355128
Si Si2 0.838076 0.673829 0.961910
Si Si3 0.394807 0.671866 0.219712
Si Si4 0.689552 0.175147 0.495784
Si Si5 0.467695 0.326383 0.959888
Si Si6 0.263131 0.665327 0.645008
Si Si7 0.059246 0.836029 0.414728
Si Si8 0.017061 0.670571 0.217716
O O1 0.000092 0.500000 0.362992
O O2 0.903755 0.732698 0.428833
O O3 0.061252 0.744861 0.357086
O O4 0.030078 0.714979 0.273154
O O5 0.822630 0.500000 0.983659
O O6 0.884314 0.743423 0.987455
O O7 0.897145 0.699154 0.870753
O O8 0.750000 0.750000 0.000000
O O9 0.372394 0.500000 0.238623
O O10 0.452307 0.707406 0.129976
O O11 0.309455 0.766148 0.269568
O O12 0.442916 0.723261 0.244131
O O13 0.750000 0.250000 0.500000
O O14 0.717920 0.225807 0.417359
O O15 0.696840 0.000000 0.495247
O O16 0.444479 0.500000 0.976616
O O17 0.500000 0.271047 0.000000
O O18 0.237530 0.500000 0.640608
O O19 0.344358 0.655173 0.630690
O O20 0.000000 0.759752 0.500000
O O21 0.021689 0.000000 0.427691
O O22 0.987586 0.500000 0.230779
#
# Coordination Sequence:
#
# PCOD8100254 Si02
#       8
#     8   8   8   8   8   8   8   8
#     4  10  21  36  55  78 104 136 178 224 271 323
#     4  10  20  36  60  87 119 155 192 234 282 342
#     4  10  20  35  58  86 111 142 183 227 277 331
#     4  11  22  34  53  81 108 137 177 224 274 326
#     4   9  19  38  62  87 118 153 189 234 290 349
#     4  11  22  37  55  75 107 146 183 225 272 324
#     4  10  21  38  56  74 102 144 185 222 271 321
#     4   9  19  37  58  82 112 146 180 223 280 331
#
# _framework density 18.617042000000001
#
# number of rings (size 3 to 8) (size 9 to 14) (size 15 to 20)
#    0.000    2.000    1.250    2.250    0.000    4.500 
#    2.250    0.000    0.000    0.000    0.000    0.000 
#    0.000    0.000    0.000    0.000    0.000    0.000 
#
# Total GULP energy -396736.000059 kJ/mol
# GULP energy per Si atom -12398.000002 kJ/mol
# Density = 1.857467 g / cm^3
# Si number density = 18.617042 Si / 1000 Ang^3
#
#
#
# Elastic Constant Matrix: (Units=GPa)
#
#
# Indices 1 2 3 4 5 6 
#
# 1 122.5225 51.1648 54.3869 -0.0001 8.0949 0.0005
# 2 51.1648 71.8603 39.3398 -0.0005 -3.3864 0.0013
# 3 54.3869 39.3398 86.7181 -0.0002 3.8240 0.0002
# 4 -0.0001 -0.0005 -0.0002 28.1027 0.0002 -1.0870
# 5 8.0949 -3.3864 3.8240 0.0002 35.8617 -0.0001
# 6 0.0005 0.0013 0.0002 -1.0870 -0.0001 35.2154
#
#
#
# Elastic Compliance Matrix: (Units=1/GPa)
#
#
# Indices 1 2 3 4 5 6 
#
# 1 0.013604 -0.006973 -0.005229 0.000000 -0.003172 0.000000
# 2 -0.006973 0.022343 -0.005953 0.000000 0.004319 -0.000001
# 3 -0.005229 -0.005953 0.017567 0.000000 -0.001255 0.000000
# 4 0.000000 0.000000 0.000000 0.035626 0.000000 0.001100
# 5 -0.003172 0.004319 -0.001255 0.000000 0.029143 0.000000
# 6 0.000000 -0.000001 0.000000 0.001100 0.000000 0.028431
#
#
# Mechanical properties :
#
#
# Convention : Reuss Voigt Hill
#
# Bulk Modulus (GPa) = 58.12559 63.43154 60.77856
# Shear Modulus (GPa) = 26.48868 28.91659 27.70264
#
# Velocity S-wave (km/s) = 3.77612 3.94538 3.86168
# Velocity P-wave (km/s) = 7.09236 7.40948 7.25266
#
# Compressibility (1/GPa) = 0.01720413
#
# Stress axis : x y z
#
# Youngs Moduli (GPa) = 73.50547 44.75585 56.92468
#
# Poissons Ratio (x) = 0.31209 0.29766
# Poissons Ratio (y) = 0.51257 0.33888
# Poissons Ratio (z) = 0.38436 0.26644
#
# Static dielectric constant tensor:
#      x y z
#    x 3.411930 0.000000 -0.035730 
#    y 0.000000 3.633510 0.000000 
#    z -0.035730 0.000000 3.438360 
# 
# 
# High freq. dielectric constant tensor:
#      x y z
#    x 1.722740 0.000000 -0.001140 
#    y 0.000000 1.727340 0.000000 
#    z -0.001140 0.000000 1.720520 
# 
# From -- ./inp_files/345974.got.cif
#   From: 2010.06.25/outbox.cif.g09.slc.cpg/sg12_173_cif.got.tgz:345974.got - 2010.06.28 00:19:55.
