data_PCOD8100697
_publ_section_title
;
Structure prediction by ZEFSAII (Michael W. Deem and Ramdas Pophale) SiO2 
 PCOD8100697
Probable space group: C 2/M
;
_chemical_formula_sum "Si O2"
_cell_formula_units_Z 56
_cell_length_a 23.515120
_cell_length_b 8.829012
_cell_length_c 14.631609
_cell_angle_alpha 90.000000
_cell_angle_beta 72.141435
_cell_angle_gamma 90.000000
_cell_volume 2891.376120
_symmetry_space_group_name_H-M "C 2/M"
_symmetry_group_IT_number 12
_symmetry_cell_setting 'monoclinic'
loop_
_space_group_symop_operation_xyz
x,y,z
-x,y,-z
-x,-y,-z
x,-y,z
1/2+x,1/2+y,z
1/2-x,1/2+y,-z
1/2-x,1/2-y,-z
1/2+x,1/2-y,z
loop_
_atom_site_type_symbol
_atom_site_label
_atom_site_fract_x
_atom_site_fract_y
_atom_site_fract_z
Si Si1 0.819041 0.823598 0.875443
Si Si2 0.387254 0.325647 0.542716
Si Si3 0.736201 0.821858 0.409999
Si Si4 0.304627 0.324223 0.090923
Si Si5 0.062724 0.174202 0.287525
Si Si6 0.339750 0.823869 0.247185
Si Si7 0.058576 0.324208 0.660953
O O1 0.763811 0.728294 0.864179
O O2 0.877865 0.769623 0.793206
O O3 0.805393 0.000000 0.864187
O O4 0.828658 0.790320 0.977758
O O5 0.368682 0.500000 0.539482
O O6 0.328408 0.229470 0.592498
O O7 0.431235 0.304575 0.606626
O O8 0.420305 0.271928 0.435765
O O9 0.750000 0.750000 0.500000
O O10 0.785045 0.771408 0.313537
O O11 0.737036 0.000000 0.421048
O O12 0.308360 0.500000 0.113656
O O13 0.347266 0.230696 0.138881
O O14 0.008192 0.276080 0.278960
O O15 0.049677 0.000000 0.269092
O O16 0.399982 0.787874 0.272635
O O17 0.323689 0.000000 0.259915
O O18 0.061224 0.500000 0.633294
#
# Coordination Sequence:
#
# PCOD8100697 Si02
#       7
#     8   8   8   8   8   8   8
#     4   9  19  38  61  87 119 149 183 233 292 349
#     4  11  22  37  59  85 115 153 192 235 288 343
#     4  12  23  36  57  85 116 150 188 234 283 338
#     4  10  20  35  61  92 116 146 187 234 289 347
#     4  10  22  39  59  82 111 150 192 235 288 344
#     4  11  23  39  57  81 116 156 192 234 290 342
#     4  11  24  39  56  79 112 154 197 240 285 337
#
# _framework density 19.367940000000001
#
# number of rings (size 3 to 8) (size 9 to 14) (size 15 to 20)
#    0.000    1.429    1.429    4.286    0.000    6.857 
#    0.000    0.714    0.000    4.286    0.000    0.000 
#    0.000    0.000    0.000    0.000    0.000    0.000 
#
# Total GULP energy -347360.694533 kJ/mol
# GULP energy per Si atom -12405.739090 kJ/mol
# Density = 1.932386 g / cm^3
# Si number density = 19.367940 Si / 1000 Ang^3
#
#
#
# Elastic Constant Matrix: (Units=GPa)
#
#
# Indices 1 2 3 4 5 6 
#
# 1 106.4529 49.7011 50.2379 0.0000 4.2957 0.0000
# 2 49.7011 106.5827 43.0792 0.0000 6.8282 0.0000
# 3 50.2379 43.0792 91.5626 0.0000 12.8544 0.0000
# 4 0.0000 0.0000 0.0000 29.6413 0.0000 1.1294
# 5 4.2957 6.8282 12.8544 0.0000 24.6733 0.0000
# 6 0.0000 0.0000 0.0000 1.1294 0.0000 37.0598
#
#
#
# Elastic Compliance Matrix: (Units=1/GPa)
#
#
# Indices 1 2 3 4 5 6 
#
# 1 0.014159 -0.004292 -0.006009 0.000000 0.001854 0.000000
# 2 -0.004292 0.012890 -0.003575 0.000000 -0.000957 0.000000
# 3 -0.006009 -0.003575 0.016847 0.000000 -0.006741 0.000000
# 4 0.000000 0.000000 0.000000 0.033776 0.000000 -0.001029
# 5 0.001854 -0.000957 -0.006741 0.000000 0.043984 0.000000
# 6 0.000000 0.000000 0.000000 -0.001029 0.000000 0.027015
#
#
# Mechanical properties :
#
#
# Convention : Reuss Voigt Hill
#
# Bulk Modulus (GPa) = 61.94793 65.62605 63.78699
# Shear Modulus (GPa) = 27.50176 29.04687 28.27431
#
# Velocity S-wave (km/s) = 3.77233 3.87685 3.82495
# Velocity P-wave (km/s) = 7.14340 7.34829 7.24657
#
# Compressibility (1/GPa) = 0.01614259
#
# Stress axis : x y z
#
# Youngs Moduli (GPa) = 70.62609 77.57699 59.35696
#
# Poissons Ratio (x) = 0.33299 0.35670
# Poissons Ratio (y) = 0.30316 0.21222
# Poissons Ratio (z) = 0.42442 0.27736
#
# Static dielectric constant tensor:
#      x y z
#    x 3.573830 0.000000 0.134000 
#    y 0.000000 3.708010 0.000000 
#    z 0.134000 0.000000 3.940690 
# 
# 
# High freq. dielectric constant tensor:
#      x y z
#    x 1.751710 0.000000 0.008970 
#    y 0.000000 1.762390 0.000000 
#    z 0.008970 0.000000 1.753270 
# 
# From -- ./inp_files/237430.got.cif
#   From: 2010.06.25/outbox.cif.g09.slc.cpg/sg12_119_cif.got.tgz:237430.got - 2010.06.28 00:19:55.
