data_PCOD8100693
_publ_section_title
;
Structure prediction by ZEFSAII (Michael W. Deem and Ramdas Pophale) SiO2 
 PCOD8100693
Probable space group: C 2/M
;
_chemical_formula_sum "Si O2"
_cell_formula_units_Z 64
_cell_length_a 7.855575
_cell_length_b 21.767048
_cell_length_c 18.954681
_cell_angle_alpha 90.000000
_cell_angle_beta 85.893197
_cell_angle_gamma 90.000000
_cell_volume 3232.789421
_symmetry_space_group_name_H-M "C 2/M"
_symmetry_group_IT_number 12
_symmetry_cell_setting 'monoclinic'
loop_
_space_group_symop_operation_xyz
x,y,z
-x,y,-z
-x,-y,-z
x,-y,z
1/2+x,1/2+y,z
1/2-x,1/2+y,-z
1/2-x,1/2-y,-z
1/2+x,1/2-y,z
loop_
_atom_site_type_symbol
_atom_site_label
_atom_site_fract_x
_atom_site_fract_y
_atom_site_fract_z
Si Si1 0.991984 0.572488 0.578790
Si Si2 0.016384 0.430668 0.917979
Si Si3 0.824326 0.927674 0.323019
Si Si4 0.849676 0.656471 0.195899
Si Si5 0.355624 0.232050 0.850562
Si Si6 0.551665 0.330379 0.921600
Si Si7 0.786685 0.927700 0.676052
Si Si8 0.174193 0.931421 0.835994
O O1 0.967258 0.500000 0.575346
O O2 0.825918 0.601262 0.623756
O O3 0.000000 0.600930 0.500000
O O4 0.172190 0.587874 0.611199
O O5 0.091152 0.500000 0.912037
O O6 0.146165 0.382518 0.877337
O O7 0.837180 0.429564 0.881981
O O8 0.000000 0.410406 0.000000
O O9 0.785068 0.906966 0.243960
O O10 0.015735 0.907566 0.341987
O O11 0.809688 0.000000 0.329570
O O12 0.728800 0.715958 0.195260
O O13 0.795170 0.610911 0.258604
O O14 0.034903 0.687504 0.203675
O O15 0.461681 0.267191 0.906383
O O16 0.248770 0.185805 0.902421
O O17 0.520244 0.388949 0.871133
O O18 0.500000 0.352700 0.000000
O O19 0.774529 0.000000 0.695693
O O20 0.099262 0.000000 0.833090
#
# Coordination Sequence:
#
# PCOD8100693 Si02
#       8
#     8   8   8   8   8   8   8   8
#     4   9  18  32  54  89 131 164 186 219 277 351
#     4  10  21  35  55  79 108 146 191 244 302 359
#     4   9  18  33  53  82 119 156 192 230 276 343
#     4  11  21  39  57  79 109 143 196 242 294 348
#     4  10  24  37  53  76 104 141 193 243 295 340
#     4  11  22  37  54  74 102 143 184 241 296 347
#     4  10  20  35  61  91 119 157 192 231 291 349
#     4  10  20  36  55  79 110 148 190 239 295 345
#
# _framework density 19.797143999999999
#
# number of rings (size 3 to 8) (size 9 to 14) (size 15 to 20)
#    0.000    2.000    1.250    2.250    1.750    4.750 
#    0.000    3.125    0.000    0.000    0.000    0.875 
#    0.000    0.000    0.000    0.000    0.000    0.000 
#
# Total GULP energy -396448.929665 kJ/mol
# GULP energy per Si atom -12389.029052 kJ/mol
# Density = 1.975209 g / cm^3
# Si number density = 19.797144 Si / 1000 Ang^3
#
#
#
# Elastic Constant Matrix: (Units=GPa)
#
#
# Indices 1 2 3 4 5 6 
#
# 1 115.1076 20.3887 63.5653 0.0000 -1.5242 0.0000
# 2 20.3887 78.1350 34.3566 0.0000 -8.0840 0.0000
# 3 63.5653 34.3566 150.7203 0.0000 2.9675 0.0000
# 4 0.0000 0.0000 0.0000 23.4287 0.0000 -32.2578
# 5 -1.5242 -8.0840 2.9675 0.0000 23.6565 0.0000
# 6 0.0000 0.0000 0.0000 -32.2578 0.0000 102.7510
#
#
#
# Elastic Compliance Matrix: (Units=1/GPa)
#
#
# Indices 1 2 3 4 5 6 
#
# 1 0.011413 -0.000829 -0.004645 0.000000 0.001035 0.000000
# 2 -0.000829 0.014974 -0.003171 0.000000 0.005461 0.000000
# 3 -0.004645 -0.003171 0.009367 0.000000 -0.002558 0.000000
# 4 0.000000 0.000000 0.000000 0.075179 0.000000 0.023602
# 5 0.001035 0.005461 -0.002558 0.000000 0.044526 0.000000
# 6 0.000000 0.000000 0.000000 0.023602 0.000000 0.017142
#
#
# Mechanical properties :
#
#
# Convention : Reuss Voigt Hill
#
# Bulk Modulus (GPa) = 54.15846 64.50934 59.33390
# Shear Modulus (GPa) = 25.50432 45.01072 35.25752
#
# Velocity S-wave (km/s) = 3.59316 4.77340 4.22470
# Velocity P-wave (km/s) = 6.68060 7.93954 7.33713
#
# Compressibility (1/GPa) = 0.01846434
#
# Stress axis : x y z
#
# Youngs Moduli (GPa) = 87.61931 66.78179 106.75756
#
# Poissons Ratio (x) = 0.05534 0.49587
# Poissons Ratio (y) = 0.07261 0.33857
# Poissons Ratio (z) = 0.40698 0.21179
#
# Static dielectric constant tensor:
#      x y z
#    x 3.893250 0.000000 -0.117670 
#    y 0.000000 3.781240 0.000000 
#    z -0.117670 0.000000 3.583390 
# 
# 
# High freq. dielectric constant tensor:
#      x y z
#    x 1.779600 0.000000 -0.004730 
#    y 0.000000 1.759400 0.000000 
#    z -0.004730 0.000000 1.745690 
# 
# From -- ./inp_files/258918.got.cif
#   From: 2010.06.25/outbox.cif.g09.slc.cpg/sg12_130_cif.got.tgz:258918.got - 2010.06.28 00:19:55.
