data_PCOD8100251
_publ_section_title
;
Structure prediction by ZEFSAII (Michael W. Deem and Ramdas Pophale) SiO2 
 PCOD8100251
Probable space group: C 2/M
;
_chemical_formula_sum "Si O2"
_cell_formula_units_Z 48
_cell_length_a 27.147366
_cell_length_b 8.512007
_cell_length_c 14.513716
_cell_angle_alpha 90.000000
_cell_angle_beta 138.429233
_cell_angle_gamma 90.000000
_cell_volume 2225.401641
_symmetry_space_group_name_H-M "C 2/M"
_symmetry_group_IT_number 12
_symmetry_cell_setting 'monoclinic'
loop_
_space_group_symop_operation_xyz
x,y,z
-x,y,-z
-x,-y,-z
x,-y,z
1/2+x,1/2+y,z
1/2-x,1/2+y,-z
1/2-x,1/2-y,-z
1/2+x,1/2-y,z
loop_
_atom_site_type_symbol
_atom_site_label
_atom_site_fract_x
_atom_site_fract_y
_atom_site_fract_z
Si Si1 0.357603 0.680150 0.139057
Si Si2 0.928198 0.684521 0.845720
Si Si3 0.004960 0.314529 0.401686
Si Si4 0.222272 0.819002 0.297795
Si Si5 0.751650 0.821682 0.151263
Si Si6 0.877511 0.313864 0.579687
O O1 0.344689 0.500000 0.091439
O O2 0.443355 0.723600 0.257320
O O3 0.326284 0.711307 0.197909
O O4 0.318592 0.795120 0.012748
O O5 0.940246 0.500000 0.857218
O O6 0.852037 0.719015 0.792686
O O7 0.919126 0.754453 0.729020
O O8 0.000000 0.758303 0.000000
O O9 0.991057 0.500000 0.376620
O O10 0.081247 0.263966 0.457427
O O11 0.000000 0.255785 0.500000
O O12 0.249224 0.800879 0.230791
O O13 0.291547 0.755978 0.456969
O O14 0.204580 0.000000 0.293887
O O15 0.748995 0.000000 0.184770
O O16 0.876824 0.500000 0.585367
#
# Coordination Sequence:
#
# PCOD8100251 Si02
#       6
#     8   8   8   8   8   8
#     4  10  21  36  55  85 120 155 200 252 301 347
#     4  10  22  40  62  87 117 157 204 248 300 364
#     4  10  20  35  58  85 118 162 206 242 292 358
#     4  11  22  38  62  88 119 152 198 255 302 352
#     4  10  21  37  58  83 117 159 199 240 298 367
#     4   9  20  38  59  86 120 161 203 244 296 358
#
# _framework density 21.569140000000001
#
# number of rings (size 3 to 8) (size 9 to 14) (size 15 to 20)
#    0.000    2.000    0.000    3.000    2.333    4.000 
#    0.000    3.333    0.000    0.000    0.000    0.000 
#    0.000    0.000    0.000    0.000    0.000    0.000 
#
# Total GULP energy -297549.170470 kJ/mol
# GULP energy per Si atom -12397.882103 kJ/mol
# Density = 2.152005 g / cm^3
# Si number density = 21.569140 Si / 1000 Ang^3
#
#
#
# Elastic Constant Matrix: (Units=GPa)
#
#
# Indices 1 2 3 4 5 6 
#
# 1 98.3193 7.8353 63.9042 0.0000 1.9179 0.0000
# 2 7.8353 19.8485 8.5068 0.0000 -0.3901 0.0000
# 3 63.9042 8.5068 134.7920 0.0000 15.8709 0.0000
# 4 0.0000 0.0000 0.0000 24.0946 0.0000 3.0379
# 5 1.9179 -0.3901 15.8709 0.0000 39.1708 0.0000
# 6 0.0000 0.0000 0.0000 3.0379 0.0000 17.7580
#
#
#
# Elastic Compliance Matrix: (Units=1/GPa)
#
#
# Indices 1 2 3 4 5 6 
#
# 1 0.015035 -0.002805 -0.007205 0.000000 0.002155 0.000000
# 2 -0.002805 0.052445 -0.002161 0.000000 0.001535 0.000000
# 3 -0.007205 -0.002161 0.011480 0.000000 -0.004320 0.000000
# 4 0.000000 0.000000 0.000000 0.042418 0.000000 -0.007256
# 5 0.002155 0.001535 -0.004320 0.000000 0.027189 0.000000
# 6 0.000000 0.000000 0.000000 -0.007256 0.000000 0.057554
#
#
# Mechanical properties :
#
#
# Convention : Reuss Voigt Hill
#
# Bulk Modulus (GPa) = 18.30871 45.93915 32.12393
# Shear Modulus (GPa) = 20.10704 27.71893 23.91299
#
# Velocity S-wave (km/s) = 3.05653 3.58875 3.33328
# Velocity P-wave (km/s) = 4.57857 6.20620 5.45345
#
# Compressibility (1/GPa) = 0.05461881
#
# Stress axis : x y z
#
# Youngs Moduli (GPa) = 66.50971 19.06756 87.11046
#
# Poissons Ratio (x) = 0.05348 0.62763
# Poissons Ratio (y) = 0.18656 0.18822
# Poissons Ratio (z) = 0.47920 0.04120
#
# Static dielectric constant tensor:
#      x y z
#    x 3.887340 0.000000 -0.065200 
#    y 0.000000 3.467640 0.000000 
#    z -0.065200 0.000000 4.101020 
# 
# 
# High freq. dielectric constant tensor:
#      x y z
#    x 1.847880 0.000000 0.001700 
#    y 0.000000 1.817010 0.000000 
#    z 0.001700 0.000000 1.856370 
# 
# From -- ./inp_files/244601.got.cif
#   From: 2010.06.25/outbox.cif.g09.slc.cpg/sg12_123_cif.got.tgz:244601.got - 2010.06.28 00:19:55.
