data_PCOD8100532
_publ_section_title
;
Structure prediction by ZEFSAII (Michael W. Deem and Ramdas Pophale) SiO2 
 PCOD8100532
Probable space group: C 2/M
;
_chemical_formula_sum "Si O2"
_cell_formula_units_Z 56
_cell_length_a 20.416073
_cell_length_b 14.947419
_cell_length_c 15.271137
_cell_angle_alpha 90.000000
_cell_angle_beta 142.029885
_cell_angle_gamma 90.000000
_cell_volume 2867.224353
_symmetry_space_group_name_H-M "C 2/M"
_symmetry_group_IT_number 12
_symmetry_cell_setting 'monoclinic'
loop_
_space_group_symop_operation_xyz
x,y,z
-x,y,-z
-x,-y,-z
x,-y,z
1/2+x,1/2+y,z
1/2-x,1/2+y,-z
1/2-x,1/2-y,-z
1/2+x,1/2-y,z
loop_
_atom_site_type_symbol
_atom_site_label
_atom_site_fract_x
_atom_site_fract_y
_atom_site_fract_z
Si Si1 0.744344 0.179893 0.620000
Si Si2 0.952561 0.396555 0.037603
Si Si3 0.831702 0.000000 0.789746
Si Si4 0.960553 0.151317 0.244368
Si Si5 0.045507 0.000000 0.905737
Si Si6 0.221005 0.101844 0.827882
Si Si7 0.905448 0.298481 0.692602
Si Si8 0.597863 0.327107 0.546021
O O1 0.853179 0.229979 0.707433
O O2 0.681308 0.159294 0.463708
O O3 0.672760 0.243371 0.604278
O O4 0.765455 0.088941 0.695534
O O5 0.930775 0.500000 0.997231
O O6 0.041216 0.383107 0.204749
O O7 0.000000 0.350943 0.000000
O O8 0.838500 0.354168 0.944187
O O9 0.936922 0.000000 0.843625
O O10 0.857975 0.000000 0.921730
O O11 0.846569 0.158312 0.172561
O O12 0.996558 0.249109 0.251779
O O13 0.052279 0.121522 0.411581
O O14 0.951013 0.086545 0.151829
O O15 0.165791 0.102585 0.674178
O O16 0.224789 0.000000 0.865670
O O17 0.500000 0.288840 0.500000
#
# Coordination Sequence:
#
# PCOD8100532 Si02
#       8
#     8   8   4   8   4   8   8   8
#     4  10  21  40  58  86 110 150 202 239 287 343
#     4  10  22  38  54  85 120 154 190 234 289 351
#     4  11  24  40  61  82 120 157 195 241 292 347
#     4  10  20  36  59  88 120 146 195 244 286 344
#     4  11  22  38  55  92 118 152 192 246 293 346
#     4  10  20  35  59  89 121 152 187 234 297 348
#     4  10  21  37  60  84 114 152 195 243 288 341
#     4   9  20  36  59  88 119 151 189 244 288 348
#
# _framework density 19.531085000000001
#
# number of rings (size 3 to 8) (size 9 to 14) (size 15 to 20)
#    0.000    2.000    2.143    0.857    2.000    3.714 
#    0.000    3.214    0.000    0.000    0.000    0.000 
#    0.000    0.000    0.000    0.000    0.000    0.000 
#
# Total GULP energy -347065.547949 kJ/mol
# GULP energy per Si atom -12395.198141 kJ/mol
# Density = 1.948663 g / cm^3
# Si number density = 19.531085 Si / 1000 Ang^3
#
#
#
# Elastic Constant Matrix: (Units=GPa)
#
#
# Indices 1 2 3 4 5 6 
#
# 1 115.6563 31.5876 56.0554 0.0000 11.3595 0.0000
# 2 31.5876 54.7637 40.9837 0.0000 -0.1766 0.0000
# 3 56.0554 40.9837 120.7337 0.0000 -3.3395 0.0000
# 4 0.0000 0.0000 0.0000 23.7876 0.0000 -5.3652
# 5 11.3595 -0.1766 -3.3395 0.0000 39.5494 0.0000
# 6 0.0000 0.0000 0.0000 -5.3652 0.0000 16.4178
#
#
#
# Elastic Compliance Matrix: (Units=1/GPa)
#
#
# Indices 1 2 3 4 5 6 
#
# 1 0.012235 -0.003670 -0.004543 0.000000 -0.003914 0.000000
# 2 -0.003670 0.025593 -0.006968 0.000000 0.000580 0.000000
# 3 -0.004543 -0.006968 0.012822 0.000000 0.002356 0.000000
# 4 0.000000 0.000000 0.000000 0.045384 0.000000 0.014831
# 5 -0.003914 0.000580 0.002356 0.000000 0.026611 0.000000
# 6 0.000000 0.000000 0.000000 0.014831 0.000000 0.065756
#
#
# Mechanical properties :
#
#
# Convention : Reuss Voigt Hill
#
# Bulk Modulus (GPa) = 49.28717 60.93412 55.11065
# Shear Modulus (GPa) = 22.17038 26.78610 24.47824
#
# Velocity S-wave (km/s) = 3.37283 3.70734 3.54403
# Velocity P-wave (km/s) = 6.36066 7.04217 6.71007
#
# Compressibility (1/GPa) = 0.02028925
#
# Stress axis : x y z
#
# Youngs Moduli (GPa) = 81.73318 39.07244 77.98793
#
# Poissons Ratio (x) = 0.14339 0.35431
# Poissons Ratio (y) = 0.29994 0.54342
# Poissons Ratio (z) = 0.37132 0.27226
#
# Static dielectric constant tensor:
#      x y z
#    x 3.824700 0.000000 0.006450 
#    y 0.000000 3.170200 0.000000 
#    z 0.006450 0.000000 3.700430 
# 
# 
# High freq. dielectric constant tensor:
#      x y z
#    x 1.772050 0.000000 0.001440 
#    y 0.000000 1.727570 0.000000 
#    z 0.001440 0.000000 1.766910 
# 
# From -- ./inp_files/234761.got.cif
#   From: 2010.06.25/outbox.cif.g09.slc.cpg/sg12_118_cif.got.tgz:234761.got - 2010.06.28 00:19:55.
