data_PCOD8100368
_publ_section_title
;
Structure prediction by ZEFSAII (Michael W. Deem and Ramdas Pophale) SiO2 
 PCOD8100368
Probable space group: C 2/M
;
_chemical_formula_sum "Si O2"
_cell_formula_units_Z 56
_cell_length_a 26.991787
_cell_length_b 8.874867
_cell_length_c 17.747107
_cell_angle_alpha 90.000000
_cell_angle_beta 141.345955
_cell_angle_gamma 90.000000
_cell_volume 2655.427880
_symmetry_space_group_name_H-M "C 2/M"
_symmetry_group_IT_number 12
_symmetry_cell_setting 'monoclinic'
loop_
_space_group_symop_operation_xyz
x,y,z
-x,y,-z
-x,-y,-z
x,-y,z
1/2+x,1/2+y,z
1/2-x,1/2+y,-z
1/2-x,1/2-y,-z
1/2+x,1/2-y,z
loop_
_atom_site_type_symbol
_atom_site_label
_atom_site_fract_x
_atom_site_fract_y
_atom_site_fract_z
Si Si1 0.782682 0.679333 0.616994
Si Si2 0.853264 0.324041 0.455951
Si Si3 0.250277 0.170225 0.921766
Si Si4 0.388590 0.674959 0.344679
Si Si5 0.496981 0.327081 0.336044
Si Si6 0.459719 0.178767 0.874937
Si Si7 0.925627 0.328400 0.119447
O O1 0.781465 0.500000 0.606126
O O2 0.750000 0.750000 0.500000
O O3 0.725211 0.731621 0.616133
O O4 0.870497 0.735271 0.747829
O O5 0.835635 0.500000 0.442812
O O6 0.888382 0.279769 0.416883
O O7 0.926533 0.273898 0.596087
O O8 0.185842 0.240639 0.789896
O O9 0.224269 0.000000 0.906756
O O10 0.250000 0.250000 0.000000
O O11 0.335697 0.181143 0.982656
O O12 0.378158 0.500000 0.356208
O O13 0.467864 0.694334 0.388175
O O14 0.518834 0.500000 0.348184
O O15 0.428851 0.274581 0.197950
O O16 0.516580 0.235857 0.875794
O O17 0.458522 0.000000 0.879489
O O18 0.500000 0.243647 0.000000
O O19 0.947790 0.500000 0.166895
#
# Coordination Sequence:
#
# PCOD8100368 Si02
#       7
#     8   8   8   8   8   8   8
#     4  11  23  42  69  95 127 165 210 263 317 379
#     4  12  26  41  61  89 122 159 207 257 310 369
#     4  10  20  35  58  88 124 162 201 244 297 367
#     4  10  22  39  59  88 124 161 203 248 306 372
#     4  11  22  39  62  88 122 162 203 250 308 375
#     4   9  20  38  63  93 121 157 207 259 309 364
#     4  10  20  35  61  92 122 158 202 250 300 365
#
# _framework density 21.088881000000001
#
# number of rings (size 3 to 8) (size 9 to 14) (size 15 to 20)
#    0.000    1.571    1.429    3.429    2.000    4.571 
#    0.000    0.714    0.000    2.143    0.000    0.000 
#    0.000    0.000    0.000    0.000    0.000    0.000 
#
# Total GULP energy -347101.913359 kJ/mol
# GULP energy per Si atom -12396.496906 kJ/mol
# Density = 2.104088 g / cm^3
# Si number density = 21.088881 Si / 1000 Ang^3
#
#
#
# Elastic Constant Matrix: (Units=GPa)
#
#
# Indices 1 2 3 4 5 6 
#
# 1 96.1484 33.3168 27.7382 0.0000 11.1929 0.0000
# 2 33.3168 70.1241 31.1828 0.0000 3.5428 0.0000
# 3 27.7382 31.1828 103.6928 0.0000 12.0746 0.0000
# 4 0.0000 0.0000 0.0000 26.3441 0.0000 -2.9047
# 5 11.1929 3.5428 12.0746 0.0000 39.8371 0.0000
# 6 0.0000 0.0000 0.0000 -2.9047 0.0000 30.3032
#
#
#
# Elastic Compliance Matrix: (Units=1/GPa)
#
#
# Indices 1 2 3 4 5 6 
#
# 1 0.013022 -0.005358 -0.001557 0.000000 -0.002710 0.000000
# 2 -0.005358 0.018666 -0.004314 0.000000 0.001153 0.000000
# 3 -0.001557 -0.004314 0.011674 0.000000 -0.002717 0.000000
# 4 0.000000 0.000000 0.000000 0.038365 0.000000 0.003677
# 5 -0.002710 0.001153 -0.002717 0.000000 0.026585 0.000000
# 6 0.000000 0.000000 0.000000 0.003677 0.000000 0.033352
#
#
# Mechanical properties :
#
#
# Convention : Reuss Voigt Hill
#
# Bulk Modulus (GPa) = 47.83605 50.49346 49.16476
# Shear Modulus (GPa) = 29.22451 31.14539 30.18495
#
# Velocity S-wave (km/s) = 3.72664 3.84717 3.78738
# Velocity P-wave (km/s) = 6.42257 6.61282 6.51839
#
# Compressibility (1/GPa) = 0.02090473
#
# Stress axis : x y z
#
# Youngs Moduli (GPa) = 76.79503 53.57271 85.65944
#
# Poissons Ratio (x) = 0.28702 0.13333
# Poissons Ratio (y) = 0.41144 0.36957
# Poissons Ratio (z) = 0.11954 0.23114
#
# Static dielectric constant tensor:
#      x y z
#    x 4.052390 0.000000 0.533890 
#    y 0.000000 3.499080 0.000000 
#    z 0.533890 0.000000 4.801180 
# 
# 
# High freq. dielectric constant tensor:
#      x y z
#    x 1.830490 0.000000 0.012440 
#    y 0.000000 1.798540 0.000000 
#    z 0.012440 0.000000 1.846590 
# 
# From -- ./inp_files/292548.got.cif
#   From: 2010.06.25/outbox.cif.g09.slc.cpg/sg12_147_cif.got.tgz:292548.got - 2010.06.28 00:19:55.
