data_PCOD8100847
_publ_section_title
;
Structure prediction by ZEFSAII (Michael W. Deem and Ramdas Pophale) SiO2 
 PCOD8100847
Probable space group: C 2/M
;
_chemical_formula_sum "Si O2"
_cell_formula_units_Z 48
_cell_length_a 31.899774
_cell_length_b 9.607535
_cell_length_c 9.772082
_cell_angle_alpha 90.000000
_cell_angle_beta 117.917034
_cell_angle_gamma 90.000000
_cell_volume 2646.399489
_symmetry_space_group_name_H-M "C 2/M"
_symmetry_group_IT_number 12
_symmetry_cell_setting 'monoclinic'
loop_
_space_group_symop_operation_xyz
x,y,z
-x,y,-z
-x,-y,-z
x,-y,z
1/2+x,1/2+y,z
1/2-x,1/2+y,-z
1/2-x,1/2-y,-z
1/2+x,1/2-y,z
loop_
_atom_site_type_symbol
_atom_site_label
_atom_site_fract_x
_atom_site_fract_y
_atom_site_fract_z
Si Si1 0.958938 0.658745 0.036144
Si Si2 0.785822 0.839271 0.879818
Si Si3 0.979991 0.340869 0.611799
Si Si4 0.389272 0.660925 0.537622
Si Si5 0.128551 0.839634 0.179915
Si Si6 0.303736 0.338751 0.216523
O O1 0.946709 0.500000 0.976613
O O2 0.976381 0.670640 0.217672
O O3 0.912582 0.750123 0.950346
O O4 0.000000 0.717067 0.000000
O O5 0.822520 0.796576 0.817842
O O6 0.739228 0.748096 0.785095
O O7 0.770932 0.000000 0.846214
O O8 0.809260 0.807975 0.063646
O O9 0.962447 0.500000 0.570818
O O10 0.936374 0.250380 0.596506
O O11 0.000000 0.282421 0.500000
O O12 0.403299 0.500000 0.541426
O O13 0.366253 0.688923 0.650846
O O14 0.351992 0.707824 0.364948
O O15 0.116580 0.000000 0.131041
O O16 0.293022 0.500000 0.229582
#
# Coordination Sequence:
#
# PCOD8100847 Si02
#       6
#     8   8   8   8   8   8
#     4  10  20  36  55  76 106 141 176 215 258 308
#     4   9  19  36  55  77 104 136 174 215 261 312
#     4  10  22  38  54  77 108 140 176 218 262 309
#     4  10  21  36  54  79 109 139 174 217 262 310
#     4  10  21  35  54  80 108 139 176 216 260 310
#     4   9  19  36  55  76 105 137 172 216 262 310
#
# _framework density 18.137853
#
# number of rings (size 3 to 8) (size 9 to 14) (size 15 to 20)
#    0.000    2.333    1.667    0.000    2.333    3.333 
#    0.000    0.000    0.000    0.000    0.000    0.000 
#    0.000    0.000    0.000    0.000    0.000    0.000 
#
# Total GULP energy -297683.794596 kJ/mol
# GULP energy per Si atom -12403.491442 kJ/mol
# Density = 1.809657 g / cm^3
# Si number density = 18.137853 Si / 1000 Ang^3
#
#
#
# Elastic Constant Matrix: (Units=GPa)
#
#
# Indices 1 2 3 4 5 6 
#
# 1 88.4216 38.0228 17.0814 0.0000 -12.0577 0.0000
# 2 38.0228 54.2173 22.8521 0.0000 6.3525 0.0000
# 3 17.0814 22.8521 68.5921 0.0000 -1.2231 0.0000
# 4 0.0000 0.0000 0.0000 23.9914 0.0000 5.0700
# 5 -12.0577 6.3525 -1.2231 0.0000 31.8538 0.0000
# 6 0.0000 0.0000 0.0000 5.0700 0.0000 34.1898
#
#
#
# Elastic Compliance Matrix: (Units=1/GPa)
#
#
# Indices 1 2 3 4 5 6 
#
# 1 0.018877 -0.014556 0.000328 0.000000 0.010061 0.000000
# 2 -0.014556 0.033363 -0.007713 0.000000 -0.012459 0.000000
# 3 0.000328 -0.007713 0.017108 0.000000 0.002319 0.000000
# 4 0.000000 0.000000 0.000000 0.043030 0.000000 -0.006381
# 5 0.010061 -0.012459 0.002319 0.000000 0.037776 0.000000
# 6 0.000000 0.000000 0.000000 -0.006381 0.000000 0.030195
#
#
# Mechanical properties :
#
#
# Convention : Reuss Voigt Hill
#
# Bulk Modulus (GPa) = 39.26586 40.79374 40.02980
# Shear Modulus (GPa) = 21.48515 26.89198 24.18857
#
# Velocity S-wave (km/s) = 3.44546 3.85469 3.65580
# Velocity P-wave (km/s) = 6.12567 6.50779 6.31962
#
# Compressibility (1/GPa) = 0.02546742
#
# Stress axis : x y z
#
# Youngs Moduli (GPa) = 52.97361 29.97345 58.45165
#
# Poissons Ratio (x) = 0.43629 -0.01916
# Poissons Ratio (y) = 0.77107 0.45081
# Poissons Ratio (z) = -0.01736 0.23117
#
# Static dielectric constant tensor:
#      x y z
#    x 3.299250 0.000000 -0.166060 
#    y 0.000000 3.329950 0.000000 
#    z -0.166060 0.000000 3.445930 
# 
# 
# High freq. dielectric constant tensor:
#      x y z
#    x 1.700400 0.000000 -0.009410 
#    y 0.000000 1.699300 0.000000 
#    z -0.009410 0.000000 1.709270 
# 
# From -- ./inp_files/94516.got.cif
#   From: 2010.06.25/outbox.cif.g09.slc.cpg/sg12_48_cif.got.tgz:94516.got - 2010.06.28 00:19:55.
