data_PCOD8100320
_publ_section_title
;
Structure prediction by ZEFSAII (Michael W. Deem and Ramdas Pophale) SiO2 
 PCOD8100320
Probable space group: C 2/M
;
_chemical_formula_sum "Si O2"
_cell_formula_units_Z 56
_cell_length_a 20.478111
_cell_length_b 8.819605
_cell_length_c 27.808723
_cell_angle_alpha 90.000000
_cell_angle_beta 145.274353
_cell_angle_gamma 90.000000
_cell_volume 2861.055306
_symmetry_space_group_name_H-M "C 2/M"
_symmetry_group_IT_number 12
_symmetry_cell_setting 'monoclinic'
loop_
_space_group_symop_operation_xyz
x,y,z
-x,y,-z
-x,-y,-z
x,-y,z
1/2+x,1/2+y,z
1/2-x,1/2+y,-z
1/2-x,1/2-y,-z
1/2+x,1/2-y,z
loop_
_atom_site_type_symbol
_atom_site_label
_atom_site_fract_x
_atom_site_fract_y
_atom_site_fract_z
Si Si1 0.475257 0.679453 0.247544
Si Si2 0.420388 0.822394 0.314860
Si Si3 0.477186 0.179731 0.038726
Si Si4 0.573779 0.177290 0.498840
Si Si5 0.802407 0.321803 0.664280
Si Si6 0.745550 0.320140 0.945216
Si Si7 0.796711 0.321946 0.771309
O O1 0.477451 0.500000 0.252356
O O2 0.470029 0.744469 0.297764
O O3 0.588475 0.736010 0.289975
O O4 0.366422 0.736496 0.150973
O O5 0.504890 0.780837 0.409421
O O6 0.294256 0.763179 0.250604
O O7 0.413966 0.000000 0.302092
O O8 0.577445 0.229926 0.135653
O O9 0.471271 0.000000 0.031754
O O10 0.500000 0.249854 0.000000
O O11 0.356251 0.242957 0.984069
O O12 0.500000 0.230412 0.500000
O O13 0.691031 0.271373 0.567264
O O14 0.603065 0.000000 0.520155
O O15 0.822760 0.500000 0.671177
O O16 0.783239 0.273647 0.707912
O O17 0.747727 0.500000 0.951162
O O18 0.750000 0.250000 0.000000
O O19 0.777728 0.500000 0.767275
#
# Coordination Sequence:
#
# PCOD8100320 Si02
#       7
#     8   8   8   8   8   8   8
#     4  11  24  41  61  87 122 162 201 244 299 358
#     4  11  23  39  62  88 119 157 196 247 302 354
#     4   9  17  32  55  81 111 148 191 235 281 338
#     4  10  21  40  63  88 119 155 196 245 301 358
#     4  11  23  38  61  90 120 155 199 249 295 353
#     4  10  21  38  61  86 116 157 199 243 294 348
#     4  10  20  35  58  87 117 152 195 243 293 352
#
# _framework density 19.573197
#
# number of rings (size 3 to 8) (size 9 to 14) (size 15 to 20)
#    0.000    1.714    1.429    3.000    0.000    7.143 
#    0.000    0.714    0.000    1.714    0.000    0.000 
#    0.000    0.000    0.000    0.000    0.000    0.000 
#
# Total GULP energy -347334.894323 kJ/mol
# GULP energy per Si atom -12404.817654 kJ/mol
# Density = 1.952865 g / cm^3
# Si number density = 19.573197 Si / 1000 Ang^3
#
#
#
# Elastic Constant Matrix: (Units=GPa)
#
#
# Indices 1 2 3 4 5 6 
#
# 1 102.3400 27.0908 43.8971 0.0000 0.2173 0.0000
# 2 27.0908 45.6652 35.1527 0.0000 -3.1974 0.0001
# 3 43.8971 35.1527 129.6627 0.0001 7.1164 0.0000
# 4 0.0000 0.0000 0.0001 24.4173 0.0000 -0.0687
# 5 0.2173 -3.1974 7.1164 0.0000 39.2552 0.0000
# 6 0.0000 0.0001 0.0000 -0.0687 0.0000 35.8690
#
#
#
# Elastic Compliance Matrix: (Units=1/GPa)
#
#
# Indices 1 2 3 4 5 6 
#
# 1 0.012331 -0.005182 -0.002771 0.000000 0.000012 0.000000
# 2 -0.005182 0.030379 -0.006686 0.000000 0.003715 0.000000
# 3 -0.002771 -0.006686 0.010597 0.000000 -0.002450 0.000000
# 4 0.000000 0.000000 0.000000 0.040955 0.000000 0.000078
# 5 0.000012 0.003715 -0.002450 0.000000 0.026221 0.000000
# 6 0.000000 0.000000 0.000000 0.000078 0.000000 0.027879
#
#
# Mechanical properties :
#
#
# Convention : Reuss Voigt Hill
#
# Bulk Modulus (GPa) = 41.61167 54.43877 48.02522
# Shear Modulus (GPa) = 26.93233 31.34346 29.13789
#
# Velocity S-wave (km/s) = 3.71344 4.00602 3.86251
# Velocity P-wave (km/s) = 6.30015 7.01933 6.66944
#
# Compressibility (1/GPa) = 0.02403172
#
# Stress axis : x y z
#
# Youngs Moduli (GPa) = 81.09339 32.91702 94.36351
#
# Poissons Ratio (x) = 0.17058 0.26144
# Poissons Ratio (y) = 0.42023 0.63088
# Poissons Ratio (z) = 0.22467 0.22007
#
# Static dielectric constant tensor:
#      x y z
#    x 4.067530 0.000000 0.306700 
#    y 0.000000 3.381640 0.000000 
#    z 0.306700 0.000000 3.990610 
# 
# 
# High freq. dielectric constant tensor:
#      x y z
#    x 1.774110 0.000000 0.001130 
#    y 0.000000 1.746550 0.000000 
#    z 0.001130 0.000000 1.779350 
# 
# From -- ./inp_files/363200.got.cif
#   From: 2010.06.25/outbox.cif.g09.slc.cpg/sg12_182_cif.got.tgz:363200.got - 2010.06.28 00:19:55.
