data_PCOD8100695
_publ_section_title
;
Structure prediction by ZEFSAII (Michael W. Deem and Ramdas Pophale) SiO2 
 PCOD8100695
Probable space group: C 2/M
;
_chemical_formula_sum "Si O2"
_cell_formula_units_Z 56
_cell_length_a 21.644401
_cell_length_b 12.616313
_cell_length_c 18.809110
_cell_angle_alpha 90.000000
_cell_angle_beta 146.605117
_cell_angle_gamma 90.000000
_cell_volume 2827.024507
_symmetry_space_group_name_H-M "C 2/M"
_symmetry_group_IT_number 12
_symmetry_cell_setting 'monoclinic'
loop_
_space_group_symop_operation_xyz
x,y,z
-x,y,-z
-x,-y,-z
x,-y,z
1/2+x,1/2+y,z
1/2-x,1/2+y,-z
1/2-x,1/2-y,-z
1/2+x,1/2-y,z
loop_
_atom_site_type_symbol
_atom_site_label
_atom_site_fract_x
_atom_site_fract_y
_atom_site_fract_z
Si Si1 0.809744 0.379362 0.627972
Si Si2 0.310009 0.378945 0.799413
Si Si3 0.537257 0.799046 0.109857
Si Si4 0.355749 0.377090 0.137018
Si Si5 0.427775 0.120982 0.496330
Si Si6 0.415950 0.730851 0.612345
Si Si7 0.190187 0.773086 0.051431
O O1 0.815985 0.500000 0.606421
O O2 0.870033 0.371310 0.762576
O O3 0.680658 0.345249 0.511348
O O4 0.872527 0.301935 0.634905
O O5 0.348778 0.500000 0.844228
O O6 0.411495 0.315991 0.860496
O O7 0.203834 0.368781 0.645752
O O8 0.277960 0.334053 0.845984
O O9 0.500000 0.855273 0.000000
O O10 0.430997 0.782891 0.058964
O O11 0.345225 0.500000 0.144113
O O12 0.484906 0.342851 0.264800
O O13 0.282741 0.316770 0.126157
O O14 0.309062 0.355047 0.013223
O O15 0.500000 0.163623 0.500000
O O16 0.461644 0.191728 0.595581
O O17 0.461164 0.000000 0.545611
#
# Coordination Sequence:
#
# PCOD8100695 Si02
#       7
#     8   8   8   8   8   8   8
#     4  11  23  40  62  89 122 162 202 248 306 358
#     4  10  20  37  63  90 120 155 198 253 306 349
#     4  10  21  40  62  88 120 154 203 256 297 357
#     4  11  23  40  63  88 121 163 199 243 304 360
#     4  10  20  35  61  91 121 158 196 246 303 353
#     4  11  22  41  61  90 123 158 200 255 290 369
#     4  10  22  40  59  90 121 152 199 255 295 362
#
# _framework density 19.808813000000001
#
# number of rings (size 3 to 8) (size 9 to 14) (size 15 to 20)
#    0.000    1.571    2.857    2.143    0.000    4.000 
#    0.000    3.571    0.000    1.714    0.000    0.000 
#    0.000    0.000    0.000    0.000    0.000    0.000 
#
# Total GULP energy -347320.180407 kJ/mol
# GULP energy per Si atom -12404.292157 kJ/mol
# Density = 1.976373 g / cm^3
# Si number density = 19.808813 Si / 1000 Ang^3
#
#
#
# Elastic Constant Matrix: (Units=GPa)
#
#
# Indices 1 2 3 4 5 6 
#
# 1 82.6791 28.7071 18.2655 0.0000 9.5626 0.0000
# 2 28.7071 104.5589 44.2655 0.0000 3.5557 0.0000
# 3 18.2655 44.2655 76.8675 0.0000 0.6781 0.0000
# 4 0.0000 0.0000 0.0000 0.9974 0.0000 11.9163
# 5 9.5626 3.5557 0.6781 0.0000 35.5972 0.0000
# 6 0.0000 0.0000 0.0000 11.9163 0.0000 22.2747
#
#
#
# Elastic Compliance Matrix: (Units=1/GPa)
#
#
# Indices 1 2 3 4 5 6 
#
# 1 0.013882 -0.003058 -0.001508 0.000000 -0.003395 0.000000
# 2 -0.003058 0.013366 -0.006967 0.000000 -0.000381 0.000000
# 3 -0.001508 -0.006967 0.017373 0.000000 0.000770 0.000000
# 4 0.000000 0.000000 0.000000 -0.185961 0.000000 0.099484
# 5 -0.003395 -0.000381 0.000770 0.000000 0.029028 0.000000
# 6 0.000000 0.000000 0.000000 0.099484 0.000000 -0.008327
#
#
# Mechanical properties :
#
#
# Convention : Reuss Voigt Hill
#
# Bulk Modulus (GPa) = 46.39089 49.62020 48.00555
# Shear Modulus (GPa) = -55.31707 23.29836 -16.00936
#
# Velocity S-wave (km/s) = -5.29019 3.43324 -2.84596
# Velocity P-wave (km/s) = 3.72084 6.38906 3.67257
#
# Compressibility (1/GPa) = 0.02155595
#
# Stress axis : x y z
#
# Youngs Moduli (GPa) = 72.03350 74.81678 57.56025
#
# Poissons Ratio (x) = 0.22876 0.08680
# Poissons Ratio (y) = 0.22025 0.40103
# Poissons Ratio (z) = 0.10863 0.52126
#
# Static dielectric constant tensor:
#      x y z
#    x 3.555820 0.000000 -0.027100 
#    y 0.000000 3.414370 0.000000 
#    z -0.027100 0.000000 3.770210 
# 
# 
# High freq. dielectric constant tensor:
#      x y z
#    x 1.774230 0.000000 0.001150 
#    y 0.000000 1.759460 0.000000 
#    z 0.001150 0.000000 1.786750 
# 
# From -- ./inp_files/325175.got.cif
#   From: 2010.06.25/outbox.cif.g09.slc.cpg/sg12_163_cif.got.tgz:325175.got - 2010.06.28 00:19:55.
