data_PCOD8100051
_publ_section_title
;
Structure prediction by ZEFSAII (Michael W. Deem and Ramdas Pophale) SiO2 
 PCOD8100051
Probable space group: C 2/M
;
_chemical_formula_sum "Si O2"
_cell_formula_units_Z 64
_cell_length_a 11.253671
_cell_length_b 17.398970
_cell_length_c 31.136271
_cell_angle_alpha 90.000000
_cell_angle_beta 147.028124
_cell_angle_gamma 90.000000
_cell_volume 3317.910584
_symmetry_space_group_name_H-M "C 2/M"
_symmetry_group_IT_number 12
_symmetry_cell_setting 'monoclinic'
loop_
_space_group_symop_operation_xyz
x,y,z
-x,y,-z
-x,-y,-z
x,-y,z
1/2+x,1/2+y,z
1/2-x,1/2+y,-z
1/2-x,1/2-y,-z
1/2+x,1/2-y,z
loop_
_atom_site_type_symbol
_atom_site_label
_atom_site_fract_x
_atom_site_fract_y
_atom_site_fract_z
Si Si1 0.796876 0.913859 0.046310
Si Si2 0.528078 0.091013 0.174709
Si Si3 0.012582 0.913599 0.345926
Si Si4 0.978945 0.912015 0.191029
Si Si5 0.812223 0.585334 0.357963
Si Si6 0.403009 0.340926 0.924905
Si Si7 0.420253 0.825195 0.897317
Si Si8 0.349486 0.807682 0.495240
O O1 0.962719 0.895548 0.135614
O O2 0.936394 0.905152 0.045442
O O3 0.703562 0.000000 0.020862
O O4 0.589477 0.857024 0.984443
O O5 0.336363 0.121070 0.147485
O O6 0.500887 0.143333 0.124455
O O7 0.756838 0.107948 0.267892
O O8 0.505116 0.000000 0.157003
O O9 0.100741 0.908310 0.324302
O O10 0.144090 0.855143 0.415667
O O11 0.045583 0.000000 0.374008
O O12 0.819956 0.855262 0.167388
O O13 0.223813 0.895115 0.283081
O O14 0.915380 0.000000 0.182874
O O15 0.911980 0.500000 0.389891
O O16 0.001967 0.640472 0.429752
O O17 0.413086 0.266999 0.896617
O O18 0.500000 0.316416 0.000000
O O19 0.500000 0.776441 0.500000
O O20 0.250000 0.750000 0.500000
#
# Coordination Sequence:
#
# PCOD8100051 Si02
#       8
#     8   8   8   8   8   8   8   8
#     4  11  23  39  59  81 113 160 206 246 297 359
#     4  11  23  41  64  87 115 158 205 246 295 360
#     4   9  18  37  63  89 115 152 203 247 283 344
#     4  10  20  35  57  86 115 144 193 250 298 352
#     4   9  17  34  61  89 113 148 195 246 289 339
#     4  12  26  39  57  82 122 157 202 250 309 360
#     4  12  23  37  59  83 114 153 198 251 302 351
#     4  10  21  38  60  91 125 156 192 242 303 365
#
# _framework density 19.289249000000002
#
# number of rings (size 3 to 8) (size 9 to 14) (size 15 to 20)
#    0.000    1.500    2.500    3.375    1.750    4.000 
#    0.000    0.000    0.000    3.000    0.000    0.000 
#    0.000    0.000    0.000    0.000    0.000    0.000 
#
# Total GULP energy -396649.156600 kJ/mol
# GULP energy per Si atom -12395.286144 kJ/mol
# Density = 1.924535 g / cm^3
# Si number density = 19.289249 Si / 1000 Ang^3
#
#
#
# Elastic Constant Matrix: (Units=GPa)
#
#
# Indices 1 2 3 4 5 6 
#
# 1 66.0953 37.2036 35.1931 0.0002 5.5435 0.0000
# 2 37.2036 85.9096 54.7254 0.0007 1.0790 -0.0001
# 3 35.1931 54.7254 129.0424 0.0030 3.4584 -0.0002
# 4 0.0002 0.0007 0.0030 2.8666 0.0005 2.7413
# 5 5.5435 1.0790 3.4584 0.0005 30.2773 0.0000
# 6 0.0000 -0.0001 -0.0002 2.7413 0.0000 30.4660
#
#
#
# Elastic Compliance Matrix: (Units=1/GPa)
#
#
# Indices 1 2 3 4 5 6 
#
# 1 0.020904 -0.007448 -0.002455 0.000004 -0.003282 0.000000
# 2 -0.007448 0.018603 -0.005895 0.000002 0.001374 0.000000
# 3 -0.002455 -0.005895 0.010935 -0.000010 -0.000590 0.000001
# 4 0.000004 0.000002 -0.000010 0.381690 -0.000006 -0.034344
# 5 -0.003282 0.001374 -0.000590 -0.000006 0.033647 0.000001
# 6 0.000000 0.000000 0.000001 -0.034344 0.000001 0.035914
#
#
# Mechanical properties :
#
#
# Convention : Reuss Voigt Hill
#
# Bulk Modulus (GPa) = 53.05842 59.47686 56.26764
# Shear Modulus (GPa) = 9.26663 22.98366 16.12514
#
# Velocity S-wave (km/s) = 2.19419 3.45559 2.89444
# Velocity P-wave (km/s) = 5.82973 6.84271 6.35643
#
# Compressibility (1/GPa) = 0.01884715
#
# Stress axis : x y z
#
# Youngs Moduli (GPa) = 47.83756 53.75341 91.45210
#
# Poissons Ratio (x) = 0.40035 0.22448
# Poissons Ratio (y) = 0.35628 0.53912
# Poissons Ratio (z) = 0.11742 0.31688
#
# Static dielectric constant tensor:
#      x y z
#    x 3.452850 0.000000 -0.032780 
#    y 0.000000 3.503490 0.000000 
#    z -0.032780 0.000000 3.642790 
# 
# 
# High freq. dielectric constant tensor:
#      x y z
#    x 1.731360 0.000000 0.001300 
#    y 0.000000 1.746680 0.000000 
#    z 0.001300 0.000000 1.759370 
# 
# From -- ./inp_files/358397.got.cif
#   From: 2010.06.25/outbox.cif.g09.slc.cpg/sg12_180_cif.got.tgz:358397.got - 2010.06.28 00:19:55.
