data_PCOD8100209
_publ_section_title
;
Structure prediction by ZEFSAII (Michael W. Deem and Ramdas Pophale) SiO2 
 PCOD8100209
Probable space group: C 2/M
;
_chemical_formula_sum "Si O2"
_cell_formula_units_Z 64
_cell_length_a 23.931637
_cell_length_b 8.789718
_cell_length_c 21.908678
_cell_angle_alpha 90.000000
_cell_angle_beta 46.474997
_cell_angle_gamma 90.000000
_cell_volume 3341.533367
_symmetry_space_group_name_H-M "C 2/M"
_symmetry_group_IT_number 12
_symmetry_cell_setting 'monoclinic'
loop_
_space_group_symop_operation_xyz
x,y,z
-x,y,-z
-x,-y,-z
x,-y,z
1/2+x,1/2+y,z
1/2-x,1/2+y,-z
1/2-x,1/2-y,-z
1/2+x,1/2-y,z
loop_
_atom_site_type_symbol
_atom_site_label
_atom_site_fract_x
_atom_site_fract_y
_atom_site_fract_z
Si Si1 0.473463 0.823882 0.231210
Si Si2 0.218671 0.177757 0.251601
Si Si3 0.748809 0.179863 0.906613
Si Si4 0.553961 0.675347 0.407310
Si Si5 0.687702 0.174403 0.703541
Si Si6 0.289651 0.178525 0.528527
Si Si7 0.057861 0.175369 0.616556
Si Si8 0.132150 0.821265 0.080712
O O1 0.402565 0.794678 0.238433
O O2 0.450353 0.769488 0.315612
O O3 0.544601 0.730950 0.151481
O O4 0.495732 0.000000 0.217780
O O5 0.238106 0.248787 0.170864
O O6 0.139570 0.249490 0.339252
O O7 0.290609 0.207429 0.242400
O O8 0.203029 0.000000 0.253398
O O9 0.821154 0.229996 0.893978
O O10 0.739089 0.000000 0.912583
O O11 0.670000 0.248266 0.992347
O O12 0.500000 0.754554 0.500000
O O13 0.562508 0.500000 0.419999
O O14 0.518117 0.693084 0.367018
O O15 0.737457 0.289500 0.626127
O O16 0.708138 0.000000 0.670365
O O17 0.250000 0.250000 0.500000
O O18 0.372048 0.258013 0.475839
O O19 0.300496 0.000000 0.510856
O O20 0.073572 0.000000 0.621458
O O21 0.134287 0.000000 0.071435
#
# Coordination Sequence:
#
# PCOD8100209 Si02
#       8
#     8   8   8   8   8   8   8   8
#     4  11  22  35  53  80 112 143 180 227 276 328
#     4   9  17  33  57  82 109 144 188 231 271 325
#     4   9  18  35  59  85 110 140 181 228 276 331
#     4   9  17  30  52  82 111 141 181 226 271 321
#     4  10  21  37  57  80 108 146 189 231 273 322
#     4  12  23  36  54  77 108 147 188 231 276 325
#     4  11  21  34  56  82 109 143 183 230 281 330
#     4  10  20  35  58  85 112 140 176 225 282 338
#
# _framework density 19.152882999999999
#
# number of rings (size 3 to 8) (size 9 to 14) (size 15 to 20)
#    0.000    1.875    1.250    3.750    0.000    5.000 
#    0.000    1.250    0.000   12.000    0.000    0.000 
#    0.000    0.000    0.000    0.000    0.000    0.000 
#
# Total GULP energy -396841.709763 kJ/mol
# GULP energy per Si atom -12401.303430 kJ/mol
# Density = 1.910929 g / cm^3
# Si number density = 19.152883 Si / 1000 Ang^3
#
#
#
# Elastic Constant Matrix: (Units=GPa)
#
#
# Indices 1 2 3 4 5 6 
#
# 1 100.4132 12.5343 51.6514 0.0005 0.5170 -0.0003
# 2 12.5343 18.6820 2.4925 0.0009 2.7914 -0.0013
# 3 51.6514 2.4925 120.5658 0.0002 5.0872 0.0000
# 4 0.0005 0.0009 0.0002 26.2591 -0.0001 -4.0690
# 5 0.5170 2.7914 5.0872 -0.0001 33.3269 0.0001
# 6 -0.0003 -0.0013 0.0000 -4.0690 0.0001 21.2692
#
#
#
# Elastic Compliance Matrix: (Units=1/GPa)
#
#
# Indices 1 2 3 4 5 6 
#
# 1 0.014106 -0.008888 -0.005920 0.000000 0.001429 0.000000
# 2 -0.008888 0.059911 0.002793 -0.000001 -0.005306 0.000003
# 3 -0.005920 0.002793 0.010848 0.000000 -0.001798 0.000000
# 4 0.000000 -0.000001 0.000000 0.039245 0.000000 0.007508
# 5 0.001429 -0.005306 -0.001798 0.000000 0.030703 0.000000
# 6 0.000000 0.000003 0.000000 0.007508 0.000000 0.048453
#
#
# Mechanical properties :
#
#
# Convention : Reuss Voigt Hill
#
# Bulk Modulus (GPa) = 16.43765 41.44639 28.94202
# Shear Modulus (GPa) = 20.19602 27.70323 23.94962
#
# Velocity S-wave (km/s) = 3.25077 3.80732 3.54000
# Velocity P-wave (km/s) = 4.76351 6.40424 5.64382
#
# Compressibility (1/GPa) = 0.06083594
#
# Stress axis : x y z
#
# Youngs Moduli (GPa) = 70.89208 16.69150 92.17960
#
# Poissons Ratio (x) = 0.14835 0.54567
# Poissons Ratio (y) = 0.63008 -0.25745
# Poissons Ratio (z) = 0.41966 -0.04662
#
# Static dielectric constant tensor:
#      x y z
#    x 3.610830 0.000000 0.017120 
#    y 0.000000 3.315910 0.000000 
#    z 0.017120 0.000000 3.823470 
# 
# 
# High freq. dielectric constant tensor:
#      x y z
#    x 1.748690 0.000000 -0.004600 
#    y 0.000000 1.720910 0.000000 
#    z -0.004600 0.000000 1.743940 
# 
# From -- ./inp_files/324082.got.cif
#   From: 2010.06.25/outbox.cif.g09.slc.cpg/sg12_163_cif.got.tgz:324082.got - 2010.06.28 00:19:55.
