data_PCOD8100879
_publ_section_title
;
Structure prediction by ZEFSAII (Michael W. Deem and Ramdas Pophale) SiO2 
 PCOD8100879
Probable space group: C 2/M
;
_chemical_formula_sum "Si O2"
_cell_formula_units_Z 40
_cell_length_a 9.201802
_cell_length_b 28.255933
_cell_length_c 9.852163
_cell_angle_alpha 90.000000
_cell_angle_beta 122.175070
_cell_angle_gamma 90.000000
_cell_volume 2168.216171
_symmetry_space_group_name_H-M "C 2/M"
_symmetry_group_IT_number 12
_symmetry_cell_setting 'monoclinic'
loop_
_space_group_symop_operation_xyz
x,y,z
-x,y,-z
-x,-y,-z
x,-y,z
1/2+x,1/2+y,z
1/2-x,1/2+y,-z
1/2-x,1/2-y,-z
1/2+x,1/2-y,z
loop_
_atom_site_type_symbol
_atom_site_label
_atom_site_fract_x
_atom_site_fract_y
_atom_site_fract_z
Si Si1 0.860520 0.607264 0.320963
Si Si2 0.267554 0.789727 0.196828
Si Si3 0.419455 0.295473 0.164026
Si Si4 0.483807 0.604677 0.150164
Si Si5 0.637120 0.055081 0.953334
O O1 0.858242 0.664255 0.306010
O O2 0.675611 0.586071 0.279861
O O3 0.913413 0.584432 0.204422
O O4 0.000000 0.591774 0.500000
O O5 0.380714 0.741510 0.266381
O O6 0.093508 0.776985 0.185066
O O7 0.237502 0.798001 0.021474
O O8 0.442527 0.349902 0.224731
O O9 0.500000 0.622591 0.000000
O O10 0.334596 0.566038 0.096789
O O11 0.625996 0.000000 0.914062
O O12 0.500000 0.069386 0.000000
#
# Coordination Sequence:
#
# PCOD8100879 Si02
#       5
#     8   8   8   8   8
#     4  10  20  36  55  79 112 144 176 217 267 320
#     4   9  16  27  45  74 103 133 176 218 251 297
#     4   9  14  27  46  71  99 134 177 217 248 299
#     4   9  16  34  52  76 106 141 182 218 255 312
#     4  10  21  37  58  83 105 130 178 231 268 314
#
# _framework density 18.448343999999999
#
# number of rings (size 3 to 8) (size 9 to 14) (size 15 to 20)
#    0.000    2.600    6.000    0.000    0.000    5.600 
#    0.000    5.000    0.000    2.400    0.000    0.000 
#    0.000    0.000    0.000    0.000    0.000    0.000 
#
# Total GULP energy -247800.930425 kJ/mol
# GULP energy per Si atom -12390.046521 kJ/mol
# Density = 1.840635 g / cm^3
# Si number density = 18.448344 Si / 1000 Ang^3
#
#
#
# Elastic Constant Matrix: (Units=GPa)
#
#
# Indices 1 2 3 4 5 6 
#
# 1 92.6034 46.0035 47.6182 0.0000 15.7637 0.0000
# 2 46.0035 71.5160 23.3102 0.0000 1.6273 0.0000
# 3 47.6182 23.3102 85.6118 0.0000 21.6339 0.0000
# 4 0.0000 0.0000 0.0000 10.7527 0.0000 1.4488
# 5 15.7637 1.6273 21.6339 0.0000 18.1595 0.0000
# 6 0.0000 0.0000 0.0000 1.4488 0.0000 35.9743
#
#
#
# Elastic Compliance Matrix: (Units=1/GPa)
#
#
# Indices 1 2 3 4 5 6 
#
# 1 0.021472 -0.011552 -0.006222 0.000000 -0.010191 0.000000
# 2 -0.011552 0.021905 -0.002256 0.000000 0.010753 0.000000
# 3 -0.006222 -0.002256 0.020516 0.000000 -0.018838 0.000000
# 4 0.000000 0.000000 0.000000 0.093507 0.000000 -0.003766
# 5 -0.010191 0.010753 -0.018838 0.000000 0.085393 0.000000
# 6 0.000000 0.000000 0.000000 -0.003766 0.000000 0.027949
#
#
# Mechanical properties :
#
#
# Convention : Reuss Voigt Hill
#
# Bulk Modulus (GPa) = 41.96036 53.73278 47.84657
# Shear Modulus (GPa) = 15.68645 21.83059 18.75852
#
# Velocity S-wave (km/s) = 2.91914 3.44370 3.19221
# Velocity P-wave (km/s) = 5.84431 6.70831 6.29116
#
# Compressibility (1/GPa) = 0.02383201
#
# Stress axis : x y z
#
# Youngs Moduli (GPa) = 46.57212 45.65262 48.74243
#
# Poissons Ratio (x) = 0.52739 0.30329
# Poissons Ratio (y) = 0.53801 0.10996
# Poissons Ratio (z) = 0.28979 0.10299
#
# Static dielectric constant tensor:
#      x y z
#    x 3.481610 0.000000 0.249930 
#    y 0.000000 3.373510 0.000000 
#    z 0.249930 0.000000 2.998250 
# 
# 
# High freq. dielectric constant tensor:
#      x y z
#    x 1.711810 0.000000 0.025060 
#    y 0.000000 1.715030 0.000000 
#    z 0.025060 0.000000 1.663750 
# 
# From -- ./inp_files/40528.got.cif
#   From: 2010.06.25/outbox.cif.g09.slc.cpg/sg12_21_cif.got.tgz:40528.got - 2010.06.28 00:19:55.
