data_PCOD8100997
_publ_section_title
;
Structure prediction by ZEFSAII (Michael W. Deem and Ramdas Pophale) SiO2 
 PCOD8100997
Probable space group: C 2/M
;
_chemical_formula_sum "Si O2"
_cell_formula_units_Z 48
_cell_length_a 12.538827
_cell_length_b 22.869766
_cell_length_c 8.469148
_cell_angle_alpha 90.000000
_cell_angle_beta 81.849657
_cell_angle_gamma 90.000000
_cell_volume 2404.082940
_symmetry_space_group_name_H-M "C 2/M"
_symmetry_group_IT_number 12
_symmetry_cell_setting 'monoclinic'
loop_
_space_group_symop_operation_xyz
x,y,z
-x,y,-z
-x,-y,-z
x,-y,z
1/2+x,1/2+y,z
1/2-x,1/2+y,-z
1/2-x,1/2-y,-z
1/2+x,1/2-y,z
loop_
_atom_site_type_symbol
_atom_site_label
_atom_site_fract_x
_atom_site_fract_y
_atom_site_fract_z
Si Si1 0.606616 0.749806 0.381553
Si Si2 0.126255 0.132014 0.521010
Si Si3 0.103241 0.825203 0.081256
Si Si4 0.755590 0.651563 0.783601
Si Si5 0.885780 0.566684 0.965945
Si Si6 0.809856 0.934382 0.771347
O O1 0.500000 0.768660 0.500000
O O2 0.665327 0.697192 0.462572
O O3 0.584375 0.726772 0.208928
O O4 0.681726 0.805937 0.348358
O O5 0.156735 0.123956 0.699770
O O6 0.193564 0.082708 0.412868
O O7 0.000000 0.126114 0.500000
O O8 0.110917 0.888578 0.161504
O O9 0.206716 0.814656 0.945868
O O10 0.000000 0.826885 0.000000
O O11 0.837507 0.601975 0.827824
O O12 0.899975 0.500000 0.905366
O O13 0.809367 0.570672 0.134174
O O14 0.000000 0.592991 0.000000
O O15 0.855735 0.000000 0.783335
#
# Coordination Sequence:
#
# PCOD8100997 Si02
#       6
#     8   8   8   8   8   8
#     4  10  21  36  54  80 114 146 181 228 278 324
#     4  10  21  37  54  79 116 146 174 225 280 321
#     4  10  20  36  56  80 112 147 183 227 276 322
#     4  11  21  35  60  84 106 146 192 223 267 335
#     4   9  20  39  58  79 110 143 181 232 277 316
#     4   9  19  35  55  79 109 146 182 220 272 329
#
# _framework density 19.966034000000001
#
# number of rings (size 3 to 8) (size 9 to 14) (size 15 to 20)
#    0.000    2.167    0.000    4.000    0.000    3.333 
#    0.000    8.333    0.000    3.500    0.000    0.000 
#    0.000    0.000    0.000    0.000    0.000    0.000 
#
# Total GULP energy -297437.876985 kJ/mol
# GULP energy per Si atom -12393.244874 kJ/mol
# Density = 1.992059 g / cm^3
# Si number density = 19.966034 Si / 1000 Ang^3
#
#
#
# Elastic Constant Matrix: (Units=GPa)
#
#
# Indices 1 2 3 4 5 6 
#
# 1 109.2616 45.2908 54.3521 0.0000 18.3867 0.0000
# 2 45.2908 67.2445 29.4754 0.0000 -1.8850 0.0000
# 3 54.3521 29.4754 118.3453 0.0000 5.1021 0.0000
# 4 0.0000 0.0000 0.0000 13.9701 0.0000 -10.5807
# 5 18.3867 -1.8850 5.1021 0.0000 34.4149 0.0000
# 6 0.0000 0.0000 0.0000 -10.5807 0.0000 19.9403
#
#
#
# Elastic Compliance Matrix: (Units=1/GPa)
#
#
# Indices 1 2 3 4 5 6 
#
# 1 0.017169 -0.009572 -0.005116 0.000000 -0.008939 0.000000
# 2 -0.009572 0.022112 -0.001393 0.000000 0.006532 0.000000
# 3 -0.005116 -0.001393 0.011103 0.000000 0.001011 0.000000
# 4 0.000000 0.000000 0.000000 0.119677 0.000000 0.063503
# 5 -0.008939 0.006532 0.001011 0.000000 0.034041 0.000000
# 6 0.000000 0.000000 0.000000 0.063503 0.000000 0.083845
#
#
# Mechanical properties :
#
#
# Convention : Reuss Voigt Hill
#
# Bulk Modulus (GPa) = 54.87736 61.45423 58.16580
# Shear Modulus (GPa) = 15.32886 24.71393 20.02139
#
# Velocity S-wave (km/s) = 2.77383 3.52205 3.17009
# Velocity P-wave (km/s) = 6.14849 6.88375 6.52648
#
# Compressibility (1/GPa) = 0.01822245
#
# Stress axis : x y z
#
# Youngs Moduli (GPa) = 58.24372 45.22511 90.06838
#
# Poissons Ratio (x) = 0.43290 0.46078
# Poissons Ratio (y) = 0.55751 0.12543
# Poissons Ratio (z) = 0.29797 0.06298
#
# Static dielectric constant tensor:
#      x y z
#    x 3.498530 0.000000 -0.162000 
#    y 0.000000 3.662110 0.000000 
#    z -0.162000 0.000000 4.053200 
# 
# 
# High freq. dielectric constant tensor:
#      x y z
#    x 1.770490 0.000000 -0.006660 
#    y 0.000000 1.763230 0.000000 
#    z -0.006660 0.000000 1.790380 
# 
# From -- ./inp_files/50628.got.cif
#   From: 2010.06.25/outbox.cif.g09.slc.cpg/sg12_26_cif.got.tgz:50628.got - 2010.06.28 00:19:55.
