data_PCOD8100302
_publ_section_title
;
Structure prediction by ZEFSAII (Michael W. Deem and Ramdas Pophale) SiO2 
 PCOD8100302
Probable space group: C 2/M
;
_chemical_formula_sum "Si O2"
_cell_formula_units_Z 64
_cell_length_a 23.916601
_cell_length_b 8.827968
_cell_length_c 28.821591
_cell_angle_alpha 90.000000
_cell_angle_beta 147.514521
_cell_angle_gamma 90.000000
_cell_volume 3268.299625
_symmetry_space_group_name_H-M "C 2/M"
_symmetry_group_IT_number 12
_symmetry_cell_setting 'monoclinic'
loop_
_space_group_symop_operation_xyz
x,y,z
-x,y,-z
-x,-y,-z
x,-y,z
1/2+x,1/2+y,z
1/2-x,1/2+y,-z
1/2-x,1/2-y,-z
1/2+x,1/2-y,z
loop_
_atom_site_type_symbol
_atom_site_label
_atom_site_fract_x
_atom_site_fract_y
_atom_site_fract_z
Si Si1 0.097943 0.680222 0.596815
Si Si2 0.900993 0.678124 0.902183
Si Si3 0.463450 0.678006 0.852619
Si Si4 0.281750 0.678779 0.662745
Si Si5 0.802907 0.678538 0.492964
Si Si6 0.543985 0.821369 0.660444
Si Si7 0.699149 0.680194 0.009672
Si Si8 0.785958 0.821513 0.162239
O O1 0.093174 0.500000 0.592914
O O2 0.201858 0.743984 0.645261
O O3 0.093618 0.735804 0.646831
O O4 0.000000 0.746013 0.500000
O O5 0.907691 0.500000 0.899900
O O6 0.901142 0.753458 0.852128
O O7 0.798044 0.727038 0.857842
O O8 0.000000 0.738918 0.000000
O O9 0.465525 0.500000 0.861680
O O10 0.398974 0.721031 0.760784
O O11 0.580355 0.741317 0.929962
O O12 0.265385 0.500000 0.649087
O O13 0.255169 0.745279 0.593413
O O14 0.789621 0.500000 0.486234
O O15 0.750000 0.750000 0.500000
O O16 0.923415 0.724567 0.576102
O O17 0.600735 0.731312 0.741428
O O18 0.559149 0.000000 0.678591
O O19 0.702631 0.500000 0.008843
O O20 0.762635 0.735823 0.098379
O O21 0.750000 0.750000 0.000000
O O22 0.784319 0.000000 0.151560
#
# Coordination Sequence:
#
# PCOD8100302 Si02
#       8
#     8   8   8   8   8   8   8   8
#     4   9  14  26  53  85 112 141 176 222 280 334
#     4  10  20  36  58  84 118 155 186 226 290 354
#     4  10  21  36  59  89 115 145 190 237 282 337
#     4   9  17  32  54  82 113 142 176 225 279 331
#     4  10  21  37  57  81 113 151 191 232 280 338
#     4  10  20  35  58  87 115 145 189 240 287 340
#     4  11  24  41  60  84 115 152 196 243 291 341
#     4  11  23  39  60  85 116 155 194 235 291 351
#
# _framework density 19.582048
#
# number of rings (size 3 to 8) (size 9 to 14) (size 15 to 20)
#    0.000    2.000    2.500    1.500    0.000    4.250 
#    0.000    1.875    0.000    1.125    0.000    0.000 
#    0.000    0.000    0.000    0.000    0.000    0.000 
#
# Total GULP energy -396821.760607 kJ/mol
# GULP energy per Si atom -12400.680019 kJ/mol
# Density = 1.953748 g / cm^3
# Si number density = 19.582048 Si / 1000 Ang^3
#
#
#
# Elastic Constant Matrix: (Units=GPa)
#
#
# Indices 1 2 3 4 5 6 
#
# 1 146.8111 31.1384 61.9038 -0.0001 -19.5063 0.0000
# 2 31.1384 33.7196 29.5634 -0.0001 -4.8593 -0.0005
# 3 61.9038 29.5634 142.5701 -0.0003 -27.7899 0.0000
# 4 -0.0001 -0.0001 -0.0003 19.5971 -0.0002 -1.5939
# 5 -19.5063 -4.8593 -27.7899 -0.0002 21.2481 0.0001
# 6 0.0000 -0.0005 0.0000 -1.5939 0.0001 31.8437
#
#
#
# Elastic Compliance Matrix: (Units=1/GPa)
#
#
# Indices 1 2 3 4 5 6 
#
# 1 0.009643 -0.006558 -0.001871 0.000000 0.004906 0.000000
# 2 -0.006558 0.040773 -0.006662 0.000000 -0.005408 0.000001
# 3 -0.001871 -0.006662 0.011510 0.000000 0.011813 0.000000
# 4 0.000000 0.000000 0.000000 0.051236 0.000001 0.002565
# 5 0.004906 -0.005408 0.011813 0.000001 0.065781 0.000000
# 6 0.000000 0.000001 0.000000 0.002565 0.000000 0.031532
#
#
# Mechanical properties :
#
#
# Convention : Reuss Voigt Hill
#
# Bulk Modulus (GPa) = 31.49961 63.14577 47.32269
# Shear Modulus (GPa) = 19.90146 27.90412 23.90279
#
# Velocity S-wave (km/s) = 3.19142 3.77899 3.49757
# Velocity P-wave (km/s) = 5.44987 7.16644 6.36628
#
# Compressibility (1/GPa) = 0.03174642
#
# Stress axis : x y z
#
# Youngs Moduli (GPa) = 103.70155 24.52594 86.87733
#
# Poissons Ratio (x) = 0.16083 0.16254
# Poissons Ratio (y) = 0.68003 0.57874
# Poissons Ratio (z) = 0.19402 0.16338
#
# Static dielectric constant tensor:
#      x y z
#    x 3.643790 0.000000 -0.008840 
#    y 0.000000 3.195530 0.000000 
#    z -0.008840 0.000000 3.751840 
# 
# 
# High freq. dielectric constant tensor:
#      x y z
#    x 1.763600 0.000000 -0.004450 
#    y 0.000000 1.727560 0.000000 
#    z -0.004450 0.000000 1.780870 
# 
# From -- ./inp_files/382440.got.cif
#   From: 2010.06.25/outbox.cif.g09.slc.cpg/sg12_192_cif.got.tgz:382440.got - 2010.06.28 00:19:55.
