data_PCOD8100852
_publ_section_title
;
Structure prediction by ZEFSAII (Michael W. Deem and Ramdas Pophale) SiO2 
 PCOD8100852
Probable space group: C 2/M
;
_chemical_formula_sum "Si O2"
_cell_formula_units_Z 52
_cell_length_a 28.866572
_cell_length_b 11.860725
_cell_length_c 8.567836
_cell_angle_alpha 90.000000
_cell_angle_beta 83.837847
_cell_angle_gamma 90.000000
_cell_volume 2916.493422
_symmetry_space_group_name_H-M "C 2/M"
_symmetry_group_IT_number 12
_symmetry_cell_setting 'monoclinic'
loop_
_space_group_symop_operation_xyz
x,y,z
-x,y,-z
-x,-y,-z
x,-y,z
1/2+x,1/2+y,z
1/2-x,1/2+y,-z
1/2-x,1/2-y,-z
1/2+x,1/2-y,z
loop_
_atom_site_type_symbol
_atom_site_label
_atom_site_fract_x
_atom_site_fract_y
_atom_site_fract_z
Si Si1 0.947849 0.689732 0.053875
Si Si2 0.762241 0.796296 0.734484
Si Si3 0.174023 0.717312 0.559020
Si Si4 0.068961 0.500000 0.181362
Si Si5 0.125916 0.133987 0.824226
Si Si6 0.036357 0.500000 0.712311
Si Si7 0.716964 0.378483 0.959409
Si Si8 0.881884 0.500000 0.531458
O O1 0.919849 0.804292 0.095135
O O2 0.946971 0.611813 0.205545
O O3 0.926908 0.614177 0.921251
O O4 0.000000 0.729530 0.000000
O O5 0.804405 0.776295 0.600904
O O6 0.715210 0.826036 0.658222
O O7 0.756194 0.690520 0.853279
O O8 0.775704 0.891314 0.855948
O O9 0.142082 0.811506 0.653718
O O10 0.144465 0.609791 0.520138
O O11 0.112836 0.500000 0.283252
O O12 0.019169 0.500000 0.288286
O O13 0.164850 0.163166 0.939692
O O14 0.116492 0.000000 0.806312
O O15 0.064226 0.500000 0.541240
O O16 0.722551 0.500000 0.880271
#
# Coordination Sequence:
#
# PCOD8100852 Si02
#       8
#     8   8   8   4   8   4   8   4
#     4   9  18  36  57  81 110 140 173 217 271 323
#     4   9  20  38  50  74 107 137 177 221 270 308
#     4  10  22  35  52  78 108 141 180 221 264 323
#     4   9  21  33  57  85 115 141 165 221 279 326
#     4  10  20  36  55  77 102 142 185 222 259 311
#     4   9  17  37  57  81 115 141 169 215 283 330
#     4   9  19  34  55  73 100 138 176 219 269 313
#     4  12  21  32  56  90 106 142 178 224 263 330
#
# _framework density 17.829630000000002
#
# number of rings (size 3 to 8) (size 9 to 14) (size 15 to 20)
#    0.000    2.462    1.538    1.154    4.308    0.923 
#    2.769    0.000    0.000    0.000    0.000    2.154 
#    0.000    0.000    0.000    0.000    0.000    0.000 
#
# Total GULP energy -322186.223104 kJ/mol
# GULP energy per Si atom -12391.777812 kJ/mol
# Density = 1.778905 g / cm^3
# Si number density = 17.829630 Si / 1000 Ang^3
#
#
#
# Elastic Constant Matrix: (Units=GPa)
#
#
# Indices 1 2 3 4 5 6 
#
# 1 74.1983 55.1223 51.9128 0.0000 -7.0948 0.0000
# 2 55.1223 112.0150 41.7488 0.0000 -5.9015 0.0000
# 3 51.9128 41.7488 110.3079 0.0000 2.0236 0.0000
# 4 0.0000 0.0000 0.0000 11.0087 0.0000 1.0309
# 5 -7.0948 -5.9015 2.0236 0.0000 33.0466 0.0000
# 6 0.0000 0.0000 0.0000 1.0309 0.0000 25.9172
#
#
#
# Elastic Compliance Matrix: (Units=1/GPa)
#
#
# Indices 1 2 3 4 5 6 
#
# 1 0.027989 -0.009987 -0.009481 0.000000 0.004806 0.000000
# 2 -0.009987 0.014104 -0.000646 0.000000 0.000414 0.000000
# 3 -0.009481 -0.000646 0.013827 0.000000 -0.002997 0.000000
# 4 0.000000 0.000000 0.000000 0.091177 0.000000 -0.003627
# 5 0.004806 0.000414 -0.002997 0.000000 0.031550 0.000000
# 6 0.000000 0.000000 0.000000 -0.003627 0.000000 0.038729
#
#
# Mechanical properties :
#
#
# Convention : Reuss Voigt Hill
#
# Bulk Modulus (GPa) = 63.71899 66.00988 64.86444
# Shear Modulus (GPa) = 19.02344 23.84365 21.43354
#
# Velocity S-wave (km/s) = 3.26997 3.66089 3.47094
# Velocity P-wave (km/s) = 7.07618 7.41434 7.24723
#
# Compressibility (1/GPa) = 0.01569391
#
# Stress axis : x y z
#
# Youngs Moduli (GPa) = 35.72789 70.90009 72.32376
#
# Poissons Ratio (x) = 0.70806 0.68568
# Poissons Ratio (y) = 0.35681 0.04671
# Poissons Ratio (z) = 0.33873 0.04579
#
# Static dielectric constant tensor:
#      x y z
#    x 3.253140 0.000000 0.049770 
#    y 0.000000 3.198750 0.000000 
#    z 0.049770 0.000000 3.408980 
# 
# 
# High freq. dielectric constant tensor:
#      x y z
#    x 1.683330 0.000000 -0.000600 
#    y 0.000000 1.680930 0.000000 
#    z -0.000600 0.000000 1.694670 
# 
# From -- ./inp_files/102587.got.cif
#   From: 2010.06.25/outbox.cif.g09.slc.cpg/sg12_52_cif.got.tgz:102587.got - 2010.06.28 00:19:55.
