data_PCOD8100098
_publ_section_title
;
Structure prediction by ZEFSAII (Michael W. Deem and Ramdas Pophale) SiO2 
 PCOD8100098
Probable space group: C 2/M
;
_chemical_formula_sum "Si O2"
_cell_formula_units_Z 64
_cell_length_a 22.635207
_cell_length_b 14.444512
_cell_length_c 17.344564
_cell_angle_alpha 90.000000
_cell_angle_beta 146.282060
_cell_angle_gamma 90.000000
_cell_volume 3147.935236
_symmetry_space_group_name_H-M "C 2/M"
_symmetry_group_IT_number 12
_symmetry_cell_setting 'monoclinic'
loop_
_space_group_symop_operation_xyz
x,y,z
-x,y,-z
-x,-y,-z
x,-y,z
1/2+x,1/2+y,z
1/2-x,1/2+y,-z
1/2-x,1/2-y,-z
1/2+x,1/2-y,z
loop_
_atom_site_type_symbol
_atom_site_label
_atom_site_fract_x
_atom_site_fract_y
_atom_site_fract_z
Si Si1 0.123752 0.255738 0.129531
Si Si2 0.826556 0.102722 0.927431
Si Si3 0.656480 0.108549 0.871710
Si Si4 0.205644 0.607476 0.099092
Si Si5 0.033331 0.254794 0.358243
Si Si6 0.555062 0.400591 0.637610
Si Si7 0.235431 0.208602 0.399091
Si Si8 0.049325 0.102373 0.246483
O O1 0.190453 0.171870 0.162331
O O2 0.131660 0.344118 0.082151
O O3 0.176170 0.274527 0.270997
O O4 0.000000 0.230362 0.000000
O O5 0.757534 0.133059 0.927404
O O6 0.791134 0.000000 0.863022
O O7 0.951253 0.103775 0.082056
O O8 0.555541 0.166915 0.735426
O O9 0.628878 0.000000 0.837258
O O10 0.681318 0.139711 0.985712
O O11 0.183515 0.500000 0.085491
O O12 0.326396 0.636421 0.246683
O O13 0.143328 0.308817 0.495939
O O14 0.034504 0.192799 0.282746
O O15 0.016332 0.178605 0.404422
O O16 0.500000 0.426922 0.500000
O O17 0.560417 0.500000 0.690582
O O18 0.250000 0.250000 0.500000
O O19 0.162017 0.116390 0.323938
O O20 0.054088 0.000000 0.292054
#
# Coordination Sequence:
#
# PCOD8100098 Si02
#       8
#     8   8   8   8   8   8   8   8
#     4  12  23  39  65  90 121 165 213 259 312 364
#     4  10  21  38  63  95 125 156 207 262 308 369
#     4  10  22  39  62  93 127 166 206 253 316 376
#     4  10  22  39  61  91 126 161 210 262 310 372
#     4  11  21  36  60  85 123 158 204 251 305 374
#     4  10  20  35  57  87 120 156 199 255 319 369
#     4  10  24  41  56  85 125 165 208 255 303 369
#     4  10  20  37  60  87 117 157 204 255 305 356
#
# _framework density 20.330787000000001
#
# number of rings (size 3 to 8) (size 9 to 14) (size 15 to 20)
#    0.000    1.625    1.250    3.375    1.750    5.000 
#    0.000    2.500    0.000    1.875    0.000    0.000 
#    0.000    0.000    0.000    0.000    0.000    0.000 
#
# Total GULP energy -396485.109257 kJ/mol
# GULP energy per Si atom -12390.159664 kJ/mol
# Density = 2.028451 g / cm^3
# Si number density = 20.330787 Si / 1000 Ang^3
#
#
#
# Elastic Constant Matrix: (Units=GPa)
#
#
# Indices 1 2 3 4 5 6 
#
# 1 109.6017 50.8024 48.0733 0.0000 -1.9866 0.0000
# 2 50.8024 79.6279 35.6022 0.0000 10.4550 0.0000
# 3 48.0733 35.6022 113.8564 0.0000 9.0000 0.0000
# 4 0.0000 0.0000 0.0000 35.5702 0.0000 12.2404
# 5 -1.9866 10.4550 9.0000 0.0000 37.8027 0.0000
# 6 0.0000 0.0000 0.0000 12.2404 0.0000 43.4287
#
#
#
# Elastic Compliance Matrix: (Units=1/GPa)
#
#
# Indices 1 2 3 4 5 6 
#
# 1 0.014709 -0.008124 -0.003984 0.000000 0.003968 0.000000
# 2 -0.008124 0.019430 -0.002229 0.000000 -0.005270 0.000000
# 3 -0.003984 -0.002229 0.011343 0.000000 -0.002294 0.000000
# 4 0.000000 0.000000 0.000000 0.031133 0.000000 -0.008775
# 5 0.003968 -0.005270 -0.002294 0.000000 0.028665 0.000000
# 6 0.000000 0.000000 0.000000 -0.008775 0.000000 0.025499
#
#
# Mechanical properties :
#
#
# Convention : Reuss Voigt Hill
#
# Bulk Modulus (GPa) = 59.49295 63.56019 61.52657
# Shear Modulus (GPa) = 30.29268 34.60087 32.44677
#
# Velocity S-wave (km/s) = 3.86423 4.12988 3.99926
# Velocity P-wave (km/s) = 7.01681 7.35337 7.18706
#
# Compressibility (1/GPa) = 0.01680872
#
# Stress axis : x y z
#
# Youngs Moduli (GPa) = 67.98592 51.46669 88.15754
#
# Poissons Ratio (x) = 0.41812 0.35121
# Poissons Ratio (y) = 0.55232 0.19649
# Poissons Ratio (z) = 0.27085 0.11471
#
# Static dielectric constant tensor:
#      x y z
#    x 3.940080 0.000000 0.162190 
#    y 0.000000 3.734580 0.000000 
#    z 0.162190 0.000000 3.715910 
# 
# 
# High freq. dielectric constant tensor:
#      x y z
#    x 1.797050 0.000000 0.008070 
#    y 0.000000 1.789950 0.000000 
#    z 0.008070 0.000000 1.790320 
# 
# From -- ./inp_files/290137.got.cif
#   From: 2010.06.25/outbox.cif.g09.slc.cpg/sg12_146_cif.got.tgz:290137.got - 2010.06.28 00:19:55.
