data_PCOD8100184
_publ_section_title
;
Structure prediction by ZEFSAII (Michael W. Deem and Ramdas Pophale) SiO2 
 PCOD8100184
Probable space group: C 2/M
;
_chemical_formula_sum "Si O2"
_cell_formula_units_Z 56
_cell_length_a 20.898161
_cell_length_b 8.979357
_cell_length_c 30.708512
_cell_angle_alpha 90.000000
_cell_angle_beta 28.517140
_cell_angle_gamma 90.000000
_cell_volume 2751.149426
_symmetry_space_group_name_H-M "C 2/M"
_symmetry_group_IT_number 12
_symmetry_cell_setting 'monoclinic'
loop_
_space_group_symop_operation_xyz
x,y,z
-x,y,-z
-x,-y,-z
x,-y,z
1/2+x,1/2+y,z
1/2-x,1/2+y,-z
1/2-x,1/2-y,-z
1/2+x,1/2-y,z
loop_
_atom_site_type_symbol
_atom_site_label
_atom_site_fract_x
_atom_site_fract_y
_atom_site_fract_z
Si Si1 0.376418 0.176328 0.103809
Si Si2 0.407823 0.825281 0.595223
Si Si3 0.865191 0.323709 0.904511
Si Si4 0.407186 0.332355 0.452985
Si Si5 0.839192 0.668310 0.823388
Si Si6 0.381509 0.164733 0.383143
Si Si7 0.638049 0.176574 0.786773
O O1 0.238819 0.231436 0.164610
O O2 0.379972 0.232574 0.152043
O O3 0.378021 0.000000 0.102244
O O4 0.500000 0.237268 0.000000
O O5 0.500000 0.765748 0.500000
O O6 0.492093 0.787420 0.587662
O O7 0.264578 0.746410 0.685830
O O8 0.382640 0.000000 0.606283
O O9 0.858094 0.500000 0.912121
O O10 0.828958 0.267589 0.877913
O O11 0.008869 0.269967 0.836737
O O12 0.750000 0.250000 0.000000
O O13 0.463000 0.500000 0.426524
O O14 0.396303 0.297802 0.408462
O O15 0.256216 0.314787 0.562276
O O16 0.783962 0.500000 0.852314
O O17 0.997513 0.674178 0.722166
O O18 0.377374 0.000000 0.408145
O O19 0.656113 0.000000 0.775550
#
# Coordination Sequence:
#
# PCOD8100184 Si02
#       7
#     8   8   8   8   8   8   8
#     4  10  21  38  60  88 119 152 193 242 297 354
#     4  11  25  41  57  82 119 159 201 250 302 354
#     4  10  22  40  62  88 120 155 197 245 297 357
#     4  10  20  35  58  84 112 150 193 235 286 344
#     4  10  21  36  57  85 114 148 190 235 288 348
#     4   9  19  35  56  83 115 148 184 235 291 342
#     4  10  22  40  64  90 119 159 205 250 298 358
#
# _framework density 20.355128000000001
#
# number of rings (size 3 to 8) (size 9 to 14) (size 15 to 20)
#    0.000    2.000    0.000    2.571    2.000    7.714 
#    0.000    0.000    0.000    0.000    0.000    0.000 
#    0.000    0.000    0.000    0.000    0.000    0.000 
#
# Total GULP energy -347070.965190 kJ/mol
# GULP energy per Si atom -12395.391614 kJ/mol
# Density = 2.030880 g / cm^3
# Si number density = 20.355128 Si / 1000 Ang^3
#
#
#
# Elastic Constant Matrix: (Units=GPa)
#
#
# Indices 1 2 3 4 5 6 
#
# 1 93.0156 22.2442 26.3366 0.0059 -10.5373 -0.0194
# 2 22.2442 31.9494 32.2182 0.0076 -1.5513 -0.0246
# 3 26.3366 32.2182 117.1761 0.0007 -8.4192 0.0033
# 4 0.0059 0.0076 0.0007 33.3946 -0.0005 -1.4148
# 5 -10.5373 -1.5513 -8.4192 -0.0005 35.0934 0.0052
# 6 -0.0194 -0.0246 0.0033 -1.4148 0.0052 25.9876
#
#
#
# Elastic Compliance Matrix: (Units=1/GPa)
#
#
# Indices 1 2 3 4 5 6 
#
# 1 0.013347 -0.008789 -0.000329 0.000000 0.003540 0.000001
# 2 -0.008789 0.049127 -0.011769 -0.000008 -0.003291 0.000042
# 3 -0.000329 -0.011769 0.012006 0.000002 0.002261 -0.000013
# 4 0.000000 -0.000008 0.000002 0.030014 0.000000 0.001634
# 5 0.003540 -0.003291 0.002261 0.000000 0.029955 -0.000007
# 6 0.000001 0.000042 -0.000013 0.001634 -0.000007 0.038569
#
#
# Mechanical properties :
#
#
# Convention : Reuss Voigt Hill
#
# Bulk Modulus (GPa) = 30.57465 44.85993 37.71729
# Shear Modulus (GPa) = 22.15392 29.65126 25.90259
#
# Velocity S-wave (km/s) = 3.30262 3.82081 3.57113
# Velocity P-wave (km/s) = 5.44025 6.44603 5.96438
#
# Compressibility (1/GPa) = 0.03270684
#
# Stress axis : x y z
#
# Youngs Moduli (GPa) = 74.92379 20.35558 83.28872
#
# Poissons Ratio (x) = 0.17890 0.02740
# Poissons Ratio (y) = 0.65850 0.98020
# Poissons Ratio (z) = 0.02464 0.23956
#
# Static dielectric constant tensor:
#      x y z
#    x 1.988800 0.000150 -0.699770 
#    y 0.000150 3.564850 0.000060 
#    z -0.699770 0.000060 3.652040 
# 
# 
# High freq. dielectric constant tensor:
#      x y z
#    x 1.794660 0.000000 -0.007870 
#    y 0.000000 1.782620 0.000000 
#    z -0.007870 0.000000 1.809530 
# 
# From -- ./inp_files/380648.got.cif
#   From: 2010.06.25/outbox.cif.g09.slc.cpg/sg12_191_cif.got.tgz:380648.got - 2010.06.28 00:19:55.
