data_PCOD8100646
_publ_section_title
;
Structure prediction by ZEFSAII (Michael W. Deem and Ramdas Pophale) SiO2 
 PCOD8100646
Probable space group: C 2/M
;
_chemical_formula_sum "Si O2"
_cell_formula_units_Z 40
_cell_length_a 26.879327
_cell_length_b 8.892048
_cell_length_c 21.671503
_cell_angle_alpha 90.000000
_cell_angle_beta 159.025938
_cell_angle_gamma 90.000000
_cell_volume 1854.068855
_symmetry_space_group_name_H-M "C 2/M"
_symmetry_group_IT_number 12
_symmetry_cell_setting 'monoclinic'
loop_
_space_group_symop_operation_xyz
x,y,z
-x,y,-z
-x,-y,-z
x,-y,z
1/2+x,1/2+y,z
1/2-x,1/2+y,-z
1/2-x,1/2-y,-z
1/2+x,1/2-y,z
loop_
_atom_site_type_symbol
_atom_site_label
_atom_site_fract_x
_atom_site_fract_y
_atom_site_fract_z
Si Si1 0.749194 0.827202 0.099243
Si Si2 0.647357 0.822739 0.199375
Si Si3 0.840118 0.677150 0.324217
Si Si4 0.439703 0.167986 0.228510
Si Si5 0.755223 0.170498 0.571167
O O1 0.748821 0.725401 0.159549
O O2 0.879230 0.787708 0.206214
O O3 0.760069 0.000000 0.132683
O O4 0.608466 0.794693 0.897474
O O5 0.775270 0.753499 0.309360
O O6 0.645266 0.758627 0.266494
O O7 0.667086 0.000000 0.224507
O O8 0.500000 0.776245 0.000000
O O9 0.831614 0.500000 0.323615
O O10 0.000000 0.729504 0.500000
O O11 0.603053 0.174808 0.424105
O O12 0.385238 0.000000 0.182538
O O13 0.750000 0.250000 0.500000
O O14 0.808373 0.000000 0.624638
#
# Coordination Sequence:
#
# PCOD8100646 Si02
#       5
#     8   8   8   8   8
#     4  10  20  35  60  91 122 159 204 254 310 374
#     4  11  26  46  67  94 131 171 217 272 325 381
#     4  11  24  41  63  92 128 167 211 263 321 384
#     4   9  20  38  58  86 125 161 200 256 313 366
#     4  11  24  42  65  92 126 167 213 261 314 378
#
# _framework density 21.574172999999998
#
# number of rings (size 3 to 8) (size 9 to 14) (size 15 to 20)
#    0.000    1.600    0.000    3.600    2.800   10.400 
#    0.000    0.000    0.000    0.000    0.000    0.000 
#    0.000    0.000    0.000    0.000    0.000    0.000 
#
# Total GULP energy -248080.409250 kJ/mol
# GULP energy per Si atom -12404.020462 kJ/mol
# Density = 2.152507 g / cm^3
# Si number density = 21.574173 Si / 1000 Ang^3
#
#
#
# Elastic Constant Matrix: (Units=GPa)
#
#
# Indices 1 2 3 4 5 6 
#
# 1 108.7322 47.2367 41.8145 0.0000 -27.3177 0.0000
# 2 47.2367 102.6235 51.6087 0.0000 -9.0270 0.0000
# 3 41.8145 51.6087 92.7825 0.0000 -19.3747 0.0000
# 4 0.0000 0.0000 0.0000 32.1901 0.0000 -5.5815
# 5 -27.3177 -9.0270 -19.3747 0.0000 39.2480 0.0000
# 6 0.0000 0.0000 0.0000 -5.5815 0.0000 42.7633
#
#
#
# Elastic Compliance Matrix: (Units=1/GPa)
#
#
# Indices 1 2 3 4 5 6 
#
# 1 0.013952 -0.004706 -0.002083 0.000000 0.007600 0.000000
# 2 -0.004706 0.015132 -0.006972 0.000000 -0.003237 0.000000
# 3 -0.002083 -0.006972 0.016676 0.000000 0.005179 0.000000
# 4 0.000000 0.000000 0.000000 0.031785 0.000000 0.004149
# 5 0.007600 -0.003237 0.005179 0.000000 0.032581 0.000000
# 6 0.000000 0.000000 0.000000 0.004149 0.000000 0.023926
#
#
# Mechanical properties :
#
#
# Convention : Reuss Voigt Hill
#
# Bulk Modulus (GPa) = 54.83037 65.05090 59.94064
# Shear Modulus (GPa) = 29.82357 33.73883 31.78120
#
# Velocity S-wave (km/s) = 3.72206 3.95885 3.84228
# Velocity P-wave (km/s) = 6.62885 7.14943 6.89405
#
# Compressibility (1/GPa) = 0.01823807
#
# Stress axis : x y z
#
# Youngs Moduli (GPa) = 71.67536 66.08582 59.96583
#
# Poissons Ratio (x) = 0.31098 0.12492
# Poissons Ratio (y) = 0.33729 0.41808
# Poissons Ratio (z) = 0.14931 0.46075
#
# Static dielectric constant tensor:
#      x y z
#    x 3.818820 0.000000 -0.144290 
#    y 0.000000 3.984170 0.000000 
#    z -0.144290 0.000000 4.057390 
# 
# 
# High freq. dielectric constant tensor:
#      x y z
#    x 1.846600 0.000000 -0.015520 
#    y 0.000000 1.852890 0.000000 
#    z -0.015520 0.000000 1.852880 
# 
# From -- ./inp_files/162589.got.cif
#   From: 2010.06.25/outbox.cif.g09.slc.cpg/sg12_82_cif.got.tgz:162589.got - 2010.06.28 00:19:55.
