data_PCOD8100791
_publ_section_title
;
Structure prediction by ZEFSAII (Michael W. Deem and Ramdas Pophale) SiO2 
 PCOD8100791
Probable space group: C 2/M
;
_chemical_formula_sum "Si O2"
_cell_formula_units_Z 56
_cell_length_a 22.745660
_cell_length_b 8.620216
_cell_length_c 16.532671
_cell_angle_alpha 90.000000
_cell_angle_beta 119.242483
_cell_angle_gamma 90.000000
_cell_volume 2828.492731
_symmetry_space_group_name_H-M "C 2/M"
_symmetry_group_IT_number 12
_symmetry_cell_setting 'monoclinic'
loop_
_space_group_symop_operation_xyz
x,y,z
-x,y,-z
-x,-y,-z
x,-y,z
1/2+x,1/2+y,z
1/2-x,1/2+y,-z
1/2-x,1/2-y,-z
1/2+x,1/2-y,z
loop_
_atom_site_type_symbol
_atom_site_label
_atom_site_fract_x
_atom_site_fract_y
_atom_site_fract_z
Si Si1 0.442750 0.181883 0.327422
Si Si2 0.577443 0.682359 0.230148
Si Si3 0.836871 0.315149 0.382662
Si Si4 0.702579 0.684237 0.210836
Si Si5 0.406315 0.182094 0.588578
Si Si6 0.565877 0.816820 0.859344
Si Si7 0.304764 0.682911 0.976101
O O1 0.393712 0.257296 0.361244
O O2 0.520228 0.221157 0.399300
O O3 0.423725 0.243759 0.225366
O O4 0.431099 0.000000 0.319576
O O5 0.564153 0.500000 0.214945
O O6 0.632640 0.740844 0.202708
O O7 0.605863 0.721907 0.338204
O O8 0.509112 0.772479 0.162461
O O9 0.839923 0.500000 0.380281
O O10 0.764527 0.250161 0.306052
O O11 0.851767 0.264108 0.485053
O O12 0.705190 0.500000 0.213567
O O13 0.709615 0.746003 0.123968
O O14 0.401521 0.000000 0.606256
O O15 0.575547 0.000000 0.873113
O O16 0.619890 0.732101 0.951175
O O17 0.298578 0.500000 0.974418
O O18 0.250000 0.750000 0.000000
#
# Coordination Sequence:
#
# PCOD8100791 Si02
#       7
#     8   8   8   8   8   8   8
#     4   8  14  26  48  77 104 130 168 218 265 316
#     4  10  20  36  54  74 104 142 183 222 265 316
#     4   9  15  27  49  75 102 136 178 219 261 314
#     4   9  20  35  52  75 105 144 185 220 256 316
#     4   9  17  29  50  79 105 132 173 225 272 314
#     4  10  20  36  58  82 107 138 178 223 270 316
#     4  11  22  38  59  84 112 140 174 215 263 317
#
# _framework density 19.798531000000001
#
# number of rings (size 3 to 8) (size 9 to 14) (size 15 to 20)
#    0.000    2.571    0.000    3.429    0.000    5.143 
#    0.000    5.714    0.000   12.000    0.000    0.000 
#    0.000    0.000    0.000    0.000    0.000    0.000 
#
# Total GULP energy -347142.543379 kJ/mol
# GULP energy per Si atom -12397.947978 kJ/mol
# Density = 1.975347 g / cm^3
# Si number density = 19.798531 Si / 1000 Ang^3
#
#
#
# Elastic Constant Matrix: (Units=GPa)
#
#
# Indices 1 2 3 4 5 6 
#
# 1 126.1481 15.2262 62.1817 0.0000 -6.1271 0.0000
# 2 15.2262 31.0564 16.4027 0.0000 -2.6211 0.0000
# 3 62.1817 16.4027 136.5521 0.0000 19.0368 0.0000
# 4 0.0000 0.0000 0.0000 26.0314 0.0000 0.5882
# 5 -6.1271 -2.6211 19.0368 0.0000 27.9231 0.0000
# 6 0.0000 0.0000 0.0000 0.5882 0.0000 23.5939
#
#
#
# Elastic Compliance Matrix: (Units=1/GPa)
#
#
# Indices 1 2 3 4 5 6 
#
# 1 0.011322 -0.001965 -0.005791 0.000000 0.006248 0.000000
# 2 -0.001965 0.035887 -0.004227 0.000000 0.005819 0.000000
# 3 -0.005791 -0.004227 0.011824 0.000000 -0.009729 0.000000
# 4 0.000000 0.000000 0.000000 0.038437 0.000000 -0.000958
# 5 0.006248 0.005819 -0.009729 0.000000 0.044362 0.000000
# 6 0.000000 0.000000 0.000000 -0.000958 0.000000 0.042408
#
#
# Mechanical properties :
#
#
# Convention : Reuss Voigt Hill
#
# Bulk Modulus (GPa) = 28.51687 53.48642 41.00165
# Shear Modulus (GPa) = 22.73810 28.83942 25.78876
#
# Velocity S-wave (km/s) = 3.39259 3.82074 3.61301
# Velocity P-wave (km/s) = 5.45720 6.82188 6.17734
#
# Compressibility (1/GPa) = 0.03506696
#
# Stress axis : x y z
#
# Youngs Moduli (GPa) = 88.32135 27.86546 84.57235
#
# Poissons Ratio (x) = 0.05476 0.48974
# Poissons Ratio (y) = 0.17358 0.35749
# Poissons Ratio (z) = 0.51145 0.11779
#
# Static dielectric constant tensor:
#      x y z
#    x 3.763110 0.000000 -0.009180 
#    y 0.000000 3.175740 0.000000 
#    z -0.009180 0.000000 3.856810 
# 
# 
# High freq. dielectric constant tensor:
#      x y z
#    x 1.775180 0.000000 0.003280 
#    y 0.000000 1.728240 0.000000 
#    z 0.003280 0.000000 1.781490 
# 
# From -- ./inp_files/238914.got.cif
#   From: 2010.06.25/outbox.cif.g09.slc.cpg/sg12_120_cif.got.tgz:238914.got - 2010.06.28 00:19:55.
