data_PCOD8100149
_publ_section_title
;
Structure prediction by ZEFSAII (Michael W. Deem and Ramdas Pophale) SiO2 
 PCOD8100149
Probable space group: C 2/M
;
_chemical_formula_sum "Si O2"
_cell_formula_units_Z 56
_cell_length_a 27.424375
_cell_length_b 8.810679
_cell_length_c 12.661258
_cell_angle_alpha 90.000000
_cell_angle_beta 67.199206
_cell_angle_gamma 90.000000
_cell_volume 2820.245417
_symmetry_space_group_name_H-M "C 2/M"
_symmetry_group_IT_number 12
_symmetry_cell_setting 'monoclinic'
loop_
_space_group_symop_operation_xyz
x,y,z
-x,y,-z
-x,-y,-z
x,-y,z
1/2+x,1/2+y,z
1/2-x,1/2+y,-z
1/2-x,1/2-y,-z
1/2+x,1/2-y,z
loop_
_atom_site_type_symbol
_atom_site_label
_atom_site_fract_x
_atom_site_fract_y
_atom_site_fract_z
Si Si1 0.360500 0.180367 0.768499
Si Si2 0.056860 0.175641 0.903505
Si Si3 0.400700 0.821559 0.331346
Si Si4 0.058087 0.320043 0.475734
Si Si5 0.288948 0.679469 0.384200
Si Si6 0.756016 0.820007 0.183449
Si Si7 0.138912 0.178763 0.013854
O O1 0.399446 0.243482 0.644719
O O2 0.301352 0.246304 0.799188
O O3 0.360107 0.000000 0.768398
O O4 0.381054 0.238221 0.864106
O O5 0.059739 0.277714 0.796222
O O6 0.101449 0.228659 0.948882
O O7 0.065430 0.000000 0.865860
O O8 0.000000 0.205094 0.000000
O O9 0.426013 0.768692 0.420446
O O10 0.347723 0.728292 0.360728
O O11 0.388794 0.000000 0.341165
O O12 0.056746 0.500000 0.468208
O O13 0.000000 0.252510 0.500000
O O14 0.284595 0.500000 0.391852
O O15 0.250000 0.750000 0.500000
O O16 0.272348 0.743361 0.283973
O O17 0.800910 0.768910 0.062191
O O18 0.753604 0.000000 0.190147
O O19 0.134787 0.000000 0.035606
#
# Coordination Sequence:
#
# PCOD8100149 Si02
#       7
#     8   8   8   8   8   8   8
#     4  10  20  35  58  83 109 147 193 235 282 341
#     4  10  22  40  61  84 116 158 194 236 300 359
#     4  11  22  38  62  90 117 150 198 248 294 348
#     4   9  20  38  57  80 115 154 190 236 296 351
#     4  11  21  37  60  86 120 159 197 238 292 351
#     4   9  18  35  56  79 112 151 186 228 289 350
#     4  10  20  37  57  81 115 151 186 230 291 351
#
# _framework density 19.856428000000001
#
# number of rings (size 3 to 8) (size 9 to 14) (size 15 to 20)
#    0.000    2.000    1.429    2.143    2.000    3.143 
#    0.000    4.286    0.000    2.143    0.000    0.000 
#    0.000    0.000    0.000    0.000    0.000    0.000 
#
# Total GULP energy -347255.070822 kJ/mol
# GULP energy per Si atom -12401.966815 kJ/mol
# Density = 1.981123 g / cm^3
# Si number density = 19.856428 Si / 1000 Ang^3
#
#
#
# Elastic Constant Matrix: (Units=GPa)
#
#
# Indices 1 2 3 4 5 6 
#
# 1 103.9463 14.7449 68.6532 0.0000 -7.6967 0.0000
# 2 14.7449 33.7854 30.5273 0.0000 2.0366 0.0000
# 3 68.6532 30.5273 168.7118 0.0000 7.9721 0.0000
# 4 0.0000 0.0000 0.0000 32.5922 0.0000 2.6738
# 5 -7.6967 2.0366 7.9721 0.0000 34.5128 0.0000
# 6 0.0000 0.0000 0.0000 2.6738 0.0000 18.4589
#
#
#
# Elastic Compliance Matrix: (Units=1/GPa)
#
#
# Indices 1 2 3 4 5 6 
#
# 1 0.013835 -0.001231 -0.005618 0.000000 0.004456 0.000000
# 2 -0.001231 0.035506 -0.005876 0.000000 -0.001012 0.000000
# 3 -0.005618 -0.005876 0.009422 0.000000 -0.003083 0.000000
# 4 0.000000 0.000000 0.000000 0.031051 0.000000 -0.004498
# 5 0.004456 -0.001012 -0.003083 0.000000 0.030740 0.000000
# 6 0.000000 0.000000 0.000000 -0.004498 0.000000 0.054826
#
#
# Mechanical properties :
#
#
# Convention : Reuss Voigt Hill
#
# Bulk Modulus (GPa) = 30.01688 59.36603 44.69145
# Shear Modulus (GPa) = 23.59224 29.94734 26.76979
#
# Velocity S-wave (km/s) = 3.45068 3.88776 3.67572
# Velocity P-wave (km/s) = 5.57010 7.07923 6.36952
#
# Compressibility (1/GPa) = 0.03331459
#
# Stress axis : x y z
#
# Youngs Moduli (GPa) = 72.27952 28.16429 106.13292
#
# Poissons Ratio (x) = 0.03466 0.59623
# Poissons Ratio (y) = 0.08895 0.62363
# Poissons Ratio (z) = 0.40605 0.16549
#
# Static dielectric constant tensor:
#      x y z
#    x 3.799940 0.000000 -0.024830 
#    y 0.000000 3.209390 0.000000 
#    z -0.024830 0.000000 3.705880 
# 
# 
# High freq. dielectric constant tensor:
#      x y z
#    x 1.785400 0.000000 -0.001280 
#    y 0.000000 1.738480 0.000000 
#    z -0.001280 0.000000 1.791940 
# 
# From -- ./inp_files/180863.got.cif
#   From: 2010.06.25/outbox.cif.g09.slc.cpg/sg12_91_cif.got.tgz:180863.got - 2010.06.28 00:19:55.
