data_PCOD8100003
_publ_section_title
;
Structure prediction by ZEFSAII (Michael W. Deem and Ramdas Pophale) SiO2 
 PCOD8100003
Probable space group: C 2/M
;
_chemical_formula_sum "Si O2"
_cell_formula_units_Z 48
_cell_length_a 12.866828
_cell_length_b 23.052722
_cell_length_c 13.498778
_cell_angle_alpha 90.000000
_cell_angle_beta 42.364898
_cell_angle_gamma 90.000000
_cell_volume 2698.058111
_symmetry_space_group_name_H-M "C 2/M"
_symmetry_group_IT_number 12
_symmetry_cell_setting 'monoclinic'
loop_
_space_group_symop_operation_xyz
x,y,z
-x,y,-z
-x,-y,-z
x,-y,z
1/2+x,1/2+y,z
1/2-x,1/2+y,-z
1/2-x,1/2-y,-z
1/2+x,1/2-y,z
loop_
_atom_site_type_symbol
_atom_site_label
_atom_site_fract_x
_atom_site_fract_y
_atom_site_fract_z
Si Si1 0.356191 0.565171 0.166859
Si Si2 0.113930 0.764535 0.168501
Si Si3 0.672829 0.716831 0.340113
Si Si4 0.017864 0.434703 0.373837
Si Si5 0.827064 0.174714 0.310390
Si Si6 0.128483 0.333142 0.634917
O O1 0.389816 0.500000 0.183137
O O2 0.198022 0.565632 0.215018
O O3 0.325523 0.607540 0.280789
O O4 0.500000 0.587282 0.000000
O O5 0.179431 0.797782 0.218970
O O6 0.004624 0.807035 0.183934
O O7 0.021025 0.707417 0.268540
O O8 0.250000 0.750000 0.000000
O O9 0.500000 0.708238 0.500000
O O10 0.726968 0.784021 0.309390
O O11 0.791629 0.673316 0.313293
O O12 0.950594 0.500000 0.418016
O O13 0.000000 0.410420 0.500000
O O14 0.924127 0.397766 0.358541
O O15 0.761067 0.186405 0.465932
#
# Coordination Sequence:
#
# PCOD8100003 Si02
#       6
#     8   8   8   8   8   8
#     4  10  22  36  54  83 117 150 185 235 293 340
#     4  11  24  36  54  83 112 150 190 232 288 341
#     4  11  20  37  55  78 113 151 190 229 279 343
#     4  10  20  35  57  85 114 145 187 237 284 339
#     4  11  21  33  56  81 109 149 185 228 280 339
#     4  11  21  35  57  82 110 148 186 230 286 337
#
# _framework density 17.790572999999998
#
# number of rings (size 3 to 8) (size 9 to 14) (size 15 to 20)
#    0.000    1.333    5.000    2.000    4.667    2.000 
#    0.000    0.000    0.000    1.500    0.000    1.167 
#    0.000    0.000    0.000    0.000    0.000    0.000 
#
# Total GULP energy -297497.385085 kJ/mol
# GULP energy per Si atom -12395.724379 kJ/mol
# Density = 1.775008 g / cm^3
# Si number density = 17.790573 Si / 1000 Ang^3
#
#
#
# Elastic Constant Matrix: (Units=GPa)
#
#
# Indices 1 2 3 4 5 6 
#
# 1 107.6607 39.4725 41.5595 -0.0003 -1.9394 0.0002
# 2 39.4725 94.4441 23.3983 0.0000 1.6355 0.0000
# 3 41.5595 23.3983 110.9324 -0.0001 -11.3239 0.0001
# 4 -0.0003 0.0000 -0.0001 23.7948 0.0002 1.0639
# 5 -1.9394 1.6355 -11.3239 0.0002 26.9549 -0.0001
# 6 0.0002 0.0000 0.0001 1.0639 -0.0001 28.0944
#
#
#
# Elastic Compliance Matrix: (Units=1/GPa)
#
#
# Indices 1 2 3 4 5 6 
#
# 1 0.012266 -0.004188 -0.003757 0.000000 -0.000442 0.000000
# 2 -0.004188 0.012681 -0.001269 0.000000 -0.001604 0.000000
# 3 -0.003757 -0.001269 0.011148 0.000000 0.004490 0.000000
# 4 0.000000 0.000000 0.000000 0.042097 0.000000 -0.001594
# 5 -0.000442 -0.001604 0.004490 0.000000 0.039051 0.000000
# 6 0.000000 0.000000 0.000000 -0.001594 0.000000 0.035655
#
#
# Mechanical properties :
#
#
# Convention : Reuss Voigt Hill
#
# Bulk Modulus (GPa) = 56.60586 57.98864 57.29725
# Shear Modulus (GPa) = 28.21407 29.67595 28.94501
#
# Velocity S-wave (km/s) = 3.98666 4.08863 4.03797
# Velocity P-wave (km/s) = 7.28548 7.41317 7.34960
#
# Compressibility (1/GPa) = 0.01766602
#
# Stress axis : x y z
#
# Youngs Moduli (GPa) = 81.52363 78.85826 89.70085
#
# Poissons Ratio (x) = 0.33027 0.33702
# Poissons Ratio (y) = 0.34144 0.11387
# Poissons Ratio (z) = 0.30630 0.10010
#
# Static dielectric constant tensor:
#      x y z
#    x 3.727000 0.000000 -0.108090 
#    y 0.000000 3.189530 0.000000 
#    z -0.108090 0.000000 3.326380 
# 
# 
# High freq. dielectric constant tensor:
#      x y z
#    x 1.681970 0.000000 -0.023520 
#    y 0.000000 1.670830 0.000000 
#    z -0.023520 0.000000 1.688750 
# 
# From -- ./inp_files/50603.got.cif
#   From: 2010.06.25/outbox.cif.g09.slc.cpg/sg12_26_cif.got.tgz:50603.got - 2010.06.28 00:19:55.
