data_PCOD8100907
_publ_section_title
;
Structure prediction by ZEFSAII (Michael W. Deem and Ramdas Pophale) SiO2 
 PCOD8100907
Probable space group: C 2/M
;
_chemical_formula_sum "Si O2"
_cell_formula_units_Z 52
_cell_length_a 21.072046
_cell_length_b 12.129573
_cell_length_c 12.363377
_cell_angle_alpha 90.000000
_cell_angle_beta 126.972674
_cell_angle_gamma 90.000000
_cell_volume 2524.607986
_symmetry_space_group_name_H-M "C 2/M"
_symmetry_group_IT_number 12
_symmetry_cell_setting 'monoclinic'
loop_
_space_group_symop_operation_xyz
x,y,z
-x,y,-z
-x,-y,-z
x,-y,z
1/2+x,1/2+y,z
1/2-x,1/2+y,-z
1/2-x,1/2-y,-z
1/2+x,1/2-y,z
loop_
_atom_site_type_symbol
_atom_site_label
_atom_site_fract_x
_atom_site_fract_y
_atom_site_fract_z
Si Si1 0.176367 0.675905 0.305347
Si Si2 0.690615 0.000000 0.674256
Si Si3 0.631436 0.242215 0.857554
Si Si4 0.586674 0.000000 0.773453
Si Si5 0.505744 0.627594 0.384293
Si Si6 0.095282 0.500000 0.352848
Si Si7 0.160673 0.879419 0.419857
Si Si8 0.731870 0.281151 0.159608
O O1 0.105027 0.601821 0.278983
O O2 0.153788 0.799647 0.312307
O O3 0.254468 0.627892 0.438972
O O4 0.193076 0.684599 0.194504
O O5 0.614601 0.000000 0.676586
O O6 0.745530 0.107917 0.750767
O O7 0.659156 0.000000 0.517599
O O8 0.621574 0.110058 0.866146
O O9 0.547478 0.298210 0.748380
O O10 0.688667 0.266519 0.814361
O O11 0.667234 0.302551 0.999604
O O12 0.491376 0.000000 0.682830
O O13 0.500000 0.671611 0.500000
O O14 0.479780 0.500000 0.348470
O O15 0.596428 0.648466 0.445272
O O16 0.146433 0.000000 0.356452
#
# Coordination Sequence:
#
# PCOD8100907 Si02
#       8
#     8   4   8   4   8   4   8   8
#     4  11  22  36  58  89 122 164 196 251 309 371
#     4  10  21  40  66  95 121 162 218 265 317 357
#     4  10  22  43  62  92 122 164 208 259 307 374
#     4  10  23  41  64  91 127 164 209 267 315 372
#     4  10  21  37  61  89 120 156 198 256 308 356
#     4  12  23  39  64  98 128 164 206 266 317 379
#     4  10  20  36  55  85 120 151 200 251 297 358
#     4  10  23  39  63  89 124 164 210 254 308 374
#
# _framework density 20.597256999999999
#
# number of rings (size 3 to 8) (size 9 to 14) (size 15 to 20)
#    0.000    1.692    0.769    3.923    2.154    4.308 
#    2.769    3.846    0.000    1.846    0.000    0.000 
#    0.000    0.000    0.000    0.000    0.000    0.000 
#
# Total GULP energy -322270.920018 kJ/mol
# GULP energy per Si atom -12395.035385 kJ/mol
# Density = 2.055038 g / cm^3
# Si number density = 20.597257 Si / 1000 Ang^3
#
#
#
# Elastic Constant Matrix: (Units=GPa)
#
#
# Indices 1 2 3 4 5 6 
#
# 1 104.9602 68.2713 20.3552 0.0000 -9.2732 0.0000
# 2 68.2713 47.6302 54.4509 0.0000 -1.0705 0.0000
# 3 20.3552 54.4509 46.1245 0.0000 -14.0509 0.0000
# 4 0.0000 0.0000 0.0000 25.7793 0.0000 -2.8936
# 5 -9.2732 -1.0705 -14.0509 0.0000 27.7801 0.0000
# 6 0.0000 0.0000 0.0000 -2.8936 0.0000 31.8562
#
#
#
# Elastic Compliance Matrix: (Units=1/GPa)
#
#
# Indices 1 2 3 4 5 6 
#
# 1 0.005709 0.009821 -0.015861 0.000000 -0.005738 0.000000
# 2 0.009821 -0.020285 0.024085 0.000000 0.014678 0.000000
# 3 -0.015861 0.024085 -0.001280 0.000000 -0.005014 0.000000
# 4 0.000000 0.000000 0.000000 0.039190 0.000000 0.003560
# 5 -0.005738 0.014678 -0.005014 0.000000 0.032111 0.000000
# 6 0.000000 0.000000 0.000000 0.003560 0.000000 0.031714
#
#
# Mechanical properties :
#
#
# Convention : Reuss Voigt Hill
#
# Bulk Modulus (GPa) = 49.42518 53.87442 51.64980
# Shear Modulus (GPa) = 86.48496 20.79229 53.63863
#
# Velocity S-wave (km/s) = 6.48689 3.18066 5.10864
# Velocity P-wave (km/s) = 8.95290 6.30093 7.74132
#
# Compressibility (1/GPa) = 0.02023260
#
# Stress axis : x y z
#
# Youngs Moduli (GPa) = 175.17653 -49.29650 -781.18522
#
# Poissons Ratio (x) = 0.48412 -12.39016
# Poissons Ratio (y) = -1.72035 18.81475
# Poissons Ratio (z) = 2.77843 1.18730
#
# Static dielectric constant tensor:
#      x y z
#    x 3.981590 0.000000 -0.102920 
#    y 0.000000 3.864850 0.000000 
#    z -0.102920 0.000000 3.399420 
# 
# 
# High freq. dielectric constant tensor:
#      x y z
#    x 1.825220 0.000000 -0.009610 
#    y 0.000000 1.809900 0.000000 
#    z -0.009610 0.000000 1.772740 
# 
# From -- ./inp_files/165799.got.cif
#   From: 2010.06.25/outbox.cif.g09.slc.cpg/sg12_83_cif.got.tgz:165799.got - 2010.06.28 00:19:55.
