data_PCOD8100843
_publ_section_title
;
Structure prediction by ZEFSAII (Michael W. Deem and Ramdas Pophale) SiO2 
 PCOD8100843
Probable space group: C 2/M
;
_chemical_formula_sum "Si O2"
_cell_formula_units_Z 56
_cell_length_a 19.490574
_cell_length_b 9.480299
_cell_length_c 18.346030
_cell_angle_alpha 90.000000
_cell_angle_beta 114.023025
_cell_angle_gamma 90.000000
_cell_volume 3096.286789
_symmetry_space_group_name_H-M "C 2/M"
_symmetry_group_IT_number 12
_symmetry_cell_setting 'monoclinic'
loop_
_space_group_symop_operation_xyz
x,y,z
-x,y,-z
-x,-y,-z
x,-y,z
1/2+x,1/2+y,z
1/2-x,1/2+y,-z
1/2-x,1/2-y,-z
1/2+x,1/2-y,z
loop_
_atom_site_type_symbol
_atom_site_label
_atom_site_fract_x
_atom_site_fract_y
_atom_site_fract_z
Si Si1 0.057206 0.661974 0.465085
Si Si2 0.789796 0.659542 0.847771
Si Si3 0.972754 0.162572 0.690718
Si Si4 0.874002 0.164272 0.166678
Si Si5 0.336104 0.336081 0.732216
Si Si6 0.272976 0.838691 0.440815
Si Si7 0.675015 0.162894 0.978661
O O1 0.038179 0.500000 0.438710
O O2 0.051596 0.746886 0.388439
O O3 0.138992 0.677999 0.536067
O O4 0.000000 0.723846 0.500000
O O5 0.788922 0.500000 0.818149
O O6 0.703875 0.706500 0.827408
O O7 0.827774 0.756346 0.804260
O O8 0.842607 0.670944 0.942685
O O9 0.917693 0.198118 0.734045
O O10 0.057813 0.198668 0.749664
O O11 0.964139 0.000000 0.664594
O O12 0.886358 0.259639 0.099166
O O13 0.873129 0.000000 0.143194
O O14 0.326423 0.500000 0.745094
O O15 0.271536 0.282963 0.648934
O O16 0.250000 0.750000 0.500000
O O17 0.250150 0.000000 0.446825
O O18 0.684702 0.000000 0.958614
O O19 0.750000 0.250000 0.000000
#
# Coordination Sequence:
#
# PCOD8100843 Si02
#       7
#     8   8   8   8   8   8   8
#     4  10  22  37  54  78 108 138 174 221 267 314
#     4   9  19  34  53  79 106 133 171 215 258 308
#     4  10  21  38  55  76 107 140 177 219 263 313
#     4   9  19  35  55  79 107 138 175 220 263 310
#     4  10  21  35  53  77 105 138 177 217 259 311
#     4  10  20  36  55  76 103 138 178 217 258 311
#     4   9  17  32  54  80 109 139 174 216 260 311
#
# _framework density 18.086179000000001
#
# number of rings (size 3 to 8) (size 9 to 14) (size 15 to 20)
#    0.000    2.429    1.429    1.286    2.000    4.857 
#    0.000    0.714    0.000    4.286    0.000    0.000 
#    0.000    0.000    0.000    0.000    0.000    0.000 
#
# Total GULP energy -347159.962147 kJ/mol
# GULP energy per Si atom -12398.570077 kJ/mol
# Density = 1.804501 g / cm^3
# Si number density = 18.086179 Si / 1000 Ang^3
#
#
#
# Elastic Constant Matrix: (Units=GPa)
#
#
# Indices 1 2 3 4 5 6 
#
# 1 67.2434 22.2635 15.8183 0.0000 -10.1008 0.0000
# 2 22.2635 67.6415 36.4618 0.0000 -13.8027 0.0000
# 3 15.8183 36.4618 62.8677 0.0000 -13.6218 0.0000
# 4 0.0000 0.0000 0.0000 34.1255 0.0000 -4.4862
# 5 -10.1008 -13.8027 -13.6218 0.0000 28.9859 0.0000
# 6 0.0000 0.0000 0.0000 -4.4862 0.0000 25.7645
#
#
#
# Elastic Compliance Matrix: (Units=1/GPa)
#
#
# Indices 1 2 3 4 5 6 
#
# 1 0.017069 -0.004376 -0.001024 0.000000 0.003383 0.000000
# 2 -0.004376 0.023267 -0.011493 0.000000 0.004153 0.000000
# 3 -0.001024 -0.011493 0.024012 0.000000 0.005454 0.000000
# 4 0.000000 0.000000 0.000000 0.029990 0.000000 0.005222
# 5 0.003383 0.004153 0.005454 0.000000 0.040219 0.000000
# 6 0.000000 0.000000 0.000000 0.005222 0.000000 0.039722
#
#
# Mechanical properties :
#
#
# Convention : Reuss Voigt Hill
#
# Bulk Modulus (GPa) = 32.72064 38.53776 35.62920
# Shear Modulus (GPa) = 22.90912 25.98911 24.44912
#
# Velocity S-wave (km/s) = 3.56288 3.79484 3.68069
# Velocity P-wave (km/s) = 5.92084 6.36829 6.14864
#
# Compressibility (1/GPa) = 0.03056175
#
# Stress axis : x y z
#
# Youngs Moduli (GPa) = 58.58498 42.97916 41.64623
#
# Poissons Ratio (x) = 0.18807 0.04264
# Poissons Ratio (y) = 0.25636 0.47866
# Poissons Ratio (z) = 0.05998 0.49398
#
# Static dielectric constant tensor:
#      x y z
#    x 3.361430 0.000000 0.214130 
#    y 0.000000 3.449470 0.000000 
#    z 0.214130 0.000000 3.657040 
# 
# 
# High freq. dielectric constant tensor:
#      x y z
#    x 1.686220 0.000000 0.004840 
#    y 0.000000 1.701200 0.000000 
#    z 0.004840 0.000000 1.704280 
# 
# From -- ./inp_files/275506.got.cif
#   From: 2010.06.25/outbox.cif.g09.slc.cpg/sg12_138_cif.got.tgz:275506.got - 2010.06.28 00:19:55.
