data_PCOD8100097
_publ_section_title
;
Structure prediction by ZEFSAII (Michael W. Deem and Ramdas Pophale) SiO2 
 PCOD8100097
Probable space group: C 2/M
;
_chemical_formula_sum "Si O2"
_cell_formula_units_Z 56
_cell_length_a 12.834911
_cell_length_b 13.494248
_cell_length_c 14.173618
_cell_angle_alpha 90.000000
_cell_angle_beta 89.767757
_cell_angle_gamma 90.000000
_cell_volume 2454.814641
_symmetry_space_group_name_H-M "C 2/M"
_symmetry_group_IT_number 12
_symmetry_cell_setting 'monoclinic'
loop_
_space_group_symop_operation_xyz
x,y,z
-x,y,-z
-x,-y,-z
x,-y,z
1/2+x,1/2+y,z
1/2-x,1/2+y,-z
1/2-x,1/2-y,-z
1/2+x,1/2-y,z
loop_
_atom_site_type_symbol
_atom_site_label
_atom_site_fract_x
_atom_site_fract_y
_atom_site_fract_z
Si Si1 0.754929 0.888679 0.542562
Si Si2 0.453054 0.695446 0.837337
Si Si3 0.538338 0.387299 0.354507
Si Si4 0.682491 0.704835 0.639455
Si Si5 0.046773 0.610236 0.896490
Si Si6 0.273103 0.384270 0.958944
Si Si7 0.176940 0.114117 0.836011
O O1 0.879044 0.883571 0.561643
O O2 0.691810 0.822113 0.618043
O O3 0.740963 0.851227 0.434951
O O4 0.712185 0.000000 0.553548
O O5 0.406230 0.661443 0.737256
O O6 0.486366 0.811181 0.831823
O O7 0.368576 0.678843 0.918474
O O8 0.555070 0.629639 0.857920
O O9 0.504212 0.500000 0.333010
O O10 0.436130 0.325514 0.379430
O O11 0.715901 0.679907 0.746809
O O12 0.035023 0.500000 0.852390
O O13 0.168077 0.641613 0.902963
O O14 0.000000 0.610851 0.000000
O O15 0.300173 0.500000 0.950266
O O16 0.259230 0.355386 0.069831
O O17 0.197599 0.000000 0.810263
#
# Coordination Sequence:
#
# PCOD8100097 Si02
#       7
#     8   8   8   8   8   8   8
#     4  10  21  38  63  90 117 153 195 239 288 348
#     4  11  21  35  59  86 115 149 198 248 289 336
#     4  10  21  38  61  89 119 152 194 241 292 350
#     4  10  20  36  61  89 120 151 191 239 293 350
#     4  10  23  40  55  76 112 158 201 239 287 347
#     4  10  21  38  60  84 113 152 197 244 291 342
#     4  10  20  35  57  87 119 149 189 244 299 347
#
# _framework density 22.812314000000001
#
# number of rings (size 3 to 8) (size 9 to 14) (size 15 to 20)
#    0.000    1.857    0.000    5.143    0.000    8.000 
#    0.000    5.714    0.000   17.143    0.000    0.000 
#    0.000    0.000    0.000    0.000    0.000    0.000 
#
# Total GULP energy -347210.889835 kJ/mol
# GULP energy per Si atom -12400.388923 kJ/mol
# Density = 2.276039 g / cm^3
# Si number density = 22.812314 Si / 1000 Ang^3
#
#
#
# Elastic Constant Matrix: (Units=GPa)
#
#
# Indices 1 2 3 4 5 6 
#
# 1 64.1963 46.8832 21.8327 0.0000 -13.7590 0.0000
# 2 46.8832 158.5162 52.2106 0.0000 -17.3806 0.0000
# 3 21.8327 52.2106 107.5390 0.0000 -13.2489 0.0000
# 4 0.0000 0.0000 0.0000 22.8883 0.0000 -9.7902
# 5 -13.7590 -17.3806 -13.2489 0.0000 24.9688 0.0000
# 6 0.0000 0.0000 0.0000 -9.7902 0.0000 31.1099
#
#
#
# Elastic Compliance Matrix: (Units=1/GPa)
#
#
# Indices 1 2 3 4 5 6 
#
# 1 0.021293 -0.005171 -0.000867 0.000000 0.007674 0.000000
# 2 -0.005171 0.009066 -0.003130 0.000000 0.001801 0.000000
# 3 -0.000867 -0.003130 0.011413 0.000000 0.003400 0.000000
# 4 0.000000 0.000000 0.000000 0.050486 0.000000 0.015888
# 5 0.007674 0.001801 0.003400 0.000000 0.047336 0.000000
# 6 0.000000 0.000000 0.000000 0.015888 0.000000 0.037144
#
#
# Mechanical properties :
#
#
# Convention : Reuss Voigt Hill
#
# Bulk Modulus (GPa) = 42.66741 63.56716 53.11729
# Shear Modulus (GPa) = 24.64420 29.74837 27.19629
#
# Velocity S-wave (km/s) = 3.29036 3.61508 3.45654
# Velocity P-wave (km/s) = 5.76017 6.73430 6.26620
#
# Compressibility (1/GPa) = 0.02343709
#
# Stress axis : x y z
#
# Youngs Moduli (GPa) = 46.96357 110.29987 87.61567
#
# Poissons Ratio (x) = 0.57032 0.07597
# Poissons Ratio (y) = 0.24283 0.27424
# Poissons Ratio (z) = 0.04072 0.34525
#
# Static dielectric constant tensor:
#      x y z
#    x 3.839070 0.000000 0.028050 
#    y 0.000000 4.365660 0.000000 
#    z 0.028050 0.000000 4.149210 
# 
# 
# High freq. dielectric constant tensor:
#      x y z
#    x 1.878420 0.000000 -0.004210 
#    y 0.000000 1.914130 0.000000 
#    z -0.004210 0.000000 1.893840 
# 
# From -- ./inp_files/204978.got.cif
#   From: 2010.06.25/outbox.cif.g09.slc.cpg/sg12_103_cif.got.tgz:204978.got - 2010.06.28 00:19:55.
