data_PCOD8100442
_publ_section_title
;
Structure prediction by ZEFSAII (Michael W. Deem and Ramdas Pophale) SiO2 
 PCOD8100442
Probable space group: C 2/M
;
_chemical_formula_sum "Si O2"
_cell_formula_units_Z 64
_cell_length_a 14.723126
_cell_length_b 25.708168
_cell_length_c 12.378300
_cell_angle_alpha 90.000000
_cell_angle_beta 41.115473
_cell_angle_gamma 90.000000
_cell_volume 3080.916415
_symmetry_space_group_name_H-M "C 2/M"
_symmetry_group_IT_number 12
_symmetry_cell_setting 'monoclinic'
loop_
_space_group_symop_operation_xyz
x,y,z
-x,y,-z
-x,-y,-z
x,-y,z
1/2+x,1/2+y,z
1/2-x,1/2+y,-z
1/2-x,1/2-y,-z
1/2+x,1/2-y,z
loop_
_atom_site_type_symbol
_atom_site_label
_atom_site_fract_x
_atom_site_fract_y
_atom_site_fract_z
Si Si1 0.990587 0.346065 0.387802
Si Si2 0.031009 0.843887 0.756745
Si Si3 0.556925 0.443182 0.067099
Si Si4 0.633061 0.253901 0.820916
Si Si5 0.056616 0.440927 0.832053
Si Si6 0.776467 0.343236 0.398667
Si Si7 0.627675 0.058276 0.204098
Si Si8 0.754500 0.799590 0.067100
O O1 0.025025 0.407272 0.370053
O O2 0.105697 0.326443 0.199376
O O3 0.000000 0.320817 0.500000
O O4 0.847069 0.334374 0.454528
O O5 0.093226 0.798536 0.773620
O O6 0.111100 0.843881 0.570185
O O7 0.048906 0.902622 0.784113
O O8 0.866480 0.835325 0.904912
O O9 0.552518 0.500000 0.129564
O O10 0.500000 0.450358 0.000000
O O11 0.714451 0.421728 0.927126
O O12 0.704547 0.205321 0.698230
O O13 0.724138 0.283689 0.827511
O O14 0.500000 0.230188 0.000000
O O15 0.119679 0.500000 0.771759
O O16 0.172649 0.397929 0.697032
O O17 0.924290 0.437676 0.872680
O O18 0.000000 0.427029 0.000000
O O19 0.617770 0.000000 0.258139
O O20 0.750000 0.750000 0.000000
#
# Coordination Sequence:
#
# PCOD8100442 Si02
#       8
#     8   8   8   8   8   8   8   8
#     4  11  22  36  58  87 116 152 191 242 291 348
#     4  11  22  38  59  84 119 156 192 239 298 359
#     4  10  20  35  59  85 118 160 197 233 289 361
#     4  10  21  38  60  82 113 154 194 243 287 352
#     4   9  19  38  65  89 116 157 204 253 299 351
#     4  11  23  38  59  88 121 150 196 249 298 353
#     4   9  19  36  58  88 117 150 196 239 286 350
#     4  11  23  39  60  82 112 153 199 239 295 357
#
# _framework density 20.773040000000002
#
# number of rings (size 3 to 8) (size 9 to 14) (size 15 to 20)
#    0.000    1.750    1.250    4.125    1.750    2.750 
#    0.000    0.000    0.000    0.000    0.000    3.500 
#    0.000    0.000    0.000    0.000    0.000    0.000 
#
# Total GULP energy -396462.518299 kJ/mol
# GULP energy per Si atom -12389.453697 kJ/mol
# Density = 2.072576 g / cm^3
# Si number density = 20.773040 Si / 1000 Ang^3
#
#
#
# Elastic Constant Matrix: (Units=GPa)
#
#
# Indices 1 2 3 4 5 6 
#
# 1 26.1393 -6.5627 13.1092 0.0001 -3.3635 0.0000
# 2 -6.5627 96.8193 46.6230 0.0000 -9.4621 0.0000
# 3 13.1092 46.6230 125.4832 0.0000 -4.7786 0.0000
# 4 0.0001 0.0000 0.0000 -121.9776 -0.0001 -6.8006
# 5 -3.3635 -9.4621 -4.7786 -0.0001 22.3565 0.0000
# 6 0.0000 0.0000 0.0000 -6.8006 0.0000 15.0316
#
#
#
# Elastic Compliance Matrix: (Units=1/GPa)
#
#
# Indices 1 2 3 4 5 6 
#
# 1 0.044663 0.007223 -0.007035 0.000000 0.008273 0.000000
# 2 0.007223 0.014184 -0.005802 0.000000 0.005850 0.000000
# 3 -0.007035 -0.005802 0.010814 0.000000 -0.001202 0.000000
# 4 0.000000 0.000000 0.000000 -0.007997 0.000000 -0.003618
# 5 0.008273 0.005850 -0.001202 0.000000 0.048193 0.000000
# 6 0.000000 0.000000 0.000000 -0.003618 0.000000 0.064890
#
#
# Mechanical properties :
#
#
# Convention : Reuss Voigt Hill
#
# Bulk Modulus (GPa) = 17.11325 39.42010 28.26668
# Shear Modulus (GPa) = 24.33672 -3.89973 10.21849
#
# Velocity S-wave (km/s) = 3.42651 -1.37163 2.22031
# Velocity P-wave (km/s) = 4.88986 4.06316 4.49555
#
# Compressibility (1/GPa) = 0.05843424
#
# Stress axis : x y z
#
# Youngs Moduli (GPa) = 22.39003 70.50368 92.47311
#
# Poissons Ratio (x) = -0.50928 0.65052
# Poissons Ratio (y) = -0.16173 0.53651
# Poissons Ratio (z) = 0.15751 0.40905
#
# Static dielectric constant tensor:
#      x y z
#    x 3.540870 0.000000 -0.109230 
#    y 0.000000 4.009850 0.000000 
#    z -0.109230 0.000000 3.829280 
# 
# 
# High freq. dielectric constant tensor:
#      x y z
#    x 1.790910 0.000000 -0.004340 
#    y 0.000000 1.834000 0.000000 
#    z -0.004340 0.000000 1.804660 
# 
# From -- ./inp_files/149720.got.cif
#   From: 2010.06.25/outbox.cif.g09.slc.cpg/sg12_75_cif.got.tgz:149720.got - 2010.06.28 00:19:55.
