data_PCOD8100376
_publ_section_title
;
Structure prediction by ZEFSAII (Michael W. Deem and Ramdas Pophale) SiO2 
 PCOD8100376
Probable space group: C 2/M
;
_chemical_formula_sum "Si O2"
_cell_formula_units_Z 56
_cell_length_a 15.180317
_cell_length_b 8.716322
_cell_length_c 23.642984
_cell_angle_alpha 90.000000
_cell_angle_beta 63.440588
_cell_angle_gamma 90.000000
_cell_volume 2798.225807
_symmetry_space_group_name_H-M "C 2/M"
_symmetry_group_IT_number 12
_symmetry_cell_setting 'monoclinic'
loop_
_space_group_symop_operation_xyz
x,y,z
-x,y,-z
-x,-y,-z
x,-y,z
1/2+x,1/2+y,z
1/2-x,1/2+y,-z
1/2-x,1/2-y,-z
1/2+x,1/2-y,z
loop_
_atom_site_type_symbol
_atom_site_label
_atom_site_fract_x
_atom_site_fract_y
_atom_site_fract_z
Si Si1 0.190210 0.821907 0.857508
Si Si2 0.925561 0.681024 0.569144
Si Si3 0.770400 0.819103 0.433586
Si Si4 0.397549 0.319577 0.798525
Si Si5 0.344823 0.321300 0.001614
Si Si6 0.986992 0.180556 0.345449
Si Si7 0.495876 0.181036 0.878566
O O1 0.286752 0.725835 0.814114
O O2 0.102260 0.761208 0.843047
O O3 0.209630 0.000000 0.839199
O O4 0.159722 0.792790 0.930661
O O5 0.936550 0.500000 0.569802
O O6 0.814911 0.732462 0.585116
O O7 0.948574 0.748946 0.623301
O O8 0.000000 0.745940 0.500000
O O9 0.750000 0.750000 0.500000
O O10 0.874748 0.758536 0.380087
O O11 0.770683 0.000000 0.440569
O O12 0.404130 0.500000 0.809144
O O13 0.468124 0.268796 0.727158
O O14 0.429371 0.225817 0.844355
O O15 0.350370 0.500000 0.984768
O O16 0.442191 0.238579 0.950707
O O17 0.250000 0.250000 0.000000
O O18 0.991012 0.000000 0.351683
O O19 0.509130 0.000000 0.877295
#
# Coordination Sequence:
#
# PCOD8100376 Si02
#       7
#     8   8   8   8   8   8   8
#     4  11  24  42  65  93 124 163 210 259 315 372
#     4  10  20  35  58  89 120 153 195 242 296 358
#     4  10  20  36  58  86 119 152 192 239 296 355
#     4  11  24  43  63  87 124 166 212 261 310 371
#     4  11  22  38  64  95 127 162 209 262 315 370
#     4  10  23  40  60  88 120 157 200 248 304 363
#     4  12  25  41  64  94 127 166 210 257 314 373
#
# _framework density 20.01268
#
# number of rings (size 3 to 8) (size 9 to 14) (size 15 to 20)
#    0.000    1.286    2.857    3.000    0.000    6.571 
#    0.000    1.429    0.000    0.000    0.000    0.000 
#    0.000    0.000    0.000    0.000    0.000    0.000 
#
# Total GULP energy -347352.366726 kJ/mol
# GULP energy per Si atom -12405.441669 kJ/mol
# Density = 1.996713 g / cm^3
# Si number density = 20.012680 Si / 1000 Ang^3
#
#
#
# Elastic Constant Matrix: (Units=GPa)
#
#
# Indices 1 2 3 4 5 6 
#
# 1 126.9788 22.5326 38.3466 0.0000 -22.9584 0.0000
# 2 22.5326 58.8674 36.8098 0.0000 -0.9411 0.0000
# 3 38.3466 36.8098 103.7910 0.0000 -21.8880 0.0000
# 4 0.0000 0.0000 0.0000 28.9181 0.0000 1.7163
# 5 -22.9584 -0.9411 -21.8880 0.0000 28.7699 0.0000
# 6 0.0000 0.0000 0.0000 1.7163 0.0000 34.5498
#
#
#
# Elastic Compliance Matrix: (Units=1/GPa)
#
#
# Indices 1 2 3 4 5 6 
#
# 1 0.010028 -0.003001 -0.001160 0.000000 0.007021 0.000000
# 2 -0.003001 0.023684 -0.009091 0.000000 -0.008536 0.000000
# 3 -0.001160 -0.009091 0.015520 0.000000 0.010584 0.000000
# 4 0.000000 0.000000 0.000000 0.034683 0.000000 -0.001723
# 5 0.007021 -0.008536 0.010584 0.000000 0.048135 0.000000
# 6 0.000000 0.000000 0.000000 -0.001723 0.000000 0.029029
#
#
# Mechanical properties :
#
#
# Convention : Reuss Voigt Hill
#
# Bulk Modulus (GPa) = 43.99917 53.89060 48.94488
# Shear Modulus (GPa) = 25.62027 31.24409 28.43218
#
# Velocity S-wave (km/s) = 3.58187 3.95551 3.77332
# Velocity P-wave (km/s) = 6.25618 6.91723 6.59499
#
# Compressibility (1/GPa) = 0.02272770
#
# Stress axis : x y z
#
# Youngs Moduli (GPa) = 99.72476 42.22222 64.43476
#
# Poissons Ratio (x) = 0.12670 0.07473
# Poissons Ratio (y) = 0.29925 0.58579
# Poissons Ratio (z) = 0.11567 0.38385
#
# Static dielectric constant tensor:
#      x y z
#    x 4.225560 0.000000 -0.096370 
#    y 0.000000 3.611540 0.000000 
#    z -0.096370 0.000000 3.764220 
# 
# 
# High freq. dielectric constant tensor:
#      x y z
#    x 1.797880 0.000000 -0.008150 
#    y 0.000000 1.780520 0.000000 
#    z -0.008150 0.000000 1.777450 
# 
# From -- ./inp_files/338568.got.cif
#   From: 2010.06.25/outbox.cif.g09.slc.cpg/sg12_170_cif.got.tgz:338568.got - 2010.06.28 00:19:55.
