data_PCOD8100783
_publ_section_title
;
Structure prediction by ZEFSAII (Michael W. Deem and Ramdas Pophale) SiO2 
 PCOD8100783
Probable space group: C 2/M
;
_chemical_formula_sum "Si O2"
_cell_formula_units_Z 64
_cell_length_a 26.373869
_cell_length_b 9.043222
_cell_length_c 14.282083
_cell_angle_alpha 90.000000
_cell_angle_beta 86.438726
_cell_angle_gamma 90.000000
_cell_volume 3399.766814
_symmetry_space_group_name_H-M "C 2/M"
_symmetry_group_IT_number 12
_symmetry_cell_setting 'monoclinic'
loop_
_space_group_symop_operation_xyz
x,y,z
-x,y,-z
-x,-y,-z
x,-y,z
1/2+x,1/2+y,z
1/2-x,1/2+y,-z
1/2-x,1/2-y,-z
1/2+x,1/2-y,z
loop_
_atom_site_type_symbol
_atom_site_label
_atom_site_fract_x
_atom_site_fract_y
_atom_site_fract_z
Si Si1 0.272888 0.826940 0.908018
Si Si2 0.439104 0.824045 0.712651
Si Si3 0.256018 0.326526 0.294059
Si Si4 0.548727 0.824499 0.939803
Si Si5 0.152124 0.324310 0.402335
Si Si6 0.114629 0.324776 0.098223
Si Si7 0.949585 0.323899 0.270320
Si Si8 0.150751 0.324041 0.614815
O O1 0.242129 0.791501 0.816899
O O2 0.329489 0.762990 0.888488
O O3 0.274161 0.000000 0.928141
O O4 0.250000 0.750000 0.000000
O O5 0.399118 0.760816 0.640888
O O6 0.423144 0.764672 0.817201
O O7 0.497246 0.771033 0.687863
O O8 0.437124 0.000000 0.710112
O O9 0.262422 0.500000 0.313143
O O10 0.202648 0.269008 0.343082
O O11 0.301975 0.239574 0.334591
O O12 0.553980 0.758588 0.834858
O O13 0.543791 0.000000 0.932594
O O14 0.500000 0.760604 0.000000
O O15 0.597110 0.775438 0.996486
O O16 0.150400 0.500000 0.399273
O O17 0.153444 0.265930 0.508264
O O18 0.114553 0.500000 0.105413
O O19 0.947874 0.500000 0.267373
O O20 0.901950 0.263863 0.335136
O O21 0.153537 0.500000 0.619478
#
# Coordination Sequence:
#
# PCOD8100783 Si02
#       8
#     8   8   8   8   8   8   8   8
#     4  10  21  34  50  74 100 130 165 202 246 293
#     4   9  14  25  45  67  97 132 163 199 245 300
#     4  10  20  36  54  71  96 136 178 203 234 300
#     4   9  14  21  36  59  91 126 155 185 228 289
#     4   9  17  31  50  70  95 130 171 210 249 297
#     4   9  15  25  42  64  91 128 164 193 234 290
#     4   9  17  26  39  68 104 129 155 198 255 304
#     4  10  21  33  48  76 106 129 160 211 264 294
#
# _framework density 18.824821
#
# number of rings (size 3 to 8) (size 9 to 14) (size 15 to 20)
#    0.000    2.625    2.500    0.375    1.750    1.000 
#    0.000    2.500    0.000    0.000    0.000    3.500 
#    0.000    3.000    0.000    0.000    0.000    0.000 
#
# Total GULP energy -396602.803134 kJ/mol
# GULP energy per Si atom -12393.837598 kJ/mol
# Density = 1.878197 g / cm^3
# Si number density = 18.824821 Si / 1000 Ang^3
#
#
#
# Elastic Constant Matrix: (Units=GPa)
#
#
# Indices 1 2 3 4 5 6 
#
# 1 156.8386 18.5601 80.9702 0.0000 9.7195 0.0000
# 2 18.5601 10.4958 21.3736 0.0000 0.5453 0.0000
# 3 80.9702 21.3736 148.6183 0.0000 -0.5212 0.0000
# 4 0.0000 0.0000 0.0000 15.6672 0.0000 3.7012
# 5 9.7195 0.5453 -0.5212 0.0000 36.4009 0.0000
# 6 0.0000 0.0000 0.0000 3.7012 0.0000 16.9115
#
#
#
# Elastic Compliance Matrix: (Units=1/GPa)
#
#
# Indices 1 2 3 4 5 6 
#
# 1 0.009630 -0.008764 -0.003995 0.000000 -0.002497 0.000000
# 2 -0.008764 0.142904 -0.015777 0.000000 -0.000026 0.000000
# 3 -0.003995 -0.015777 0.011179 0.000000 0.001463 0.000000
# 4 0.000000 0.000000 0.000000 0.067307 0.000000 -0.014730
# 5 -0.002497 -0.000026 0.001463 0.000000 0.028160 0.000000
# 6 0.000000 0.000000 0.000000 -0.014730 0.000000 0.062355
#
#
# Mechanical properties :
#
#
# Convention : Reuss Voigt Hill
#
# Bulk Modulus (GPa) = 9.37722 61.97335 35.67529
# Shear Modulus (GPa) = 12.07272 26.79920 19.43596
#
# Velocity S-wave (km/s) = 2.53518 3.77717 3.21668
# Velocity P-wave (km/s) = 3.68261 7.21216 5.72612
#
# Compressibility (1/GPa) = 0.10664136
#
# Stress axis : x y z
#
# Youngs Moduli (GPa) = 103.83685 6.99768 89.45040
#
# Poissons Ratio (x) = 0.06133 0.35737
# Poissons Ratio (y) = 0.91007 1.41125
# Poissons Ratio (z) = 0.41485 0.11040
#
# Static dielectric constant tensor:
#      x y z
#    x 3.793560 0.000000 0.016840 
#    y 0.000000 2.707920 0.000000 
#    z 0.016840 0.000000 3.720070 
# 
# 
# High freq. dielectric constant tensor:
#      x y z
#    x 1.747320 0.000000 0.006670 
#    y 0.000000 1.646130 0.000000 
#    z 0.006670 0.000000 1.743670 
# 
# From -- ./inp_files/238709.got.cif
#   From: 2010.06.25/outbox.cif.g09.slc.cpg/sg12_120_cif.got.tgz:238709.got - 2010.06.28 00:19:55.
