data_PCOD8100826
_publ_section_title
;
Structure prediction by ZEFSAII (Michael W. Deem and Ramdas Pophale) SiO2 
 PCOD8100826
Probable space group: C 2/M
;
_chemical_formula_sum "Si O2"
_cell_formula_units_Z 44
_cell_length_a 23.601769
_cell_length_b 10.706679
_cell_length_c 9.422203
_cell_angle_alpha 90.000000
_cell_angle_beta 106.167666
_cell_angle_gamma 90.000000
_cell_volume 2286.793753
_symmetry_space_group_name_H-M "C 2/M"
_symmetry_group_IT_number 12
_symmetry_cell_setting 'monoclinic'
loop_
_space_group_symop_operation_xyz
x,y,z
-x,y,-z
-x,-y,-z
x,-y,z
1/2+x,1/2+y,z
1/2-x,1/2+y,-z
1/2-x,1/2-y,-z
1/2+x,1/2-y,z
loop_
_atom_site_type_symbol
_atom_site_label
_atom_site_fract_x
_atom_site_fract_y
_atom_site_fract_z
Si Si1 0.184696 0.638098 0.848574
Si Si2 0.813635 0.208587 0.885647
Si Si3 0.000000 0.811187 0.500000
Si Si4 0.710575 0.143416 0.398154
Si Si5 0.609219 0.859799 0.533437
Si Si6 0.487908 0.500000 0.239205
Si Si7 0.406059 0.500000 0.908118
O O1 0.162197 0.500000 0.871105
O O2 0.255071 0.630299 0.878367
O O3 0.155114 0.686366 0.684180
O O4 0.162527 0.731443 0.953458
O O5 0.795922 0.322549 0.770630
O O6 0.865036 0.121345 0.860061
O O7 0.945855 0.729203 0.511888
O O8 0.983133 0.884717 0.344778
O O9 0.750000 0.250000 0.500000
O O10 0.644357 0.147764 0.411135
O O11 0.736134 0.000000 0.433620
O O12 0.586841 0.000000 0.547427
O O13 0.548413 0.500000 0.190961
O O14 0.435616 0.500000 0.085820
#
# Coordination Sequence:
#
# PCOD8100826 Si02
#       7
#     8   8   4   8   8   4   4
#     4  10  20  36  54  85 117 153 198 246 292 362
#     4  11  21  35  58  83 118 159 196 244 302 363
#     4  11  21  42  58  88 115 157 202 260 306 351
#     4  11  23  39  58  89 124 162 201 248 301 365
#     4  10  21  38  61  84 117 156 201 250 301 361
#     4  10  24  40  60  86 122 150 212 255 297 373
#     4  11  22  40  62  86 116 169 198 252 315 358
#
# _framework density 19.240912999999999
#
# number of rings (size 3 to 8) (size 9 to 14) (size 15 to 20)
#    0.000    1.455    2.727    3.000    1.273    0.000 
#    3.273    0.000    0.000    0.000    0.000   15.273 
#    0.000    0.000    0.000    0.000    0.000    0.000 
#
# Total GULP energy -272701.363953 kJ/mol
# GULP energy per Si atom -12395.516543 kJ/mol
# Density = 1.919712 g / cm^3
# Si number density = 19.240913 Si / 1000 Ang^3
#
#
#
# Elastic Constant Matrix: (Units=GPa)
#
#
# Indices 1 2 3 4 5 6 
#
# 1 65.4503 36.8349 4.9363 0.0000 -4.3298 0.0000
# 2 36.8349 115.3426 30.3282 0.0000 -1.4844 0.0000
# 3 4.9363 30.3282 79.8426 0.0000 -7.0757 0.0000
# 4 0.0000 0.0000 0.0000 150.1180 0.0000 -55.7741
# 5 -4.3298 -1.4844 -7.0757 0.0000 28.3378 0.0000
# 6 0.0000 0.0000 0.0000 -55.7741 0.0000 55.5998
#
#
#
# Elastic Compliance Matrix: (Units=1/GPa)
#
#
# Indices 1 2 3 4 5 6 
#
# 1 0.018973 -0.006423 0.001528 0.000000 0.002944 0.000000
# 2 -0.006423 0.011811 -0.004215 0.000000 -0.001415 0.000000
# 3 0.001528 -0.004215 0.014350 0.000000 0.003596 0.000000
# 4 0.000000 0.000000 0.000000 0.010619 0.000000 0.010653
# 5 0.002944 -0.001415 0.003596 0.000000 0.036562 0.000000
# 6 0.000000 0.000000 0.000000 0.010653 0.000000 0.028672
#
#
# Mechanical properties :
#
#
# Convention : Reuss Voigt Hill
#
# Bulk Modulus (GPa) = 37.15556 44.98159 41.06858
# Shear Modulus (GPa) = 33.74325 59.38020 46.56173
#
# Velocity S-wave (km/s) = 4.19229 5.56133 4.92462
# Velocity P-wave (km/s) = 6.54113 8.04156 7.32984
#
# Compressibility (1/GPa) = 0.02691387
#
# Stress axis : x y z
#
# Youngs Moduli (GPa) = 52.70645 84.66709 69.68741
#
# Poissons Ratio (x) = 0.54380 -0.10645
# Poissons Ratio (y) = 0.33852 0.29371
# Poissons Ratio (z) = -0.08051 0.35685
#
# Static dielectric constant tensor:
#      x y z
#    x 3.402930 0.000000 -0.058480 
#    y 0.000000 3.579610 0.000000 
#    z -0.058480 0.000000 3.586410 
# 
# 
# High freq. dielectric constant tensor:
#      x y z
#    x 1.737870 0.000000 -0.007160 
#    y 0.000000 1.755880 0.000000 
#    z -0.007160 0.000000 1.756690 
# 
# From -- ./inp_files/84189.got.cif
#   From: 2010.06.25/outbox.cif.g09.slc.cpg/sg12_43_cif.got.tgz:84189.got - 2010.06.28 00:19:55.
