data_PCOD8100165
_publ_section_title
;
Structure prediction by ZEFSAII (Michael W. Deem and Ramdas Pophale) SiO2 
 PCOD8100165
Probable space group: C 2/M
;
_chemical_formula_sum "Si O2"
_cell_formula_units_Z 48
_cell_length_a 20.617547
_cell_length_b 8.809672
_cell_length_c 26.777934
_cell_angle_alpha 90.000000
_cell_angle_beta 149.912149
_cell_angle_gamma 90.000000
_cell_volume 2438.344901
_symmetry_space_group_name_H-M "C 2/M"
_symmetry_group_IT_number 12
_symmetry_cell_setting 'monoclinic'
loop_
_space_group_symop_operation_xyz
x,y,z
-x,y,-z
-x,-y,-z
x,-y,z
1/2+x,1/2+y,z
1/2-x,1/2+y,-z
1/2-x,1/2-y,-z
1/2+x,1/2-y,z
loop_
_atom_site_type_symbol
_atom_site_label
_atom_site_fract_x
_atom_site_fract_y
_atom_site_fract_z
Si Si1 0.004493 0.321025 0.275914
Si Si2 0.259893 0.323230 0.733190
Si Si3 0.249946 0.322703 0.609918
Si Si4 0.495362 0.820398 0.053084
Si Si5 0.260022 0.679401 0.060683
Si Si6 0.004049 0.320503 0.615745
O O1 0.981160 0.500000 0.256097
O O2 0.889139 0.233603 0.172963
O O3 0.010369 0.265950 0.337035
O O4 0.136225 0.277647 0.336624
O O5 0.277203 0.500000 0.756095
O O6 0.238516 0.292213 0.660825
O O7 0.387766 0.239891 0.836156
O O8 0.136493 0.254839 0.680522
O O9 0.274943 0.500000 0.614912
O O10 0.118371 0.261673 0.497182
O O11 0.504464 0.000000 0.058597
O O12 0.500000 0.754723 0.000000
O O13 0.361737 0.764051 0.988170
O O14 0.262690 0.500000 0.057212
O O15 0.250000 0.750000 0.000000
O O16 0.008701 0.500000 0.614683
#
# Coordination Sequence:
#
# PCOD8100165 Si02
#       6
#     8   8   8   8   8   8
#     4  11  22  36  56  82 113 146 183 227 273 324
#     4  10  20  35  58  84 108 140 183 228 272 320
#     4  10  20  36  58  82 111 146 184 226 273 324
#     4  10  22  39  57  79 109 144 180 222 274 328
#     4  11  23  39  59  82 111 146 184 226 273 327
#     4   9  19  36  57  82 111 145 185 227 270 321
#
# _framework density 19.685483000000001
#
# number of rings (size 3 to 8) (size 9 to 14) (size 15 to 20)
#    0.000    1.833    0.000    4.000    0.000    7.000 
#    0.000    2.500    0.000    2.000    0.000    0.000 
#    0.000    0.000    0.000    0.000    0.000    0.000 
#
# Total GULP energy -297700.845186 kJ/mol
# GULP energy per Si atom -12404.201883 kJ/mol
# Density = 1.964068 g / cm^3
# Si number density = 19.685483 Si / 1000 Ang^3
#
#
#
# Elastic Constant Matrix: (Units=GPa)
#
#
# Indices 1 2 3 4 5 6 
#
# 1 129.3832 29.5016 37.0066 0.0001 7.0791 0.0000
# 2 29.5016 24.9783 17.4916 0.0000 2.9580 -0.0003
# 3 37.0066 17.4916 133.5706 -0.0001 7.5658 0.0000
# 4 0.0001 0.0000 -0.0001 30.9244 0.0000 0.2170
# 5 7.0791 2.9580 7.5658 0.0000 45.6811 0.0000
# 6 0.0000 -0.0003 0.0000 0.2170 0.0000 27.0605
#
#
#
# Elastic Compliance Matrix: (Units=1/GPa)
#
#
# Indices 1 2 3 4 5 6 
#
# 1 0.010851 -0.011733 -0.001431 0.000000 -0.000685 0.000000
# 2 -0.011733 0.056930 -0.004138 0.000000 -0.001183 0.000001
# 3 -0.001431 -0.004138 0.008477 0.000000 -0.000914 0.000000
# 4 0.000000 0.000000 0.000000 0.032339 0.000000 -0.000259
# 5 -0.000685 -0.001183 -0.000914 0.000000 0.022225 0.000000
# 6 0.000000 0.000001 0.000000 -0.000259 0.000000 0.036956
#
#
# Mechanical properties :
#
#
# Convention : Reuss Voigt Hill
#
# Bulk Modulus (GPa) = 24.00690 50.65910 37.33300
# Shear Modulus (GPa) = 23.11973 34.32868 28.72421
#
# Velocity S-wave (km/s) = 3.43075 4.18048 3.82404
# Velocity P-wave (km/s) = 5.28348 7.00657 6.20512
#
# Compressibility (1/GPa) = 0.04165469
#
# Stress axis : x y z
#
# Youngs Moduli (GPa) = 92.15685 17.56552 117.96930
#
# Poissons Ratio (x) = 0.20609 0.16883
# Poissons Ratio (y) = 1.08126 0.48810
# Poissons Ratio (z) = 0.13189 0.07268
#
# Static dielectric constant tensor:
#      x y z
#    x 3.891300 0.000000 0.093730 
#    y 0.000000 3.377430 0.000000 
#    z 0.093730 0.000000 3.696800 
# 
# 
# High freq. dielectric constant tensor:
#      x y z
#    x 1.788070 0.000000 -0.000020 
#    y 0.000000 1.745490 0.000000 
#    z -0.000020 0.000000 1.786870 
# 
# From -- ./inp_files/365374.got.cif
#   From: 2010.06.25/outbox.cif.g09.slc.cpg/sg12_183_cif.got.tgz:365374.got - 2010.06.28 00:19:55.
