data_PCOD8100135
_publ_section_title
;
Structure prediction by ZEFSAII (Michael W. Deem and Ramdas Pophale) SiO2 
 PCOD8100135
Probable space group: C 2/M
;
_chemical_formula_sum "Si O2"
_cell_formula_units_Z 56
_cell_length_a 12.904759
_cell_length_b 12.923767
_cell_length_c 19.764393
_cell_angle_alpha 90.000000
_cell_angle_beta 113.163938
_cell_angle_gamma 90.000000
_cell_volume 3030.532999
_symmetry_space_group_name_H-M "C 2/M"
_symmetry_group_IT_number 12
_symmetry_cell_setting 'monoclinic'
loop_
_space_group_symop_operation_xyz
x,y,z
-x,y,-z
-x,-y,-z
x,-y,z
1/2+x,1/2+y,z
1/2-x,1/2+y,-z
1/2-x,1/2-y,-z
1/2+x,1/2-y,z
loop_
_atom_site_type_symbol
_atom_site_label
_atom_site_fract_x
_atom_site_fract_y
_atom_site_fract_z
Si Si1 0.477822 0.715794 0.200656
Si Si2 0.575653 0.308134 0.459064
Si Si3 0.052592 0.121936 0.083557
Si Si4 0.766380 0.782657 0.696015
Si Si5 0.096051 0.880348 0.688132
Si Si6 0.701610 0.881189 0.536597
Si Si7 0.299685 0.119455 0.185143
O O1 0.482244 0.673011 0.126047
O O2 0.601714 0.736219 0.261451
O O3 0.414802 0.633949 0.233697
O O4 0.405404 0.820660 0.180597
O O5 0.500000 0.354625 0.500000
O O6 0.509591 0.320545 0.372015
O O7 0.600015 0.186061 0.478721
O O8 0.691601 0.372568 0.486290
O O9 0.183912 0.154128 0.118484
O O10 0.040050 0.000000 0.089176
O O11 0.000000 0.161802 0.000000
O O12 0.710181 0.669725 0.688567
O O13 0.737967 0.834024 0.617529
O O14 0.714719 0.859213 0.738887
O O15 0.094915 0.000000 0.668438
O O16 0.662907 0.000000 0.533186
O O17 0.325248 0.000000 0.179837
#
# Coordination Sequence:
#
# PCOD8100135 Si02
#       7
#     8   8   8   8   8   8   8
#     4  10  20  35  58  80 110 143 181 221 262 325
#     4  11  23  40  53  80 106 134 183 228 271 334
#     4   9  18  34  57  85 113 142 179 220 261 310
#     4  10  20  37  53  80 106 134 186 226 265 327
#     4  11  22  37  57  78 106 143 180 227 278 322
#     4  11  23  39  58  76 104 142 180 229 279 325
#     4   9  19  34  55  81 110 144 177 218 267 313
#
# _framework density 18.478598000000002
#
# number of rings (size 3 to 8) (size 9 to 14) (size 15 to 20)
#    0.000    1.857    2.857    1.286    0.000    3.714 
#    0.000    0.714    0.000    0.429    0.000    0.000 
#    0.000    0.000    0.000    0.000    0.000    0.000 
#
# Total GULP energy -347215.661522 kJ/mol
# GULP energy per Si atom -12400.559340 kJ/mol
# Density = 1.843654 g / cm^3
# Si number density = 18.478598 Si / 1000 Ang^3
#
#
#
# Elastic Constant Matrix: (Units=GPa)
#
#
# Indices 1 2 3 4 5 6 
#
# 1 74.7472 49.3165 21.9968 0.0000 -11.0908 0.0000
# 2 49.3165 110.8297 58.3111 0.0000 1.0308 0.0000
# 3 21.9968 58.3111 95.2965 0.0000 -10.6431 0.0000
# 4 0.0000 0.0000 0.0000 20.8145 0.0000 3.0661
# 5 -11.0908 1.0308 -10.6431 0.0000 23.1077 0.0000
# 6 0.0000 0.0000 0.0000 3.0661 0.0000 22.4722
#
#
#
# Elastic Compliance Matrix: (Units=1/GPa)
#
#
# Indices 1 2 3 4 5 6 
#
# 1 0.021983 -0.011765 0.003544 0.000000 0.012708 0.000000
# 2 -0.011765 0.020079 -0.010860 0.000000 -0.011544 0.000000
# 3 0.003544 -0.010860 0.017463 0.000000 0.010229 0.000000
# 4 0.000000 0.000000 0.000000 0.049029 0.000000 -0.006689
# 5 0.012708 -0.011544 0.010229 0.000000 0.054601 0.000000
# 6 0.000000 0.000000 0.000000 -0.006689 0.000000 0.045412
#
#
# Mechanical properties :
#
#
# Convention : Reuss Voigt Hill
#
# Bulk Modulus (GPa) = 46.80868 60.01359 53.41113
# Shear Modulus (GPa) = 19.69670 23.36217 21.52943
#
# Velocity S-wave (km/s) = 3.26838 3.55953 3.41706
# Velocity P-wave (km/s) = 6.29519 7.03147 6.67349
#
# Compressibility (1/GPa) = 0.02136356
#
# Stress axis : x y z
#
# Youngs Moduli (GPa) = 45.48929 49.80353 57.26389
#
# Poissons Ratio (x) = 0.58592 -0.20293
# Poissons Ratio (y) = 0.53516 0.62188
# Poissons Ratio (z) = -0.16120 0.54086
#
# Static dielectric constant tensor:
#      x y z
#    x 3.526390 0.000000 0.009790 
#    y 0.000000 3.227860 0.000000 
#    z 0.009790 0.000000 3.444810 
# 
# 
# High freq. dielectric constant tensor:
#      x y z
#    x 1.727180 0.000000 -0.003610 
#    y 0.000000 1.702110 0.000000 
#    z -0.003610 0.000000 1.711080 
# 
# From -- ./inp_files/304773.got.cif
#   From: 2010.06.25/outbox.cif.g09.slc.cpg/sg12_153_cif.got.tgz:304773.got - 2010.06.28 00:19:55.
