data_PCOD8100943
_publ_section_title
;
Structure prediction by ZEFSAII (Michael W. Deem and Ramdas Pophale) SiO2 
 PCOD8100943
Probable space group: C 2/M
;
_chemical_formula_sum "Si O2"
_cell_formula_units_Z 48
_cell_length_a 14.189613
_cell_length_b 9.030603
_cell_length_c 19.008774
_cell_angle_alpha 90.000000
_cell_angle_beta 88.839648
_cell_angle_gamma 90.000000
_cell_volume 2435.299285
_symmetry_space_group_name_H-M "C 2/M"
_symmetry_group_IT_number 12
_symmetry_cell_setting 'monoclinic'
loop_
_space_group_symop_operation_xyz
x,y,z
-x,y,-z
-x,-y,-z
x,-y,z
1/2+x,1/2+y,z
1/2-x,1/2+y,-z
1/2-x,1/2-y,-z
1/2+x,1/2-y,z
loop_
_atom_site_type_symbol
_atom_site_label
_atom_site_fract_x
_atom_site_fract_y
_atom_site_fract_z
Si Si1 0.228775 0.825533 0.254832
Si Si2 0.888553 0.167394 0.511488
Si Si3 0.757046 0.671602 0.890145
Si Si4 0.588551 0.826390 0.350206
Si Si5 0.606849 0.328804 0.011004
Si Si6 0.627645 0.828577 0.625932
O O1 0.261668 0.762059 0.180131
O O2 0.131446 0.748899 0.279972
O O3 0.308562 0.781957 0.309687
O O4 0.213565 0.000000 0.249075
O O5 0.860753 0.256548 0.582039
O O6 0.839446 0.240181 0.444119
O O7 0.000000 0.174926 0.500000
O O8 0.852201 0.000000 0.520644
O O9 0.772312 0.500000 0.872398
O O10 0.850724 0.731012 0.926975
O O11 0.665214 0.698529 0.939077
O O12 0.478518 0.788169 0.351013
O O13 0.608450 0.000000 0.349187
O O14 0.611498 0.500000 0.034030
O O15 0.500000 0.277042 0.000000
O O16 0.636972 0.000000 0.606746
#
# Coordination Sequence:
#
# PCOD8100943 Si02
#       6
#     8   8   8   8   8   8
#     4  11  23  38  55  78 111 147 182 222 271 324
#     4   9  17  31  53  79 105 137 181 231 278 325
#     4  10  21  37  57  84 116 145 178 220 264 315
#     4  10  20  36  56  78 106 141 184 231 278 327
#     4   9  19  38  63  88 113 144 180 217 261 313
#     4   9  20  37  55  76 105 143 184 228 277 326
#
# _framework density 19.710103
#
# number of rings (size 3 to 8) (size 9 to 14) (size 15 to 20)
#    0.000    2.333    0.000    2.000    0.000    7.000 
#    0.000    3.333    0.000    0.000    0.000    0.000 
#    0.000    0.000    0.000    0.000    0.000    0.000 
#
# Total GULP energy -297709.984814 kJ/mol
# GULP energy per Si atom -12404.582701 kJ/mol
# Density = 1.966524 g / cm^3
# Si number density = 19.710103 Si / 1000 Ang^3
#
#
#
# Elastic Constant Matrix: (Units=GPa)
#
#
# Indices 1 2 3 4 5 6 
#
# 1 81.0486 31.1327 34.7301 0.0000 6.0029 0.0000
# 2 31.1327 97.7072 51.6854 0.0000 2.1028 0.0000
# 3 34.7301 51.6854 114.8842 0.0000 3.6214 0.0000
# 4 0.0000 0.0000 0.0000 43.2711 0.0000 -0.4691
# 5 6.0029 2.1028 3.6214 0.0000 21.3248 0.0000
# 6 0.0000 0.0000 0.0000 -0.4691 0.0000 25.0898
#
#
#
# Elastic Compliance Matrix: (Units=1/GPa)
#
#
# Indices 1 2 3 4 5 6 
#
# 1 0.015099 -0.003123 -0.003052 0.000000 -0.003424 0.000000
# 2 -0.003123 0.014079 -0.005403 0.000000 0.000408 0.000000
# 3 -0.003052 -0.005403 0.012078 0.000000 -0.000659 0.000000
# 4 0.000000 0.000000 0.000000 0.023115 0.000000 0.000432
# 5 -0.003424 0.000408 -0.000659 0.000000 0.047929 0.000000
# 6 0.000000 0.000000 0.000000 0.000432 0.000000 0.039865
#
#
# Mechanical properties :
#
#
# Convention : Reuss Voigt Hill
#
# Bulk Modulus (GPa) = 55.24373 58.74850 56.99612
# Shear Modulus (GPa) = 27.57034 29.67660 28.62347
#
# Velocity S-wave (km/s) = 3.74410 3.88449 3.81494
# Velocity P-wave (km/s) = 6.83959 7.07036 6.95593
#
# Compressibility (1/GPa) = 0.01810160
#
# Stress axis : x y z
#
# Youngs Moduli (GPa) = 66.22868 71.02791 82.79285
#
# Poissons Ratio (x) = 0.22183 0.25265
# Poissons Ratio (y) = 0.20685 0.44731
# Poissons Ratio (z) = 0.20210 0.38374
#
# Static dielectric constant tensor:
#      x y z
#    x 3.564100 0.000000 -0.033760 
#    y 0.000000 3.632120 0.000000 
#    z -0.033760 0.000000 3.562640 
# 
# 
# High freq. dielectric constant tensor:
#      x y z
#    x 1.768660 0.000000 -0.003790 
#    y 0.000000 1.774860 0.000000 
#    z -0.003790 0.000000 1.765980 
# 
# From -- ./inp_files/267625.got.cif
#   From: 2010.06.25/outbox.cif.g09.slc.cpg/sg12_134_cif.got.tgz:267625.got - 2010.06.28 00:19:55.
