data_PCOD8100468
_publ_section_title
;
Structure prediction by ZEFSAII (Michael W. Deem and Ramdas Pophale) SiO2 
 PCOD8100468
Probable space group: C 2/M
;
_chemical_formula_sum "Si O2"
_cell_formula_units_Z 56
_cell_length_a 28.629231
_cell_length_b 9.082735
_cell_length_c 20.046271
_cell_angle_alpha 90.000000
_cell_angle_beta 33.006713
_cell_angle_gamma 90.000000
_cell_volume 2839.533729
_symmetry_space_group_name_H-M "C 2/M"
_symmetry_group_IT_number 12
_symmetry_cell_setting 'monoclinic'
loop_
_space_group_symop_operation_xyz
x,y,z
-x,y,-z
-x,-y,-z
x,-y,z
1/2+x,1/2+y,z
1/2-x,1/2+y,-z
1/2-x,1/2-y,-z
1/2+x,1/2-y,z
loop_
_atom_site_type_symbol
_atom_site_label
_atom_site_fract_x
_atom_site_fract_y
_atom_site_fract_z
Si Si1 0.608792 0.673921 0.562959
Si Si2 0.410226 0.168706 0.138341
Si Si3 0.801815 0.328800 0.785826
Si Si4 0.956677 0.669717 0.232684
Si Si5 0.373211 0.327250 0.940337
Si Si6 0.740951 0.827772 0.312121
Si Si7 0.425049 0.669147 0.731439
O O1 0.618733 0.500000 0.560093
O O2 0.602130 0.745175 0.643851
O O3 0.691492 0.737986 0.427801
O O4 0.524177 0.714259 0.621801
O O5 0.410102 0.186044 0.217965
O O6 0.338622 0.274051 0.192887
O O7 0.391407 0.000000 0.140228
O O8 0.500000 0.221028 0.000000
O O9 0.806404 0.500000 0.794933
O O10 0.802222 0.293242 0.707171
O O11 0.886141 0.258372 0.716708
O O12 0.715587 0.266283 0.923480
O O13 0.965802 0.500000 0.243181
O O14 0.050916 0.739703 0.114445
O O15 0.387217 0.500000 0.938091
O O16 0.373706 0.295282 0.860777
O O17 0.738099 0.000000 0.332134
O O18 0.416836 0.500000 0.722104
#
# Coordination Sequence:
#
# PCOD8100468 Si02
#       7
#     8   8   8   8   8   8   8
#     4  10  22  41  60  80 110 147 187 230 277 329
#     4  10  22  40  61  87 117 147 180 220 272 332
#     4  10  21  35  53  80 114 149 185 230 279 325
#     4  10  20  35  59  87 112 143 184 229 275 324
#     4   9  18  34  54  81 116 149 183 223 274 333
#     4  11  24  39  57  83 112 146 189 232 275 325
#     4   9  19  34  55  81 107 143 189 230 273 330
#
# _framework density 19.721547000000001
#
# number of rings (size 3 to 8) (size 9 to 14) (size 15 to 20)
#    0.000    2.143    0.000    3.429    0.000    7.143 
#    0.000    2.857    0.000    0.000    0.000    0.000 
#    0.000    0.000    0.000    0.000    0.000    0.000 
#
# Total GULP energy -347329.130451 kJ/mol
# GULP energy per Si atom -12404.611802 kJ/mol
# Density = 1.967666 g / cm^3
# Si number density = 19.721547 Si / 1000 Ang^3
#
#
#
# Elastic Constant Matrix: (Units=GPa)
#
#
# Indices 1 2 3 4 5 6 
#
# 1 64.8649 41.7220 16.5129 0.0029 1.2645 0.0009
# 2 41.7220 81.0314 34.9919 0.0097 2.4963 -0.0002
# 3 16.5129 34.9919 100.1185 0.0044 5.0680 -0.0008
# 4 0.0029 0.0097 0.0044 30.4744 -0.0002 -5.8447
# 5 1.2645 2.4963 5.0680 -0.0002 19.4773 -0.0031
# 6 0.0009 -0.0002 -0.0008 -5.8447 -0.0031 32.4348
#
#
#
# Elastic Compliance Matrix: (Units=1/GPa)
#
#
# Indices 1 2 3 4 5 6 
#
# 1 0.023065 -0.012051 0.000411 0.000001 -0.000060 0.000000
# 2 -0.012051 0.020837 -0.005269 -0.000005 -0.000517 -0.000001
# 3 0.000411 -0.005269 0.011886 0.000000 -0.002444 0.000000
# 4 0.000001 -0.000005 0.000000 0.033989 0.000002 0.006125
# 5 -0.000060 -0.000517 -0.002444 0.000002 0.052048 0.000005
# 6 0.000000 -0.000001 0.000000 0.006125 0.000005 0.031935
#
#
# Mechanical properties :
#
#
# Convention : Reuss Voigt Hill
#
# Bulk Modulus (GPa) = 45.51877 48.05202 46.78540
# Shear Modulus (GPa) = 23.26652 26.66317 24.96485
#
# Velocity S-wave (km/s) = 3.43848 3.68092 3.56176
# Velocity P-wave (km/s) = 6.23659 6.51795 6.37882
#
# Compressibility (1/GPa) = 0.02196896
#
# Stress axis : x y z
#
# Youngs Moduli (GPa) = 43.35609 47.99125 84.13541
#
# Poissons Ratio (x) = 0.57836 -0.03457
# Poissons Ratio (y) = 0.52250 0.44330
# Poissons Ratio (z) = -0.01781 0.25286
#
# Static dielectric constant tensor:
#      x y z
#    x 3.478050 -0.000010 0.023220 
#    y -0.000010 3.544160 0.000020 
#    z 0.023220 0.000020 3.595090 
# 
# 
# High freq. dielectric constant tensor:
#      x y z
#    x 1.768090 0.000000 0.002780 
#    y 0.000000 1.768840 0.000000 
#    z 0.002780 0.000000 1.770600 
# 
# From -- ./inp_files/329503.got.cif
#   From: 2010.06.25/outbox.cif.g09.slc.cpg/sg12_165_cif.got.tgz:329503.got - 2010.06.28 00:19:55.
