data_PCOD8100230
_publ_section_title
;
Structure prediction by ZEFSAII (Michael W. Deem and Ramdas Pophale) SiO2 
 PCOD8100230
Probable space group: C 2/M
;
_chemical_formula_sum "Si O2"
_cell_formula_units_Z 64
_cell_length_a 29.636784
_cell_length_b 8.871256
_cell_length_c 11.970673
_cell_angle_alpha 90.000000
_cell_angle_beta 93.346281
_cell_angle_gamma 90.000000
_cell_volume 3141.909326
_symmetry_space_group_name_H-M "C 2/M"
_symmetry_group_IT_number 12
_symmetry_cell_setting 'monoclinic'
loop_
_space_group_symop_operation_xyz
x,y,z
-x,y,-z
-x,-y,-z
x,-y,z
1/2+x,1/2+y,z
1/2-x,1/2+y,-z
1/2-x,1/2-y,-z
1/2+x,1/2-y,z
loop_
_atom_site_type_symbol
_atom_site_label
_atom_site_fract_x
_atom_site_fract_y
_atom_site_fract_z
Si Si1 0.789375 0.678773 0.933523
Si Si2 0.391503 0.821714 0.982326
Si Si3 0.848660 0.674414 0.590727
Si Si4 0.998225 0.178887 0.373219
Si Si5 0.240538 0.674500 0.308701
Si Si6 0.084528 0.174294 0.789213
Si Si7 0.416994 0.678514 0.759989
Si Si8 0.661420 0.325411 0.631306
O O1 0.786359 0.500000 0.942417
O O2 0.839250 0.733967 0.978038
O O3 0.781357 0.739614 0.807227
O O4 0.750000 0.750000 0.000000
O O5 0.418697 0.749311 0.883327
O O6 0.394054 0.000000 0.970050
O O7 0.416833 0.770748 0.098298
O O8 0.861804 0.500000 0.605358
O O9 0.794675 0.700769 0.595881
O O10 0.872051 0.766859 0.692202
O O11 0.863197 0.736232 0.472273
O O12 0.040746 0.236533 0.307427
O O13 0.000000 0.246142 0.500000
O O14 0.953254 0.234136 0.302711
O O15 0.998410 0.000000 0.381710
O O16 0.250553 0.500000 0.289919
O O17 0.289093 0.748494 0.342438
O O18 0.133258 0.197013 0.739753
O O19 0.075788 0.000000 0.818323
O O20 0.417091 0.500000 0.771692
O O21 0.663242 0.500000 0.595645
#
# Coordination Sequence:
#
# PCOD8100230 Si02
#       8
#     8   8   8   8   8   8   8   8
#     4  10  20  36  56  79 112 155 199 243 289 340
#     4  11  23  40  60  85 123 159 193 241 300 356
#     4  11  21  36  56  81 120 158 190 237 299 356
#     4   9  19  38  64  92 118 148 192 249 300 344
#     4   9  18  34  53  77 113 152 190 234 288 345
#     4  10  21  39  63  88 117 151 196 248 295 348
#     4  11  22  38  63  89 115 153 204 249 293 353
#     4  10  20  35  58  85 113 150 197 245 290 346
#
# _framework density 20.369778
#
# number of rings (size 3 to 8) (size 9 to 14) (size 15 to 20)
#    0.000    1.875    1.250    3.000    0.000    5.000 
#    0.000    5.000    0.000    2.625    0.000    0.000 
#    0.000    0.000    0.000    0.000    0.000    0.000 
#
# Total GULP energy -396826.494385 kJ/mol
# GULP energy per Si atom -12400.827950 kJ/mol
# Density = 2.032342 g / cm^3
# Si number density = 20.369778 Si / 1000 Ang^3
#
#
#
# Elastic Constant Matrix: (Units=GPa)
#
#
# Indices 1 2 3 4 5 6 
#
# 1 108.2129 30.8165 53.4584 0.0000 -2.0407 0.0000
# 2 30.8165 54.0123 41.7011 0.0000 -4.9533 0.0000
# 3 53.4584 41.7011 155.3398 0.0000 0.8897 0.0000
# 4 0.0000 0.0000 0.0000 26.8256 0.0000 1.6781
# 5 -2.0407 -4.9533 0.8897 0.0000 36.4462 0.0000
# 6 0.0000 0.0000 0.0000 1.6781 0.0000 23.2381
#
#
#
# Elastic Compliance Matrix: (Units=1/GPa)
#
#
# Indices 1 2 3 4 5 6 
#
# 1 0.011979 -0.004592 -0.002890 0.000000 0.000117 0.000000
# 2 -0.004592 0.025526 -0.005291 0.000000 0.003341 0.000000
# 3 -0.002890 -0.005291 0.008859 0.000000 -0.001097 0.000000
# 4 0.000000 0.000000 0.000000 0.037447 0.000000 -0.002704
# 5 0.000117 0.003341 -0.001097 0.000000 0.027925 0.000000
# 6 0.000000 0.000000 0.000000 -0.002704 0.000000 0.043228
#
#
# Mechanical properties :
#
#
# Convention : Reuss Voigt Hill
#
# Bulk Modulus (GPa) = 48.03953 63.27967 55.65960
# Shear Modulus (GPa) = 26.67378 30.07459 28.37418
#
# Velocity S-wave (km/s) = 3.62260 3.84661 3.73628
# Velocity P-wave (km/s) = 6.41347 7.13172 6.78211
#
# Compressibility (1/GPa) = 0.02081619
#
# Stress axis : x y z
#
# Youngs Moduli (GPa) = 83.48063 39.17575 112.88120
#
# Poissons Ratio (x) = 0.17991 0.32625
# Poissons Ratio (y) = 0.38336 0.59728
# Poissons Ratio (z) = 0.24128 0.20729
#
# Static dielectric constant tensor:
#      x y z
#    x 3.829480 0.000000 0.059340 
#    y 0.000000 3.352070 0.000000 
#    z 0.059340 0.000000 3.823570 
# 
# 
# High freq. dielectric constant tensor:
#      x y z
#    x 1.800510 0.000000 -0.001120 
#    y 0.000000 1.764020 0.000000 
#    z -0.001120 0.000000 1.807880 
# 
# From -- ./inp_files/187627.got.cif
#   From: 2010.06.25/outbox.cif.g09.slc.cpg/sg12_94_cif.got.tgz:187627.got - 2010.06.28 00:19:55.
