data_PCOD8100259
_publ_section_title
;
Structure prediction by ZEFSAII (Michael W. Deem and Ramdas Pophale) SiO2 
 PCOD8100259
Probable space group: C 2/M
;
_chemical_formula_sum "Si O2"
_cell_formula_units_Z 56
_cell_length_a 23.764078
_cell_length_b 9.348382
_cell_length_c 15.628554
_cell_angle_alpha 90.000000
_cell_angle_beta 58.909434
_cell_angle_gamma 90.000000
_cell_volume 2973.230614
_symmetry_space_group_name_H-M "C 2/M"
_symmetry_group_IT_number 12
_symmetry_cell_setting 'monoclinic'
loop_
_space_group_symop_operation_xyz
x,y,z
-x,y,-z
-x,-y,-z
x,-y,z
1/2+x,1/2+y,z
1/2-x,1/2+y,-z
1/2-x,1/2-y,-z
1/2+x,1/2-y,z
loop_
_atom_site_type_symbol
_atom_site_label
_atom_site_fract_x
_atom_site_fract_y
_atom_site_fract_z
Si Si1 0.716335 0.667757 0.103569
Si Si2 0.157201 0.665375 0.534816
Si Si3 0.806988 0.833541 0.148411
Si Si4 0.938006 0.833961 0.787623
Si Si5 0.947428 0.169569 0.972883
Si Si6 0.705489 0.663720 0.645465
Si Si7 0.983639 0.332440 0.418323
O O1 0.732741 0.500000 0.085446
O O2 0.746093 0.736436 0.166235
O O3 0.639067 0.695091 0.161339
O O4 0.750000 0.750000 0.000000
O O5 0.160020 0.500000 0.555711
O O6 0.219296 0.713474 0.428711
O O7 0.155830 0.747776 0.625694
O O8 0.092637 0.704251 0.532955
O O9 0.815454 0.809132 0.241843
O O10 0.792829 0.000000 0.137489
O O11 0.874011 0.777800 0.052454
O O12 0.962786 0.784297 0.862860
O O13 0.974390 0.744993 0.686824
O O14 0.954353 0.000000 0.761133
O O15 0.948554 0.000000 0.979921
O O16 0.000000 0.234512 0.000000
O O17 0.697064 0.500000 0.625858
O O18 0.999057 0.500000 0.398385
O O19 0.000000 0.274748 0.500000
#
# Coordination Sequence:
#
# PCOD8100259 Si02
#       7
#     8   8   8   8   8   8   8
#     4  11  22  38  58  83 115 148 185 230 279 330
#     4   9  19  37  55  79 114 145 185 238 285 334
#     4  10  20  35  58  86 112 145 189 230 277 338
#     4  10  22  39  59  85 114 147 191 236 280 334
#     4   9  18  34  56  83 116 149 183 226 275 333
#     4   9  19  34  58  85 108 145 190 231 280 337
#     4  10  23  40  59  82 112 152 193 234 289 345
#
# _framework density 18.834731000000001
#
# number of rings (size 3 to 8) (size 9 to 14) (size 15 to 20)
#    0.000    2.286    1.429    0.429    4.000    2.571 
#    0.000    0.000    0.000    0.857    0.000    0.000 
#    0.000    0.000    0.000    0.000    0.000    0.000 
#
# Total GULP energy -347195.610607 kJ/mol
# GULP energy per Si atom -12399.843236 kJ/mol
# Density = 1.879186 g / cm^3
# Si number density = 18.834731 Si / 1000 Ang^3
#
#
#
# Elastic Constant Matrix: (Units=GPa)
#
#
# Indices 1 2 3 4 5 6 
#
# 1 131.8067 48.3594 56.1588 0.0000 24.4192 0.0000
# 2 48.3594 52.5607 43.8185 0.0000 6.8949 -0.0001
# 3 56.1588 43.8185 123.1737 0.0000 13.2651 0.0000
# 4 0.0000 0.0000 0.0000 32.0462 0.0000 2.6407
# 5 24.4192 6.8949 13.2651 0.0000 21.3582 0.0000
# 6 0.0000 -0.0001 0.0000 2.6407 0.0000 30.5184
#
#
#
# Elastic Compliance Matrix: (Units=1/GPa)
#
#
# Indices 1 2 3 4 5 6 
#
# 1 0.014219 -0.010209 -0.001559 0.000000 -0.011992 0.000000
# 2 -0.010209 0.034552 -0.008244 0.000000 0.005638 0.000000
# 3 -0.001559 -0.008244 0.012093 0.000000 -0.003066 0.000000
# 4 0.000000 0.000000 0.000000 0.031429 0.000000 -0.002720
# 5 -0.011992 0.005638 -0.003066 0.000000 0.060615 0.000000
# 6 0.000000 0.000000 0.000000 -0.002720 0.000000 0.033002
#
#
# Mechanical properties :
#
#
# Convention : Reuss Voigt Hill
#
# Bulk Modulus (GPa) = 47.98951 67.13494 57.56223
# Shear Modulus (GPa) = 21.47014 27.39817 24.43415
#
# Velocity S-wave (km/s) = 3.37994 3.81814 3.60570
# Velocity P-wave (km/s) = 6.38487 7.42692 6.92552
#
# Compressibility (1/GPa) = 0.02083789
#
# Stress axis : x y z
#
# Youngs Moduli (GPa) = 70.33017 28.94198 82.69439
#
# Poissons Ratio (x) = 0.29546 0.12896
# Poissons Ratio (y) = 0.71799 0.68176
# Poissons Ratio (z) = 0.10968 0.23861
#
# Static dielectric constant tensor:
#      x y z
#    x 3.862180 0.000000 0.006050 
#    y 0.000000 3.394900 0.000000 
#    z 0.006050 0.000000 3.561670 
# 
# 
# High freq. dielectric constant tensor:
#      x y z
#    x 1.743690 0.000000 0.004760 
#    y 0.000000 1.709180 0.000000 
#    z 0.004760 0.000000 1.736330 
# 
# From -- ./inp_files/238327.got.cif
#   From: 2010.06.25/outbox.cif.g09.slc.cpg/sg12_120_cif.got.tgz:238327.got - 2010.06.28 00:19:55.
