data_PCOD8100701
_publ_section_title
;
Structure prediction by ZEFSAII (Michael W. Deem and Ramdas Pophale) SiO2 
 PCOD8100701
Probable space group: C 2/M
;
_chemical_formula_sum "Si O2"
_cell_formula_units_Z 64
_cell_length_a 14.277279
_cell_length_b 11.150449
_cell_length_c 20.094747
_cell_angle_alpha 90.000000
_cell_angle_beta 105.205721
_cell_angle_gamma 90.000000
_cell_volume 3087.047394
_symmetry_space_group_name_H-M "C 2/M"
_symmetry_group_IT_number 12
_symmetry_cell_setting 'monoclinic'
loop_
_space_group_symop_operation_xyz
x,y,z
-x,y,-z
-x,-y,-z
x,-y,z
1/2+x,1/2+y,z
1/2-x,1/2+y,-z
1/2-x,1/2-y,-z
1/2+x,1/2-y,z
loop_
_atom_site_type_symbol
_atom_site_label
_atom_site_fract_x
_atom_site_fract_y
_atom_site_fract_z
Si Si1 0.739826 0.867841 0.070982
Si Si2 0.109641 0.863840 0.521009
Si Si3 0.732910 0.861632 0.214063
Si Si4 0.378956 0.366109 0.626988
Si Si5 0.691159 0.212987 0.652803
Si Si6 0.508746 0.134345 0.685838
Si Si7 0.082631 0.777753 0.965729
Si Si8 0.992091 0.633875 0.829772
O O1 0.757515 0.803823 0.145610
O O2 0.837363 0.873291 0.044228
O O3 0.706951 0.000000 0.083486
O O4 0.645711 0.819939 0.015843
O O5 0.154311 0.853433 0.455675
O O6 0.175191 0.789629 0.583502
O O7 0.000000 0.812936 0.500000
O O8 0.108906 0.000000 0.546827
O O9 0.795914 0.797570 0.281295
O O10 0.619897 0.840511 0.207216
O O11 0.762997 0.000000 0.222945
O O12 0.428817 0.500000 0.645779
O O13 0.285359 0.367636 0.657171
O O14 0.444134 0.250458 0.656182
O O15 0.599589 0.129812 0.652688
O O16 0.545600 0.150234 0.768830
O O17 0.458045 0.000000 0.669858
O O18 0.031441 0.725266 0.891375
O O19 0.000000 0.832041 0.000000
O O20 0.007667 0.500000 0.861016
#
# Coordination Sequence:
#
# PCOD8100701 Si02
#       8
#     8   8   8   8   8   8   8   8
#     4  10  22  38  57  88 121 154 201 248 298 365
#     4  10  21  39  63  92 126 165 209 253 306 377
#     4  10  20  35  61  92 121 157 205 253 301 370
#     4  11  24  43  64  92 128 163 206 256 310 374
#     4  12  22  39  66  91 123 162 205 256 315 359
#     4  11  24  42  64  92 127 163 206 258 310 368
#     4  11  21  36  62  85 115 158 198 248 304 354
#     4  10  20  37  60  88 120 157 203 249 297 363
#
# _framework density 20.731784999999999
#
# number of rings (size 3 to 8) (size 9 to 14) (size 15 to 20)
#    0.000    1.375    3.750    2.250    0.000    1.750 
#    0.000    2.500    0.000    0.750    0.000    0.000 
#    0.000    0.000    0.000    0.000    0.000    0.000 
#
# Total GULP energy -396536.370361 kJ/mol
# GULP energy per Si atom -12391.761574 kJ/mol
# Density = 2.068460 g / cm^3
# Si number density = 20.731785 Si / 1000 Ang^3
#
#
#
# Elastic Constant Matrix: (Units=GPa)
#
#
# Indices 1 2 3 4 5 6 
#
# 1 99.9411 15.6841 13.0284 0.0000 -22.1090 0.0000
# 2 15.6841 100.1864 44.2678 0.0000 4.1976 0.0000
# 3 13.0284 44.2678 106.8145 0.0000 -7.8504 0.0000
# 4 0.0000 0.0000 0.0000 24.5724 0.0000 -7.2273
# 5 -22.1090 4.1976 -7.8504 0.0000 36.7474 0.0000
# 6 0.0000 0.0000 0.0000 -7.2273 0.0000 10.1113
#
#
#
# Elastic Compliance Matrix: (Units=1/GPa)
#
#
# Indices 1 2 3 4 5 6 
#
# 1 0.012003 -0.002188 -0.000008 0.000000 0.007470 0.000000
# 2 -0.002188 0.012851 -0.005348 0.000000 -0.003927 0.000000
# 3 -0.000008 -0.005348 0.011809 0.000000 0.003129 0.000000
# 4 0.000000 0.000000 0.000000 0.051529 0.000000 0.036832
# 5 0.007470 -0.003927 0.003129 0.000000 0.032824 0.000000
# 6 0.000000 0.000000 0.000000 0.036832 0.000000 0.125226
#
#
# Mechanical properties :
#
#
# Convention : Reuss Voigt Hill
#
# Bulk Modulus (GPa) = 46.34999 50.32255 48.33627
# Shear Modulus (GPa) = 18.62038 29.88367 24.25202
#
# Velocity S-wave (km/s) = 3.00018 3.80075 3.42394
# Velocity P-wave (km/s) = 5.86574 6.60203 6.24475
#
# Compressibility (1/GPa) = 0.02157498
#
# Stress axis : x y z
#
# Youngs Moduli (GPa) = 83.31369 77.81201 84.67908
#
# Poissons Ratio (x) = 0.17029 0.00068
# Poissons Ratio (y) = 0.18233 0.45285
# Poissons Ratio (z) = 0.00067 0.41612
#
# Static dielectric constant tensor:
#      x y z
#    x 3.822530 0.000000 -0.286190 
#    y 0.000000 3.587920 0.000000 
#    z -0.286190 0.000000 3.815880 
# 
# 
# High freq. dielectric constant tensor:
#      x y z
#    x 1.813570 0.000000 -0.021060 
#    y 0.000000 1.793550 0.000000 
#    z -0.021060 0.000000 1.819290 
# 
# From -- ./inp_files/309950.got.cif
#   From: 2010.06.25/outbox.cif.g09.slc.cpg/sg12_155_cif.got.tgz:309950.got - 2010.06.28 00:19:55.
