data_PCOD8100769
_publ_section_title
;
Structure prediction by ZEFSAII (Michael W. Deem and Ramdas Pophale) SiO2 
 PCOD8100769
Probable space group: C 2/M
;
_chemical_formula_sum "Si O2"
_cell_formula_units_Z 64
_cell_length_a 17.041382
_cell_length_b 17.430465
_cell_length_c 23.168694
_cell_angle_alpha 90.000000
_cell_angle_beta 148.665912
_cell_angle_gamma 90.000000
_cell_volume 3578.833941
_symmetry_space_group_name_H-M "C 2/M"
_symmetry_group_IT_number 12
_symmetry_cell_setting 'monoclinic'
loop_
_space_group_symop_operation_xyz
x,y,z
-x,y,-z
-x,-y,-z
x,-y,z
1/2+x,1/2+y,z
1/2-x,1/2+y,-z
1/2-x,1/2-y,-z
1/2+x,1/2-y,z
loop_
_atom_site_type_symbol
_atom_site_label
_atom_site_fract_x
_atom_site_fract_y
_atom_site_fract_z
Si Si1 0.543142 0.589352 0.965572
Si Si2 0.086597 0.088286 0.435535
Si Si3 0.719646 0.330536 0.412358
Si Si4 0.685623 0.588180 0.272994
Si Si5 0.069910 0.349806 0.649044
Si Si6 0.616672 0.306879 0.624025
Si Si7 0.119408 0.410469 0.806225
Si Si8 0.827165 0.664152 0.658942
O O1 0.503020 0.500000 0.944209
O O2 0.439327 0.623160 0.849455
O O3 0.500000 0.627657 0.000000
O O4 0.719057 0.603182 0.062291
O O5 0.109268 0.135759 0.391229
O O6 0.228989 0.097107 0.567707
O O7 0.937847 0.118634 0.375188
O O8 0.062609 0.000000 0.404775
O O9 0.666833 0.362085 0.318075
O O10 0.700981 0.238657 0.399218
O O11 0.889984 0.356368 0.532570
O O12 0.656081 0.500000 0.270110
O O13 0.852954 0.596998 0.351157
O O14 0.127834 0.263196 0.675509
O O15 0.126072 0.379273 0.745667
O O16 0.500000 0.283132 0.500000
O O17 0.776847 0.322902 0.693759
O O18 0.076530 0.500000 0.778382
O O19 0.000125 0.362041 0.768672
#
# Coordination Sequence:
#
# PCOD8100769 Si02
#       8
#     8   8   8   8   8   8   8   8
#     4   9  18  36  54  78 111 144 182 224 275 319
#     4  11  22  34  52  77 109 146 188 223 261 323
#     4  12  22  36  52  81 117 146 176 221 276 333
#     4  11  22  34  56  80 110 149 181 222 269 329
#     4  12  19  34  54  80 116 146 176 208 279 334
#     4  10  20  36  52  73 107 152 183 214 269 324
#     4  11  22  34  58  86 110 143 185 230 269 318
#     4  11  21  36  54  78 110 150 181 223 273 321
#
# _framework density 17.882919000000001
#
# number of rings (size 3 to 8) (size 9 to 14) (size 15 to 20)
#    0.000    1.125    6.250    2.625    0.000    4.750 
#    0.000    0.625    0.000    0.000    0.000    0.000 
#    0.000    4.000    0.000    0.000    0.000    0.000 
#
# Total GULP energy -396865.105205 kJ/mol
# GULP energy per Si atom -12402.034538 kJ/mol
# Density = 1.784222 g / cm^3
# Si number density = 17.882919 Si / 1000 Ang^3
#
#
#
# Elastic Constant Matrix: (Units=GPa)
#
#
# Indices 1 2 3 4 5 6 
#
# 1 98.5303 31.4656 13.8666 0.0028 9.3918 0.0021
# 2 31.4656 77.1991 22.2034 0.0029 5.5831 0.0022
# 3 13.8666 22.2034 55.1499 0.0070 1.1068 0.0043
# 4 0.0028 0.0029 0.0070 16.5995 0.0003 6.7421
# 5 9.3918 5.5831 1.1068 0.0003 22.6586 0.0001
# 6 0.0021 0.0022 0.0043 6.7421 0.0001 15.9966
#
#
#
# Elastic Compliance Matrix: (Units=1/GPa)
#
#
# Indices 1 2 3 4 5 6 
#
# 1 0.012060 -0.004280 -0.001231 0.000000 -0.003884 0.000000
# 2 -0.004280 0.016424 -0.005496 0.000000 -0.002004 0.000000
# 3 -0.001231 -0.005496 0.020637 -0.000007 0.000856 -0.000002
# 4 0.000000 0.000000 -0.000007 0.072686 0.000000 -0.030635
# 5 -0.003884 -0.002004 0.000856 0.000000 0.046195 0.000000
# 6 0.000000 0.000000 -0.000002 -0.030635 0.000000 0.075425
#
#
# Mechanical properties :
#
#
# Convention : Reuss Voigt Hill
#
# Bulk Modulus (GPa) = 36.89169 40.66115 38.77642
# Shear Modulus (GPa) = 18.21651 21.94053 20.07852
#
# Velocity S-wave (km/s) = 3.19510 3.50651 3.35442
# Velocity P-wave (km/s) = 5.85542 6.25947 6.06081
#
# Compressibility (1/GPa) = 0.02710637
#
# Stress axis : x y z
#
# Youngs Moduli (GPa) = 82.92191 60.88739 48.45589
#
# Poissons Ratio (x) = 0.26062 0.05965
# Poissons Ratio (y) = 0.35494 0.26630
# Poissons Ratio (z) = 0.10207 0.33462
#
# Static dielectric constant tensor:
#      x y z
#    x 3.518480 0.000000 0.066540 
#    y 0.000000 3.206950 0.000000 
#    z 0.066540 0.000000 3.155170 
# 
# 
# High freq. dielectric constant tensor:
#      x y z
#    x 1.703860 0.000000 0.005030 
#    y 0.000000 1.683500 0.000000 
#    z 0.005030 0.000000 1.658780 
# 
# From -- ./inp_files/344374.got.cif
#   From: 2010.06.25/outbox.cif.g09.slc.cpg/sg12_173_cif.got.tgz:344374.got - 2010.06.28 00:19:55.
