data_PCOD8100636
_publ_section_title
;
Structure prediction by ZEFSAII (Michael W. Deem and Ramdas Pophale) SiO2 
 PCOD8100636
Probable space group: C 2/M
;
_chemical_formula_sum "Si O2"
_cell_formula_units_Z 64
_cell_length_a 30.716584
_cell_length_b 8.862952
_cell_length_c 13.898224
_cell_angle_alpha 90.000000
_cell_angle_beta 57.938626
_cell_angle_gamma 90.000000
_cell_volume 3206.565117
_symmetry_space_group_name_H-M "C 2/M"
_symmetry_group_IT_number 12
_symmetry_cell_setting 'monoclinic'
loop_
_space_group_symop_operation_xyz
x,y,z
-x,y,-z
-x,-y,-z
x,-y,z
1/2+x,1/2+y,z
1/2-x,1/2+y,-z
1/2-x,1/2-y,-z
1/2+x,1/2-y,z
loop_
_atom_site_type_symbol
_atom_site_label
_atom_site_fract_x
_atom_site_fract_y
_atom_site_fract_z
Si Si1 0.412807 0.825206 0.867284
Si Si2 0.271058 0.822006 0.752377
Si Si3 0.885645 0.323614 0.271820
Si Si4 0.835859 0.326375 0.130778
Si Si5 0.136564 0.821204 0.260142
Si Si6 0.478147 0.321528 0.255525
Si Si7 0.706725 0.176124 0.487086
Si Si8 0.548138 0.678745 0.501864
O O1 0.386984 0.734787 0.811470
O O2 0.468295 0.759293 0.826818
O O3 0.417310 0.000000 0.833499
O O4 0.379315 0.801458 0.001210
O O5 0.212942 0.773239 0.840750
O O6 0.307092 0.747575 0.790907
O O7 0.289449 0.762857 0.626167
O O8 0.275666 0.000000 0.756526
O O9 0.899208 0.500000 0.251314
O O10 0.857830 0.270510 0.207089
O O11 0.938074 0.229776 0.220987
O O12 0.848969 0.284110 0.404882
O O13 0.818359 0.500000 0.158149
O O14 0.100487 0.764790 0.390494
O O15 0.140419 0.000000 0.251364
O O16 0.486535 0.500000 0.242488
O O17 0.455211 0.265712 0.384613
O O18 0.750000 0.250000 0.500000
O O19 0.717511 0.000000 0.477462
O O20 0.500000 0.747777 0.500000
O O21 0.545431 0.500000 0.500282
#
# Coordination Sequence:
#
# PCOD8100636 Si02
#       8
#     8   8   8   8   8   8   8   8
#     4  11  24  42  62  86 116 153 202 253 295 344
#     4  11  23  38  60  93 125 152 193 249 297 346
#     4  10  21  39  61  87 120 156 196 239 290 352
#     4  10  23  43  64  83 113 161 205 242 294 355
#     4  11  22  39  64  89 119 159 196 238 296 359
#     4  11  22  38  62  90 120 155 195 239 294 355
#     4  10  20  35  60  90 123 157 193 239 294 352
#     4   9  17  34  59  87 118 152 192 232 283 354
#
# _framework density 19.959052
#
# number of rings (size 3 to 8) (size 9 to 14) (size 15 to 20)
#    0.000    1.625    2.500    2.250    0.000    3.500 
#    0.000    5.000    0.000    0.000    0.000    0.000 
#    0.000    0.000    0.000    0.000    0.000    0.000 
#
# Total GULP energy -396937.393207 kJ/mol
# GULP energy per Si atom -12404.293538 kJ/mol
# Density = 1.991362 g / cm^3
# Si number density = 19.959052 Si / 1000 Ang^3
#
#
#
# Elastic Constant Matrix: (Units=GPa)
#
#
# Indices 1 2 3 4 5 6 
#
# 1 119.3074 38.2895 27.6495 0.0000 -30.5216 0.0000
# 2 38.2895 65.9766 30.7526 0.0000 -8.0676 0.0000
# 3 27.6495 30.7526 78.4409 0.0000 -6.1603 0.0000
# 4 0.0000 0.0000 0.0000 26.2337 0.0000 -0.9929
# 5 -30.5216 -8.0676 -6.1603 0.0000 11.4077 0.0000
# 6 0.0000 0.0000 0.0000 -0.9929 0.0000 38.0640
#
#
#
# Elastic Compliance Matrix: (Units=1/GPa)
#
#
# Indices 1 2 3 4 5 6 
#
# 1 0.030503 -0.007645 -0.001849 0.000000 0.075208 0.000000
# 2 -0.007645 0.021525 -0.006428 0.000000 -0.008701 0.000000
# 3 -0.001849 -0.006428 0.015847 0.000000 -0.000934 0.000000
# 4 0.000000 0.000000 0.000000 0.038157 0.000000 0.000995
# 5 0.075208 -0.008701 -0.000934 0.000000 0.282223 0.000000
# 6 0.000000 0.000000 0.000000 0.000995 0.000000 0.026298
#
#
# Mechanical properties :
#
#
# Convention : Reuss Voigt Hill
#
# Bulk Modulus (GPa) = 27.75178 50.78980 39.27079
# Shear Modulus (GPa) = 10.90736 26.27663 18.59200
#
# Velocity S-wave (km/s) = 2.34024 3.63233 3.05537
# Velocity P-wave (km/s) = 4.60835 6.56461 5.67146
#
# Compressibility (1/GPa) = 0.03603373
#
# Stress axis : x y z
#
# Youngs Moduli (GPa) = 32.78313 46.45653 63.10471
#
# Poissons Ratio (x) = 0.35514 0.11666
# Poissons Ratio (y) = 0.25061 0.40562
# Poissons Ratio (z) = 0.06060 0.29861
#
# Static dielectric constant tensor:
#      x y z
#    x 3.635530 0.000000 0.026070 
#    y 0.000000 3.505760 0.000000 
#    z 0.026070 0.000000 3.764020 
# 
# 
# High freq. dielectric constant tensor:
#      x y z
#    x 1.790700 0.000000 -0.003960 
#    y 0.000000 1.768620 0.000000 
#    z -0.003960 0.000000 1.779020 
# 
# From -- ./inp_files/249697.got.cif
#   From: 2010.06.25/outbox.cif.g09.slc.cpg/sg12_125_cif.got.tgz:249697.got - 2010.06.28 00:19:55.
