data_PCOD8100286
_publ_section_title
;
Structure prediction by ZEFSAII (Michael W. Deem and Ramdas Pophale) SiO2 
 PCOD8100286
Probable space group: C 2/M
;
_chemical_formula_sum "Si O2"
_cell_formula_units_Z 64
_cell_length_a 24.146832
_cell_length_b 8.615594
_cell_length_c 16.176127
_cell_angle_alpha 90.000000
_cell_angle_beta 88.252651
_cell_angle_gamma 90.000000
_cell_volume 3363.705311
_symmetry_space_group_name_H-M "C 2/M"
_symmetry_group_IT_number 12
_symmetry_cell_setting 'monoclinic'
loop_
_space_group_symop_operation_xyz
x,y,z
-x,y,-z
-x,-y,-z
x,-y,z
1/2+x,1/2+y,z
1/2-x,1/2+y,-z
1/2-x,1/2-y,-z
1/2+x,1/2-y,z
loop_
_atom_site_type_symbol
_atom_site_label
_atom_site_fract_x
_atom_site_fract_y
_atom_site_fract_z
Si Si1 0.211757 0.178685 0.259777
Si Si2 0.819886 0.179386 0.201081
Si Si3 0.308195 0.181739 0.025208
Si Si4 0.113852 0.819239 0.380610
Si Si5 0.373763 0.319234 0.879947
Si Si6 0.957612 0.319184 0.759248
Si Si7 0.059534 0.680304 0.533895
Si Si8 0.068718 0.180298 0.710603
O O1 0.265782 0.286153 0.259088
O O2 0.174558 0.218576 0.341425
O O3 0.177280 0.215379 0.178652
O O4 0.230199 0.000000 0.259751
O O5 0.819125 0.285644 0.120305
O O6 0.872729 0.225285 0.252593
O O7 0.820361 0.000000 0.174756
O O8 0.307302 0.000000 0.008615
O O9 0.250000 0.250000 0.000000
O O10 0.358014 0.258392 0.971093
O O11 0.067377 0.775682 0.316061
O O12 0.106325 0.720893 0.464247
O O13 0.107290 0.000000 0.401048
O O14 0.388128 0.500000 0.882431
O O15 0.428288 0.229317 0.846072
O O16 0.948941 0.500000 0.742623
O O17 0.022412 0.278939 0.761266
O O18 0.062192 0.500000 0.557024
O O19 0.071050 0.779981 0.614150
O O20 0.000000 0.726505 0.500000
O O21 0.055294 0.000000 0.722441
#
# Coordination Sequence:
#
# PCOD8100286 Si02
#       8
#     8   8   8   8   8   8   8   8
#     4   9  19  35  57  85 116 152 192 235 289 346
#     4  11  24  40  60  86 118 156 198 241 292 351
#     4  12  23  37  60  89 120 154 196 244 291 343
#     4  10  20  35  58  86 117 152 192 240 291 346
#     4  10  20  36  59  88 119 152 192 242 292 343
#     4  11  21  35  57  87 119 153 193 240 292 347
#     4  11  22  36  58  90 118 147 195 247 292 343
#     4  11  24  41  60  84 117 159 198 238 293 354
#
# _framework density 19.026636
#
# number of rings (size 3 to 8) (size 9 to 14) (size 15 to 20)
#    0.000    1.375    2.500    4.875    0.000    5.000 
#    0.000    1.250    0.000    3.750    0.000    0.000 
#    0.000    0.000    0.000    0.000    0.000    0.000 
#
# Total GULP energy -396981.151483 kJ/mol
# GULP energy per Si atom -12405.660984 kJ/mol
# Density = 1.898333 g / cm^3
# Si number density = 19.026636 Si / 1000 Ang^3
#
#
#
# Elastic Constant Matrix: (Units=GPa)
#
#
# Indices 1 2 3 4 5 6 
#
# 1 111.4930 34.2650 50.1833 0.0000 -13.4448 0.0000
# 2 34.2650 60.6716 20.0293 0.0000 -1.1518 0.0000
# 3 50.1833 20.0293 89.7919 0.0000 -14.2987 0.0000
# 4 0.0000 0.0000 0.0000 31.3767 0.0000 -6.8745
# 5 -13.4448 -1.1518 -14.2987 0.0000 33.0459 0.0000
# 6 0.0000 0.0000 0.0000 -6.8745 0.0000 32.2369
#
#
#
# Elastic Compliance Matrix: (Units=1/GPa)
#
#
# Indices 1 2 3 4 5 6 
#
# 1 0.013758 -0.005750 -0.005957 0.000000 0.002819 0.000000
# 2 -0.005750 0.020238 -0.001677 0.000000 -0.002359 0.000000
# 3 -0.005957 -0.001677 0.015514 0.000000 0.004231 0.000000
# 4 0.000000 0.000000 0.000000 0.033433 0.000000 0.007130
# 5 0.002819 -0.002359 0.004231 0.000000 0.033156 0.000000
# 6 0.000000 0.000000 0.000000 0.007130 0.000000 0.032541
#
#
# Mechanical properties :
#
#
# Convention : Reuss Voigt Hill
#
# Bulk Modulus (GPa) = 43.97102 52.32351 48.14727
# Shear Modulus (GPa) = 27.32422 29.83048 28.57735
#
# Velocity S-wave (km/s) = 3.79371 3.96388 3.87972
# Velocity P-wave (km/s) = 6.50769 6.96488 6.74016
#
# Compressibility (1/GPa) = 0.02274225
#
# Stress axis : x y z
#
# Youngs Moduli (GPa) = 72.68710 49.41190 64.45742
#
# Poissons Ratio (x) = 0.28409 0.38400
# Poissons Ratio (y) = 0.41792 0.10808
# Poissons Ratio (z) = 0.43303 0.08285
#
# Static dielectric constant tensor:
#      x y z
#    x 3.501670 0.000000 -0.258120 
#    y 0.000000 3.523230 0.000000 
#    z -0.258120 0.000000 3.483020 
# 
# 
# High freq. dielectric constant tensor:
#      x y z
#    x 1.731200 0.000000 -0.027200 
#    y 0.000000 1.752130 0.000000 
#    z -0.027200 0.000000 1.730620 
# 
# From -- ./inp_files/238787.got.cif
#   From: 2010.06.25/outbox.cif.g09.slc.cpg/sg12_120_cif.got.tgz:238787.got - 2010.06.28 00:19:55.
