data_PCOD8100777
_publ_section_title
;
Structure prediction by ZEFSAII (Michael W. Deem and Ramdas Pophale) SiO2 
 PCOD8100777
Probable space group: C 2/M
;
_chemical_formula_sum "Si O2"
_cell_formula_units_Z 56
_cell_length_a 16.103416
_cell_length_b 24.032237
_cell_length_c 9.308341
_cell_angle_alpha 90.000000
_cell_angle_beta 51.399017
_cell_angle_gamma 90.000000
_cell_volume 2815.262570
_symmetry_space_group_name_H-M "C 2/M"
_symmetry_group_IT_number 12
_symmetry_cell_setting 'monoclinic'
loop_
_space_group_symop_operation_xyz
x,y,z
-x,y,-z
-x,-y,-z
x,-y,z
1/2+x,1/2+y,z
1/2-x,1/2+y,-z
1/2-x,1/2-y,-z
1/2+x,1/2-y,z
loop_
_atom_site_type_symbol
_atom_site_label
_atom_site_fract_x
_atom_site_fract_y
_atom_site_fract_z
Si Si1 0.546987 0.664630 0.107412
Si Si2 0.216357 0.561839 0.017014
Si Si3 0.714846 0.843819 0.222806
Si Si4 0.051465 0.720080 0.224236
Si Si5 0.686548 0.192316 0.552963
Si Si6 0.618290 0.856288 0.910082
Si Si7 0.465483 0.561792 0.698098
O O1 0.521577 0.715146 0.242164
O O2 0.494627 0.608577 0.231467
O O3 0.500000 0.674545 0.000000
O O4 0.673812 0.666592 0.974477
O O5 0.170096 0.500000 0.086350
O O6 0.166899 0.590032 0.931120
O O7 0.340277 0.559580 0.851805
O O8 0.180319 0.595677 0.199454
O O9 0.626650 0.796300 0.278271
O O10 0.737750 0.843687 0.368653
O O11 0.936386 0.692990 0.360544
O O12 0.114578 0.698232 0.015619
O O13 0.750000 0.250000 0.500000
O O14 0.693738 0.159415 0.694745
O O15 0.500000 0.874212 0.000000
O O16 0.500000 0.578947 0.500000
O O17 0.512466 0.500000 0.684085
#
# Coordination Sequence:
#
# PCOD8100777 Si02
#       7
#     8   8   8   8   8   8   8
#     4  11  21  34  54  80 106 136 178 221 264 317
#     4   9  19  37  58  76 101 143 186 220 263 321
#     4  10  21  36  54  76 109 143 175 218 268 319
#     4  10  20  36  53  75 108 146 176 206 262 328
#     4  11  21  33  53  82 113 139 171 218 270 321
#     4   9  19  35  55  78 111 143 173 221 272 312
#     4   9  20  37  54  75 105 140 178 220 265 316
#
# _framework density 19.891573000000001
#
# number of rings (size 3 to 8) (size 9 to 14) (size 15 to 20)
#    0.000    2.143    0.000    3.857    0.000    6.286 
#    0.000    0.714    0.000   11.143    0.000    0.000 
#    0.000    0.000    0.000    0.000    0.000    0.000 
#
# Total GULP energy -346967.780637 kJ/mol
# GULP energy per Si atom -12391.706451 kJ/mol
# Density = 1.984630 g / cm^3
# Si number density = 19.891573 Si / 1000 Ang^3
#
#
#
# Elastic Constant Matrix: (Units=GPa)
#
#
# Indices 1 2 3 4 5 6 
#
# 1 59.2256 33.2255 9.4869 0.0000 13.9426 0.0000
# 2 33.2255 141.4542 41.1885 0.0000 23.6449 0.0000
# 3 9.4869 41.1885 94.2273 0.0000 28.2564 0.0000
# 4 0.0000 0.0000 0.0000 16.0908 0.0000 1.3568
# 5 13.9426 23.6449 28.2564 0.0000 29.2074 0.0000
# 6 0.0000 0.0000 0.0000 1.3568 0.0000 24.9871
#
#
#
# Elastic Compliance Matrix: (Units=1/GPa)
#
#
# Indices 1 2 3 4 5 6 
#
# 1 0.020917 -0.004108 0.002376 0.000000 -0.008958 0.000000
# 2 -0.004108 0.009332 -0.002801 0.000000 -0.002884 0.000000
# 3 0.002376 -0.002801 0.015859 0.000000 -0.014209 0.000000
# 4 0.000000 0.000000 0.000000 0.062433 0.000000 -0.003390
# 5 -0.008958 -0.002884 -0.014209 0.000000 0.054596 0.000000
# 6 0.000000 0.000000 0.000000 -0.003390 0.000000 0.040205
#
#
# Mechanical properties :
#
#
# Convention : Reuss Voigt Hill
#
# Bulk Modulus (GPa) = 26.99540 51.41208 39.20374
# Shear Modulus (GPa) = 22.24658 28.12415 25.18536
#
# Velocity S-wave (km/s) = 3.34787 3.76423 3.56214
# Velocity P-wave (km/s) = 5.34275 6.69289 6.05557
#
# Compressibility (1/GPa) = 0.03704334
#
# Stress axis : x y z
#
# Youngs Moduli (GPa) = 47.80737 107.15994 63.05720
#
# Poissons Ratio (x) = 0.44016 -0.14982
# Poissons Ratio (y) = 0.19637 0.17660
# Poissons Ratio (z) = -0.11359 0.30011
#
# Static dielectric constant tensor:
#      x y z
#    x 3.624240 0.000000 0.041100 
#    y 0.000000 3.808220 0.000000 
#    z 0.041100 0.000000 3.751420 
# 
# 
# High freq. dielectric constant tensor:
#      x y z
#    x 1.772550 0.000000 0.000870 
#    y 0.000000 1.763840 0.000000 
#    z 0.000870 0.000000 1.776950 
# 
# From -- ./inp_files/65793.got.cif
#   From: 2010.06.25/outbox.cif.g09.slc.cpg/sg12_33_cif.got.tgz:65793.got - 2010.06.28 00:19:55.
