data_PCOD8100824
_publ_section_title
;
Structure prediction by ZEFSAII (Michael W. Deem and Ramdas Pophale) SiO2 
 PCOD8100824
Probable space group: C 2/M
;
_chemical_formula_sum "Si O2"
_cell_formula_units_Z 64
_cell_length_a 7.680859
_cell_length_b 26.607284
_cell_length_c 26.825076
_cell_angle_alpha 90.000000
_cell_angle_beta 33.854224
_cell_angle_gamma 90.000000
_cell_volume 3054.008692
_symmetry_space_group_name_H-M "C 2/M"
_symmetry_group_IT_number 12
_symmetry_cell_setting 'monoclinic'
loop_
_space_group_symop_operation_xyz
x,y,z
-x,y,-z
-x,-y,-z
x,-y,z
1/2+x,1/2+y,z
1/2-x,1/2+y,-z
1/2-x,1/2-y,-z
1/2+x,1/2-y,z
loop_
_atom_site_type_symbol
_atom_site_label
_atom_site_fract_x
_atom_site_fract_y
_atom_site_fract_z
Si Si1 0.850337 0.133140 0.659080
Si Si2 0.608403 0.941894 0.286515
Si Si3 0.130237 0.944537 0.082537
Si Si4 0.766619 0.191546 0.510388
Si Si5 0.127574 0.848447 0.024590
Si Si6 0.208107 0.875984 0.672749
Si Si7 0.741012 0.816513 0.839460
Si Si8 0.082396 0.292303 0.185988
O O1 0.665798 0.088389 0.676252
O O2 0.618674 0.180113 0.723799
O O3 0.126238 0.156128 0.560297
O O4 0.005041 0.109651 0.672376
O O5 0.623390 0.923616 0.341194
O O6 0.940313 0.935111 0.178992
O O7 0.508282 0.000000 0.311609
O O8 0.033267 0.904160 0.064332
O O9 0.044805 0.000000 0.082399
O O10 0.500000 0.939480 0.000000
O O11 0.750000 0.250000 0.500000
O O12 0.429522 0.170979 0.606660
O O13 0.000000 0.184259 0.500000
O O14 0.945292 0.809377 0.103908
O O15 0.497445 0.835102 0.940035
O O16 0.000000 0.842203 0.000000
O O17 0.990787 0.859598 0.770629
O O18 0.937356 0.767355 0.806664
O O19 0.550435 0.808183 0.834943
#
# Coordination Sequence:
#
# PCOD8100824 Si02
#       8
#     8   8   8   8   8   8   8   8
#     4  11  23  43  67  95 133 170 218 273 324 393
#     4  11  24  44  70  97 130 176 221 275 338 389
#     4  10  21  38  60  88 121 164 221 274 326 384
#     4  12  24  42  69 102 137 175 218 265 323 393
#     4  10  20  36  54  83 123 161 207 259 313 384
#     4  11  24  43  65  97 131 168 215 275 325 387
#     4  10  22  34  56  87 122 167 211 255 319 386
#     4  10  21  35  55  85 123 167 210 256 317 385
#
# _framework density 20.956064000000001
#
# number of rings (size 3 to 8) (size 9 to 14) (size 15 to 20)
#    0.000    1.375    2.500    3.000    1.750    3.750 
#    0.000    1.250    0.000    1.500    0.000    0.000 
#    0.000    0.000    0.000    0.000    0.000    0.000 
#
# Total GULP energy -396699.147355 kJ/mol
# GULP energy per Si atom -12396.848355 kJ/mol
# Density = 2.090837 g / cm^3
# Si number density = 20.956064 Si / 1000 Ang^3
#
#
#
# Elastic Constant Matrix: (Units=GPa)
#
#
# Indices 1 2 3 4 5 6 
#
# 1 70.1926 44.2462 27.5361 -0.0002 -3.0158 -0.0003
# 2 44.2462 126.0993 27.0504 0.0000 7.2332 0.0000
# 3 27.5361 27.0504 87.2871 0.0001 -3.3479 0.0002
# 4 -0.0002 0.0000 0.0001 35.7436 0.0001 7.9643
# 5 -3.0158 7.2332 -3.3479 0.0001 19.4469 0.0001
# 6 -0.0003 0.0000 0.0002 7.9643 0.0001 34.6786
#
#
#
# Elastic Compliance Matrix: (Units=1/GPa)
#
#
# Indices 1 2 3 4 5 6 
#
# 1 0.020159 -0.006454 -0.004175 0.000000 0.004808 0.000000
# 2 -0.006454 0.010824 -0.001521 0.000000 -0.005289 0.000000
# 3 -0.004175 -0.001521 0.013330 0.000000 0.002213 0.000000
# 4 0.000000 0.000000 0.000000 0.029486 0.000000 -0.006772
# 5 0.004808 -0.005289 0.002213 0.000000 0.054516 0.000000
# 6 0.000000 0.000000 0.000000 -0.006772 0.000000 0.030391
#
#
# Mechanical properties :
#
#
# Convention : Reuss Voigt Hill
#
# Bulk Modulus (GPa) = 49.96740 53.47161 51.71950
# Shear Modulus (GPa) = 26.36044 30.29025 28.32535
#
# Velocity S-wave (km/s) = 3.55052 3.80599 3.68047
# Velocity P-wave (km/s) = 6.37996 6.69967 6.54177
#
# Compressibility (1/GPa) = 0.02001305
#
# Stress axis : x y z
#
# Youngs Moduli (GPa) = 49.60561 92.38312 75.01907
#
# Poissons Ratio (x) = 0.59621 0.31321
# Poissons Ratio (y) = 0.32014 0.11414
# Poissons Ratio (z) = 0.20711 0.14056
#
# Static dielectric constant tensor:
#      x y z
#    x 3.678160 0.000000 -0.025740 
#    y 0.000000 4.170600 0.000000 
#    z -0.025740 0.000000 4.214390 
# 
# 
# High freq. dielectric constant tensor:
#      x y z
#    x 1.815580 0.000000 -0.001250 
#    y 0.000000 1.814940 0.000000 
#    z -0.001250 0.000000 1.832970 
# 
# From -- ./inp_files/373256.got.cif
#   From: 2010.06.25/outbox.cif.g09.slc.cpg/sg12_187_cif.got.tgz:373256.got - 2010.06.28 00:19:55.
