data_PCOD8100171
_publ_section_title
;
Structure prediction by ZEFSAII (Michael W. Deem and Ramdas Pophale) SiO2 
 PCOD8100171
Probable space group: C 2/M
;
_chemical_formula_sum "Si O2"
_cell_formula_units_Z 56
_cell_length_a 18.555561
_cell_length_b 9.078371
_cell_length_c 18.181465
_cell_angle_alpha 90.000000
_cell_angle_beta 105.064613
_cell_angle_gamma 90.000000
_cell_volume 2957.489027
_symmetry_space_group_name_H-M "C 2/M"
_symmetry_group_IT_number 12
_symmetry_cell_setting 'monoclinic'
loop_
_space_group_symop_operation_xyz
x,y,z
-x,y,-z
-x,-y,-z
x,-y,z
1/2+x,1/2+y,z
1/2-x,1/2+y,-z
1/2-x,1/2-y,-z
1/2+x,1/2-y,z
loop_
_atom_site_type_symbol
_atom_site_label
_atom_site_fract_x
_atom_site_fract_y
_atom_site_fract_z
Si Si1 0.367375 0.170416 0.146232
Si Si2 0.414453 0.829428 0.994143
Si Si3 0.699694 0.672983 0.141435
Si Si4 0.991357 0.830047 0.264596
Si Si5 0.358108 0.826390 0.733397
Si Si6 0.956646 0.833999 0.562501
Si Si7 0.685989 0.169956 0.439993
O O1 0.280336 0.211411 0.129042
O O2 0.412930 0.266920 0.216455
O O3 0.381014 0.000000 0.168455
O O4 0.396529 0.209843 0.073189
O O5 0.363447 0.727566 0.930523
O O6 0.397095 0.000000 0.972015
O O7 0.500000 0.791110 0.000000
O O8 0.689841 0.500000 0.151778
O O9 0.691988 0.756200 0.216551
O O10 0.059426 0.743020 0.244914
O O11 0.990843 0.810324 0.352646
O O12 0.998805 0.000000 0.243623
O O13 0.314502 0.789958 0.646490
O O14 0.367501 0.000000 0.748684
O O15 0.891497 0.716153 0.544894
O O16 0.000000 0.802234 0.500000
O O17 0.923809 0.000000 0.554773
O O18 0.750000 0.250000 0.500000
O O19 0.698307 0.000000 0.456081
#
# Coordination Sequence:
#
# PCOD8100171 Si02
#       7
#     8   8   8   8   8   8   8
#     4  10  22  38  55  81 117 149 179 223 276 326
#     4  10  21  38  60  82 107 146 188 224 271 329
#     4  11  23  37  56  84 115 146 183 229 274 318
#     4  10  20  35  58  84 109 143 186 229 273 325
#     4  10  21  38  58  79 108 147 187 227 276 332
#     4   9  19  36  56  80 112 146 182 226 274 328
#     4  10  21  36  56  81 109 144 185 230 278 327
#
# _framework density 18.934981000000001
#
# number of rings (size 3 to 8) (size 9 to 14) (size 15 to 20)
#    0.000    2.000    0.000    3.000    0.000    6.857 
#    0.000    4.286    0.000    0.000    0.000    0.000 
#    0.000    0.000    0.000    0.000    0.000    0.000 
#
# Total GULP energy -347304.964457 kJ/mol
# GULP energy per Si atom -12403.748731 kJ/mol
# Density = 1.889188 g / cm^3
# Si number density = 18.934981 Si / 1000 Ang^3
#
#
#
# Elastic Constant Matrix: (Units=GPa)
#
#
# Indices 1 2 3 4 5 6 
#
# 1 126.5337 61.1067 79.0688 0.0000 -3.7620 0.0000
# 2 61.1067 90.7425 66.2358 0.0000 8.4162 0.0000
# 3 79.0688 66.2358 121.8547 0.0000 3.0216 0.0000
# 4 0.0000 0.0000 0.0000 37.1937 0.0000 4.6432
# 5 -3.7620 8.4162 3.0216 0.0000 38.8224 0.0000
# 6 0.0000 0.0000 0.0000 4.6432 0.0000 33.6299
#
#
#
# Elastic Compliance Matrix: (Units=1/GPa)
#
#
# Indices 1 2 3 4 5 6 
#
# 1 0.014804 -0.005287 -0.006809 0.000000 0.003111 0.000000
# 2 -0.005287 0.020561 -0.007637 0.000000 -0.004375 0.000000
# 3 -0.006809 -0.007637 0.016783 0.000000 -0.000311 0.000000
# 4 0.000000 0.000000 0.000000 0.027358 0.000000 -0.003777
# 5 0.003111 -0.004375 -0.000311 0.000000 0.027032 0.000000
# 6 0.000000 0.000000 0.000000 -0.003777 0.000000 0.030257
#
#
# Mechanical properties :
#
#
# Convention : Reuss Voigt Hill
#
# Bulk Modulus (GPa) = 78.85282 83.55039 81.20160
# Shear Modulus (GPa) = 27.70254 30.77717 29.23986
#
# Velocity S-wave (km/s) = 3.82911 4.03602 3.93393
# Velocity P-wave (km/s) = 7.82840 8.12034 7.97571
#
# Compressibility (1/GPa) = 0.01268185
#
# Stress axis : x y z
#
# Youngs Moduli (GPa) = 67.55054 48.63590 59.58267
#
# Poissons Ratio (x) = 0.25716 0.40569
# Poissons Ratio (y) = 0.35717 0.45502
# Poissons Ratio (z) = 0.45994 0.37142
#
# Static dielectric constant tensor:
#      x y z
#    x 3.425140 0.000000 -0.122320 
#    y 0.000000 3.567550 0.000000 
#    z -0.122320 0.000000 3.558720 
# 
# 
# High freq. dielectric constant tensor:
#      x y z
#    x 1.734580 0.000000 -0.002270 
#    y 0.000000 1.744400 0.000000 
#    z -0.002270 0.000000 1.746770 
# 
# From -- ./inp_files/275538.got.cif
#   From: 2010.06.25/outbox.cif.g09.slc.cpg/sg12_138_cif.got.tgz:275538.got - 2010.06.28 00:19:55.
