data_PCOD8100970
_publ_section_title
;
Structure prediction by ZEFSAII (Michael W. Deem and Ramdas Pophale) SiO2 
 PCOD8100970
Probable space group: C 2/M
;
_chemical_formula_sum "Si O2"
_cell_formula_units_Z 64
_cell_length_a 14.171918
_cell_length_b 8.736010
_cell_length_c 26.180841
_cell_angle_alpha 90.000000
_cell_angle_beta 90.039392
_cell_angle_gamma 90.000000
_cell_volume 3241.344889
_symmetry_space_group_name_H-M "C 2/M"
_symmetry_group_IT_number 12
_symmetry_cell_setting 'monoclinic'
loop_
_space_group_symop_operation_xyz
x,y,z
-x,y,-z
-x,-y,-z
x,-y,z
1/2+x,1/2+y,z
1/2-x,1/2+y,-z
1/2-x,1/2-y,-z
1/2+x,1/2-y,z
loop_
_atom_site_type_symbol
_atom_site_label
_atom_site_fract_x
_atom_site_fract_y
_atom_site_fract_z
Si Si1 0.394926 0.319001 0.139274
Si Si2 0.900961 0.679675 0.862804
Si Si3 0.579922 0.679304 0.387912
Si Si4 0.776137 0.320499 0.680761
Si Si5 0.247994 0.819711 0.211050
Si Si6 0.750985 0.822413 0.055050
Si Si7 0.866742 0.178376 0.407930
Si Si8 0.389258 0.827347 0.510059
O O1 0.383925 0.500000 0.147646
O O2 0.503163 0.273867 0.135198
O O3 0.347050 0.233929 0.186977
O O4 0.341258 0.265584 0.087657
O O5 0.922048 0.500000 0.857802
O O6 0.839762 0.732058 0.814483
O O7 0.844548 0.718767 0.914622
O O8 0.593614 0.500000 0.379181
O O9 0.621194 0.770572 0.339413
O O10 0.471118 0.728082 0.390896
O O11 0.634626 0.729521 0.439527
O O12 0.773806 0.500000 0.693542
O O13 0.749045 0.223006 0.729901
O O14 0.701893 0.272774 0.637361
O O15 0.234934 0.000000 0.203612
O O16 0.759284 0.000000 0.046120
O O17 0.750000 0.750000 0.000000
O O18 0.835447 0.260928 0.460498
O O19 0.862999 0.000000 0.419635
O O20 0.500000 0.817539 0.500000
O O21 0.355207 0.000000 0.520025
#
# Coordination Sequence:
#
# PCOD8100970 Si02
#       8
#     8   8   8   8   8   8   8   8
#     4  10  21  39  61  87 117 154 197 240 286 339
#     4  10  21  39  61  87 116 153 198 241 286 338
#     4  10  20  36  56  79 107 140 180 222 270 333
#     4  11  23  39  57  80 110 142 180 229 282 336
#     4  11  23  40  60  83 112 148 189 238 291 342
#     4   9  20  36  56  85 124 161 196 239 284 331
#     4   9  20  37  56  77 105 141 177 217 269 328
#     4   9  17  31  53  79 106 137 174 218 268 323
#
# _framework density 19.744890000000002
#
# number of rings (size 3 to 8) (size 9 to 14) (size 15 to 20)
#    0.000    2.125    0.000    3.750    0.000    8.000 
#    0.000    6.250    0.000    0.000    0.000    0.000 
#    0.000    0.000    0.000    0.000    0.000    0.000 
#
# Total GULP energy -396895.070938 kJ/mol
# GULP energy per Si atom -12402.970967 kJ/mol
# Density = 1.969995 g / cm^3
# Si number density = 19.744890 Si / 1000 Ang^3
#
#
#
# Elastic Constant Matrix: (Units=GPa)
#
#
# Indices 1 2 3 4 5 6 
#
# 1 69.6120 13.4883 28.7658 0.0000 -5.1758 0.0000
# 2 13.4883 57.5610 27.7725 0.0000 -4.4500 0.0000
# 3 28.7658 27.7725 113.4877 0.0000 -10.3875 0.0000
# 4 0.0000 0.0000 0.0000 39.2254 0.0000 -1.5552
# 5 -5.1758 -4.4500 -10.3875 0.0000 19.3965 0.0000
# 6 0.0000 0.0000 0.0000 -1.5552 0.0000 30.4560
#
#
#
# Elastic Compliance Matrix: (Units=1/GPa)
#
#
# Indices 1 2 3 4 5 6 
#
# 1 0.016336 -0.001998 -0.003465 0.000000 0.002045 0.000000
# 2 -0.001998 0.020020 -0.004228 0.000000 0.001795 0.000000
# 3 -0.003465 -0.004228 0.011095 0.000000 0.004047 0.000000
# 4 0.000000 0.000000 0.000000 0.025545 0.000000 0.001304
# 5 0.002045 0.001795 0.004047 0.000000 0.054681 0.000000
# 6 0.000000 0.000000 0.000000 0.001304 0.000000 0.032901
#
#
# Mechanical properties :
#
#
# Convention : Reuss Voigt Hill
#
# Bulk Modulus (GPa) = 35.62699 42.30155 38.96427
# Shear Modulus (GPa) = 26.41073 29.19120 27.80097
#
# Velocity S-wave (km/s) = 3.66129 3.84919 3.75641
# Velocity P-wave (km/s) = 5.99635 6.42072 6.21216
#
# Compressibility (1/GPa) = 0.02806861
#
# Stress axis : x y z
#
# Youngs Moduli (GPa) = 61.21345 49.94978 90.13160
#
# Poissons Ratio (x) = 0.09982 0.31226
# Poissons Ratio (y) = 0.12233 0.38112
# Poissons Ratio (z) = 0.21207 0.21121
#
# Static dielectric constant tensor:
#      x y z
#    x 3.262040 0.000000 -1.180870 
#    y 0.000000 3.594940 0.000000 
#    z -1.180870 0.000000 0.115970 
# 
# 
# High freq. dielectric constant tensor:
#      x y z
#    x 1.772370 0.000000 -0.004480 
#    y 0.000000 1.775680 0.000000 
#    z -0.004480 0.000000 1.769450 
# 
# From -- ./inp_files/338815.got.cif
#   From: 2010.06.25/outbox.cif.g09.slc.cpg/sg12_170_cif.got.tgz:338815.got - 2010.06.28 00:19:55.
