data_PCOD8100664
_publ_section_title
;
Structure prediction by ZEFSAII (Michael W. Deem and Ramdas Pophale) SiO2 
 PCOD8100664
Probable space group: C 2/M
;
_chemical_formula_sum "Si O2"
_cell_formula_units_Z 48
_cell_length_a 31.140694
_cell_length_b 8.147182
_cell_length_c 9.014936
_cell_angle_alpha 90.000000
_cell_angle_beta 81.211286
_cell_angle_gamma 90.000000
_cell_volume 2260.314703
_symmetry_space_group_name_H-M "C 2/M"
_symmetry_group_IT_number 12
_symmetry_cell_setting 'monoclinic'
loop_
_space_group_symop_operation_xyz
x,y,z
-x,y,-z
-x,-y,-z
x,-y,z
1/2+x,1/2+y,z
1/2-x,1/2+y,-z
1/2-x,1/2-y,-z
1/2+x,1/2-y,z
loop_
_atom_site_type_symbol
_atom_site_label
_atom_site_fract_x
_atom_site_fract_y
_atom_site_fract_z
Si Si1 0.676918 0.000000 0.698839
Si Si2 0.197869 0.176684 0.129651
Si Si3 0.990591 0.178588 0.674645
Si Si4 0.890760 0.500000 0.509705
Si Si5 0.898863 0.500000 0.020313
Si Si6 0.533804 0.000000 0.767811
Si Si7 0.103975 0.751557 0.237260
Si Si8 0.721303 0.687423 0.790510
O O1 0.704999 0.169560 0.688006
O O2 0.655208 0.000000 0.548909
O O3 0.640642 0.000000 0.844661
O O4 0.149035 0.150563 0.213355
O O5 0.226291 0.301879 0.214042
O O6 0.221536 0.000000 0.128212
O O7 0.197869 0.230998 0.958092
O O8 0.939698 0.143055 0.731587
O O9 0.000000 0.226332 0.500000
O O10 0.005733 0.332501 0.766844
O O11 0.013049 0.000000 0.700227
O O12 0.929456 0.500000 0.373787
O O13 0.895523 0.655077 0.610367
O O14 0.896288 0.655463 0.916491
O O15 0.945125 0.500000 0.080390
O O16 0.710313 0.500000 0.741742
#
# Coordination Sequence:
#
# PCOD8100664 Si02
#       8
#     4   8   8   4   4   4   8   8
#     4  11  20  44  60  91 124 167 199 257 302 369
#     4  10  20  35  60  93 122 155 200 255 305 359
#     4  11  23  40  65  92 125 166 209 246 306 370
#     4  10  23  37  67  87 125 164 212 245 310 359
#     4  10  23  36  68  92 126 156 210 251 315 356
#     4  11  21  46  63  92 124 170 196 258 307 366
#     4  11  21  39  62  95 118 163 204 262 295 371
#     4  10  21  36  62  91 121 159 200 247 310 367
#
# _framework density 21.235979
#
# number of rings (size 3 to 8) (size 9 to 14) (size 15 to 20)
#    0.000    1.500    4.167    1.750    3.500    1.333 
#    0.000    8.333    0.000    0.000    0.000    0.000 
#    0.000    0.000    0.000    0.000    0.000    0.000 
#
# Total GULP energy -297329.116282 kJ/mol
# GULP energy per Si atom -12388.713178 kJ/mol
# Density = 2.118764 g / cm^3
# Si number density = 21.235979 Si / 1000 Ang^3
#
#
#
# Elastic Constant Matrix: (Units=GPa)
#
#
# Indices 1 2 3 4 5 6 
#
# 1 111.2436 33.6852 18.8416 0.0000 1.4487 0.0000
# 2 33.6852 147.8596 23.5993 0.0000 28.0522 0.0000
# 3 18.8416 23.5993 64.5237 0.0000 15.1391 0.0000
# 4 0.0000 0.0000 0.0000 5.9109 0.0000 -1.3604
# 5 1.4487 28.0522 15.1391 0.0000 35.3753 0.0000
# 6 0.0000 0.0000 0.0000 -1.3604 0.0000 26.1767
#
#
#
# Elastic Compliance Matrix: (Units=1/GPa)
#
#
# Indices 1 2 3 4 5 6 
#
# 1 0.010133 -0.002375 -0.002707 0.000000 0.002626 0.000000
# 2 -0.002375 0.008667 -0.000986 0.000000 -0.006354 0.000000
# 3 -0.002707 -0.000986 0.018275 0.000000 -0.006928 0.000000
# 4 0.000000 0.000000 0.000000 0.171226 0.000000 0.008898
# 5 0.002626 -0.006354 -0.006928 0.000000 0.036164 0.000000
# 6 0.000000 0.000000 0.000000 0.008898 0.000000 0.038664
#
#
# Mechanical properties :
#
#
# Convention : Reuss Voigt Hill
#
# Bulk Modulus (GPa) = 40.09583 52.87544 46.48564
# Shear Modulus (GPa) = 16.47035 29.99265 23.23150
#
# Velocity S-wave (km/s) = 2.78796 3.76220 3.31111
# Velocity P-wave (km/s) = 5.41162 6.62007 6.04611
#
# Compressibility (1/GPa) = 0.02494025
#
# Stress axis : x y z
#
# Youngs Moduli (GPa) = 98.69169 115.38103 54.72080
#
# Poissons Ratio (x) = 0.27400 0.14810
# Poissons Ratio (y) = 0.23436 0.05394
# Poissons Ratio (z) = 0.26711 0.11373
#
# Static dielectric constant tensor:
#      x y z
#    x 3.915840 0.000000 -0.006800 
#    y 0.000000 6.161610 0.000000 
#    z -0.006800 0.000000 3.637620 
# 
# 
# High freq. dielectric constant tensor:
#      x y z
#    x 1.836460 0.000000 -0.010500 
#    y 0.000000 1.838470 0.000000 
#    z -0.010500 0.000000 1.810600 
# 
# From -- ./inp_files/108882.got.cif
#   From: 2010.06.25/outbox.cif.g09.slc.cpg/sg12_55_cif.got.tgz:108882.got - 2010.06.28 00:19:55.
