data_PCOD8100395
_publ_section_title
;
Structure prediction by ZEFSAII (Michael W. Deem and Ramdas Pophale) SiO2 
 PCOD8100395
Probable space group: C 2/M
;
_chemical_formula_sum "Si O2"
_cell_formula_units_Z 64
_cell_length_a 18.802031
_cell_length_b 13.911988
_cell_length_c 24.642627
_cell_angle_alpha 90.000000
_cell_angle_beta 27.712959
_cell_angle_gamma 90.000000
_cell_volume 2997.598139
_symmetry_space_group_name_H-M "C 2/M"
_symmetry_group_IT_number 12
_symmetry_cell_setting 'monoclinic'
loop_
_space_group_symop_operation_xyz
x,y,z
-x,y,-z
-x,-y,-z
x,-y,z
1/2+x,1/2+y,z
1/2-x,1/2+y,-z
1/2-x,1/2-y,-z
1/2+x,1/2-y,z
loop_
_atom_site_type_symbol
_atom_site_label
_atom_site_fract_x
_atom_site_fract_y
_atom_site_fract_z
Si Si1 0.808585 0.387234 0.819518
Si Si2 0.513136 0.246994 0.429541
Si Si3 0.129869 0.611216 0.550537
Si Si4 0.671636 0.614377 0.129367
Si Si5 0.038169 0.887244 0.631209
Si Si6 0.617092 0.387236 0.047805
Si Si7 0.167729 0.203462 0.815563
Si Si8 0.493376 0.894859 0.067758
O O1 0.780037 0.500000 0.828981
O O2 0.687132 0.328427 0.864958
O O3 0.985726 0.361689 0.686837
O O4 0.763562 0.356887 0.911536
O O5 0.500000 0.282928 0.500000
O O6 0.381261 0.173730 0.497357
O O7 0.516352 0.338881 0.387708
O O8 0.669721 0.186004 0.322460
O O9 0.130341 0.500000 0.533391
O O10 0.284445 0.637902 0.477865
O O11 0.658525 0.500000 0.139558
O O12 0.562829 0.655110 0.250701
O O13 0.625063 0.658914 0.102483
O O14 0.845316 0.647206 0.021116
O O15 0.011411 0.000000 0.642191
O O16 0.621696 0.500000 0.052408
O O17 0.458034 0.360955 0.127859
O O18 0.133840 0.316936 0.831710
O O19 0.456308 0.000000 0.119442
O O20 0.500000 0.910301 0.000000
#
# Coordination Sequence:
#
# PCOD8100395 Si02
#       8
#     8   8   8   8   8   8   8   8
#     4   9  18  35  58  88 124 152 185 236 293 353
#     4  11  25  41  58  89 124 154 200 256 299 347
#     4   9  20  40  65  89 116 160 202 242 301 358
#     4   9  20  37  59  88 117 150 194 246 294 342
#     4  10  21  41  66  87 117 162 204 244 297 355
#     4  10  20  35  58  90 123 149 187 240 294 356
#     4  11  22  36  56  84 116 158 194 230 294 360
#     4  10  20  36  56  78 108 147 192 237 285 342
#
# _framework density 21.350425999999999
#
# number of rings (size 3 to 8) (size 9 to 14) (size 15 to 20)
#    0.000    2.125    0.000    2.625    1.750    5.000 
#    2.250    0.000    0.000    0.000    0.000    0.000 
#    0.000    0.000    0.000    0.000    0.000    0.000 
#
# Total GULP energy -396695.874470 kJ/mol
# GULP energy per Si atom -12396.746077 kJ/mol
# Density = 2.130183 g / cm^3
# Si number density = 21.350426 Si / 1000 Ang^3
#
#
#
# Elastic Constant Matrix: (Units=GPa)
#
#
# Indices 1 2 3 4 5 6 
#
# 1 140.8186 22.0613 70.4177 -0.0009 20.0467 -0.0001
# 2 22.0613 23.9182 15.8826 0.0024 14.9988 -0.0004
# 3 70.4177 15.8826 85.4229 0.0050 6.3861 0.0020
# 4 -0.0009 0.0024 0.0050 26.0470 -0.0004 0.9071
# 5 20.0467 14.9988 6.3861 -0.0004 38.2565 -0.0006
# 6 -0.0001 -0.0004 0.0020 0.9071 -0.0006 27.0439
#
#
#
# Elastic Compliance Matrix: (Units=1/GPa)
#
#
# Indices 1 2 3 4 5 6 
#
# 1 0.013125 -0.002939 -0.009970 0.000003 -0.004061 0.000001
# 2 -0.002939 0.063488 -0.007732 -0.000005 -0.022060 0.000001
# 3 -0.009970 -0.007732 0.021007 -0.000004 0.004749 -0.000002
# 4 0.000003 -0.000005 -0.000004 0.038437 0.000002 -0.001289
# 5 -0.004061 -0.022060 0.004749 0.000002 0.036124 0.000000
# 6 0.000001 0.000001 -0.000002 -0.001289 0.000000 0.037020
#
#
# Mechanical properties :
#
#
# Convention : Reuss Voigt Hill
#
# Bulk Modulus (GPa) = 17.74976 51.87588 34.81282
# Shear Modulus (GPa) = 18.56915 27.72268 23.14591
#
# Velocity S-wave (km/s) = 2.95232 3.60732 3.29613
# Velocity P-wave (km/s) = 4.46690 6.45759 5.55219
#
# Compressibility (1/GPa) = 0.05633879
#
# Stress axis : x y z
#
# Youngs Moduli (GPa) = 76.18807 15.75095 47.60209
#
# Poissons Ratio (x) = 0.04630 0.47458
# Poissons Ratio (y) = 0.22395 0.36806
# Poissons Ratio (z) = 0.75957 0.12179
#
# Static dielectric constant tensor:
#      x y z
#    x 2.429630 0.000080 1.188260 
#    y 0.000080 3.932790 -0.000060 
#    z 1.188260 -0.000060 2.875490 
# 
# 
# High freq. dielectric constant tensor:
#      x y z
#    x 1.832820 0.000000 -0.014410 
#    y 0.000000 1.846020 0.000000 
#    z -0.014410 0.000000 1.826570 
# 
# From -- ./inp_files/344020.got.cif
#   From: 2010.06.25/outbox.cif.g09.slc.cpg/sg12_173_cif.got.tgz:344020.got - 2010.06.28 00:19:55.
