data_PCOD8100869
_publ_section_title
;
Structure prediction by ZEFSAII (Michael W. Deem and Ramdas Pophale) SiO2 
 PCOD8100869
Probable space group: C 2/M
;
_chemical_formula_sum "Si O2"
_cell_formula_units_Z 64
_cell_length_a 20.985995
_cell_length_b 9.216361
_cell_length_c 20.139294
_cell_angle_alpha 90.000000
_cell_angle_beta 58.621211
_cell_angle_gamma 90.000000
_cell_volume 3325.529115
_symmetry_space_group_name_H-M "C 2/M"
_symmetry_group_IT_number 12
_symmetry_cell_setting 'monoclinic'
loop_
_space_group_symop_operation_xyz
x,y,z
-x,y,-z
-x,-y,-z
x,-y,z
1/2+x,1/2+y,z
1/2-x,1/2+y,-z
1/2-x,1/2-y,-z
1/2+x,1/2-y,z
loop_
_atom_site_type_symbol
_atom_site_label
_atom_site_fract_x
_atom_site_fract_y
_atom_site_fract_z
Si Si1 0.473027 0.827821 0.707137
Si Si2 0.312427 0.343563 0.996351
Si Si3 0.838419 0.670678 0.689626
Si Si4 0.048029 0.329148 0.909740
Si Si5 0.538800 0.327849 0.149372
Si Si6 0.644633 0.169042 0.593988
Si Si7 0.276080 0.829392 0.584908
Si Si8 0.306132 0.660829 0.152826
O O1 0.417526 0.774966 0.677657
O O2 0.448661 0.741600 0.785662
O O3 0.558116 0.784503 0.644220
O O4 0.464965 0.000000 0.723748
O O5 0.308730 0.500000 0.963365
O O6 0.293843 0.358341 0.082529
O O7 0.250000 0.250000 0.000000
O O8 0.393242 0.279968 0.935388
O O9 0.844173 0.500000 0.681004
O O10 0.820118 0.731826 0.625747
O O11 0.770578 0.717776 0.773845
O O12 0.039305 0.500000 0.903962
O O13 0.133630 0.286567 0.871788
O O14 0.029474 0.245980 0.851703
O O15 0.000000 0.277001 0.000000
O O16 0.526260 0.500000 0.161996
O O17 0.671990 0.209593 0.505542
O O18 0.694805 0.254172 0.620914
O O19 0.654485 0.000000 0.603831
O O20 0.260831 0.000000 0.599414
O O21 0.328689 0.500000 0.169588
#
# Coordination Sequence:
#
# PCOD8100869 Si02
#       8
#     8   8   8   8   8   8   8   8
#     4  10  21  38  58  83 116 149 189 238 286 335
#     4  10  21  35  54  76 104 144 186 227 277 331
#     4   9  19  35  58  85 112 148 189 232 282 335
#     4  11  23  38  57  82 108 142 187 236 288 335
#     4  11  23  38  56  80 111 148 188 231 280 335
#     4   9  19  35  57  85 116 149 185 233 285 333
#     4   9  18  35  58  85 115 149 190 229 277 343
#     4  10  20  36  55  78 109 145 185 230 280 332
#
# _framework density 19.245056999999999
#
# number of rings (size 3 to 8) (size 9 to 14) (size 15 to 20)
#    0.000    2.125    1.250    1.500    1.750    4.000 
#    0.000    3.750    0.000    0.000    0.000    4.375 
#    0.000    0.000    0.000    0.000    0.000    0.000 
#
# Total GULP energy -396637.638415 kJ/mol
# GULP energy per Si atom -12394.926200 kJ/mol
# Density = 1.920125 g / cm^3
# Si number density = 19.245057 Si / 1000 Ang^3
#
#
#
# Elastic Constant Matrix: (Units=GPa)
#
#
# Indices 1 2 3 4 5 6 
#
# 1 144.5706 44.1467 50.4986 0.0002 12.2781 0.0003
# 2 44.1467 54.7518 25.2193 0.0004 5.1321 0.0006
# 3 50.4986 25.2193 87.0058 0.0001 7.3707 0.0001
# 4 0.0002 0.0004 0.0001 20.0342 -0.0001 1.5583
# 5 12.2781 5.1321 7.3707 -0.0001 31.8813 0.0000
# 6 0.0003 0.0006 0.0001 1.5583 0.0000 33.3304
#
#
#
# Elastic Compliance Matrix: (Units=1/GPa)
#
#
# Indices 1 2 3 4 5 6 
#
# 1 0.010450 -0.006370 -0.004044 0.000000 -0.002064 0.000000
# 2 -0.006370 0.025089 -0.003510 0.000000 -0.000774 0.000000
# 3 -0.004044 -0.003510 0.014971 0.000000 -0.001339 0.000000
# 4 0.000000 0.000000 0.000000 0.050097 0.000000 -0.002342
# 5 -0.002064 -0.000774 -0.001339 0.000000 0.032595 0.000000
# 6 0.000000 0.000000 0.000000 -0.002342 0.000000 0.030112
#
#
# Mechanical properties :
#
#
# Convention : Reuss Voigt Hill
#
# Bulk Modulus (GPa) = 44.12324 58.45082 51.28703
# Shear Modulus (GPa) = 25.16143 28.14676 26.65410
#
# Velocity S-wave (km/s) = 3.61975 3.82847 3.72557
# Velocity P-wave (km/s) = 6.35979 7.06971 6.72412
#
# Compressibility (1/GPa) = 0.02266379
#
# Stress axis : x y z
#
# Youngs Moduli (GPa) = 95.69362 39.85754 66.79385
#
# Poissons Ratio (x) = 0.25388 0.27012
# Poissons Ratio (y) = 0.60954 0.23443
# Poissons Ratio (z) = 0.38699 0.13989
#
# Static dielectric constant tensor:
#      x y z
#    x 3.717600 0.000000 0.027290 
#    y 0.000000 3.277500 0.000000 
#    z 0.027290 0.000000 3.498110 
# 
# 
# High freq. dielectric constant tensor:
#      x y z
#    x 1.756120 0.000000 0.000280 
#    y 0.000000 1.730030 0.000000 
#    z 0.000280 0.000000 1.749550 
# 
# From -- ./inp_files/319837.got.cif
#   From: 2010.06.25/outbox.cif.g09.slc.cpg/sg12_160_cif.got.tgz:319837.got - 2010.06.28 00:19:55.
