data_PCOD8100300
_publ_section_title
;
Structure prediction by ZEFSAII (Michael W. Deem and Ramdas Pophale) SiO2 
 PCOD8100300
Probable space group: C 2/M
;
_chemical_formula_sum "Si O2"
_cell_formula_units_Z 64
_cell_length_a 25.960277
_cell_length_b 15.115739
_cell_length_c 12.447236
_cell_angle_alpha 90.000000
_cell_angle_beta 42.620367
_cell_angle_gamma 90.000000
_cell_volume 3307.413942
_symmetry_space_group_name_H-M "C 2/M"
_symmetry_group_IT_number 12
_symmetry_cell_setting 'monoclinic'
loop_
_space_group_symop_operation_xyz
x,y,z
-x,y,-z
-x,-y,-z
x,-y,z
1/2+x,1/2+y,z
1/2-x,1/2+y,-z
1/2-x,1/2-y,-z
1/2+x,1/2-y,z
loop_
_atom_site_type_symbol
_atom_site_label
_atom_site_fract_x
_atom_site_fract_y
_atom_site_fract_z
Si Si1 0.438388 0.096109 0.168587
Si Si2 0.201503 0.765626 0.835022
Si Si3 0.088151 0.901060 0.387647
Si Si4 0.335612 0.245955 0.336586
Si Si5 0.624805 0.255399 0.493418
Si Si6 0.485936 0.902353 0.336068
Si Si7 0.657972 0.897130 0.045132
Si Si8 0.199031 0.897385 0.030960
O O1 0.357370 0.143211 0.292038
O O2 0.476219 0.088757 0.225310
O O3 0.422335 0.000000 0.143259
O O4 0.500000 0.147390 0.000000
O O5 0.153543 0.789105 0.798844
O O6 0.289769 0.770090 0.668123
O O7 0.177907 0.668657 0.915883
O O8 0.183711 0.841138 0.948066
O O9 0.101877 0.844832 0.471873
O O10 0.136331 0.864526 0.213110
O O11 0.000000 0.898782 0.500000
O O12 0.116797 0.000000 0.368823
O O13 0.250000 0.250000 0.500000
O O14 0.385154 0.279519 0.363241
O O15 0.570386 0.174837 0.535787
O O16 0.574207 0.877192 0.222079
O O17 0.467329 0.000000 0.416680
O O18 0.664332 0.000000 0.996705
O O19 0.717222 0.878442 0.050501
O O20 0.187852 0.000000 0.018486
#
# Coordination Sequence:
#
# PCOD8100300 Si02
#       8
#     8   8   8   8   8   8   8   8
#     4   9  16  30  52  79 110 144 183 225 271 323
#     4  11  21  35  59  82 114 152 189 229 282 332
#     4  10  22  40  61  83 106 140 192 248 291 330
#     4   9  20  36  50  81 119 149 185 224 269 341
#     4  10  21  36  58  83 118 152 186 226 280 340
#     4   9  19  33  52  82 118 150 178 217 277 348
#     4  10  20  35  58  87 115 143 186 238 284 333
#     4  10  22  39  58  83 111 144 192 243 288 336
#
# _framework density 19.350466000000001
#
# number of rings (size 3 to 8) (size 9 to 14) (size 15 to 20)
#    0.000    2.250    1.250    1.125    1.750    2.000 
#    0.000    4.375    0.000    2.625    0.000    2.625 
#    0.000    0.000    0.000    0.000    0.000    0.000 
#
# Total GULP energy -396463.259485 kJ/mol
# GULP energy per Si atom -12389.476859 kJ/mol
# Density = 1.930642 g / cm^3
# Si number density = 19.350466 Si / 1000 Ang^3
#
#
#
# Elastic Constant Matrix: (Units=GPa)
#
#
# Indices 1 2 3 4 5 6 
#
# 1 94.6356 58.6623 52.5707 0.0000 9.7706 0.0000
# 2 58.6623 96.4049 63.4910 0.0000 11.4159 0.0000
# 3 52.5707 63.4910 84.2255 0.0000 2.0807 0.0000
# 4 0.0000 0.0000 0.0000 5.5734 0.0000 -13.3252
# 5 9.7706 11.4159 2.0807 0.0000 41.2787 0.0000
# 6 0.0000 0.0000 0.0000 -13.3252 0.0000 14.7306
#
#
#
# Elastic Compliance Matrix: (Units=1/GPa)
#
#
# Indices 1 2 3 4 5 6 
#
# 1 0.018581 -0.006842 -0.006386 0.000000 -0.002184 0.000000
# 2 -0.006842 0.024168 -0.013840 0.000000 -0.004367 0.000000
# 3 -0.006386 -0.013840 0.026192 0.000000 0.004019 0.000000
# 4 0.000000 0.000000 0.000000 -0.154307 0.000000 -0.139585
# 5 -0.002184 -0.004367 0.004019 0.000000 0.025748 0.000000
# 6 0.000000 0.000000 0.000000 -0.139585 0.000000 -0.058382
#
#
# Mechanical properties :
#
#
# Convention : Reuss Voigt Hill
#
# Bulk Modulus (GPa) = 67.54275 69.41266 68.47771
# Shear Modulus (GPa) = -84.84959 19.01932 -32.91514
#
# Velocity S-wave (km/s) = -6.62903 3.13850 -4.12879
# Velocity P-wave (km/s) = 4.85915 7.00591 3.56872
#
# Compressibility (1/GPa) = 0.01480544
#
# Stress axis : x y z
#
# Youngs Moduli (GPa) = 53.81810 41.37617 38.17906
#
# Poissons Ratio (x) = 0.28311 0.24380
# Poissons Ratio (y) = 0.36824 0.52840
# Poissons Ratio (z) = 0.34367 0.57265
#
# Static dielectric constant tensor:
#      x y z
#    x 3.956820 0.000000 -0.020500 
#    y 0.000000 3.655660 0.000000 
#    z -0.020500 0.000000 3.639270 
# 
# 
# High freq. dielectric constant tensor:
#      x y z
#    x 1.755600 0.000000 -0.001360 
#    y 0.000000 1.740660 0.000000 
#    z -0.001360 0.000000 1.753600 
# 
# From -- ./inp_files/183750.got.cif
#   From: 2010.06.25/outbox.cif.g09.slc.cpg/sg12_92_cif.got.tgz:183750.got - 2010.06.28 00:19:55.
