data_PCOD8100914
_publ_section_title
;
Structure prediction by ZEFSAII (Michael W. Deem and Ramdas Pophale) SiO2 
 PCOD8100914
Probable space group: C 2/M
;
_chemical_formula_sum "Si O2"
_cell_formula_units_Z 64
_cell_length_a 19.085273
_cell_length_b 9.196814
_cell_length_c 32.424370
_cell_angle_alpha 90.000000
_cell_angle_beta 36.754506
_cell_angle_gamma 90.000000
_cell_volume 3405.570860
_symmetry_space_group_name_H-M "C 2/M"
_symmetry_group_IT_number 12
_symmetry_cell_setting 'monoclinic'
loop_
_space_group_symop_operation_xyz
x,y,z
-x,y,-z
-x,-y,-z
x,-y,z
1/2+x,1/2+y,z
1/2-x,1/2+y,-z
1/2-x,1/2-y,-z
1/2+x,1/2-y,z
loop_
_atom_site_type_symbol
_atom_site_label
_atom_site_fract_x
_atom_site_fract_y
_atom_site_fract_z
Si Si1 0.883494 0.172533 0.707206
Si Si2 0.781084 0.332306 0.944127
Si Si3 0.817470 0.172164 0.569217
Si Si4 0.967678 0.167546 0.972043
Si Si5 0.143886 0.829456 0.820352
Si Si6 0.502934 0.330960 0.807196
Si Si7 0.952850 0.172130 0.584684
Si Si8 0.419470 0.670121 0.320794
O O1 0.760877 0.244326 0.776871
O O2 0.923650 0.234123 0.643656
O O3 0.978260 0.220535 0.696525
O O4 0.867306 0.000000 0.714153
O O5 0.806816 0.500000 0.942220
O O6 0.889796 0.264003 0.869520
O O7 0.750000 0.250000 0.000000
O O8 0.670316 0.312974 0.966941
O O9 0.855942 0.224073 0.597046
O O10 0.698618 0.248057 0.611087
O O11 0.917941 0.223670 0.489925
O O12 0.799383 0.000000 0.576429
O O13 0.041235 0.231615 0.898850
O O14 0.003993 0.000000 0.956921
O O15 0.000000 0.245528 0.000000
O O16 0.104561 0.794598 0.792137
O O17 0.167050 0.000000 0.815088
O O18 0.467223 0.500000 0.826779
O O19 0.547199 0.286508 0.741346
O O20 0.952363 0.000000 0.585647
O O21 0.396014 0.500000 0.336108
#
# Coordination Sequence:
#
# PCOD8100914 Si02
#       8
#     8   8   8   8   8   8   8   8
#     4  10  21  36  52  75 109 143 173 211 268 322
#     4  11  21  36  59  83 106 137 176 219 267 315
#     4   9  17  33  58  81 101 135 183 222 254 305
#     4   9  19  35  54  77 105 137 172 215 265 309
#     4  10  20  36  56  75 101 137 176 219 261 303
#     4  10  21  38  55  75 107 142 176 216 263 313
#     4   8  16  33  56  79 105 137 174 221 264 303
#     4  10  22  36  51  76 113 145 168 213 273 315
#
# _framework density 18.792736999999999
#
# number of rings (size 3 to 8) (size 9 to 14) (size 15 to 20)
#    0.000    2.375    1.250    1.875    1.750    2.000 
#    0.000    1.875    0.000    1.875    0.000    0.000 
#    0.000    0.000    0.000    0.000    0.000    0.000 
#
# Total GULP energy -396775.351649 kJ/mol
# GULP energy per Si atom -12399.229739 kJ/mol
# Density = 1.874996 g / cm^3
# Si number density = 18.792737 Si / 1000 Ang^3
#
#
#
# Elastic Constant Matrix: (Units=GPa)
#
#
# Indices 1 2 3 4 5 6 
#
# 1 119.8412 28.2994 49.3007 0.0040 -8.5850 0.0811
# 2 28.2994 40.1929 29.8809 0.0348 -12.5277 0.0010
# 3 49.3007 29.8809 91.7993 0.0012 -16.8693 -0.0062
# 4 0.0040 0.0348 0.0012 29.2727 -0.0019 -9.7619
# 5 -8.5850 -12.5277 -16.8693 -0.0019 37.4719 0.0031
# 6 0.0811 0.0010 -0.0062 -9.7619 0.0031 19.9545
#
#
#
# Elastic Compliance Matrix: (Units=1/GPa)
#
#
# Indices 1 2 3 4 5 6 
#
# 1 0.011350 -0.004829 -0.004734 -0.000014 -0.001145 -0.000054
# 2 -0.004829 0.036506 -0.007904 -0.000044 0.007540 -0.000008
# 3 -0.004734 -0.007904 0.016706 0.000021 0.003794 0.000035
# 4 -0.000014 -0.000044 0.000021 0.040821 -0.000008 0.019970
# 5 -0.001145 0.007540 0.003794 -0.000008 0.030653 -0.000003
# 6 -0.000054 -0.000008 0.000035 0.019970 -0.000003 0.059884
#
#
# Mechanical properties :
#
#
# Convention : Reuss Voigt Hill
#
# Bulk Modulus (GPa) = 33.75172 51.86617 42.80894
# Shear Modulus (GPa) = 20.77011 26.96333 23.86672
#
# Velocity S-wave (km/s) = 3.32809 3.79195 3.56757
# Velocity P-wave (km/s) = 5.72427 6.84330 6.30865
#
# Compressibility (1/GPa) = 0.02962812
#
# Stress axis : x y z
#
# Youngs Moduli (GPa) = 88.10345 27.39247 59.85966
#
# Poissons Ratio (x) = 0.13228 0.28339
# Poissons Ratio (y) = 0.42545 0.47312
# Poissons Ratio (z) = 0.41711 0.21651
#
# Static dielectric constant tensor:
#      x y z
#    x 3.487500 0.000020 0.594620 
#    y 0.000020 3.047100 -0.000120 
#    z 0.594620 -0.000120 2.853710 
# 
# 
# High freq. dielectric constant tensor:
#      x y z
#    x 1.738630 0.000000 0.000330 
#    y 0.000000 1.698500 0.000000 
#    z 0.000330 0.000000 1.739230 
# 
# From -- ./inp_files/377991.got.cif
#   From: 2010.06.25/outbox.cif.g09.slc.cpg/sg12_189_cif.got.tgz:377991.got - 2010.06.28 00:19:55.
