data_PCOD8100065
_publ_section_title
;
Structure prediction by ZEFSAII (Michael W. Deem and Ramdas Pophale) SiO2 
 PCOD8100065
Probable space group: C 2/M
;
_chemical_formula_sum "Si O2"
_cell_formula_units_Z 48
_cell_length_a 27.862291
_cell_length_b 8.962938
_cell_length_c 10.212155
_cell_angle_alpha 90.000000
_cell_angle_beta 89.743533
_cell_angle_gamma 90.000000
_cell_volume 2550.235360
_symmetry_space_group_name_H-M "C 2/M"
_symmetry_group_IT_number 12
_symmetry_cell_setting 'monoclinic'
loop_
_space_group_symop_operation_xyz
x,y,z
-x,y,-z
-x,-y,-z
x,-y,z
1/2+x,1/2+y,z
1/2-x,1/2+y,-z
1/2-x,1/2-y,-z
1/2+x,1/2-y,z
loop_
_atom_site_type_symbol
_atom_site_label
_atom_site_fract_x
_atom_site_fract_y
_atom_site_fract_z
Si Si1 0.055612 0.174018 0.496895
Si Si2 0.805131 0.174511 0.862522
Si Si3 0.196045 0.674072 0.861793
Si Si4 0.609518 0.173806 0.261373
Si Si5 0.391143 0.325669 0.238398
Si Si6 0.944495 0.327832 0.004009
O O1 0.081990 0.270772 0.388528
O O2 0.078237 0.218000 0.635443
O O3 0.000000 0.219041 0.500000
O O4 0.062232 0.000000 0.464293
O O5 0.750579 0.207928 0.818936
O O6 0.839857 0.239870 0.750842
O O7 0.814156 0.000000 0.881087
O O8 0.816755 0.254449 0.998614
O O9 0.185966 0.500000 0.875408
O O10 0.160571 0.743825 0.754091
O O11 0.620563 0.000000 0.275557
O O12 0.576775 0.209983 0.137124
O O13 0.381418 0.500000 0.231102
O O14 0.419753 0.275849 0.110422
O O15 0.936114 0.500000 0.042506
O O16 0.000000 0.286193 0.000000
#
# Coordination Sequence:
#
# PCOD8100065 Si02
#       6
#     8   8   8   8   8   8
#     4  10  23  42  60  81 115 157 198 240 287 343
#     4  10  20  35  58  86 117 152 188 233 288 344
#     4  10  20  35  57  86 118 151 188 234 289 344
#     4  11  22  36  58  87 116 152 193 236 289 344
#     4  11  22  36  58  86 113 151 195 237 290 344
#     4  10  21  36  55  82 115 147 186 240 292 342
#
# _framework density 18.821793
#
# number of rings (size 3 to 8) (size 9 to 14) (size 15 to 20)
#    0.000    1.667    1.667    3.000    0.000    4.667 
#    0.000    0.833    0.000    0.000    0.000    0.000 
#    0.000    0.000    0.000    0.000    0.000    0.000 
#
# Total GULP energy -297719.738734 kJ/mol
# GULP energy per Si atom -12404.989114 kJ/mol
# Density = 1.877895 g / cm^3
# Si number density = 18.821793 Si / 1000 Ang^3
#
#
#
# Elastic Constant Matrix: (Units=GPa)
#
#
# Indices 1 2 3 4 5 6 
#
# 1 146.3686 62.0855 54.3081 0.0000 7.8343 0.0000
# 2 62.0855 95.6154 54.7189 0.0000 3.8053 0.0000
# 3 54.3081 54.7189 87.7985 0.0000 5.2597 0.0000
# 4 0.0000 0.0000 0.0000 29.3117 0.0000 -1.9287
# 5 7.8343 3.8053 5.2597 0.0000 32.1259 0.0000
# 6 0.0000 0.0000 0.0000 -1.9287 0.0000 32.9927
#
#
#
# Elastic Compliance Matrix: (Units=1/GPa)
#
#
# Indices 1 2 3 4 5 6 
#
# 1 0.010079 -0.004615 -0.003276 0.000000 -0.001375 0.000000
# 2 -0.004615 0.018372 -0.008617 0.000000 0.000360 0.000000
# 3 -0.003276 -0.008617 0.018862 0.000000 -0.001269 0.000000
# 4 0.000000 0.000000 0.000000 0.034248 0.000000 0.002002
# 5 -0.001375 0.000360 -0.001269 0.000000 0.031628 0.000000
# 6 0.000000 0.000000 0.000000 0.002002 0.000000 0.030427
#
#
# Mechanical properties :
#
#
# Convention : Reuss Voigt Hill
#
# Bulk Modulus (GPa) = 69.94106 74.66751 72.30428
# Shear Modulus (GPa) = 27.56385 29.46407 28.51396
#
# Velocity S-wave (km/s) = 3.83098 3.96083 3.89645
# Velocity P-wave (km/s) = 7.53717 7.78938 7.66431
#
# Compressibility (1/GPa) = 0.01429775
#
# Stress axis : x y z
#
# Youngs Moduli (GPa) = 99.22052 54.42971 53.01577
#
# Poissons Ratio (x) = 0.25119 0.17366
# Poissons Ratio (y) = 0.45790 0.45685
# Poissons Ratio (z) = 0.32500 0.46903
#
# Static dielectric constant tensor:
#      x y z
#    x 3.876120 0.000000 0.200610 
#    y 0.000000 3.499040 0.000000 
#    z 0.200610 0.000000 3.325860 
# 
# 
# High freq. dielectric constant tensor:
#      x y z
#    x 1.751690 0.000000 0.002830 
#    y 0.000000 1.740920 0.000000 
#    z 0.002830 0.000000 1.710910 
# 
# From -- ./inp_files/108678.got.cif
#   From: 2010.06.25/outbox.cif.g09.slc.cpg/sg12_55_cif.got.tgz:108678.got - 2010.06.28 00:19:55.
