data_PCOD8100732
_publ_section_title
;
Structure prediction by ZEFSAII (Michael W. Deem and Ramdas Pophale) SiO2 
 PCOD8100732
Probable space group: C 2/M
;
_chemical_formula_sum "Si O2"
_cell_formula_units_Z 64
_cell_length_a 18.079216
_cell_length_b 15.351843
_cell_length_c 16.818727
_cell_angle_alpha 90.000000
_cell_angle_beta 38.162055
_cell_angle_gamma 90.000000
_cell_volume 2884.316173
_symmetry_space_group_name_H-M "C 2/M"
_symmetry_group_IT_number 12
_symmetry_cell_setting 'monoclinic'
loop_
_space_group_symop_operation_xyz
x,y,z
-x,y,-z
-x,-y,-z
x,-y,z
1/2+x,1/2+y,z
1/2-x,1/2+y,-z
1/2-x,1/2-y,-z
1/2+x,1/2-y,z
loop_
_atom_site_type_symbol
_atom_site_label
_atom_site_fract_x
_atom_site_fract_y
_atom_site_fract_z
Si Si1 0.766099 0.898448 0.416669
Si Si2 0.386783 0.746130 0.785591
Si Si3 0.089700 0.739720 0.495340
Si Si4 0.276793 0.405449 0.071567
Si Si5 0.528185 0.859216 0.885649
Si Si6 0.728603 0.906671 0.931890
Si Si7 0.501955 0.317480 0.152460
Si Si8 0.237492 0.096497 0.395667
O O1 0.679702 0.840477 0.434280
O O2 0.903550 0.877440 0.278377
O O3 0.742064 0.875800 0.529532
O O4 0.740419 0.000000 0.421224
O O5 0.515388 0.742542 0.637258
O O6 0.325178 0.837930 0.815856
O O7 0.299757 0.669487 0.825003
O O8 0.410194 0.732461 0.859158
O O9 0.158597 0.830086 0.418480
O O10 0.000000 0.715475 0.500000
O O11 0.251578 0.500000 0.133280
O O12 0.284192 0.416549 0.971260
O O13 0.411124 0.372580 0.979684
O O14 0.560394 0.757033 0.847902
O O15 0.637433 0.912931 0.756584
O O16 0.500000 0.884121 0.000000
O O17 0.409885 0.884613 0.937667
O O18 0.744559 0.000000 0.873389
O O19 0.176650 0.000000 0.444305
#
# Coordination Sequence:
#
# PCOD8100732 Si02
#       8
#     8   8   8   8   8   8   8   8
#     4  11  24  45  75  99 126 174 232 288 331 388
#     4  11  21  39  65  91 124 171 210 263 322 388
#     4  12  27  43  66  94 137 178 217 273 341 405
#     4  10  20  35  62  95 122 156 204 263 320 374
#     4  12  24  39  65  93 131 176 214 263 332 397
#     4  10  21  36  57  90 124 156 199 251 313 378
#     4  11  19  41  69  93 127 165 223 274 322 384
#     4  11  25  45  70 101 132 177 230 277 331 398
#
# _framework density 22.188967999999999
#
# number of rings (size 3 to 8) (size 9 to 14) (size 15 to 20)
#    0.000    1.000    5.000    2.625    1.750    3.000 
#    0.000    0.000    0.000    0.750    0.000    0.000 
#    0.000    0.000    0.000    0.000    0.000    0.000 
#
# Total GULP energy -396703.211176 kJ/mol
# GULP energy per Si atom -12396.975349 kJ/mol
# Density = 2.213846 g / cm^3
# Si number density = 22.188968 Si / 1000 Ang^3
#
#
#
# Elastic Constant Matrix: (Units=GPa)
#
#
# Indices 1 2 3 4 5 6 
#
# 1 62.9826 29.0679 12.5138 0.0000 -9.6087 0.0000
# 2 29.0679 169.5580 38.9807 0.0000 -15.9021 0.0000
# 3 12.5138 38.9807 88.1936 0.0000 -26.1279 0.0000
# 4 0.0000 0.0000 0.0000 26.1482 0.0000 -6.5909
# 5 -9.6087 -15.9021 -26.1279 0.0000 27.5097 0.0000
# 6 0.0000 0.0000 0.0000 -6.5909 0.0000 11.1642
#
#
#
# Elastic Compliance Matrix: (Units=1/GPa)
#
#
# Indices 1 2 3 4 5 6 
#
# 1 0.017800 -0.002615 0.000034 0.000000 0.004738 0.000000
# 2 -0.002615 0.006990 -0.002494 0.000000 0.000759 0.000000
# 3 0.000034 -0.002494 0.016716 0.000000 0.014447 0.000000
# 4 0.000000 0.000000 0.000000 0.044929 0.000000 0.026524
# 5 0.004738 0.000759 0.014447 0.000000 0.052165 0.000000
# 6 0.000000 0.000000 0.000000 0.026524 0.000000 0.105230
#
#
# Mechanical properties :
#
#
# Convention : Reuss Voigt Hill
#
# Bulk Modulus (GPa) = 31.89118 53.53990 42.71554
# Shear Modulus (GPa) = 18.90828 28.97588 23.94208
#
# Velocity S-wave (km/s) = 2.92232 3.61760 3.28839
# Velocity P-wave (km/s) = 5.07842 6.45220 5.80608
#
# Compressibility (1/GPa) = 0.03135663
#
# Stress axis : x y z
#
# Youngs Moduli (GPa) = 56.17859 143.05163 59.82268
#
# Poissons Ratio (x) = 0.37408 -0.00202
# Poissons Ratio (y) = 0.14691 0.14919
# Poissons Ratio (z) = -0.00189 0.35675
#
# Static dielectric constant tensor:
#      x y z
#    x 3.638120 0.000000 -0.204410 
#    y 0.000000 4.487250 0.000000 
#    z -0.204410 0.000000 3.863550 
# 
# 
# High freq. dielectric constant tensor:
#      x y z
#    x 1.840600 0.000000 -0.020740 
#    y 0.000000 1.892020 0.000000 
#    z -0.020740 0.000000 1.867160 
# 
# From -- ./inp_files/278132.got.cif
#   From: 2010.06.25/outbox.cif.g09.slc.cpg/sg12_140_cif.got.tgz:278132.got - 2010.06.28 00:19:55.
