data_PCOD8100591
_publ_section_title
;
Structure prediction by ZEFSAII (Michael W. Deem and Ramdas Pophale) SiO2 
 PCOD8100591
Probable space group: C 2/M
;
_chemical_formula_sum "Si O2"
_cell_formula_units_Z 40
_cell_length_a 19.085169
_cell_length_b 9.072808
_cell_length_c 13.800315
_cell_angle_alpha 90.000000
_cell_angle_beta 120.047767
_cell_angle_gamma 90.000000
_cell_volume 2068.464732
_symmetry_space_group_name_H-M "C 2/M"
_symmetry_group_IT_number 12
_symmetry_cell_setting 'monoclinic'
loop_
_space_group_symop_operation_xyz
x,y,z
-x,y,-z
-x,-y,-z
x,-y,z
1/2+x,1/2+y,z
1/2-x,1/2+y,-z
1/2-x,1/2-y,-z
1/2+x,1/2-y,z
loop_
_atom_site_type_symbol
_atom_site_label
_atom_site_fract_x
_atom_site_fract_y
_atom_site_fract_z
Si Si1 0.583026 0.326457 0.014272
Si Si2 0.747211 0.172949 0.786565
Si Si3 0.469803 0.666053 0.587631
Si Si4 0.693275 0.826196 0.537405
Si Si5 0.617610 0.325780 0.823572
O O1 0.571039 0.500000 0.996242
O O2 0.601483 0.263676 0.920074
O O3 0.500000 0.256678 0.000000
O O4 0.657811 0.287636 0.136690
O O5 0.717752 0.229511 0.661495
O O6 0.698208 0.252202 0.837647
O O7 0.732324 0.000000 0.787937
O O8 0.500000 0.670288 0.500000
O O9 0.441910 0.500000 0.596266
O O10 0.397420 0.779812 0.550625
O O11 0.541202 0.721099 0.706187
O O12 0.750000 0.750000 0.500000
O O13 0.702754 0.000000 0.535335
O O14 0.631411 0.500000 0.831499
#
# Coordination Sequence:
#
# PCOD8100591 Si02
#       5
#     8   8   8   8   8
#     4   9  19  35  57  83 109 143 188 232 277 327
#     4  10  21  37  58  83 111 145 186 233 278 330
#     4  10  20  36  58  85 115 146 187 231 276 334
#     4  11  24  38  57  84 116 151 187 231 283 335
#     4  10  20  35  60  85 110 149 187 227 274 330
#
# _framework density 19.338014000000001
#
# number of rings (size 3 to 8) (size 9 to 14) (size 15 to 20)
#    0.000    2.000    2.000    1.200    2.800    2.000 
#    0.000    0.000    0.000    1.200    0.000    0.000 
#    0.000    0.000    0.000    0.000    0.000    0.000 
#
# Total GULP energy -248046.964651 kJ/mol
# GULP energy per Si atom -12402.348233 kJ/mol
# Density = 1.929400 g / cm^3
# Si number density = 19.338014 Si / 1000 Ang^3
#
#
#
# Elastic Constant Matrix: (Units=GPa)
#
#
# Indices 1 2 3 4 5 6 
#
# 1 148.2224 37.3168 45.8106 0.0000 2.7172 0.0000
# 2 37.3168 37.7711 19.6751 0.0000 2.1777 0.0000
# 3 45.8106 19.6751 83.7534 0.0000 5.1895 0.0000
# 4 0.0000 0.0000 0.0000 440.8372 0.0000 -0.1647
# 5 2.7172 2.1777 5.1895 0.0000 34.9746 0.0000
# 6 0.0000 0.0000 0.0000 -0.1647 0.0000 36.1337
#
#
#
# Elastic Compliance Matrix: (Units=1/GPa)
#
#
# Indices 1 2 3 4 5 6 
#
# 1 0.009816 -0.007871 -0.003536 0.000000 0.000252 0.000000
# 2 -0.007871 0.036502 -0.004205 0.000000 -0.001037 0.000000
# 3 -0.003536 -0.004205 0.014966 0.000000 -0.001684 0.000000
# 4 0.000000 0.000000 0.000000 0.002268 0.000000 0.000010
# 5 0.000252 -0.001037 -0.001684 0.000000 0.028887 0.000000
# 6 0.000000 0.000000 0.000000 0.000010 0.000000 0.027675
#
#
# Mechanical properties :
#
#
# Convention : Reuss Voigt Hill
#
# Bulk Modulus (GPa) = 33.26697 52.81690 43.04194
# Shear Modulus (GPa) = 30.98661 113.51873 72.25267
#
# Velocity S-wave (km/s) = 4.00730 7.67006 6.11916
# Velocity P-wave (km/s) = 6.21703 10.28647 8.49891
#
# Compressibility (1/GPa) = 0.03005985
#
# Stress axis : x y z
#
# Youngs Moduli (GPa) = 101.86970 27.39567 66.81757
#
# Poissons Ratio (x) = 0.21563 0.23626
# Poissons Ratio (y) = 0.80182 0.28100
# Poissons Ratio (z) = 0.36020 0.11521
#
# Static dielectric constant tensor:
#      x y z
#    x 3.521210 0.000000 -0.130830 
#    y 0.000000 3.297850 0.000000 
#    z -0.130830 0.000000 3.654930 
# 
# 
# High freq. dielectric constant tensor:
#      x y z
#    x 1.761660 0.000000 0.002290 
#    y 0.000000 1.721560 0.000000 
#    z 0.002290 0.000000 1.768610 
# 
# From -- ./inp_files/211237.got.cif
#   From: 2010.06.25/outbox.cif.g09.slc.cpg/sg12_106_cif.got.tgz:211237.got - 2010.06.28 00:19:55.
