data_PCOD8100762
_publ_section_title
;
Structure prediction by ZEFSAII (Michael W. Deem and Ramdas Pophale) SiO2 
 PCOD8100762
Probable space group: C 2/M
;
_chemical_formula_sum "Si O2"
_cell_formula_units_Z 36
_cell_length_a 16.308016
_cell_length_b 9.855652
_cell_length_c 12.955159
_cell_angle_alpha 90.000000
_cell_angle_beta 109.253066
_cell_angle_gamma 90.000000
_cell_volume 1965.776175
_symmetry_space_group_name_H-M "C 2/M"
_symmetry_group_IT_number 12
_symmetry_cell_setting 'monoclinic'
loop_
_space_group_symop_operation_xyz
x,y,z
-x,y,-z
-x,-y,-z
x,-y,z
1/2+x,1/2+y,z
1/2-x,1/2+y,-z
1/2-x,1/2-y,-z
1/2+x,1/2-y,z
loop_
_atom_site_type_symbol
_atom_site_label
_atom_site_fract_x
_atom_site_fract_y
_atom_site_fract_z
Si Si1 0.378413 0.000000 0.658851
Si Si2 0.399047 0.500000 0.850002
Si Si3 0.418779 0.000000 0.232808
Si Si4 0.099663 0.000000 0.922459
Si Si5 0.811979 0.247799 0.123838
Si Si6 0.172404 0.500000 0.590536
Si Si7 0.707290 0.731022 0.284841
O O1 0.381782 0.000000 0.536750
O O2 0.327249 0.865237 0.673084
O O3 0.477272 0.000000 0.741290
O O4 0.499779 0.500000 0.905658
O O5 0.373009 0.635781 0.779111
O O6 0.352631 0.500000 0.944659
O O7 0.374513 0.124135 0.156216
O O8 0.396248 0.000000 0.344561
O O9 0.121944 0.873969 0.861286
O O10 0.756929 0.222031 0.203370
O O11 0.750000 0.250000 0.000000
O O12 0.229931 0.637865 0.618173
#
# Coordination Sequence:
#
# PCOD8100762 Si02
#       7
#     4   4   4   4   8   4   8
#     4  12  21  37  58  89 110 136 190 254 272 306
#     4  10  20  36  49  77 107 148 177 218 266 332
#     4  10  23  37  57  84 115 144 185 232 283 330
#     4  11  20  32  55  73 108 147 182 212 270 318
#     4  11  20  37  55  78 109 153 181 218 271 337
#     4   9  21  40  61  76 111 155 183 219 293 344
#     4  10  21  37  57  82 110 143 189 225 273 335
#
# _framework density 18.313376000000002
#
# number of rings (size 3 to 8) (size 9 to 14) (size 15 to 20)
#    0.000    1.556    2.222    4.333    0.000    0.000 
#    0.000    1.111    0.000    0.000    0.000   18.667 
#    0.000    0.000    0.000    0.000    0.000    0.000 
#
# Total GULP energy -223135.134879 kJ/mol
# GULP energy per Si atom -12396.396382 kJ/mol
# Density = 1.827169 g / cm^3
# Si number density = 18.313376 Si / 1000 Ang^3
#
#
#
# Elastic Constant Matrix: (Units=GPa)
#
#
# Indices 1 2 3 4 5 6 
#
# 1 90.1678 48.5563 31.9047 0.0000 2.4293 0.0000
# 2 48.5563 149.5281 45.1947 0.0000 -9.3421 0.0000
# 3 31.9047 45.1947 98.5145 0.0000 1.5036 0.0000
# 4 0.0000 0.0000 0.0000 23.3140 0.0000 -8.5350
# 5 2.4293 -9.3421 1.5036 0.0000 21.8054 0.0000
# 6 0.0000 0.0000 0.0000 -8.5350 0.0000 31.6833
#
#
#
# Elastic Compliance Matrix: (Units=1/GPa)
#
#
# Indices 1 2 3 4 5 6 
#
# 1 0.014306 -0.004011 -0.002745 0.000000 -0.003123 0.000000
# 2 -0.004011 0.009178 -0.002981 0.000000 0.004584 0.000000
# 3 -0.002745 -0.002981 0.012436 0.000000 -0.001829 0.000000
# 4 0.000000 0.000000 0.000000 0.047585 0.000000 0.012819
# 5 -0.003123 0.004584 -0.001829 0.000000 0.048298 0.000000
# 6 0.000000 0.000000 0.000000 0.012819 0.000000 0.035016
#
#
# Mechanical properties :
#
#
# Convention : Reuss Voigt Hill
#
# Bulk Modulus (GPa) = 60.81294 65.50241 63.15768
# Shear Modulus (GPa) = 26.07222 29.53086 27.80154
#
# Velocity S-wave (km/s) = 3.77725 4.01999 3.90051
# Velocity P-wave (km/s) = 7.23204 7.57577 7.40590
#
# Compressibility (1/GPa) = 0.01644387
#
# Stress axis : x y z
#
# Youngs Moduli (GPa) = 69.90133 108.95977 80.41453
#
# Poissons Ratio (x) = 0.43702 0.22077
# Poissons Ratio (y) = 0.28037 0.23975
# Poissons Ratio (z) = 0.19190 0.32485
#
# Static dielectric constant tensor:
#      x y z
#    x 3.153740 0.000000 0.184010 
#    y 0.000000 3.756440 0.000000 
#    z 0.184010 0.000000 3.010860 
# 
# 
# High freq. dielectric constant tensor:
#      x y z
#    x 1.712530 0.000000 0.000400 
#    y 0.000000 1.722900 0.000000 
#    z 0.000400 0.000000 1.708340 
# 
# From -- ./inp_files/151599.got.cif
#   From: 2010.06.25/outbox.cif.g09.slc.cpg/sg12_76_cif.got.tgz:151599.got - 2010.06.28 00:19:55.
