data_PCOD8100863
_publ_section_title
;
Structure prediction by ZEFSAII (Michael W. Deem and Ramdas Pophale) SiO2 
 PCOD8100863
Probable space group: C 2/M
;
_chemical_formula_sum "Si O2"
_cell_formula_units_Z 56
_cell_length_a 32.545227
_cell_length_b 8.747005
_cell_length_c 12.582185
_cell_angle_alpha 90.000000
_cell_angle_beta 123.935871
_cell_angle_gamma 90.000000
_cell_volume 2971.696383
_symmetry_space_group_name_H-M "C 2/M"
_symmetry_group_IT_number 12
_symmetry_cell_setting 'monoclinic'
loop_
_space_group_symop_operation_xyz
x,y,z
-x,y,-z
-x,-y,-z
x,-y,z
1/2+x,1/2+y,z
1/2-x,1/2+y,-z
1/2-x,1/2-y,-z
1/2+x,1/2-y,z
loop_
_atom_site_type_symbol
_atom_site_label
_atom_site_fract_x
_atom_site_fract_y
_atom_site_fract_z
Si Si1 0.119431 0.680973 0.968204
Si Si2 0.352124 0.823968 0.764995
Si Si3 0.933064 0.177657 0.499331
Si Si4 0.780156 0.820464 0.948726
Si Si5 0.353609 0.180695 0.535292
Si Si6 0.954649 0.177211 0.292543
Si Si7 0.745257 0.322854 0.688197
O O1 0.126035 0.500000 0.978882
O O2 0.068764 0.725614 0.836744
O O3 0.120861 0.748594 0.091808
O O4 0.164858 0.751423 0.968806
O O5 0.371741 0.762883 0.679176
O O6 0.293060 0.795951 0.683228
O O7 0.365197 0.000000 0.789592
O O8 0.894275 0.280278 0.506281
O O9 0.930859 0.222499 0.371797
O O10 0.987247 0.213594 0.623179
O O11 0.919909 0.000000 0.495331
O O12 0.750610 0.779655 0.800011
O O13 0.784243 0.000000 0.968547
O O14 0.750000 0.750000 0.000000
O O15 0.303185 0.270266 0.442766
O O16 0.343221 0.000000 0.519204
O O17 0.945000 0.000000 0.256252
O O18 0.740811 0.500000 0.715047
#
# Coordination Sequence:
#
# PCOD8100863 Si02
#       7
#     8   8   8   8   8   8   8
#     4  10  20  36  58  81 108 143 181 223 275 327
#     4   8  18  36  54  77 110 147 184 223 268 322
#     4   9  20  38  57  79 108 141 180 227 278 329
#     4  11  22  36  53  78 111 145 183 224 266 320
#     4  11  21  34  55  82 111 143 185 229 272 326
#     4   9  19  38  60  79 105 142 182 225 277 333
#     4  10  20  36  55  77 109 148 185 224 271 320
#
# _framework density 18.844455
#
# number of rings (size 3 to 8) (size 9 to 14) (size 15 to 20)
#    0.000    2.286    0.000    4.714    2.000    1.143 
#    0.000   10.000    0.000    4.286    0.000    0.000 
#    0.000    0.000    0.000    0.000    0.000    0.000 
#
# Total GULP energy -347121.201031 kJ/mol
# GULP energy per Si atom -12397.185751 kJ/mol
# Density = 1.880156 g / cm^3
# Si number density = 18.844455 Si / 1000 Ang^3
#
#
#
# Elastic Constant Matrix: (Units=GPa)
#
#
# Indices 1 2 3 4 5 6 
#
# 1 50.7758 17.7650 30.6595 0.0000 -4.3218 0.0000
# 2 17.7650 72.3212 26.7863 0.0000 3.7267 0.0000
# 3 30.6595 26.7863 107.7019 0.0000 9.1712 0.0000
# 4 0.0000 0.0000 0.0000 31.2120 0.0000 4.5685
# 5 -4.3218 3.7267 9.1712 0.0000 20.3364 0.0000
# 6 0.0000 0.0000 0.0000 4.5685 0.0000 26.0845
#
#
#
# Elastic Compliance Matrix: (Units=1/GPa)
#
#
# Indices 1 2 3 4 5 6 
#
# 1 0.026414 -0.004292 -0.007276 0.000000 0.009681 0.000000
# 2 -0.004292 0.015952 -0.002516 0.000000 -0.002701 0.000000
# 3 -0.007276 -0.002516 0.012556 0.000000 -0.006748 0.000000
# 4 0.000000 0.000000 0.000000 0.032882 0.000000 -0.005759
# 5 0.009681 -0.002701 -0.006748 0.000000 0.054768 0.000000
# 6 0.000000 0.000000 0.000000 -0.005759 0.000000 0.039346
#
#
# Mechanical properties :
#
#
# Convention : Reuss Voigt Hill
#
# Bulk Modulus (GPa) = 37.37661 42.35782 39.86722
# Shear Modulus (GPa) = 22.83060 25.89912 24.36486
#
# Velocity S-wave (km/s) = 3.48448 3.71126 3.59966
# Velocity P-wave (km/s) = 6.00551 6.39461 6.20311
#
# Compressibility (1/GPa) = 0.02675470
#
# Stress axis : x y z
#
# Youngs Moduli (GPa) = 37.85933 62.68620 79.64057
#
# Poissons Ratio (x) = 0.26906 0.57947
# Poissons Ratio (y) = 0.16250 0.20035
# Poissons Ratio (z) = 0.27547 0.15770
#
# Static dielectric constant tensor:
#      x y z
#    x 3.471390 0.000000 -0.347980 
#    y 0.000000 3.362830 0.000000 
#    z -0.347980 0.000000 3.994660 
# 
# 
# High freq. dielectric constant tensor:
#      x y z
#    x 1.720060 0.000000 -0.008410 
#    y 0.000000 1.724530 0.000000 
#    z -0.008410 0.000000 1.741810 
# 
# From -- ./inp_files/187169.got.cif
#   From: 2010.06.25/outbox.cif.g09.slc.cpg/sg12_94_cif.got.tgz:187169.got - 2010.06.28 00:19:55.
