data_PCOD8100804
_publ_section_title
;
Structure prediction by ZEFSAII (Michael W. Deem and Ramdas Pophale) SiO2 
 PCOD8100804
Probable space group: C 2/M
;
_chemical_formula_sum "Si O2"
_cell_formula_units_Z 44
_cell_length_a 25.247185
_cell_length_b 10.693935
_cell_length_c 25.329970
_cell_angle_alpha 90.000000
_cell_angle_beta 19.143939
_cell_angle_gamma 90.000000
_cell_volume 2242.760172
_symmetry_space_group_name_H-M "C 2/M"
_symmetry_group_IT_number 12
_symmetry_cell_setting 'monoclinic'
loop_
_space_group_symop_operation_xyz
x,y,z
-x,y,-z
-x,-y,-z
x,-y,z
1/2+x,1/2+y,z
1/2-x,1/2+y,-z
1/2-x,1/2-y,-z
1/2+x,1/2-y,z
loop_
_atom_site_type_symbol
_atom_site_label
_atom_site_fract_x
_atom_site_fract_y
_atom_site_fract_z
Si Si1 0.000000 0.705207 0.500000
Si Si2 0.442445 0.137105 0.283407
Si Si3 0.395957 0.722110 0.428072
Si Si4 0.741695 0.637423 0.664042
Si Si5 0.510621 0.148415 0.103793
Si Si6 0.158169 0.859514 0.260660
O O1 0.878862 0.622762 0.579460
O O2 0.889313 0.786497 0.642679
O O3 0.484117 0.229892 0.291967
O O4 0.251389 0.133512 0.449984
O O5 0.538785 0.174578 0.139572
O O6 0.495777 0.000000 0.251509
O O7 0.325670 0.837837 0.528407
O O8 0.523656 0.645090 0.341770
O O9 0.655106 0.500000 0.742603
O O10 0.626786 0.755166 0.787256
O O11 0.464483 0.000000 0.138261
O O12 0.671782 0.189515 0.921938
O O13 0.180724 0.000000 0.258018
#
# Coordination Sequence:
#
# PCOD8100804 Si02
#       6
#     4   8   8   8   8   8
#     4  10  22  36  56  78  99 134 179 222 267 314
#     4   9  16  30  50  75 105 139 173 213 258 306
#     4   9  18  30  52  78 104 138 179 213 254 308
#     4  10  20  37  56  79 108 139 174 217 263 313
#     4   9  20  36  55  79 110 140 174 215 261 312
#     4  10  20  36  54  77 105 138 178 223 264 310
#
# _framework density 19.618683000000001
#
# number of rings (size 3 to 8) (size 9 to 14) (size 15 to 20)
#    0.000    2.545    0.000    1.636    0.000    6.545 
#    0.000    9.091    0.000    0.000    0.000    0.000 
#    0.000    0.000    0.000    0.000    0.000    0.000 
#
# Total GULP energy -272635.756252 kJ/mol
# GULP energy per Si atom -12392.534375 kJ/mol
# Density = 1.957403 g / cm^3
# Si number density = 19.618683 Si / 1000 Ang^3
#
#
#
# Elastic Constant Matrix: (Units=GPa)
#
#
# Indices 1 2 3 4 5 6 
#
# 1 74.4361 18.1827 24.7064 0.0025 16.4709 0.0002
# 2 18.1827 87.0558 39.9738 0.0003 13.5080 -0.0017
# 3 24.7064 39.9738 101.1615 0.0218 25.0197 -0.0119
# 4 0.0025 0.0003 0.0218 19.9788 -0.0063 -1.0864
# 5 16.4709 13.5080 25.0197 -0.0063 29.2377 0.0029
# 6 0.0002 -0.0017 -0.0119 -1.0864 0.0029 6.7631
#
#
#
# Elastic Compliance Matrix: (Units=1/GPa)
#
#
# Indices 1 2 3 4 5 6 
#
# 1 0.015850 -0.001523 -0.001566 -0.000002 -0.006885 -0.000001
# 2 -0.001523 0.014292 -0.004890 0.000005 -0.001561 -0.000003
# 3 -0.001566 -0.004890 0.014490 -0.000017 -0.009258 0.000025
# 4 -0.000002 0.000005 -0.000017 0.050494 0.000024 0.008111
# 5 -0.006885 -0.001561 -0.009258 0.000024 0.046724 -0.000033
# 6 -0.000001 -0.000003 0.000025 0.008111 -0.000033 0.149163
#
#
# Mechanical properties :
#
#
# Convention : Reuss Voigt Hill
#
# Bulk Modulus (GPa) = 34.87493 47.59768 41.23630
# Shear Modulus (GPa) = 15.79635 23.18197 19.48916
#
# Velocity S-wave (km/s) = 2.84063 3.44121 3.15524
# Velocity P-wave (km/s) = 5.34545 6.33272 5.85991
#
# Compressibility (1/GPa) = 0.02867389
#
# Stress axis : x y z
#
# Youngs Moduli (GPa) = 63.09281 69.96746 69.01536
#
# Poissons Ratio (x) = 0.10655 0.10810
# Poissons Ratio (y) = 0.09608 0.33746
# Poissons Ratio (z) = 0.09883 0.34211
#
# Static dielectric constant tensor:
#      x y z
#    x 3.543250 0.000000 0.197680 
#    y 0.000000 3.384460 0.000020 
#    z 0.197680 0.000020 3.494340 
# 
# 
# High freq. dielectric constant tensor:
#      x y z
#    x 1.765690 0.000000 0.016160 
#    y 0.000000 1.756140 0.000000 
#    z 0.016160 0.000000 1.748600 
# 
# From -- ./inp_files/369014.got.cif
#   From: 2010.06.25/outbox.cif.g09.slc.cpg/sg12_185_cif.got.tgz:369014.got - 2010.06.28 00:19:55.
