data_PCOD8100041
_publ_section_title
;
Structure prediction by ZEFSAII (Michael W. Deem and Ramdas Pophale) SiO2 
 PCOD8100041
Probable space group: C 2/M
;
_chemical_formula_sum "Si O2"
_cell_formula_units_Z 64
_cell_length_a 29.454153
_cell_length_b 8.985927
_cell_length_c 18.378687
_cell_angle_alpha 90.000000
_cell_angle_beta 39.885788
_cell_angle_gamma 90.000000
_cell_volume 3119.303237
_symmetry_space_group_name_H-M "C 2/M"
_symmetry_group_IT_number 12
_symmetry_cell_setting 'monoclinic'
loop_
_space_group_symop_operation_xyz
x,y,z
-x,y,-z
-x,-y,-z
x,-y,z
1/2+x,1/2+y,z
1/2-x,1/2+y,-z
1/2-x,1/2-y,-z
1/2+x,1/2-y,z
loop_
_atom_site_type_symbol
_atom_site_label
_atom_site_fract_x
_atom_site_fract_y
_atom_site_fract_z
Si Si1 0.095103 0.669915 0.637321
Si Si2 0.645543 0.326496 0.994736
Si Si3 0.559268 0.829712 0.218916
Si Si4 0.693727 0.668930 0.413569
Si Si5 0.798047 0.674140 0.745423
Si Si6 0.575910 0.676165 0.932177
Si Si7 0.438364 0.676310 0.631785
Si Si8 0.841040 0.331167 0.291921
O O1 0.120098 0.500000 0.594869
O O2 0.122549 0.767637 0.536488
O O3 0.127432 0.734581 0.672245
O O4 0.010638 0.682392 0.744770
O O5 0.631904 0.500000 0.024958
O O6 0.728077 0.294271 0.878927
O O7 0.597257 0.269199 0.986655
O O8 0.624157 0.238619 0.093736
O O9 0.543863 0.741492 0.311468
O O10 0.577696 0.000000 0.215521
O O11 0.679174 0.500000 0.405813
O O12 0.716407 0.767207 0.317369
O O13 0.755842 0.676123 0.397424
O O14 0.815454 0.500000 0.721038
O O15 0.863332 0.760604 0.699416
O O16 0.576670 0.500000 0.928917
O O17 0.634414 0.732696 0.805101
O O18 0.500000 0.740216 0.000000
O O19 0.500000 0.725568 0.500000
O O20 0.433270 0.500000 0.643179
O O21 0.867906 0.500000 0.248076
#
# Coordination Sequence:
#
# PCOD8100041 Si02
#       8
#     8   8   8   8   8   8   8   8
#     4  10  22  39  58  85 122 163 206 254 307 363
#     4  10  22  40  61  89 124 162 204 251 304 360
#     4  11  24  41  64  92 122 160 204 250 305 364
#     4  11  22  36  58  89 122 161 207 253 306 365
#     4  11  23  41  66  92 123 163 204 252 308 366
#     4  10  20  35  57  85 119 162 210 256 303 356
#     4  11  25  45  69  96 125 157 198 250 307 368
#     4  10  21  36  55  84 121 160 205 253 304 362
#
# _framework density 20.517402000000001
#
# number of rings (size 3 to 8) (size 9 to 14) (size 15 to 20)
#    0.000    1.500    1.250    3.375    0.000    7.250 
#    0.000    0.000    0.000    0.000    0.000    0.000 
#    0.000    0.000    0.000    0.000    0.000    0.000 
#
# Total GULP energy -396933.294274 kJ/mol
# GULP energy per Si atom -12404.165446 kJ/mol
# Density = 2.047070 g / cm^3
# Si number density = 20.517402 Si / 1000 Ang^3
#
#
#
# Elastic Constant Matrix: (Units=GPa)
#
#
# Indices 1 2 3 4 5 6 
#
# 1 103.4359 38.6259 40.2008 0.0004 0.5735 0.0007
# 2 38.6259 73.8122 58.8094 -0.0006 3.8042 -0.0013
# 3 40.2008 58.8094 133.1596 -0.0022 9.6533 -0.0025
# 4 0.0004 -0.0006 -0.0022 35.3878 -0.0028 2.4806
# 5 0.5735 3.8042 9.6533 -0.0028 35.8393 0.0033
# 6 0.0007 -0.0013 -0.0025 2.4806 0.0033 30.4689
#
#
#
# Elastic Compliance Matrix: (Units=1/GPa)
#
#
# Indices 1 2 3 4 5 6 
#
# 1 0.012186 -0.005309 -0.001388 0.000000 0.000742 -0.000001
# 2 -0.005309 0.023219 -0.008648 0.000000 -0.000050 0.000000
# 3 -0.001388 -0.008648 0.011913 0.000000 -0.002269 0.000001
# 4 0.000000 0.000000 0.000000 0.028420 0.000002 -0.002314
# 5 0.000742 -0.000050 -0.002269 0.000002 0.028507 -0.000003
# 6 -0.000001 0.000000 0.000001 -0.002314 -0.000003 0.033009
#
#
# Mechanical properties :
#
#
# Convention : Reuss Voigt Hill
#
# Bulk Modulus (GPa) = 60.14316 65.07554 62.60935
# Shear Modulus (GPa) = 28.82069 31.85732 30.33901
#
# Velocity S-wave (km/s) = 3.75199 3.94470 3.84955
# Velocity P-wave (km/s) = 6.93879 7.24801 7.09509
#
# Compressibility (1/GPa) = 0.01662700
#
# Stress axis : x y z
#
# Youngs Moduli (GPa) = 82.06315 43.06788 83.94438
#
# Poissons Ratio (x) = 0.22866 0.11650
# Poissons Ratio (y) = 0.43570 0.72596
# Poissons Ratio (z) = 0.11389 0.37246
#
# Static dielectric constant tensor:
#      x y z
#    x 3.831040 -0.000040 -0.046560 
#    y -0.000040 3.709050 0.000040 
#    z -0.046560 0.000040 3.635950 
# 
# 
# High freq. dielectric constant tensor:
#      x y z
#    x 1.809820 0.000000 -0.004230 
#    y 0.000000 1.801550 0.000000 
#    z -0.004230 0.000000 1.803960 
# 
# From -- ./inp_files/295518.got.cif
#   From: 2010.06.25/outbox.cif.g09.slc.cpg/sg12_148_cif.got.tgz:295518.got - 2010.06.28 00:19:55.
