data_PCOD8100555
_publ_section_title
;
Structure prediction by ZEFSAII (Michael W. Deem and Ramdas Pophale) SiO2 
 PCOD8100555
Probable space group: C 2/M
;
_chemical_formula_sum "Si O2"
_cell_formula_units_Z 64
_cell_length_a 16.970998
_cell_length_b 14.251012
_cell_length_c 12.242160
_cell_angle_alpha 90.000000
_cell_angle_beta 86.468106
_cell_angle_gamma 90.000000
_cell_volume 2955.190503
_symmetry_space_group_name_H-M "C 2/M"
_symmetry_group_IT_number 12
_symmetry_cell_setting 'monoclinic'
loop_
_space_group_symop_operation_xyz
x,y,z
-x,y,-z
-x,-y,-z
x,-y,z
1/2+x,1/2+y,z
1/2-x,1/2+y,-z
1/2-x,1/2-y,-z
1/2+x,1/2-y,z
loop_
_atom_site_type_symbol
_atom_site_label
_atom_site_fract_x
_atom_site_fract_y
_atom_site_fract_z
Si Si1 0.676159 0.394742 0.953460
Si Si2 0.337929 0.612049 0.372047
Si Si3 0.063966 0.281303 0.146769
Si Si4 0.854576 0.893147 0.610818
Si Si5 0.696072 0.105877 0.233682
Si Si6 0.103918 0.713074 0.899616
Si Si7 0.242368 0.888926 0.176764
Si Si8 0.998510 0.107133 0.738973
O O1 0.640939 0.500000 0.952120
O O2 0.760708 0.391747 0.886744
O O3 0.614957 0.327098 0.895385
O O4 0.690726 0.358347 0.075813
O O5 0.345329 0.500000 0.373011
O O6 0.338464 0.654970 0.494643
O O7 0.257093 0.643841 0.320265
O O8 0.414909 0.648030 0.298756
O O9 0.117982 0.328550 0.236348
O O10 0.048719 0.170022 0.168050
O O11 0.974665 0.322247 0.154809
O O12 0.102029 0.309135 0.028349
O O13 0.801733 0.848434 0.712759
O O14 0.947145 0.887467 0.631728
O O15 0.826310 0.000000 0.604519
O O16 0.669017 0.000000 0.264079
O O17 0.173853 0.660750 0.832975
O O18 0.254037 0.000000 0.174414
O O19 0.000125 0.000000 0.783037
#
# Coordination Sequence:
#
# PCOD8100555 Si02
#       8
#     8   8   8   8   8   8   8   8
#     4  10  20  36  60  87 114 154 197 239 300 357
#     4   9  18  36  63  90 117 154 195 242 302 355
#     4  11  24  37  56  86 119 159 203 243 297 353
#     4   9  18  33  60  92 118 152 195 241 297 357
#     4  10  21  38  60  84 116 156 200 248 289 345
#     4  11  23  37  56  84 121 161 197 247 295 350
#     4  10  20  35  59  90 122 158 197 240 295 356
#     4  10  20  37  60  89 124 155 190 241 298 360
#
# _framework density 21.65681
#
# number of rings (size 3 to 8) (size 9 to 14) (size 15 to 20)
#    0.000    2.000    1.250    2.250    1.750    5.000 
#    0.000    3.125    2.750    0.000    0.000    3.500 
#    0.000    1.000    0.000    0.000    0.000    0.000 
#
# Total GULP energy -396583.720544 kJ/mol
# GULP energy per Si atom -12393.241267 kJ/mol
# Density = 2.160752 g / cm^3
# Si number density = 21.656810 Si / 1000 Ang^3
#
#
#
# Elastic Constant Matrix: (Units=GPa)
#
#
# Indices 1 2 3 4 5 6 
#
# 1 151.7081 43.1188 52.6369 0.0000 16.8689 0.0000
# 2 43.1188 51.0620 10.1492 0.0000 4.6189 0.0000
# 3 52.6369 10.1492 111.2099 0.0000 5.9745 0.0000
# 4 0.0000 0.0000 0.0000 16.5189 0.0000 0.9078
# 5 16.8689 4.6189 5.9745 0.0000 30.6512 0.0000
# 6 0.0000 0.0000 0.0000 0.9078 0.0000 31.4157
#
#
#
# Elastic Compliance Matrix: (Units=1/GPa)
#
#
# Indices 1 2 3 4 5 6 
#
# 1 0.010691 -0.007854 -0.004134 0.000000 -0.003895 0.000000
# 2 -0.007854 0.025936 0.001342 0.000000 0.000153 0.000000
# 3 -0.004134 0.001342 0.010828 0.000000 -0.000038 0.000000
# 4 0.000000 0.000000 0.000000 0.060633 0.000000 -0.001752
# 5 -0.003895 0.000153 -0.000038 0.000000 0.034753 0.000000
# 6 0.000000 0.000000 0.000000 -0.001752 0.000000 0.031882
#
#
# Mechanical properties :
#
#
# Convention : Reuss Voigt Hill
#
# Bulk Modulus (GPa) = 38.22166 58.42109 48.32138
# Shear Modulus (GPa) = 24.42154 29.58881 27.00517
#
# Velocity S-wave (km/s) = 3.36171 3.70030 3.53506
# Velocity P-wave (km/s) = 5.72322 6.72984 6.24684
#
# Compressibility (1/GPa) = 0.02616317
#
# Stress axis : x y z
#
# Youngs Moduli (GPa) = 93.53225 38.55660 92.34998
#
# Poissons Ratio (x) = 0.30283 0.38181
# Poissons Ratio (y) = 0.73463 -0.12397
# Poissons Ratio (z) = 0.38670 -0.05176
#
# Static dielectric constant tensor:
#      x y z
#    x 3.920780 0.000000 0.091910 
#    y 0.000000 3.637990 0.000000 
#    z 0.091910 0.000000 4.038870 
# 
# 
# High freq. dielectric constant tensor:
#      x y z
#    x 1.854160 0.000000 0.010710 
#    y 0.000000 1.820310 0.000000 
#    z 0.010710 0.000000 1.839880 
# 
# From -- ./inp_files/156639.got.cif
#   From: 2010.06.25/outbox.cif.g09.slc.cpg/sg12_79_cif.got.tgz:156639.got - 2010.06.28 00:19:55.
