data_PCOD8100690
_publ_section_title
;
Structure prediction by ZEFSAII (Michael W. Deem and Ramdas Pophale) SiO2 
 PCOD8100690
Probable space group: C 2/M
;
_chemical_formula_sum "Si O2"
_cell_formula_units_Z 52
_cell_length_a 9.469326
_cell_length_b 17.540754
_cell_length_c 22.137834
_cell_angle_alpha 90.000000
_cell_angle_beta 45.158944
_cell_angle_gamma 90.000000
_cell_volume 2607.287326
_symmetry_space_group_name_H-M "C 2/M"
_symmetry_group_IT_number 12
_symmetry_cell_setting 'monoclinic'
loop_
_space_group_symop_operation_xyz
x,y,z
-x,y,-z
-x,-y,-z
x,-y,z
1/2+x,1/2+y,z
1/2-x,1/2+y,-z
1/2-x,1/2-y,-z
1/2+x,1/2-y,z
loop_
_atom_site_type_symbol
_atom_site_label
_atom_site_fract_x
_atom_site_fract_y
_atom_site_fract_z
Si Si1 0.563925 0.000000 0.222281
Si Si2 0.552235 0.752853 0.135942
Si Si3 0.136549 0.639194 0.010728
Si Si4 0.706669 0.216138 0.606346
Si Si5 0.717025 0.500000 0.963510
Si Si6 0.095434 0.000000 0.402814
Si Si7 0.831650 0.336421 0.776514
Si Si8 0.047115 0.161521 0.576753
O O1 0.337132 0.000000 0.318390
O O2 0.688899 0.926244 0.205270
O O3 0.593253 0.000000 0.140151
O O4 0.507055 0.821938 0.103203
O O5 0.367238 0.695516 0.193722
O O6 0.601022 0.788433 0.185713
O O7 0.742697 0.706246 0.057540
O O8 0.275925 0.574617 0.996830
O O9 0.000000 0.601635 0.000000
O O10 0.504075 0.171547 0.675969
O O11 0.807044 0.166298 0.523815
O O12 0.659809 0.303629 0.601148
O O13 0.849930 0.212872 0.621796
O O14 0.500000 0.500000 0.000000
O O15 0.000000 0.000000 0.500000
O O16 0.013250 0.925747 0.392872
#
# Coordination Sequence:
#
# PCOD8100690 Si02
#       8
#     4   8   8   8   4   4   8   8
#     4  12  24  37  63  97 122 162 211 263 312 373
#     4  11  24  38  65  86 121 163 211 259 316 385
#     4  11  23  43  61  88 121 170 208 259 329 382
#     4  10  20  35  61  90 123 162 203 257 301 375
#     4  12  25  41  66  94 131 164 213 274 320 382
#     4  12  20  40  63  96 127 168 203 262 307 380
#     4  12  22  40  60  93 123 159 209 267 311 371
#     4  10  20  37  61  91 122 164 210 244 314 372
#
# _framework density 19.944101
#
# number of rings (size 3 to 8) (size 9 to 14) (size 15 to 20)
#    0.000    0.923    6.154    2.077    0.000    0.000 
#    0.000    0.000    0.000   12.000    0.000    0.000 
#    0.000    0.000    0.000    0.000    0.000    0.000 
#
# Total GULP energy -322211.779895 kJ/mol
# GULP energy per Si atom -12392.760765 kJ/mol
# Density = 1.989871 g / cm^3
# Si number density = 19.944101 Si / 1000 Ang^3
#
#
#
# Elastic Constant Matrix: (Units=GPa)
#
#
# Indices 1 2 3 4 5 6 
#
# 1 95.5096 52.7985 15.1871 -0.0043 -6.9917 0.0070
# 2 52.7985 152.9572 14.2285 0.0012 -0.9825 0.0026
# 3 15.1871 14.2285 49.4805 -0.0007 -14.6663 0.0072
# 4 -0.0043 0.0012 -0.0007 7.3351 0.0049 0.8094
# 5 -6.9917 -0.9825 -14.6663 0.0049 21.8826 -0.0074
# 6 0.0070 0.0026 0.0072 0.8094 -0.0074 24.7389
#
#
#
# Elastic Compliance Matrix: (Units=1/GPa)
#
#
# Indices 1 2 3 4 5 6 
#
# 1 0.013446 -0.004434 -0.002044 0.000007 0.002727 -0.000002
# 2 -0.004434 0.008206 -0.001634 -0.000003 -0.002144 0.000000
# 3 -0.002044 -0.001634 0.026321 -0.000009 0.016914 -0.000001
# 4 0.000007 -0.000003 -0.000009 0.136825 -0.000036 -0.004477
# 5 0.002727 -0.002144 0.016914 -0.000036 0.057810 0.000013
# 6 -0.000002 0.000000 -0.000001 -0.004477 0.000013 0.040569
#
#
# Mechanical properties :
#
#
# Convention : Reuss Voigt Hill
#
# Bulk Modulus (GPa) = 31.49635 51.37506 41.43571
# Shear Modulus (GPa) = 16.12994 25.17354 20.65174
#
# Velocity S-wave (km/s) = 2.84695 3.55661 3.22138
# Velocity P-wave (km/s) = 5.16076 6.53310 5.88705
#
# Compressibility (1/GPa) = 0.03174971
#
# Stress axis : x y z
#
# Youngs Moduli (GPa) = 74.37323 121.85513 37.99287
#
# Poissons Ratio (x) = 0.54026 0.07764
# Poissons Ratio (y) = 0.32974 0.06209
# Poissons Ratio (z) = 0.15199 0.19916
#
# Static dielectric constant tensor:
#      x y z
#    x 3.643510 0.000000 -0.061770 
#    y 0.000000 3.717420 0.000000 
#    z -0.061770 0.000000 3.878250 
# 
# 
# High freq. dielectric constant tensor:
#      x y z
#    x 1.759950 0.000000 -0.009240 
#    y 0.000000 1.781080 0.000000 
#    z -0.009240 0.000000 1.788760 
# 
# From -- ./inp_files/301085.got.cif
#   From: 2010.06.25/outbox.cif.g09.slc.cpg/sg12_151_cif.got.tgz:301085.got - 2010.06.28 00:19:55.
