data_PCOD8100905
_publ_section_title
;
Structure prediction by ZEFSAII (Michael W. Deem and Ramdas Pophale) SiO2 
 PCOD8100905
Probable space group: C 2/M
;
_chemical_formula_sum "Si O2"
_cell_formula_units_Z 32
_cell_length_a 12.858620
_cell_length_b 23.846030
_cell_length_c 12.886190
_cell_angle_alpha 90.000000
_cell_angle_beta 157.776507
_cell_angle_gamma 90.000000
_cell_volume 1494.444932
_symmetry_space_group_name_H-M "C 2/M"
_symmetry_group_IT_number 12
_symmetry_cell_setting 'monoclinic'
loop_
_space_group_symop_operation_xyz
x,y,z
-x,y,-z
-x,-y,-z
x,-y,z
1/2+x,1/2+y,z
1/2-x,1/2+y,-z
1/2-x,1/2-y,-z
1/2+x,1/2-y,z
loop_
_atom_site_type_symbol
_atom_site_label
_atom_site_fract_x
_atom_site_fract_y
_atom_site_fract_z
Si Si1 0.252466 0.118765 0.050768
Si Si2 0.816117 0.564047 0.429369
Si Si3 0.201615 0.157227 0.769448
Si Si4 0.541059 0.764027 0.719824
O O1 0.486929 0.071822 0.287315
O O2 0.393940 0.171007 0.244794
O O3 0.201344 0.127807 0.881280
O O4 0.956664 0.102613 0.824666
O O5 0.714056 0.500000 0.332272
O O6 0.000000 0.579662 0.500000
O O7 0.000000 0.126465 0.500000
O O8 0.098769 0.222023 0.678282
O O9 0.500000 0.154662 0.000000
O O10 0.250000 0.750000 0.500000
O O11 0.750000 0.750000 0.000000
#
# Coordination Sequence:
#
# PCOD8100905 Si02
#       4
#     8   8   8   8
#     4  11  22  40  64  91 124 165 207 253 312 373
#     4  11  24  42  65  92 120 156 208 269 327 371
#     4  11  22  37  59  89 127 166 200 240 296 368
#     4  10  20  36  55  84 121 157 199 242 286 349
#
# _framework density 21.412634000000001
#
# number of rings (size 3 to 8) (size 9 to 14) (size 15 to 20)
#    0.000    1.250    0.000    9.000    0.000    5.000 
#    0.000    0.000    0.000   15.000    0.000    0.000 
#    0.000    0.000    0.000    0.000    0.000    0.000 
#
# Total GULP energy -198219.951934 kJ/mol
# GULP energy per Si atom -12388.746996 kJ/mol
# Density = 2.136390 g / cm^3
# Si number density = 21.412634 Si / 1000 Ang^3
#
#
#
# Elastic Constant Matrix: (Units=GPa)
#
#
# Indices 1 2 3 4 5 6 
#
# 1 100.9768 59.4217 59.6892 0.0024 17.1751 0.0009
# 2 59.4217 90.5506 49.0087 -0.0003 17.2311 -0.0005
# 3 59.6892 49.0087 180.1367 0.0035 26.9437 0.0005
# 4 0.0024 -0.0003 0.0035 36.0417 0.0021 6.0793
# 5 17.1751 17.2311 26.9437 0.0021 55.2732 0.0003
# 6 0.0009 -0.0005 0.0005 6.0793 0.0003 41.7613
#
#
#
# Elastic Compliance Matrix: (Units=1/GPa)
#
#
# Indices 1 2 3 4 5 6 
#
# 1 0.017574 -0.009706 -0.003040 -0.000001 -0.000953 0.000000
# 2 -0.009706 0.018640 -0.001550 0.000001 -0.002039 0.000000
# 3 -0.003040 -0.001550 0.007299 0.000000 -0.002130 0.000000
# 4 -0.000001 0.000001 0.000000 0.028444 -0.000001 -0.004141
# 5 -0.000953 -0.002039 -0.002130 -0.000001 0.020062 0.000000
# 6 0.000000 0.000000 0.000000 -0.004141 0.000000 0.024548
#
#
# Mechanical properties :
#
#
# Convention : Reuss Voigt Hill
#
# Bulk Modulus (GPa) = 67.02032 78.65594 72.83813
# Shear Modulus (GPa) = 33.30382 40.18488 36.74435
#
# Velocity S-wave (km/s) = 3.94805 4.33678 4.14697
# Velocity P-wave (km/s) = 7.22151 7.86702 7.55117
#
# Compressibility (1/GPa) = 0.01492085
#
# Stress axis : x y z
#
# Youngs Moduli (GPa) = 56.90239 53.64871 137.00455
#
# Poissons Ratio (x) = 0.52070 0.41650
# Poissons Ratio (y) = 0.55228 0.21238
# Poissons Ratio (z) = 0.17299 0.08316
#
# Static dielectric constant tensor:
#      x y z
#    x 3.583690 0.000000 0.023200 
#    y 0.000000 4.384030 -0.000020 
#    z 0.023200 -0.000020 4.007970 
# 
# 
# High freq. dielectric constant tensor:
#      x y z
#    x 1.832410 0.000000 0.000750 
#    y 0.000000 1.819760 0.000000 
#    z 0.000750 0.000000 1.875820 
# 
# From -- ./inp_files/218847.got.cif
#   From: 2010.06.25/outbox.cif.g09.slc.cpg/sg12_110_cif.got.tgz:218847.got - 2010.06.28 00:19:55.
