data_PCOD8100436
_publ_section_title
;
Structure prediction by ZEFSAII (Michael W. Deem and Ramdas Pophale) SiO2 
 PCOD8100436
Probable space group: C 2/M
;
_chemical_formula_sum "Si O2"
_cell_formula_units_Z 40
_cell_length_a 25.043948
_cell_length_b 18.682397
_cell_length_c 5.597780
_cell_angle_alpha 90.000000
_cell_angle_beta 140.106025
_cell_angle_gamma 90.000000
_cell_volume 1679.806089
_symmetry_space_group_name_H-M "C 2/M"
_symmetry_group_IT_number 12
_symmetry_cell_setting 'monoclinic'
loop_
_space_group_symop_operation_xyz
x,y,z
-x,y,-z
-x,-y,-z
x,-y,z
1/2+x,1/2+y,z
1/2-x,1/2+y,-z
1/2-x,1/2-y,-z
1/2+x,1/2-y,z
loop_
_atom_site_type_symbol
_atom_site_label
_atom_site_fract_x
_atom_site_fract_y
_atom_site_fract_z
Si Si1 0.933390 0.921398 0.460160
Si Si2 0.045504 0.583441 0.409663
Si Si3 0.729889 0.578703 0.398974
Si Si4 0.321774 0.165697 0.375784
Si Si5 0.842454 0.178747 0.452183
O O1 0.924719 0.864705 0.647440
O O2 0.000000 0.890155 0.500000
O O3 0.964343 0.000000 0.657168
O O4 0.842255 0.931757 0.041013
O O5 0.066070 0.500000 0.495497
O O6 0.131429 0.628355 0.687802
O O7 0.000000 0.607836 0.500000
O O8 0.000000 0.601803 0.000000
O O9 0.749991 0.500000 0.580603
O O10 0.815530 0.608548 0.572697
O O11 0.699097 0.636402 0.478369
O O12 0.367636 0.239887 0.611176
O O13 0.225907 0.184954 0.991388
#
# Coordination Sequence:
#
# PCOD8100436 Si02
#       5
#     8   8   8   8   8
#     4   9  19  36  54  80 116 148 189 241 290 357
#     4  10  23  43  65  93 125 163 211 259 312 372
#     4  10  20  35  59  85 110 150 198 241 296 357
#     4  10  22  39  57  84 119 153 194 254 305 365
#     4  10  21  37  58  84 114 154 195 243 306 369
#
# _framework density 23.812272
#
# number of rings (size 3 to 8) (size 9 to 14) (size 15 to 20)
#    0.000    2.200    0.000    1.800    2.800    4.000 
#    3.600    3.000    0.000    0.000    0.000    0.000 
#    0.000    0.000    0.000    0.000    0.000    0.000 
#
# Total GULP energy -247832.618815 kJ/mol
# GULP energy per Si atom -12391.630941 kJ/mol
# Density = 2.375807 g / cm^3
# Si number density = 23.812272 Si / 1000 Ang^3
#
#
#
# Elastic Constant Matrix: (Units=GPa)
#
#
# Indices 1 2 3 4 5 6 
#
# 1 223.5687 104.9381 4.0809 0.0000 6.4524 0.0000
# 2 104.9381 181.5817 -4.4535 0.0000 6.5463 0.0000
# 3 4.0809 -4.4535 21.8989 0.0000 -1.2418 0.0000
# 4 0.0000 0.0000 0.0000 -13.3920 0.0000 -24.8696
# 5 6.4524 6.5463 -1.2418 0.0000 30.3474 0.0000
# 6 0.0000 0.0000 0.0000 -24.8696 0.0000 8.3733
#
#
#
# Elastic Compliance Matrix: (Units=1/GPa)
#
#
# Indices 1 2 3 4 5 6 
#
# 1 0.006227 -0.003624 -0.001933 0.000000 -0.000621 0.000000
# 2 -0.003624 0.007684 0.002193 0.000000 -0.000797 0.000000
# 3 -0.001933 0.002193 0.046575 0.000000 0.001844 0.000000
# 4 0.000000 0.000000 0.000000 -0.011460 0.000000 -0.034038
# 5 -0.000621 -0.000797 0.001844 0.000000 0.033331 0.000000
# 6 0.000000 0.000000 0.000000 -0.034038 0.000000 0.018329
#
#
# Mechanical properties :
#
#
# Convention : Reuss Voigt Hill
#
# Bulk Modulus (GPa) = 18.60162 70.68670 44.64416
# Shear Modulus (GPa) = 39.89384 26.56466 33.22925
#
# Velocity S-wave (km/s) = 4.09754 3.34366 3.73965
# Velocity P-wave (km/s) = 5.49684 6.68253 6.11847
#
# Compressibility (1/GPa) = 0.05375876
#
# Stress axis : x y z
#
# Youngs Moduli (GPa) = 160.59213 130.14364 21.47076
#
# Poissons Ratio (x) = 0.47159 0.04149
# Poissons Ratio (y) = 0.58193 -0.04708
# Poissons Ratio (z) = 0.31035 -0.28536
#
# Static dielectric constant tensor:
#      x y z
#    x 4.297870 0.000000 0.100510 
#    y 0.000000 4.834620 0.000000 
#    z 0.100510 0.000000 4.022370 
# 
# 
# High freq. dielectric constant tensor:
#      x y z
#    x 1.950140 0.000000 0.007510 
#    y 0.000000 1.954720 0.000000 
#    z 0.007510 0.000000 1.905800 
# 
# From -- ./inp_files/15127.got.cif
#   From: 2010.06.25/outbox.cif.g09.slc.cpg/sg12_8_cif.got.tgz:15127.got - 2010.06.28 00:19:55.
