data_PCOD8100452
_publ_section_title
;
Structure prediction by ZEFSAII (Michael W. Deem and Ramdas Pophale) SiO2 
 PCOD8100452
Probable space group: C 2/M
;
_chemical_formula_sum "Si O2"
_cell_formula_units_Z 56
_cell_length_a 19.014479
_cell_length_b 8.993949
_cell_length_c 18.718824
_cell_angle_alpha 90.000000
_cell_angle_beta 60.977331
_cell_angle_gamma 90.000000
_cell_volume 2799.222241
_symmetry_space_group_name_H-M "C 2/M"
_symmetry_group_IT_number 12
_symmetry_cell_setting 'monoclinic'
loop_
_space_group_symop_operation_xyz
x,y,z
-x,y,-z
-x,-y,-z
x,-y,z
1/2+x,1/2+y,z
1/2-x,1/2+y,-z
1/2-x,1/2-y,-z
1/2+x,1/2-y,z
loop_
_atom_site_type_symbol
_atom_site_label
_atom_site_fract_x
_atom_site_fract_y
_atom_site_fract_z
Si Si1 0.970957 0.168421 0.323845
Si Si2 0.240538 0.170242 0.312605
Si Si3 0.933562 0.170158 0.585895
Si Si4 0.816811 0.331914 0.423495
Si Si5 0.174588 0.825456 0.998501
Si Si6 0.002735 0.173003 0.148247
Si Si7 0.860378 0.678266 0.135200
O O1 0.902791 0.262438 0.396903
O O2 0.992791 0.229630 0.234716
O O3 0.045774 0.180932 0.340438
O O4 0.940307 0.000000 0.332284
O O5 0.154855 0.248394 0.374619
O O6 0.301887 0.186334 0.347092
O O7 0.287697 0.237298 0.221584
O O8 0.220139 0.000000 0.305168
O O9 0.000000 0.246289 0.500000
O O10 0.925990 0.000000 0.563308
O O11 0.817038 0.500000 0.449204
O O12 0.750000 0.250000 0.500000
O O13 0.095743 0.799255 0.084952
O O14 0.191923 0.000000 0.978892
O O15 0.250000 0.750000 0.000000
O O16 0.157961 0.747239 0.931861
O O17 0.946011 0.265768 0.123052
O O18 0.980277 0.000000 0.150816
O O19 0.863503 0.500000 0.129580
#
# Coordination Sequence:
#
# PCOD8100452 Si02
#       7
#     8   8   8   8   8   8   8
#     4  10  20  35  59  86 113 152 196 244 300 356
#     4   9  19  34  56  85 116 151 198 246 290 346
#     4   9  17  31  54  82 112 150 197 245 293 348
#     4  11  21  36  57  85 118 154 195 245 293 348
#     4  11  25  43  64  93 124 159 200 249 301 361
#     4  10  22  40  62  88 122 159 202 250 302 363
#     4  11  22  39  64  91 122 160 202 249 302 362
#
# _framework density 20.005557
#
# number of rings (size 3 to 8) (size 9 to 14) (size 15 to 20)
#    0.000    1.857    1.429    2.571    2.000    5.143 
#    0.000    0.000    0.000    4.714    0.000    0.000 
#    0.000    0.000    0.000    0.000    0.000    0.000 
#
# Total GULP energy -347128.033072 kJ/mol
# GULP energy per Si atom -12397.429753 kJ/mol
# Density = 1.996002 g / cm^3
# Si number density = 20.005557 Si / 1000 Ang^3
#
#
#
# Elastic Constant Matrix: (Units=GPa)
#
#
# Indices 1 2 3 4 5 6 
#
# 1 105.7223 34.0363 27.0155 0.0000 -11.0705 0.0000
# 2 34.0363 74.1629 32.2610 0.0001 -3.9512 -0.0001
# 3 27.0155 32.2610 95.0301 0.0000 -8.2579 0.0000
# 4 0.0000 0.0001 0.0000 26.5530 0.0000 -1.8256
# 5 -11.0705 -3.9512 -8.2579 0.0000 38.6040 0.0000
# 6 0.0000 -0.0001 0.0000 -1.8256 0.0000 27.8866
#
#
#
# Elastic Compliance Matrix: (Units=1/GPa)
#
#
# Indices 1 2 3 4 5 6 
#
# 1 0.011567 -0.004504 -0.001540 0.000000 0.002527 0.000000
# 2 -0.004504 0.017583 -0.004732 0.000000 -0.000504 0.000000
# 3 -0.001540 -0.004732 0.012723 0.000000 0.001796 0.000000
# 4 0.000000 0.000000 0.000000 0.037831 0.000000 0.002477
# 5 0.002527 -0.000504 0.001796 0.000000 0.026961 0.000000
# 6 0.000000 0.000000 0.000000 0.002477 0.000000 0.036022
#
#
# Mechanical properties :
#
#
# Convention : Reuss Voigt Hill
#
# Bulk Modulus (GPa) = 49.21135 51.28233 50.24684
# Shear Modulus (GPa) = 29.23772 30.71557 29.97665
#
# Velocity S-wave (km/s) = 3.82708 3.92261 3.87514
# Velocity P-wave (km/s) = 6.64688 6.79746 6.72259
#
# Compressibility (1/GPa) = 0.02032051
#
# Stress axis : x y z
#
# Youngs Moduli (GPa) = 86.45442 56.87415 78.59606
#
# Poissons Ratio (x) = 0.25617 0.12101
# Poissons Ratio (y) = 0.38940 0.37195
# Poissons Ratio (z) = 0.13311 0.26915
#
# Static dielectric constant tensor:
#      x y z
#    x 6.437840 0.000000 2.730030 
#    y 0.000000 3.405740 0.000000 
#    z 2.730030 0.000000 6.712470 
# 
# 
# High freq. dielectric constant tensor:
#      x y z
#    x 1.790420 0.000000 -0.003840 
#    y 0.000000 1.748620 0.000000 
#    z -0.003840 0.000000 1.797500 
# 
# From -- ./inp_files/275155.got.cif
#   From: 2010.06.25/outbox.cif.g09.slc.cpg/sg12_138_cif.got.tgz:275155.got - 2010.06.28 00:19:55.
