data_PCOD8100131
_publ_section_title
;
Structure prediction by ZEFSAII (Michael W. Deem and Ramdas Pophale) SiO2 
 PCOD8100131
Probable space group: C 2/M
;
_chemical_formula_sum "Si O2"
_cell_formula_units_Z 64
_cell_length_a 18.487641
_cell_length_b 13.725267
_cell_length_c 24.710601
_cell_angle_alpha 90.000000
_cell_angle_beta 150.332664
_cell_angle_gamma 90.000000
_cell_volume 3103.549547
_symmetry_space_group_name_H-M "C 2/M"
_symmetry_group_IT_number 12
_symmetry_cell_setting 'monoclinic'
loop_
_space_group_symop_operation_xyz
x,y,z
-x,y,-z
-x,-y,-z
x,-y,z
1/2+x,1/2+y,z
1/2-x,1/2+y,-z
1/2-x,1/2-y,-z
1/2+x,1/2-y,z
loop_
_atom_site_type_symbol
_atom_site_label
_atom_site_fract_x
_atom_site_fract_y
_atom_site_fract_z
Si Si1 0.832086 0.609123 0.375417
Si Si2 0.792039 0.388500 0.661752
Si Si3 0.103478 0.885913 0.316733
Si Si4 0.167454 0.610845 0.122291
Si Si5 0.606121 0.386492 0.441709
Si Si6 0.828062 0.795733 0.316361
Si Si7 0.204224 0.803108 0.896726
Si Si8 0.372224 0.113111 0.102225
O O1 0.784881 0.500000 0.327738
O O2 0.738746 0.645227 0.366782
O O3 0.808299 0.678669 0.307875
O O4 0.000000 0.612952 0.500000
O O5 0.770037 0.500000 0.662362
O O6 0.750781 0.367648 0.572132
O O7 0.676586 0.332499 0.624751
O O8 0.958590 0.358301 0.780953
O O9 0.138244 0.852992 0.401065
O O10 0.961277 0.835056 0.199118
O O11 0.075891 0.000000 0.296984
O O12 0.225031 0.500000 0.157243
O O13 0.190193 0.656011 0.196306
O O14 0.262244 0.677053 0.143842
O O15 0.000000 0.617043 0.000000
O O16 0.560833 0.500000 0.414287
O O17 0.474918 0.323496 0.380849
O O18 0.219995 0.687311 0.919527
O O19 0.318621 0.867042 0.006187
O O20 0.343457 0.000000 0.099347
#
# Coordination Sequence:
#
# PCOD8100131 Si02
#       8
#     8   8   8   8   8   8   8   8
#     4  10  23  43  62  85 120 167 217 254 296 361
#     4  10  20  35  57  90 129 161 191 243 317 377
#     4  10  20  38  64  91 119 156 208 259 299 356
#     4  11  23  39  62  91 123 157 196 249 311 373
#     4  10  20  35  60  94 125 155 195 251 315 368
#     4  12  21  36  59  90 123 160 204 253 309 365
#     4  11  21  38  63  90 117 157 206 252 301 360
#     4  10  22  39  59  86 121 160 203 250 303 360
#
# _framework density 20.621549999999999
#
# number of rings (size 3 to 8) (size 9 to 14) (size 15 to 20)
#    0.000    1.500    1.250    4.875    0.000    4.000 
#    2.250    2.500    0.000    0.750    0.000    0.000 
#    0.000    0.000    0.000    0.000    0.000    0.000 
#
# Total GULP energy -396801.211134 kJ/mol
# GULP energy per Si atom -12400.037848 kJ/mol
# Density = 2.057461 g / cm^3
# Si number density = 20.621550 Si / 1000 Ang^3
#
#
#
# Elastic Constant Matrix: (Units=GPa)
#
#
# Indices 1 2 3 4 5 6 
#
# 1 104.3146 61.9353 39.6544 -0.0001 2.8567 0.0000
# 2 61.9353 102.2236 33.1399 0.0022 -2.7049 0.0006
# 3 39.6544 33.1399 125.7321 0.0085 -6.0184 0.0016
# 4 -0.0001 0.0022 0.0085 5.1507 0.0028 -8.4756
# 5 2.8567 -2.7049 -6.0184 0.0028 26.2280 0.0002
# 6 0.0000 0.0006 0.0016 -8.4756 0.0002 30.4053
#
#
#
# Elastic Compliance Matrix: (Units=1/GPa)
#
#
# Indices 1 2 3 4 5 6 
#
# 1 0.016040 -0.008873 -0.002879 0.000021 -0.003323 0.000006
# 2 -0.008873 0.015610 -0.001206 -0.000012 0.002300 -0.000004
# 3 -0.002879 -0.001206 0.009290 -0.000031 0.002321 -0.000009
# 4 0.000021 -0.000012 -0.000031 0.358674 -0.000049 0.099982
# 5 -0.003323 0.002300 0.002321 -0.000049 0.039259 -0.000014
# 6 0.000006 -0.000004 -0.000009 0.099982 -0.000014 0.060760
#
#
# Mechanical properties :
#
#
# Convention : Reuss Voigt Hill
#
# Bulk Modulus (GPa) = 66.55776 66.85882 66.70829
# Shear Modulus (GPa) = 9.42406 25.52618 17.47512
#
# Velocity S-wave (km/s) = 2.14008 3.52211 2.91421
# Velocity P-wave (km/s) = 6.20101 7.00233 6.61381
#
# Compressibility (1/GPa) = 0.01502454
#
# Stress axis : x y z
#
# Youngs Moduli (GPa) = 62.34412 64.06077 107.63728
#
# Poissons Ratio (x) = 0.56840 0.30991
# Poissons Ratio (y) = 0.55317 0.12981
# Poissons Ratio (z) = 0.17950 0.07726
#
# Static dielectric constant tensor:
#      x y z
#    x 3.692390 0.000000 -0.103010 
#    y 0.000000 3.931260 0.000000 
#    z -0.103010 0.000000 3.880650 
# 
# 
# High freq. dielectric constant tensor:
#      x y z
#    x 1.792400 0.000000 -0.001430 
#    y 0.000000 1.813200 0.000000 
#    z -0.001430 0.000000 1.812240 
# 
# From -- ./inp_files/344057.got.cif
#   From: 2010.06.25/outbox.cif.g09.slc.cpg/sg12_173_cif.got.tgz:344057.got - 2010.06.28 00:19:55.
