data_PCOD8100080
_publ_section_title
;
Structure prediction by ZEFSAII (Michael W. Deem and Ramdas Pophale) SiO2 
 PCOD8100080
Probable space group: C 2/M
;
_chemical_formula_sum "Si O2"
_cell_formula_units_Z 64
_cell_length_a 15.402786
_cell_length_b 8.974795
_cell_length_c 23.865608
_cell_angle_alpha 90.000000
_cell_angle_beta 89.696339
_cell_angle_gamma 90.000000
_cell_volume 3299.060063
_symmetry_space_group_name_H-M "C 2/M"
_symmetry_group_IT_number 12
_symmetry_cell_setting 'monoclinic'
loop_
_space_group_symop_operation_xyz
x,y,z
-x,y,-z
-x,-y,-z
x,-y,z
1/2+x,1/2+y,z
1/2-x,1/2+y,-z
1/2-x,1/2-y,-z
1/2+x,1/2-y,z
loop_
_atom_site_type_symbol
_atom_site_label
_atom_site_fract_x
_atom_site_fract_y
_atom_site_fract_z
Si Si1 0.974338 0.826648 0.563544
Si Si2 0.380419 0.824070 0.364102
Si Si3 0.953633 0.668621 0.057261
Si Si4 0.372018 0.676321 0.244237
Si Si5 0.720248 0.325579 0.943592
Si Si6 0.212380 0.324130 0.172730
Si Si7 0.520190 0.169579 0.176978
Si Si8 0.223218 0.174657 0.442838
O O1 0.034858 0.730176 0.603312
O O2 0.000000 0.790072 0.500000
O O3 0.874316 0.778739 0.574665
O O4 0.989002 0.000000 0.577175
O O5 0.380620 0.751700 0.303754
O O6 0.291407 0.775093 0.395139
O O7 0.386208 0.000000 0.358065
O O8 0.916787 0.500000 0.051619
O O9 0.878823 0.786813 0.068811
O O10 0.018687 0.679623 0.109459
O O11 0.000000 0.716246 0.000000
O O12 0.369846 0.500000 0.251978
O O13 0.284723 0.739404 0.215043
O O14 0.453768 0.718484 0.205775
O O15 0.732672 0.500000 0.950862
O O16 0.774221 0.262268 0.890361
O O17 0.750000 0.250000 0.000000
O O18 0.224399 0.500000 0.169544
O O19 0.116961 0.280890 0.195265
O O20 0.500242 0.000000 0.196328
O O21 0.250000 0.250000 0.500000
O O22 0.227098 0.000000 0.453730
#
# Coordination Sequence:
#
# PCOD8100080 Si02
#       8
#     8   8   8   8   8   8   8   8
#     4  10  20  37  62  91 125 162 198 241 297 352
#     4  11  24  40  60  90 124 159 203 249 294 350
#     4  10  20  35  57  86 121 157 195 243 305 365
#     4  11  23  42  63  85 118 159 204 250 300 351
#     4  11  21  36  57  85 121 155 198 247 301 364
#     4   9  20  39  62  85 116 157 197 244 301 361
#     4  10  20  38  63  87 116 155 200 245 298 360
#     4  10  21  37  60  90 125 160 198 243 294 350
#
# _framework density 19.399466
#
# number of rings (size 3 to 8) (size 9 to 14) (size 15 to 20)
#    0.000    1.750    2.500    1.875    0.000    4.500 
#    0.000    6.250    0.000    0.000    0.000    0.000 
#    0.000    0.000    0.000    0.000    0.000    0.000 
#
# Total GULP energy -396830.583064 kJ/mol
# GULP energy per Si atom -12400.955721 kJ/mol
# Density = 1.935531 g / cm^3
# Si number density = 19.399466 Si / 1000 Ang^3
#
#
#
# Elastic Constant Matrix: (Units=GPa)
#
#
# Indices 1 2 3 4 5 6 
#
# 1 149.6713 35.4785 61.7847 0.0000 7.5703 0.0000
# 2 35.4785 52.8175 41.1090 0.0000 6.2611 0.0000
# 3 61.7847 41.1090 125.7778 0.0000 4.3860 0.0000
# 4 0.0000 0.0000 0.0000 29.4691 0.0000 0.3324
# 5 7.5703 6.2611 4.3860 0.0000 28.0113 0.0000
# 6 0.0000 0.0000 0.0000 0.3324 0.0000 31.8578
#
#
#
# Elastic Compliance Matrix: (Units=1/GPa)
#
#
# Indices 1 2 3 4 5 6 
#
# 1 0.008855 -0.003296 -0.003232 0.000000 -0.001150 0.000000
# 2 -0.003296 0.027171 -0.007120 0.000000 -0.004068 0.000000
# 3 -0.003232 -0.007120 0.011844 0.000000 0.000610 0.000000
# 4 0.000000 0.000000 0.000000 0.033938 0.000000 -0.000354
# 5 -0.001150 -0.004068 0.000610 0.000000 0.036824 0.000000
# 6 0.000000 0.000000 0.000000 -0.000354 0.000000 0.031393
#
#
# Mechanical properties :
#
#
# Convention : Reuss Voigt Hill
#
# Bulk Modulus (GPa) = 48.60527 67.22346 57.91436
# Shear Modulus (GPa) = 27.14752 30.52727 28.83739
#
# Velocity S-wave (km/s) = 3.74491 3.97118 3.85970
# Velocity P-wave (km/s) = 6.61880 7.46689 7.05560
#
# Compressibility (1/GPa) = 0.02057390
#
# Stress axis : x y z
#
# Youngs Moduli (GPa) = 112.92874 36.80461 84.43062
#
# Poissons Ratio (x) = 0.12130 0.27292
# Poissons Ratio (y) = 0.37220 0.60111
# Poissons Ratio (z) = 0.36504 0.26203
#
# Static dielectric constant tensor:
#      x y z
#    x 3.703130 0.000000 0.076260 
#    y 0.000000 3.513170 0.000000 
#    z 0.076260 0.000000 3.705070 
# 
# 
# High freq. dielectric constant tensor:
#      x y z
#    x 1.767990 0.000000 0.001960 
#    y 0.000000 1.741030 0.000000 
#    z 0.001960 0.000000 1.758530 
# 
# From -- ./inp_files/338905.got.cif
#   From: 2010.06.25/outbox.cif.g09.slc.cpg/sg12_170_cif.got.tgz:338905.got - 2010.06.28 00:19:55.
