data_PCOD8100297
_publ_section_title
;
Structure prediction by ZEFSAII (Michael W. Deem and Ramdas Pophale) SiO2 
 PCOD8100297
Probable space group: C 2/M
;
_chemical_formula_sum "Si O2"
_cell_formula_units_Z 48
_cell_length_a 30.428592
_cell_length_b 14.111079
_cell_length_c 7.943683
_cell_angle_alpha 90.000000
_cell_angle_beta 134.626809
_cell_angle_gamma 90.000000
_cell_volume 2427.500795
_symmetry_space_group_name_H-M "C 2/M"
_symmetry_group_IT_number 12
_symmetry_cell_setting 'monoclinic'
loop_
_space_group_symop_operation_xyz
x,y,z
-x,y,-z
-x,-y,-z
x,-y,z
1/2+x,1/2+y,z
1/2-x,1/2+y,-z
1/2-x,1/2-y,-z
1/2+x,1/2-y,z
loop_
_atom_site_type_symbol
_atom_site_label
_atom_site_fract_x
_atom_site_fract_y
_atom_site_fract_z
Si Si1 0.070521 0.729177 0.691106
Si Si2 0.603598 0.893074 0.100251
Si Si3 0.720641 0.893190 0.597985
Si Si4 0.115317 0.291625 0.459103
Si Si5 0.572550 0.607426 0.199927
Si Si6 0.639288 0.391534 0.030118
O O1 0.087680 0.675678 0.563704
O O2 0.000000 0.761684 0.500000
O O3 0.081785 0.659031 0.875343
O O4 0.112089 0.823775 0.813552
O O5 0.679027 0.890733 0.314845
O O6 0.578477 0.842546 0.204722
O O7 0.578179 0.000000 0.026047
O O8 0.687815 0.822748 0.645480
O O9 0.789997 0.861221 0.743006
O O10 0.720265 0.000000 0.671717
O O11 0.106498 0.178064 0.420113
O O12 0.586180 0.500000 0.295530
O O13 0.599770 0.627042 0.089627
O O14 0.500000 0.628130 0.000000
O O15 0.634195 0.500000 0.955815
#
# Coordination Sequence:
#
# PCOD8100297 Si02
#       6
#     8   8   8   8   8   8
#     4  12  25  37  59  94 126 163 207 242 297 371
#     4   9  21  42  62  87 121 157 201 258 306 349
#     4   8  18  39  65  89 116 156 205 254 306 357
#     4  10  21  37  63  87 123 159 202 248 306 357
#     4  10  20  35  58  86 120 162 204 243 291 355
#     4  10  20  39  65  90 122 162 202 250 305 361
#
# _framework density 19.773423000000001
#
# number of rings (size 3 to 8) (size 9 to 14) (size 15 to 20)
#    1.000    1.167    1.667    1.000    0.000    6.000 
#    0.000    0.833    0.000    4.000    0.000    0.000 
#    0.000    0.000    0.000    0.000    0.000    0.000 
#
# Total GULP energy -297419.985547 kJ/mol
# GULP energy per Si atom -12392.499398 kJ/mol
# Density = 1.972842 g / cm^3
# Si number density = 19.773423 Si / 1000 Ang^3
#
#
#
# Elastic Constant Matrix: (Units=GPa)
#
#
# Indices 1 2 3 4 5 6 
#
# 1 106.4769 18.5493 49.9127 0.0000 -2.0345 0.0000
# 2 18.5493 65.3465 48.3660 0.0000 -7.0977 0.0000
# 3 49.9127 48.3660 94.9095 0.0000 2.2849 0.0000
# 4 0.0000 0.0000 0.0000 29.5700 0.0000 3.9254
# 5 -2.0345 -7.0977 2.2849 0.0000 46.1414 0.0000
# 6 0.0000 0.0000 0.0000 3.9254 0.0000 18.3241
#
#
#
# Elastic Compliance Matrix: (Units=1/GPa)
#
#
# Indices 1 2 3 4 5 6 
#
# 1 0.012726 0.002423 -0.007959 0.000000 0.001328 0.000000
# 2 0.002423 0.025960 -0.014619 0.000000 0.004824 0.000000
# 3 -0.007959 -0.014619 0.022261 0.000000 -0.003702 0.000000
# 4 0.000000 0.000000 0.000000 0.034808 0.000000 -0.007457
# 5 0.001328 0.004824 -0.003702 0.000000 0.022656 0.000000
# 6 0.000000 0.000000 0.000000 -0.007457 0.000000 0.056170
#
#
# Mechanical properties :
#
#
# Convention : Reuss Voigt Hill
#
# Bulk Modulus (GPa) = 48.46033 55.59876 52.02954
# Shear Modulus (GPa) = 22.54567 28.80075 25.67321
#
# Velocity S-wave (km/s) = 3.38035 3.82060 3.60720
# Velocity P-wave (km/s) = 6.30846 6.90229 6.61205
#
# Compressibility (1/GPa) = 0.02063543
#
# Stress axis : x y z
#
# Youngs Moduli (GPa) = 78.57920 38.52104 44.92095
#
# Poissons Ratio (x) = -0.09333 0.35754
# Poissons Ratio (y) = -0.19038 0.65672
# Poissons Ratio (z) = 0.62543 0.56316
#
# Static dielectric constant tensor:
#      x y z
#    x 3.467270 0.000000 0.123650 
#    y 0.000000 3.702190 0.000000 
#    z 0.123650 0.000000 3.402520 
# 
# 
# High freq. dielectric constant tensor:
#      x y z
#    x 1.760050 0.000000 0.010420 
#    y 0.000000 1.779190 0.000000 
#    z 0.010420 0.000000 1.751550 
# 
# From -- ./inp_files/111752.got.cif
#   From: 2010.06.25/outbox.cif.g09.slc.cpg/sg12_56_cif.got.tgz:111752.got - 2010.06.28 00:19:55.
