data_PCOD8100088
_publ_section_title
;
Structure prediction by ZEFSAII (Michael W. Deem and Ramdas Pophale) SiO2 
 PCOD8100088
Probable space group: C 2/M
;
_chemical_formula_sum "Si O2"
_cell_formula_units_Z 48
_cell_length_a 28.521280
_cell_length_b 8.793766
_cell_length_c 19.431461
_cell_angle_alpha 90.000000
_cell_angle_beta 26.437166
_cell_angle_gamma 90.000000
_cell_volume 2169.802671
_symmetry_space_group_name_H-M "C 2/M"
_symmetry_group_IT_number 12
_symmetry_cell_setting 'monoclinic'
loop_
_space_group_symop_operation_xyz
x,y,z
-x,y,-z
-x,-y,-z
x,-y,z
1/2+x,1/2+y,z
1/2-x,1/2+y,-z
1/2-x,1/2-y,-z
1/2+x,1/2-y,z
loop_
_atom_site_type_symbol
_atom_site_label
_atom_site_fract_x
_atom_site_fract_y
_atom_site_fract_z
Si Si1 0.398850 0.333590 0.852933
Si Si2 0.888500 0.822825 0.618180
Si Si3 0.772592 0.824845 0.258005
Si Si4 0.337723 0.834325 0.811661
Si Si5 0.050801 0.319423 0.069452
Si Si6 0.173105 0.822880 0.657173
O O1 0.455037 0.500000 0.777646
O O2 0.425565 0.236138 0.749033
O O3 0.430245 0.245823 0.879893
O O4 0.274979 0.360149 0.006204
O O5 0.843008 0.736503 0.611524
O O6 0.812827 0.780629 0.781329
O O7 0.000000 0.759485 0.500000
O O8 0.892214 0.000000 0.597118
O O9 0.775929 0.801453 0.335034
O O10 0.785892 0.000000 0.219343
O O11 0.863705 0.733465 0.098721
O O12 0.380554 0.000000 0.731157
O O13 0.053347 0.500000 0.069792
O O14 0.937249 0.263207 0.194533
O O15 0.250000 0.750000 0.500000
O O16 0.155688 0.000000 0.662683
#
# Coordination Sequence:
#
# PCOD8100088 Si02
#       6
#     8   8   8   8   8   8
#     4  10  20  35  59  89 124 163 205 257 312 370
#     4  11  24  40  61  91 128 171 215 262 319 384
#     4  11  24  44  69  97 129 171 219 272 329 388
#     4  10  20  35  57  86 123 165 208 256 311 371
#     4  12  24  40  68 101 133 172 220 271 326 391
#     4  11  26  47  70  97 133 171 216 272 333 397
#
# _framework density 22.121828000000001
#
# number of rings (size 3 to 8) (size 9 to 14) (size 15 to 20)
#    0.000    1.167    1.667    4.500    0.000    8.667 
#    0.000    3.333    0.000    0.000    0.000    0.000 
#    0.000    0.000    0.000    0.000    0.000    0.000 
#
# Total GULP energy -297497.669568 kJ/mol
# GULP energy per Si atom -12395.736232 kJ/mol
# Density = 2.207148 g / cm^3
# Si number density = 22.121828 Si / 1000 Ang^3
#
#
#
# Elastic Constant Matrix: (Units=GPa)
#
#
# Indices 1 2 3 4 5 6 
#
# 1 146.4885 72.1877 29.8767 -0.0008 -10.1749 0.0003
# 2 72.1877 167.6422 30.4254 -0.0059 -12.7829 -0.0005
# 3 29.8767 30.4254 58.0392 -0.0050 -22.3958 -0.0013
# 4 -0.0008 -0.0059 -0.0050 30.2858 -0.0008 -2.1255
# 5 -10.1749 -12.7829 -22.3958 -0.0008 27.0667 0.0006
# 6 0.0003 -0.0005 -0.0013 -2.1255 0.0006 36.8493
#
#
#
# Elastic Compliance Matrix: (Units=1/GPa)
#
#
# Indices 1 2 3 4 5 6 
#
# 1 0.009101 -0.003397 -0.003236 -0.000001 -0.000861 0.000000
# 2 -0.003397 0.007863 -0.002105 0.000001 0.000695 0.000000
# 3 -0.003236 -0.002105 0.028126 0.000005 0.021062 0.000001
# 4 -0.000001 0.000001 0.000005 0.033153 0.000005 0.001912
# 5 -0.000861 0.000695 0.021062 0.000005 0.054377 0.000000
# 6 0.000000 0.000000 0.000001 0.001912 0.000000 0.027248
#
#
# Mechanical properties :
#
#
# Convention : Reuss Voigt Hill
#
# Bulk Modulus (GPa) = 36.21471 70.79443 53.50457
# Shear Modulus (GPa) = 26.80257 34.81903 30.81080
#
# Velocity S-wave (km/s) = 3.48457 3.97163 3.73604
# Velocity P-wave (km/s) = 5.70927 7.28720 6.54595
#
# Compressibility (1/GPa) = 0.02761309
#
# Stress axis : x y z
#
# Youngs Moduli (GPa) = 109.88076 127.17866 35.55394
#
# Poissons Ratio (x) = 0.43205 0.11506
# Poissons Ratio (y) = 0.37328 0.07485
# Poissons Ratio (z) = 0.35559 0.26773
#
# Static dielectric constant tensor:
#      x y z
#    x 4.110500 0.000010 -0.124400 
#    y 0.000010 4.452620 0.000000 
#    z -0.124400 0.000000 3.943540 
# 
# 
# High freq. dielectric constant tensor:
#      x y z
#    x 1.885260 0.000000 -0.000820 
#    y 0.000000 1.888620 0.000000 
#    z -0.000820 0.000000 1.851640 
# 
# From -- ./inp_files/327159.got.cif
#   From: 2010.06.25/outbox.cif.g09.slc.cpg/sg12_164_cif.got.tgz:327159.got - 2010.06.28 00:19:55.
