data_PCOD8100572
_publ_section_title
;
Structure prediction by ZEFSAII (Michael W. Deem and Ramdas Pophale) SiO2 
 PCOD8100572
Probable space group: C 2/M
;
_chemical_formula_sum "Si O2"
_cell_formula_units_Z 40
_cell_length_a 15.351462
_cell_length_b 13.241034
_cell_length_c 11.737696
_cell_angle_alpha 90.000000
_cell_angle_beta 129.159919
_cell_angle_gamma 90.000000
_cell_volume 1850.004128
_symmetry_space_group_name_H-M "C 2/M"
_symmetry_group_IT_number 12
_symmetry_cell_setting 'monoclinic'
loop_
_space_group_symop_operation_xyz
x,y,z
-x,y,-z
-x,-y,-z
x,-y,z
1/2+x,1/2+y,z
1/2-x,1/2+y,-z
1/2-x,1/2-y,-z
1/2+x,1/2-y,z
loop_
_atom_site_type_symbol
_atom_site_label
_atom_site_fract_x
_atom_site_fract_y
_atom_site_fract_z
Si Si1 0.305358 0.118052 0.137844
Si Si2 0.549745 0.618963 0.925695
Si Si3 0.453559 0.383758 0.615043
Si Si4 0.380474 0.116295 0.949306
Si Si5 0.661812 0.294973 0.678099
O O1 0.177276 0.156752 0.010414
O O2 0.374361 0.140267 0.079259
O O3 0.359034 0.182744 0.286387
O O4 0.310748 0.000000 0.176411
O O5 0.555130 0.500000 0.938861
O O6 0.500000 0.666939 0.000000
O O7 0.463909 0.650640 0.754897
O O8 0.412146 0.500000 0.569894
O O9 0.579832 0.376661 0.669411
O O10 0.369484 0.304703 0.482324
O O11 0.356803 0.000000 0.907311
O O12 0.500000 0.150615 0.000000
O O13 0.290013 0.176889 0.802085
#
# Coordination Sequence:
#
# PCOD8100572 Si02
#       5
#     8   8   8   8   8
#     4  10  21  38  58  86 124 163 205 247 292 355
#     4   9  18  35  61  89 118 154 197 248 302 351
#     4  10  20  36  62  90 119 151 196 257 308 348
#     4  10  20  35  59  91 126 164 202 244 296 360
#     4  11  20  35  59  92 117 154 200 248 303 352
#
# _framework density 21.621573000000001
#
# number of rings (size 3 to 8) (size 9 to 14) (size 15 to 20)
#    0.000    2.000    2.000    3.000    0.000    0.800 
#    0.000    3.000    4.400    0.000    0.000    0.000 
#    0.000    0.800    0.000    0.000    0.000    0.000 
#
# Total GULP energy -247893.606293 kJ/mol
# GULP energy per Si atom -12394.680315 kJ/mol
# Density = 2.157236 g / cm^3
# Si number density = 21.621573 Si / 1000 Ang^3
#
#
#
# Elastic Constant Matrix: (Units=GPa)
#
#
# Indices 1 2 3 4 5 6 
#
# 1 130.1901 27.0492 65.1689 0.0000 -7.2398 0.0000
# 2 27.0492 103.0616 74.1350 0.0000 -3.1135 0.0000
# 3 65.1689 74.1350 162.6469 0.0000 -23.6528 0.0000
# 4 0.0000 0.0000 0.0000 38.9546 0.0000 -7.7298
# 5 -7.2398 -3.1135 -23.6528 0.0000 34.4046 0.0000
# 6 0.0000 0.0000 0.0000 -7.7298 0.0000 -16.9393
#
#
#
# Elastic Compliance Matrix: (Units=1/GPa)
#
#
# Indices 1 2 3 4 5 6 
#
# 1 0.009637 0.000459 -0.004188 0.000000 -0.000810 0.000000
# 2 0.000459 0.014865 -0.007499 0.000000 -0.003714 0.000000
# 3 -0.004188 -0.007499 0.012242 0.000000 0.006856 0.000000
# 4 0.000000 0.000000 0.000000 0.023539 0.000000 -0.010742
# 5 -0.000810 -0.003714 0.006856 0.000000 0.033273 0.000000
# 6 0.000000 0.000000 0.000000 -0.010742 0.000000 -0.054133
#
#
# Mechanical properties :
#
#
# Convention : Reuss Voigt Hill
#
# Bulk Modulus (GPa) = 69.99791 80.95610 75.47700
# Shear Modulus (GPa) = 75.02614 26.58700 50.80657
#
# Velocity S-wave (km/s) = 5.89703 3.51044 4.85274
# Velocity P-wave (km/s) = 8.87756 7.34537 8.14756
#
# Compressibility (1/GPa) = 0.01428614
#
# Stress axis : x y z
#
# Youngs Moduli (GPa) = 103.76392 67.27289 81.68713
#
# Poissons Ratio (x) = -0.03088 0.34214
# Poissons Ratio (y) = -0.04763 0.61261
# Poissons Ratio (z) = 0.43461 0.50451
#
# Static dielectric constant tensor:
#      x y z
#    x 3.979130 0.000000 -0.202590 
#    y 0.000000 3.914970 0.000000 
#    z -0.202590 0.000000 4.089610 
# 
# 
# High freq. dielectric constant tensor:
#      x y z
#    x 1.831260 0.000000 -0.007950 
#    y 0.000000 1.857830 0.000000 
#    z -0.007950 0.000000 1.836800 
# 
# From -- ./inp_files/142518.got.cif
#   From: 2010.06.25/outbox.cif.g09.slc.cpg/sg12_72_cif.got.tgz:142518.got - 2010.06.28 00:19:55.
