data_PCOD8100947
_publ_section_title
;
Structure prediction by ZEFSAII (Michael W. Deem and Ramdas Pophale) SiO2 
 PCOD8100947
Probable space group: C 2/M
;
_chemical_formula_sum "Si O2"
_cell_formula_units_Z 56
_cell_length_a 30.587261
_cell_length_b 9.671108
_cell_length_c 11.637090
_cell_angle_alpha 90.000000
_cell_angle_beta 59.745344
_cell_angle_gamma 90.000000
_cell_volume 2973.525602
_symmetry_space_group_name_H-M "C 2/M"
_symmetry_group_IT_number 12
_symmetry_cell_setting 'monoclinic'
loop_
_space_group_symop_operation_xyz
x,y,z
-x,y,-z
-x,-y,-z
x,-y,z
1/2+x,1/2+y,z
1/2-x,1/2+y,-z
1/2-x,1/2-y,-z
1/2+x,1/2-y,z
loop_
_atom_site_type_symbol
_atom_site_label
_atom_site_fract_x
_atom_site_fract_y
_atom_site_fract_z
Si Si1 0.600400 0.662758 0.119802
Si Si2 0.824908 0.341144 0.395426
Si Si3 0.217117 0.157587 0.960756
Si Si4 0.764631 0.156296 0.321432
Si Si5 0.440561 0.341759 0.577844
Si Si6 0.926667 0.659803 0.382283
Si Si7 0.020410 0.338087 0.098614
O O1 0.591708 0.500000 0.108520
O O2 0.581869 0.706207 0.270924
O O3 0.569767 0.748330 0.064050
O O4 0.658907 0.705426 0.032418
O O5 0.818999 0.500000 0.368103
O O6 0.810464 0.251594 0.303889
O O7 0.788264 0.301735 0.549937
O O8 0.881980 0.305443 0.353139
O O9 0.242824 0.175625 0.803366
O O10 0.219781 0.000000 0.000841
O O11 0.250000 0.250000 0.000000
O O12 0.780001 0.000000 0.331644
O O13 0.500000 0.318860 0.500000
O O14 0.426037 0.500000 0.571177
O O15 0.417332 0.248441 0.508553
O O16 0.925228 0.500000 0.421131
O O17 0.978476 0.697751 0.249791
O O18 0.034703 0.500000 0.081344
O O19 0.000000 0.295646 0.000000
#
# Coordination Sequence:
#
# PCOD8100947 Si02
#       7
#     8   8   8   8   8   8   8
#     4  10  22  40  58  81 112 147 186 229 275 326
#     4   9  19  35  56  81 108 139 176 223 274 323
#     4  10  23  40  58  82 112 145 186 231 275 328
#     4   9  19  37  56  78 108 140 179 225 272 323
#     4  10  20  36  56  78 108 142 179 221 266 318
#     4  10  21  35  55  83 111 140 179 225 271 323
#     4  10  22  38  56  83 116 147 184 226 272 330
#
# _framework density 18.832864000000001
#
# number of rings (size 3 to 8) (size 9 to 14) (size 15 to 20)
#    0.000    2.286    1.429    0.000    4.000    2.857 
#    0.000    0.000    0.000    0.000    0.000    0.000 
#    0.000    0.000    0.000    0.000    0.000    0.000 
#
# Total GULP energy -347282.808164 kJ/mol
# GULP energy per Si atom -12402.957434 kJ/mol
# Density = 1.879000 g / cm^3
# Si number density = 18.832864 Si / 1000 Ang^3
#
#
#
# Elastic Constant Matrix: (Units=GPa)
#
#
# Indices 1 2 3 4 5 6 
#
# 1 127.6897 71.5544 32.9151 0.0000 4.0840 0.0000
# 2 71.5544 75.9227 30.1421 0.0000 11.2137 0.0000
# 3 32.9151 30.1421 59.1755 0.0000 6.0121 0.0000
# 4 0.0000 0.0000 0.0000 23.6511 0.0000 7.5482
# 5 4.0840 11.2137 6.0121 0.0000 29.1006 0.0000
# 6 0.0000 0.0000 0.0000 7.5482 0.0000 42.2213
#
#
#
# Elastic Compliance Matrix: (Units=1/GPa)
#
#
# Indices 1 2 3 4 5 6 
#
# 1 0.017178 -0.016098 -0.001778 0.000000 0.004160 0.000000
# 2 -0.016098 0.032257 -0.006581 0.000000 -0.008811 0.000000
# 3 -0.001778 -0.006581 0.021406 0.000000 -0.001637 0.000000
# 4 0.000000 0.000000 0.000000 0.044840 0.000000 -0.008016
# 5 0.004160 -0.008811 -0.001637 0.000000 0.037513 0.000000
# 6 0.000000 0.000000 0.000000 -0.008016 0.000000 0.025118
#
#
# Mechanical properties :
#
#
# Convention : Reuss Voigt Hill
#
# Bulk Modulus (GPa) = 45.60523 59.11234 52.35879
# Shear Modulus (GPa) = 21.31881 27.53970 24.42926
#
# Velocity S-wave (km/s) = 3.36817 3.82818 3.60552
# Velocity P-wave (km/s) = 6.27650 7.14115 6.72274
#
# Compressibility (1/GPa) = 0.02192731
#
# Stress axis : x y z
#
# Youngs Moduli (GPa) = 58.21567 31.00080 46.71520
#
# Poissons Ratio (x) = 0.49905 0.08304
# Poissons Ratio (y) = 0.93715 0.30746
# Poissons Ratio (z) = 0.10348 0.20403
#
# Static dielectric constant tensor:
#      x y z
#    x 3.347990 0.000000 -0.072300 
#    y 0.000000 3.430030 0.000000 
#    z -0.072300 0.000000 3.611970 
# 
# 
# High freq. dielectric constant tensor:
#      x y z
#    x 1.729770 0.000000 -0.002880 
#    y 0.000000 1.726780 0.000000 
#    z -0.002880 0.000000 1.738470 
# 
# From -- ./inp_files/180791.got.cif
#   From: 2010.06.25/outbox.cif.g09.slc.cpg/sg12_91_cif.got.tgz:180791.got - 2010.06.28 00:19:55.
