data_PCOD8100908
_publ_section_title
;
Structure prediction by ZEFSAII (Michael W. Deem and Ramdas Pophale) SiO2 
 PCOD8100908
Probable space group: C 2/M
;
_chemical_formula_sum "Si O2"
_cell_formula_units_Z 32
_cell_length_a 9.419797
_cell_length_b 21.099719
_cell_length_c 12.743143
_cell_angle_alpha 90.000000
_cell_angle_beta 145.499514
_cell_angle_gamma 90.000000
_cell_volume 1434.591188
_symmetry_space_group_name_H-M "C 2/M"
_symmetry_group_IT_number 12
_symmetry_cell_setting 'monoclinic'
loop_
_space_group_symop_operation_xyz
x,y,z
-x,y,-z
-x,-y,-z
x,-y,z
1/2+x,1/2+y,z
1/2-x,1/2+y,-z
1/2-x,1/2-y,-z
1/2+x,1/2-y,z
loop_
_atom_site_type_symbol
_atom_site_label
_atom_site_fract_x
_atom_site_fract_y
_atom_site_fract_z
Si Si1 0.301589 0.245202 0.797199
Si Si2 0.770543 0.928864 0.436656
Si Si3 0.416629 0.330636 0.690333
Si Si4 0.579719 0.881934 0.936340
O O1 0.241029 0.295539 0.668481
O O2 0.436290 0.184093 0.829880
O O3 0.043480 0.223745 0.694852
O O4 0.500000 0.275923 0.000000
O O5 0.754709 0.879576 0.523043
O O6 0.509222 0.927027 0.212456
O O7 0.000000 0.909878 0.500000
O O8 0.806676 0.000000 0.502614
O O9 0.623636 0.370812 0.881196
O O10 0.500000 0.911892 0.000000
#
# Coordination Sequence:
#
# PCOD8100908 Si02
#       4
#     8   8   8   8
#     4   9  17  33  56  83 114 141 177 223 280 337
#     4  11  21  34  52  80 113 146 189 230 267 319
#     4  10  20  36  55  86 114 143 178 226 280 331
#     4   9  17  32  49  77 109 141 174 222 278 322
#
# _framework density 22.306004999999999
#
# number of rings (size 3 to 8) (size 9 to 14) (size 15 to 20)
#    0.000    2.750    5.000    3.000    0.000    2.500 
#    0.000    0.000    0.000    0.750    0.000   10.500 
#    0.000    0.000    0.000    0.000    0.000    0.000 
#
# Total GULP energy -198325.445630 kJ/mol
# GULP energy per Si atom -12395.340352 kJ/mol
# Density = 2.225524 g / cm^3
# Si number density = 22.306005 Si / 1000 Ang^3
#
#
#
# Elastic Constant Matrix: (Units=GPa)
#
#
# Indices 1 2 3 4 5 6 
#
# 1 47.3600 49.7531 37.8871 0.0000 -17.6907 -0.0005
# 2 49.7531 84.3471 49.1164 0.0000 -35.8872 -0.0001
# 3 37.8871 49.1164 116.7810 -0.0002 -22.5988 -0.0004
# 4 0.0000 0.0000 -0.0002 31.8711 -0.0001 -13.3484
# 5 -17.6907 -35.8872 -22.5988 -0.0001 27.3095 -0.0004
# 6 -0.0005 -0.0001 -0.0004 -13.3484 -0.0004 7.9753
#
#
#
# Elastic Compliance Matrix: (Units=1/GPa)
#
#
# Indices 1 2 3 4 5 6 
#
# 1 0.062493 -0.041051 -0.006685 0.000003 -0.018995 0.000007
# 2 -0.041051 0.056958 -0.001547 0.000001 0.046975 0.000002
# 3 -0.006685 -0.001547 0.012086 0.000001 0.003639 0.000002
# 4 0.000003 0.000001 0.000001 0.104937 0.000007 0.175637
# 5 -0.018995 0.046975 0.003639 0.000007 0.089054 0.000016
# 6 0.000007 0.000002 0.000002 0.175637 0.000016 0.419355
#
#
# Mechanical properties :
#
#
# Convention : Reuss Voigt Hill
#
# Bulk Modulus (GPa) = 30.32960 58.00016 44.16488
# Shear Modulus (GPa) = 5.85179 20.87993 13.36586
#
# Velocity S-wave (km/s) = 1.62145 3.06284 2.45052
# Velocity P-wave (km/s) = 4.13909 6.21019 5.27724
#
# Compressibility (1/GPa) = 0.03297109
#
# Stress axis : x y z
#
# Youngs Moduli (GPa) = 16.00181 17.55683 82.73701
#
# Poissons Ratio (x) = 0.72073 0.55307
# Poissons Ratio (y) = 0.65690 0.12799
# Poissons Ratio (z) = 0.10697 0.02716
#
# Static dielectric constant tensor:
#      x y z
#    x 3.532080 0.000000 -0.218620 
#    y 0.000000 3.660930 0.000000 
#    z -0.218620 0.000000 4.119770 
# 
# 
# High freq. dielectric constant tensor:
#      x y z
#    x 1.826820 0.000000 -0.015590 
#    y 0.000000 1.845320 0.000000 
#    z -0.015590 0.000000 1.890140 
# 
# From -- ./inp_files/87596.got.cif
#   From: 2010.06.25/outbox.cif.g09.slc.cpg/sg12_44_cif.got.tgz:87596.got - 2010.06.28 00:19:55.
