data_PCOD8100784
_publ_section_title
;
Structure prediction by ZEFSAII (Michael W. Deem and Ramdas Pophale) SiO2 
 PCOD8100784
Probable space group: C 2/M
;
_chemical_formula_sum "Si O2"
_cell_formula_units_Z 56
_cell_length_a 14.436733
_cell_length_b 9.109319
_cell_length_c 25.807551
_cell_angle_alpha 90.000000
_cell_angle_beta 66.975378
_cell_angle_gamma 90.000000
_cell_volume 3123.549873
_symmetry_space_group_name_H-M "C 2/M"
_symmetry_group_IT_number 12
_symmetry_cell_setting 'monoclinic'
loop_
_space_group_symop_operation_xyz
x,y,z
-x,y,-z
-x,-y,-z
x,-y,z
1/2+x,1/2+y,z
1/2-x,1/2+y,-z
1/2-x,1/2-y,-z
1/2+x,1/2-y,z
loop_
_atom_site_type_symbol
_atom_site_label
_atom_site_fract_x
_atom_site_fract_y
_atom_site_fract_z
Si Si1 0.060720 0.328159 0.436836
Si Si2 0.666177 0.327907 0.268912
Si Si3 0.268382 0.174283 0.141141
Si Si4 0.979850 0.332098 0.060031
Si Si5 0.026583 0.672127 0.654262
Si Si6 0.253356 0.827438 0.359578
Si Si7 0.692213 0.830475 0.058700
O O1 0.082837 0.500000 0.435126
O O2 0.168300 0.248278 0.413198
O O3 0.000000 0.271945 0.500000
O O4 0.993458 0.288553 0.401403
O O5 0.645300 0.500000 0.272077
O O6 0.727274 0.273206 0.205505
O O7 0.558094 0.249430 0.292405
O O8 0.733579 0.285174 0.303989
O O9 0.382884 0.233102 0.110559
O O10 0.206090 0.251867 0.109965
O O11 0.258010 0.000000 0.137543
O O12 0.953276 0.500000 0.053344
O O13 0.073737 0.315546 0.076666
O O14 0.000000 0.252926 0.000000
O O15 0.018361 0.500000 0.666553
O O16 0.136709 0.730468 0.647077
O O17 0.245318 0.000000 0.370724
O O18 0.726700 0.000000 0.052476
O O19 0.750000 0.750000 0.000000
#
# Coordination Sequence:
#
# PCOD8100784 Si02
#       7
#     8   8   8   8   8   8   8
#     4   9  18  32  49  74 108 141 170 206 258 308
#     4   9  19  34  52  73  98 129 166 211 256 299
#     4  10  20  36  54  73 100 131 165 205 251 304
#     4   9  17  32  53  73  96 130 163 192 240 303
#     4   9  18  33  53  74 101 135 171 213 252 296
#     4   9  18  33  52  74  99 133 176 215 251 292
#     4  11  21  34  54  77 100 129 164 201 245 298
#
# _framework density 17.928318000000001
#
# number of rings (size 3 to 8) (size 9 to 14) (size 15 to 20)
#    0.000    2.571    1.429    0.429    0.000    3.143 
#    0.000    5.000    0.000    0.000    0.000    0.000 
#    0.000    0.000    0.000    0.000    0.000    0.000 
#
# Total GULP energy -347165.270119 kJ/mol
# GULP energy per Si atom -12398.759647 kJ/mol
# Density = 1.788751 g / cm^3
# Si number density = 17.928318 Si / 1000 Ang^3
#
#
#
# Elastic Constant Matrix: (Units=GPa)
#
#
# Indices 1 2 3 4 5 6 
#
# 1 135.4676 31.7910 77.9079 0.0000 -19.3119 0.0000
# 2 31.7910 34.2569 41.2145 0.0000 -4.6646 0.0000
# 3 77.9079 41.2145 173.3699 0.0000 -17.4510 0.0000
# 4 0.0000 0.0000 0.0000 26.9932 0.0000 -0.7956
# 5 -19.3119 -4.6646 -17.4510 0.0000 25.0878 0.0000
# 6 0.0000 0.0000 0.0000 -0.7956 0.0000 26.1182
#
#
#
# Elastic Compliance Matrix: (Units=1/GPa)
#
#
# Indices 1 2 3 4 5 6 
#
# 1 0.011378 -0.006058 -0.003123 0.000000 0.005460 0.000000
# 2 -0.006058 0.044129 -0.007970 0.000000 -0.002002 0.000000
# 3 -0.003123 -0.007970 0.009328 0.000000 0.002603 0.000000
# 4 0.000000 0.000000 0.000000 0.037080 0.000000 0.001129
# 5 0.005460 -0.002002 0.002603 0.000000 0.045501 0.000000
# 6 0.000000 0.000000 0.000000 0.001129 0.000000 0.038322
#
#
# Mechanical properties :
#
#
# Convention : Reuss Voigt Hill
#
# Bulk Modulus (GPa) = 32.75144 71.65792 52.20468
# Shear Modulus (GPa) = 21.71860 28.45189 25.08525
#
# Velocity S-wave (km/s) = 3.48431 3.98801 3.74464
# Velocity P-wave (km/s) = 5.87324 7.82698 6.91941
#
# Compressibility (1/GPa) = 0.03053301
#
# Stress axis : x y z
#
# Youngs Moduli (GPa) = 87.88879 22.66082 107.20224
#
# Poissons Ratio (x) = 0.13728 0.33483
# Poissons Ratio (y) = 0.53242 0.85439
# Poissons Ratio (z) = 0.27450 0.18060
#
# Static dielectric constant tensor:
#      x y z
#    x 2.755100 0.000000 -0.247170 
#    y 0.000000 3.156590 0.000000 
#    z -0.247170 0.000000 3.401430 
# 
# 
# High freq. dielectric constant tensor:
#      x y z
#    x 1.699990 0.000000 -0.003980 
#    y 0.000000 1.674560 0.000000 
#    z -0.003980 0.000000 1.697490 
# 
# From -- ./inp_files/337866.got.cif
#   From: 2010.06.25/outbox.cif.g09.slc.cpg/sg12_169_cif.got.tgz:337866.got - 2010.06.28 00:19:55.
