data_PCOD8100258
_publ_section_title
;
Structure prediction by ZEFSAII (Michael W. Deem and Ramdas Pophale) SiO2 
 PCOD8100258
Probable space group: C 2/M
;
_chemical_formula_sum "Si O2"
_cell_formula_units_Z 64
_cell_length_a 22.235826
_cell_length_b 8.771099
_cell_length_c 24.299912
_cell_angle_alpha 90.000000
_cell_angle_beta 46.121769
_cell_angle_gamma 90.000000
_cell_volume 3416.138752
_symmetry_space_group_name_H-M "C 2/M"
_symmetry_group_IT_number 12
_symmetry_cell_setting 'monoclinic'
loop_
_space_group_symop_operation_xyz
x,y,z
-x,y,-z
-x,-y,-z
x,-y,z
1/2+x,1/2+y,z
1/2-x,1/2+y,-z
1/2-x,1/2-y,-z
1/2+x,1/2-y,z
loop_
_atom_site_type_symbol
_atom_site_label
_atom_site_fract_x
_atom_site_fract_y
_atom_site_fract_z
Si Si1 0.101878 0.822015 0.780738
Si Si2 0.974962 0.823042 0.956306
Si Si3 0.058223 0.829602 0.414914
Si Si4 0.529449 0.819609 0.210760
Si Si5 0.007863 0.679019 0.644226
Si Si6 0.158513 0.181374 0.047600
Si Si7 0.187968 0.319637 0.496703
Si Si8 0.264419 0.671683 0.646488
O O1 0.194946 0.757621 0.726787
O O2 0.055159 0.792752 0.867695
O O3 0.058362 0.726038 0.760185
O O4 0.101206 0.000000 0.765870
O O5 0.890818 0.761219 0.977320
O O6 0.958428 0.000000 0.976798
O O7 0.000000 0.747405 0.000000
O O8 0.154123 0.833206 0.368670
O O9 0.000000 0.757336 0.500000
O O10 0.056643 0.727804 0.361519
O O11 0.024463 0.000000 0.424026
O O12 0.524906 0.761070 0.276419
O O13 0.604411 0.730016 0.134361
O O14 0.544625 0.000000 0.195983
O O15 0.014969 0.500000 0.643252
O O16 0.097366 0.747316 0.569854
O O17 0.165691 0.000000 0.041415
O O18 0.250000 0.250000 0.000000
O O19 0.189545 0.500000 0.498675
O O20 0.250000 0.250000 0.500000
O O21 0.216552 0.268486 0.419070
O O22 0.235828 0.500000 0.649138
#
# Coordination Sequence:
#
# PCOD8100258 Si02
#       8
#     8   8   8   8   8   8   8   8
#     4  10  20  35  58  86 112 145 186 229 284 337
#     4   8  16  34  59  85 113 146 186 231 280 340
#     4  10  21  38  57  76 104 147 188 228 281 333
#     4  10  20  37  59  84 115 148 185 231 284 337
#     4  10  22  37  55  79 106 140 184 230 277 331
#     4  10  20  36  60  88 119 154 193 235 287 345
#     4  11  22  35  54  81 109 140 181 229 278 329
#     4  11  22  37  55  77 109 146 186 229 278 332
#
# _framework density 18.734601999999999
#
# number of rings (size 3 to 8) (size 9 to 14) (size 15 to 20)
#    0.000    2.000    1.250    3.375    0.000    3.750 
#    2.250    0.000    0.000   12.750    0.000    0.000 
#    0.000    0.000    0.000    0.000    0.000    0.000 
#
# Total GULP energy -396673.587606 kJ/mol
# GULP energy per Si atom -12396.049613 kJ/mol
# Density = 1.869196 g / cm^3
# Si number density = 18.734602 Si / 1000 Ang^3
#
#
#
# Elastic Constant Matrix: (Units=GPa)
#
#
# Indices 1 2 3 4 5 6 
#
# 1 121.7053 29.7192 70.9152 -0.0005 6.1662 0.0008
# 2 29.7192 50.3914 33.1083 -0.0012 -0.4460 0.0018
# 3 70.9152 33.1083 113.3642 -0.0002 1.8002 0.0003
# 4 -0.0005 -0.0012 -0.0002 29.3155 0.0001 -2.9977
# 5 6.1662 -0.4460 1.8002 0.0001 38.3835 -0.0003
# 6 0.0008 0.0018 0.0003 -2.9977 -0.0003 30.1822
#
#
#
# Elastic Compliance Matrix: (Units=1/GPa)
#
#
# Indices 1 2 3 4 5 6 
#
# 1 0.013399 -0.003008 -0.007474 0.000000 -0.001837 0.000000
# 2 -0.003008 0.025247 -0.005508 0.000001 0.001035 -0.000001
# 3 -0.007474 -0.005508 0.015099 0.000000 0.000429 0.000000
# 4 0.000000 0.000001 0.000000 0.034462 0.000000 0.003423
# 5 -0.001837 0.001035 0.000429 0.000000 0.026340 0.000000
# 6 0.000000 -0.000001 0.000000 0.003423 0.000000 0.033472
#
#
# Mechanical properties :
#
#
# Convention : Reuss Voigt Hill
#
# Bulk Modulus (GPa) = 45.94791 61.43847 53.69319
# Shear Modulus (GPa) = 26.70175 29.69079 28.19627
#
# Velocity S-wave (km/s) = 3.77936 3.98529 3.88369
# Velocity P-wave (km/s) = 6.60482 7.35133 6.98805
#
# Compressibility (1/GPa) = 0.02176378
#
# Stress axis : x y z
#
# Youngs Moduli (GPa) = 74.63087 39.60900 66.23140
#
# Poissons Ratio (x) = 0.11914 0.49503
# Poissons Ratio (y) = 0.22448 0.36482
# Poissons Ratio (z) = 0.55781 0.21817
#
# Static dielectric constant tensor:
#      x y z
#    x 3.510350 0.000000 -0.026820 
#    y 0.000000 3.506310 0.000000 
#    z -0.026820 0.000000 3.532270 
# 
# 
# High freq. dielectric constant tensor:
#      x y z
#    x 1.731440 0.000000 -0.001790 
#    y 0.000000 1.721210 0.000000 
#    z -0.001790 0.000000 1.727660 
# 
# From -- ./inp_files/345972.got.cif
#   From: 2010.06.25/outbox.cif.g09.slc.cpg/sg12_173_cif.got.tgz:345972.got - 2010.06.28 00:19:55.
