data_PCOD8100322
_publ_section_title
;
Structure prediction by ZEFSAII (Michael W. Deem and Ramdas Pophale) SiO2 
 PCOD8100322
Probable space group: C 2/M
;
_chemical_formula_sum "Si O2"
_cell_formula_units_Z 40
_cell_length_a 17.971454
_cell_length_b 8.651642
_cell_length_c 13.601156
_cell_angle_alpha 90.000000
_cell_angle_beta 71.514138
_cell_angle_gamma 90.000000
_cell_volume 2005.626242
_symmetry_space_group_name_H-M "C 2/M"
_symmetry_group_IT_number 12
_symmetry_cell_setting 'monoclinic'
loop_
_space_group_symop_operation_xyz
x,y,z
-x,y,-z
-x,-y,-z
x,-y,z
1/2+x,1/2+y,z
1/2-x,1/2+y,-z
1/2-x,1/2-y,-z
1/2+x,1/2-y,z
loop_
_atom_site_type_symbol
_atom_site_label
_atom_site_fract_x
_atom_site_fract_y
_atom_site_fract_z
Si Si1 0.586721 0.673311 0.506204
Si Si2 0.267241 0.819038 0.098424
Si Si3 0.360321 0.180978 0.705979
Si Si4 0.074051 0.821153 0.902098
Si Si5 0.469936 0.820222 0.282642
O O1 0.500000 0.674411 0.500000
O O2 0.613941 0.500000 0.521055
O O3 0.644530 0.742752 0.399879
O O4 0.588370 0.778199 0.603251
O O5 0.211819 0.742062 0.201737
O O6 0.356473 0.787075 0.089661
O O7 0.250945 0.000000 0.102596
O O8 0.250000 0.750000 0.000000
O O9 0.440896 0.223333 0.727484
O O10 0.352692 0.000000 0.694215
O O11 0.053733 0.784324 0.798692
O O12 0.098529 0.000000 0.901264
O O13 0.000000 0.781167 0.000000
O O14 0.460783 0.000000 0.260608
#
# Coordination Sequence:
#
# PCOD8100322 Si02
#       5
#     8   8   8   8   8
#     4   9  17  31  54  84 117 153 193 234 278 332
#     4  12  25  41  61  85 115 150 190 235 286 341
#     4  10  20  36  59  87 119 153 192 236 282 335
#     4  11  24  41  61  85 114 149 190 236 287 342
#     4  10  20  35  58  87 118 153 192 235 283 335
#
# _framework density 19.943897
#
# number of rings (size 3 to 8) (size 9 to 14) (size 15 to 20)
#    0.000    1.600    0.000    5.400    0.000    9.600 
#    0.000    1.000    0.000    0.000    0.000    0.000 
#    0.000    0.000    0.000    0.000    0.000    0.000 
#
# Total GULP energy -248097.345748 kJ/mol
# GULP energy per Si atom -12404.867287 kJ/mol
# Density = 1.989850 g / cm^3
# Si number density = 19.943897 Si / 1000 Ang^3
#
#
#
# Elastic Constant Matrix: (Units=GPa)
#
#
# Indices 1 2 3 4 5 6 
#
# 1 64.2195 11.5495 36.9441 0.0000 -5.5537 0.0000
# 2 11.5495 25.9378 0.8547 0.0000 5.2370 0.0000
# 3 36.9441 0.8547 134.5060 0.0000 -9.6978 0.0000
# 4 0.0000 0.0000 0.0000 34.2666 0.0000 2.3920
# 5 -5.5537 5.2370 -9.6978 0.0000 27.6906 0.0000
# 6 0.0000 0.0000 0.0000 2.3920 0.0000 29.0625
#
#
#
# Elastic Compliance Matrix: (Units=1/GPa)
#
#
# Indices 1 2 3 4 5 6 
#
# 1 0.020794 -0.009926 -0.005347 0.000000 0.004175 0.000000
# 2 -0.009926 0.044911 0.001729 0.000000 -0.009879 0.000000
# 3 -0.005347 0.001729 0.009019 0.000000 0.001759 0.000000
# 4 0.000000 0.000000 0.000000 0.029352 0.000000 -0.002416
# 5 0.004175 -0.009879 0.001759 0.000000 0.039435 0.000000
# 6 0.000000 0.000000 0.000000 -0.002416 0.000000 0.034607
#
#
# Mechanical properties :
#
#
# Convention : Reuss Voigt Hill
#
# Bulk Modulus (GPa) = 20.99280 35.92888 28.46084
# Shear Modulus (GPa) = 22.61562 29.89160 26.25361
#
# Velocity S-wave (km/s) = 3.37109 3.87561 3.63212
# Velocity P-wave (km/s) = 5.06962 6.17100 5.64723
#
# Compressibility (1/GPa) = 0.04763537
#
# Stress axis : x y z
#
# Youngs Moduli (GPa) = 48.09096 22.26614 110.87480
#
# Poissons Ratio (x) = 0.22101 0.59288
# Poissons Ratio (y) = 0.47734 -0.19166
# Poissons Ratio (z) = 0.25716 -0.03849
#
# Static dielectric constant tensor:
#      x y z
#    x 3.551130 0.000000 -0.169300 
#    y 0.000000 3.417180 0.000000 
#    z -0.169300 0.000000 3.916600 
# 
# 
# High freq. dielectric constant tensor:
#      x y z
#    x 1.753030 0.000000 -0.006110 
#    y 0.000000 1.793830 0.000000 
#    z -0.006110 0.000000 1.798090 
# 
# From -- ./inp_files/151681.got.cif
#   From: 2010.06.25/outbox.cif.g09.slc.cpg/sg12_76_cif.got.tgz:151681.got - 2010.06.28 00:19:55.
