data_PCOD8100586
_publ_section_title
;
Structure prediction by ZEFSAII (Michael W. Deem and Ramdas Pophale) SiO2 
 PCOD8100586
Probable space group: C 2/M
;
_chemical_formula_sum "Si O2"
_cell_formula_units_Z 64
_cell_length_a 12.816638
_cell_length_b 13.848124
_cell_length_c 20.675562
_cell_angle_alpha 90.000000
_cell_angle_beta 61.904963
_cell_angle_gamma 90.000000
_cell_volume 3237.229719
_symmetry_space_group_name_H-M "C 2/M"
_symmetry_group_IT_number 12
_symmetry_cell_setting 'monoclinic'
loop_
_space_group_symop_operation_xyz
x,y,z
-x,y,-z
-x,-y,-z
x,-y,z
1/2+x,1/2+y,z
1/2-x,1/2+y,-z
1/2-x,1/2-y,-z
1/2+x,1/2-y,z
loop_
_atom_site_type_symbol
_atom_site_label
_atom_site_fract_x
_atom_site_fract_y
_atom_site_fract_z
Si Si1 0.345437 0.782510 0.832961
Si Si2 0.051080 0.109271 0.670254
Si Si3 0.488476 0.611686 0.826230
Si Si4 0.913484 0.784176 0.084748
Si Si5 0.310669 0.304654 0.709190
Si Si6 0.068053 0.613985 0.824549
Si Si7 0.631596 0.271796 0.450417
Si Si8 0.251350 0.386590 0.481403
O O1 0.371658 0.677435 0.856626
O O2 0.218830 0.808919 0.901275
O O3 0.325917 0.775964 0.761020
O O4 0.448666 0.858913 0.819684
O O5 0.142477 0.158728 0.594514
O O6 0.066498 0.144164 0.740466
O O7 0.915505 0.118029 0.687524
O O8 0.090257 0.000000 0.655046
O O9 0.451130 0.500000 0.833316
O O10 0.560204 0.633929 0.869683
O O11 0.927471 0.676390 0.110538
O O12 0.000000 0.796667 0.000000
O O13 0.329490 0.254165 0.634788
O O14 0.184384 0.359024 0.749134
O O15 0.065859 0.500000 0.841236
O O16 0.500000 0.311864 0.500000
O O17 0.719048 0.353440 0.454466
O O18 0.637491 0.169613 0.487137
O O19 0.228173 0.500000 0.486121
#
# Coordination Sequence:
#
# PCOD8100586 Si02
#       8
#     8   8   8   8   8   8   8   8
#     4   9  21  37  58  83 116 151 187 239 281 341
#     4   9  17  33  57  82 107 142 190 240 283 335
#     4   9  19  35  58  84 111 148 191 235 284 337
#     4  10  22  39  58  86 120 154 188 233 284 342
#     4  10  20  35  60  82 114 147 194 239 287 337
#     4  10  22  39  59  86 117 154 193 237 288 341
#     4  11  23  38  59  84 116 157 193 238 292 344
#     4  10  23  38  55  83 116 150 193 239 288 343
#
# _framework density 19.76999
#
# number of rings (size 3 to 8) (size 9 to 14) (size 15 to 20)
#    0.000    2.250    1.250    0.375    7.000    7.500 
#    0.000    1.875    0.000    0.000    0.000    0.000 
#    0.000    0.000    0.000    0.000    0.000    0.000 
#
# Total GULP energy -396561.113802 kJ/mol
# GULP energy per Si atom -12392.534806 kJ/mol
# Density = 1.972499 g / cm^3
# Si number density = 19.769990 Si / 1000 Ang^3
#
#
#
# Elastic Constant Matrix: (Units=GPa)
#
#
# Indices 1 2 3 4 5 6 
#
# 1 83.0985 13.0577 26.8872 0.0000 3.0279 0.0000
# 2 13.0577 85.3776 9.8036 0.0000 12.9204 0.0000
# 3 26.8872 9.8036 62.2039 0.0000 -3.8325 0.0000
# 4 0.0000 0.0000 0.0000 17.9389 0.0000 0.2070
# 5 3.0279 12.9204 -3.8325 0.0000 24.5801 0.0000
# 6 0.0000 0.0000 0.0000 0.2070 0.0000 17.7213
#
#
#
# Elastic Compliance Matrix: (Units=1/GPa)
#
#
# Indices 1 2 3 4 5 6 
#
# 1 0.014272 -0.001163 -0.006115 0.000000 -0.002100 0.000000
# 2 -0.001163 0.013198 -0.002015 0.000000 -0.007108 0.000000
# 3 -0.006115 -0.002015 0.019334 0.000000 0.004827 0.000000
# 4 0.000000 0.000000 0.000000 0.055752 0.000000 -0.000651
# 5 -0.002100 -0.007108 0.004827 0.000000 0.045431 0.000000
# 6 0.000000 0.000000 0.000000 -0.000651 0.000000 0.056437
#
#
# Mechanical properties :
#
#
# Convention : Reuss Voigt Hill
#
# Bulk Modulus (GPa) = 35.43895 36.68632 36.06264
# Shear Modulus (GPa) = 21.51314 24.11016 22.81165
#
# Velocity S-wave (km/s) = 3.30232 3.49597 3.40053
# Velocity P-wave (km/s) = 5.70132 5.90700 5.80507
#
# Compressibility (1/GPa) = 0.02821754
#
# Stress axis : x y z
#
# Youngs Moduli (GPa) = 70.06874 75.77117 51.72134
#
# Poissons Ratio (x) = 0.08810 0.31628
# Poissons Ratio (y) = 0.08147 0.10424
# Poissons Ratio (z) = 0.42847 0.15271
#
# Static dielectric constant tensor:
#      x y z
#    x 3.716700 0.000000 -0.024330 
#    y 0.000000 3.330010 0.000000 
#    z -0.024330 0.000000 3.644050 
# 
# 
# High freq. dielectric constant tensor:
#      x y z
#    x 1.776890 0.000000 0.003080 
#    y 0.000000 1.749310 0.000000 
#    z 0.003080 0.000000 1.764700 
# 
# From -- ./inp_files/305419.got.cif
#   From: 2010.06.25/outbox.cif.g09.slc.cpg/sg12_153_cif.got.tgz:305419.got - 2010.06.28 00:19:55.
