data_PCOD8100189
_publ_section_title
;
Structure prediction by ZEFSAII (Michael W. Deem and Ramdas Pophale) SiO2 
 PCOD8100189
Probable space group: C 2/M
;
_chemical_formula_sum "Si O2"
_cell_formula_units_Z 64
_cell_length_a 18.411078
_cell_length_b 8.786029
_cell_length_c 31.984134
_cell_angle_alpha 90.000000
_cell_angle_beta 141.876348
_cell_angle_gamma 90.000000
_cell_volume 3194.077192
_symmetry_space_group_name_H-M "C 2/M"
_symmetry_group_IT_number 12
_symmetry_cell_setting 'monoclinic'
loop_
_space_group_symop_operation_xyz
x,y,z
-x,y,-z
-x,-y,-z
x,-y,z
1/2+x,1/2+y,z
1/2-x,1/2+y,-z
1/2-x,1/2-y,-z
1/2+x,1/2-y,z
loop_
_atom_site_type_symbol
_atom_site_label
_atom_site_fract_x
_atom_site_fract_y
_atom_site_fract_z
Si Si1 0.960068 0.819336 0.801254
Si Si2 0.452260 0.822439 0.314345
Si Si3 0.618456 0.671561 0.038805
Si Si4 0.367188 0.821775 0.184293
Si Si5 0.129949 0.832092 0.948054
Si Si6 0.705644 0.680013 0.436747
Si Si7 0.864387 0.176928 0.438151
Si Si8 0.708620 0.678055 0.688356
O O1 0.839035 0.735285 0.754396
O O2 0.025215 0.766961 0.788540
O O3 0.033779 0.757850 0.874323
O O4 0.939273 0.000000 0.790828
O O5 0.376026 0.792570 0.237866
O O6 0.575916 0.737365 0.366717
O O7 0.380673 0.764249 0.321699
O O8 0.478455 0.000000 0.331886
O O9 0.621170 0.500000 0.058380
O O10 0.742306 0.745638 0.110034
O O11 0.500000 0.759160 0.000000
O O12 0.592008 0.670334 0.978206
O O13 0.379045 0.000000 0.178501
O O14 0.150522 0.000000 0.939839
O O15 0.250000 0.750000 0.000000
O O16 0.702690 0.500000 0.440248
O O17 0.750000 0.750000 0.500000
O O18 0.794092 0.724035 0.439780
O O19 0.819961 0.217335 0.372178
O O20 0.000000 0.223354 0.500000
O O21 0.846109 0.000000 0.441115
O O22 0.697654 0.500000 0.692818
#
# Coordination Sequence:
#
# PCOD8100189 Si02
#       8
#     8   8   8   8   8   8   8   8
#     4  11  23  37  58  87 121 158 202 256 308 362
#     4  11  24  41  63  92 126 161 206 255 304 362
#     4   9  18  33  57  83 111 150 199 248 301 364
#     4  10  21  38  61  86 117 161 204 249 306 369
#     4  10  20  35  58  84 113 150 198 252 305 366
#     4  12  25  42  67  96 129 167 206 249 302 357
#     4  10  22  42  67  94 125 161 205 253 302 359
#     4  11  24  41  63  91 124 164 205 249 306 365
#
# _framework density 20.037085999999999
#
# number of rings (size 3 to 8) (size 9 to 14) (size 15 to 20)
#    0.000    1.500    1.250    3.750    1.750    6.750 
#    0.000    0.000    0.000    0.750    0.000    0.000 
#    0.000    0.000    0.000    0.000    0.000    0.000 
#
# Total GULP energy -396751.453024 kJ/mol
# GULP energy per Si atom -12398.482907 kJ/mol
# Density = 1.999148 g / cm^3
# Si number density = 20.037086 Si / 1000 Ang^3
#
#
#
# Elastic Constant Matrix: (Units=GPa)
#
#
# Indices 1 2 3 4 5 6 
#
# 1 133.8591 51.9483 57.4860 0.0000 7.9526 0.0001
# 2 51.9483 77.0716 52.2197 0.0000 -11.0940 0.0000
# 3 57.4860 52.2197 132.9846 0.0000 5.0482 0.0001
# 4 0.0000 0.0000 0.0000 25.2094 0.0000 -3.2048
# 5 7.9526 -11.0940 5.0482 0.0000 32.3514 -0.0001
# 6 0.0001 0.0000 0.0001 -3.2048 -0.0001 24.2759
#
#
#
# Elastic Compliance Matrix: (Units=1/GPa)
#
#
# Indices 1 2 3 4 5 6 
#
# 1 0.011320 -0.007007 -0.001957 0.000000 -0.004880 0.000000
# 2 -0.007007 0.023849 -0.006752 0.000000 0.010954 0.000000
# 3 -0.001957 -0.006752 0.011153 0.000000 -0.003575 0.000000
# 4 0.000000 0.000000 0.000000 0.040345 0.000000 0.005326
# 5 -0.004880 0.010954 -0.003575 0.000000 0.036424 0.000000
# 6 0.000000 0.000000 0.000000 0.005326 0.000000 0.041896
#
#
# Mechanical properties :
#
#
# Convention : Reuss Voigt Hill
#
# Bulk Modulus (GPa) = 67.15494 74.13592 70.64543
# Shear Modulus (GPa) = 24.82848 28.51810 26.67329
#
# Velocity S-wave (km/s) = 3.52394 3.77671 3.65251
# Velocity P-wave (km/s) = 7.08136 7.48984 7.28846
#
# Compressibility (1/GPa) = 0.01489094
#
# Stress axis : x y z
#
# Youngs Moduli (GPa) = 88.33981 41.93016 89.66534
#
# Poissons Ratio (x) = 0.29379 0.17546
# Poissons Ratio (y) = 0.61896 0.60542
# Poissons Ratio (z) = 0.17286 0.28311
#
# Static dielectric constant tensor:
#      x y z
#    x 3.484790 0.000000 1.053640 
#    y 0.000000 3.576730 -0.000020 
#    z 1.053640 -0.000020 -3.138830 
# 
# 
# High freq. dielectric constant tensor:
#      x y z
#    x 1.794050 0.000000 0.000920 
#    y 0.000000 1.768100 0.000000 
#    z 0.000920 0.000000 1.803400 
# 
# From -- ./inp_files/378451.got.cif
#   From: 2010.06.25/outbox.cif.g09.slc.cpg/sg12_190_cif.got.tgz:378451.got - 2010.06.28 00:19:55.
