data_PCOD8100210
_publ_section_title
;
Structure prediction by ZEFSAII (Michael W. Deem and Ramdas Pophale) SiO2 
 PCOD8100210
Probable space group: C 2/M
;
_chemical_formula_sum "Si O2"
_cell_formula_units_Z 56
_cell_length_a 19.000919
_cell_length_b 8.897928
_cell_length_c 18.537473
_cell_angle_alpha 90.000000
_cell_angle_beta 115.390868
_cell_angle_gamma 90.000000
_cell_volume 2831.365035
_symmetry_space_group_name_H-M "C 2/M"
_symmetry_group_IT_number 12
_symmetry_cell_setting 'monoclinic'
loop_
_space_group_symop_operation_xyz
x,y,z
-x,y,-z
-x,-y,-z
x,-y,z
1/2+x,1/2+y,z
1/2-x,1/2+y,-z
1/2-x,1/2-y,-z
1/2+x,1/2-y,z
loop_
_atom_site_type_symbol
_atom_site_label
_atom_site_fract_x
_atom_site_fract_y
_atom_site_fract_z
Si Si1 0.671249 0.824790 0.488501
Si Si2 0.083050 0.826524 0.568023
Si Si3 0.593733 0.327574 0.328456
Si Si4 0.449544 0.826911 0.197434
Si Si5 0.968397 0.673168 0.909786
Si Si6 0.159870 0.825438 0.750150
Si Si7 0.320023 0.674084 0.777471
O O1 0.750000 0.750000 0.500000
O O2 0.648922 0.771789 0.558404
O O3 0.605577 0.776257 0.402956
O O4 0.683455 0.000000 0.494213
O O5 0.094922 0.799315 0.658691
O O6 0.000000 0.772212 0.500000
O O7 0.096398 0.000000 0.554251
O O8 0.590037 0.500000 0.352186
O O9 0.511789 0.282233 0.260391
O O10 0.661705 0.303069 0.299292
O O11 0.460333 0.809292 0.116014
O O12 0.366347 0.766817 0.189867
O O13 0.461457 0.000000 0.225771
O O14 0.941626 0.500000 0.902463
O O15 0.893326 0.770165 0.856187
O O16 0.000000 0.731999 0.000000
O O17 0.244052 0.769134 0.762547
O O18 0.166902 0.000000 0.772905
O O19 0.305534 0.500000 0.789167
#
# Coordination Sequence:
#
# PCOD8100210 Si02
#       7
#     8   8   8   8   8   8   8
#     4  12  24  36  53  77 106 141 184 234 283 330
#     4  10  22  39  57  78 108 147 189 235 286 335
#     4  10  20  36  56  78 107 142 183 229 276 329
#     4  10  20  35  58  85 112 143 180 221 267 325
#     4   9  19  38  63  89 116 145 178 219 271 332
#     4  11  22  36  56  81 113 151 189 231 279 332
#     4  10  21  36  57  84 113 147 187 231 276 326
#
# _framework density 19.778447
#
# number of rings (size 3 to 8) (size 9 to 14) (size 15 to 20)
#    0.000    1.714    0.000    4.714    0.000    7.429 
#    0.000    0.714    0.000    0.000    0.000    0.000 
#    0.000    0.000    0.000    0.000    0.000    0.000 
#
# Total GULP energy -347238.023446 kJ/mol
# GULP energy per Si atom -12401.357980 kJ/mol
# Density = 1.973343 g / cm^3
# Si number density = 19.778447 Si / 1000 Ang^3
#
#
#
# Elastic Constant Matrix: (Units=GPa)
#
#
# Indices 1 2 3 4 5 6 
#
# 1 96.8208 46.5391 18.0398 0.0000 -15.0981 0.0000
# 2 46.5391 105.4495 30.1661 0.0000 -11.0344 0.0000
# 3 18.0398 30.1661 75.5099 0.0000 -12.4981 0.0000
# 4 0.0000 0.0000 0.0000 26.2171 0.0000 -0.5286
# 5 -15.0981 -11.0344 -12.4981 0.0000 24.7529 0.0000
# 6 0.0000 0.0000 0.0000 -0.5286 0.0000 38.1095
#
#
#
# Elastic Compliance Matrix: (Units=1/GPa)
#
#
# Indices 1 2 3 4 5 6 
#
# 1 0.013920 -0.005475 -0.000149 0.000000 0.005974 0.000000
# 2 -0.005475 0.013048 -0.003813 0.000000 0.000552 0.000000
# 3 -0.000149 -0.003813 0.015829 0.000000 0.006201 0.000000
# 4 0.000000 0.000000 0.000000 0.038154 0.000000 0.000529
# 5 0.005974 0.000552 0.006201 0.000000 0.047420 0.000000
# 6 0.000000 0.000000 0.000000 0.000529 0.000000 0.026248
#
#
# Mechanical properties :
#
#
# Convention : Reuss Voigt Hill
#
# Bulk Modulus (GPa) = 41.80494 51.91893 46.86194
# Shear Modulus (GPa) = 27.55304 30.01823 28.78563
#
# Velocity S-wave (km/s) = 3.73645 3.90002 3.81911
# Velocity P-wave (km/s) = 6.30851 6.82550 6.57209
#
# Compressibility (1/GPa) = 0.02392062
#
# Stress axis : x y z
#
# Youngs Moduli (GPa) = 71.84078 76.63786 63.17595
#
# Poissons Ratio (x) = 0.41963 0.00943
# Poissons Ratio (y) = 0.39336 0.24092
# Poissons Ratio (z) = 0.01072 0.29225
#
# Static dielectric constant tensor:
#      x y z
#    x 3.701580 0.000000 -0.363390 
#    y 0.000000 3.859980 0.000000 
#    z -0.363390 0.000000 3.279240 
# 
# 
# High freq. dielectric constant tensor:
#      x y z
#    x 1.777360 0.000000 -0.012480 
#    y 0.000000 1.778850 0.000000 
#    z -0.012480 0.000000 1.752910 
# 
# From -- ./inp_files/275052.got.cif
#   From: 2010.06.25/outbox.cif.g09.slc.cpg/sg12_138_cif.got.tgz:275052.got - 2010.06.28 00:19:55.
