data_PCOD8100894
_publ_section_title
;
Structure prediction by ZEFSAII (Michael W. Deem and Ramdas Pophale) SiO2 
 PCOD8100894
Probable space group: C 2/M
;
_chemical_formula_sum "Si O2"
_cell_formula_units_Z 44
_cell_length_a 22.602668
_cell_length_b 13.141224
_cell_length_c 7.330385
_cell_angle_alpha 90.000000
_cell_angle_beta 86.446153
_cell_angle_gamma 90.000000
_cell_volume 2173.133214
_symmetry_space_group_name_H-M "C 2/M"
_symmetry_group_IT_number 12
_symmetry_cell_setting 'monoclinic'
loop_
_space_group_symop_operation_xyz
x,y,z
-x,y,-z
-x,-y,-z
x,-y,z
1/2+x,1/2+y,z
1/2-x,1/2+y,-z
1/2-x,1/2-y,-z
1/2+x,1/2-y,z
loop_
_atom_site_type_symbol
_atom_site_label
_atom_site_fract_x
_atom_site_fract_y
_atom_site_fract_z
Si Si1 0.823805 0.671014 0.000728
Si Si2 0.808741 0.707341 0.403833
Si Si3 0.742480 0.000000 0.511864
Si Si4 0.884842 0.780659 0.691832
Si Si5 0.265703 0.500000 0.087192
Si Si6 0.646070 0.500000 0.236000
Si Si7 0.553219 0.886510 0.122786
O O1 0.813292 0.732520 0.189319
O O2 0.768699 0.599426 0.972169
O O3 0.829191 0.752397 0.834929
O O4 0.885441 0.608056 0.003341
O O5 0.750000 0.750000 0.500000
O O6 0.804937 0.588246 0.444255
O O7 0.866136 0.757695 0.487881
O O8 0.796639 0.000000 0.642929
O O9 0.771434 0.000000 0.305128
O O10 0.940866 0.706333 0.730281
O O11 0.895799 0.901476 0.717513
O O12 0.330264 0.500000 0.977785
O O13 0.542887 0.000000 0.211597
O O14 0.500000 0.857069 0.000000
#
# Coordination Sequence:
#
# PCOD8100894 Si02
#       7
#     8   8   4   8   4   4   8
#     4  10  20  36  55  82 113 149 188 236 286 334
#     4  12  22  34  52  83 120 157 187 225 278 350
#     4  12  22  30  50  77 118 154 193 217 275 333
#     4  10  23  37  56  81 115 152 191 239 284 338
#     4  12  20  34  55  82 118 161 183 231 281 343
#     4  12  24  36  51  83 119 155 197 220 278 356
#     4   9  19  40  65  85 109 144 193 249 296 332
#
# _framework density 20.247264000000001
#
# number of rings (size 3 to 8) (size 9 to 14) (size 15 to 20)
#    1.091    0.182    6.364    0.000    3.818    1.455 
#    0.000    1.364    0.000    2.182    0.000    1.273 
#    0.000    0.000    0.000    0.000    0.000    0.000 
#
# Total GULP energy -272577.696597 kJ/mol
# GULP energy per Si atom -12389.895300 kJ/mol
# Density = 2.020118 g / cm^3
# Si number density = 20.247264 Si / 1000 Ang^3
#
#
#
# Elastic Constant Matrix: (Units=GPa)
#
#
# Indices 1 2 3 4 5 6 
#
# 1 46.3712 10.3055 -16.8235 0.0000 13.8771 0.0000
# 2 10.3055 124.6775 -5.2304 0.0000 10.9678 0.0000
# 3 -16.8235 -5.2304 87.6823 0.0000 9.2308 0.0000
# 4 0.0000 0.0000 0.0000 17.5905 0.0000 -4.7710
# 5 13.8771 10.9678 9.2308 0.0000 19.4088 0.0000
# 6 0.0000 0.0000 0.0000 -4.7710 0.0000 15.4828
#
#
#
# Elastic Compliance Matrix: (Units=1/GPa)
#
#
# Indices 1 2 3 4 5 6 
#
# 1 0.033489 0.000136 0.009435 0.000000 -0.028508 0.000000
# 2 0.000136 0.008535 0.001109 0.000000 -0.005447 0.000000
# 3 0.009435 0.001109 0.014798 0.000000 -0.014410 0.000000
# 4 0.000000 0.000000 0.000000 0.062033 0.000000 0.019115
# 5 -0.028508 -0.005447 -0.014410 0.000000 0.081838 0.000000
# 6 0.000000 0.000000 0.000000 0.019115 0.000000 0.070478
#
#
# Mechanical properties :
#
#
# Convention : Reuss Voigt Hill
#
# Bulk Modulus (GPa) = 12.79083 26.13711 19.46397
# Shear Modulus (GPa) = 18.12418 28.52840 23.32629
#
# Velocity S-wave (km/s) = 2.99514 3.75774 3.39790
# Velocity P-wave (km/s) = 4.27693 5.63599 5.00283
#
# Compressibility (1/GPa) = 0.07818098
#
# Stress axis : x y z
#
# Youngs Moduli (GPa) = 29.86018 117.16190 67.57551
#
# Poissons Ratio (x) = -0.01588 -0.63757
# Poissons Ratio (y) = -0.00405 -0.07492
# Poissons Ratio (z) = -0.28173 -0.12989
#
# Static dielectric constant tensor:
#      x y z
#    x 2.998080 0.000000 0.028880 
#    y 0.000000 3.721540 0.000000 
#    z 0.028880 0.000000 3.577750 
# 
# 
# High freq. dielectric constant tensor:
#      x y z
#    x 1.741140 0.000000 0.021470 
#    y 0.000000 1.804790 0.000000 
#    z 0.021470 0.000000 1.782160 
# 
# From -- ./inp_files/95332.got.cif
#   From: 2010.06.25/outbox.cif.g09.slc.cpg/sg12_48_cif.got.tgz:95332.got - 2010.06.28 00:19:55.
