data_PCOD8100578
_publ_section_title
;
Structure prediction by ZEFSAII (Michael W. Deem and Ramdas Pophale) SiO2 
 PCOD8100578
Probable space group: C 2/M
;
_chemical_formula_sum "Si O2"
_cell_formula_units_Z 64
_cell_length_a 19.735240
_cell_length_b 13.478667
_cell_length_c 12.394596
_cell_angle_alpha 90.000000
_cell_angle_beta 72.381788
_cell_angle_gamma 90.000000
_cell_volume 3142.372742
_symmetry_space_group_name_H-M "C 2/M"
_symmetry_group_IT_number 12
_symmetry_cell_setting 'monoclinic'
loop_
_space_group_symop_operation_xyz
x,y,z
-x,y,-z
-x,-y,-z
x,-y,z
1/2+x,1/2+y,z
1/2-x,1/2+y,-z
1/2-x,1/2-y,-z
1/2+x,1/2-y,z
loop_
_atom_site_type_symbol
_atom_site_label
_atom_site_fract_x
_atom_site_fract_y
_atom_site_fract_z
Si Si1 0.719094 0.107471 0.990848
Si Si2 0.399274 0.770807 0.849437
Si Si3 0.754940 0.390158 0.267465
Si Si4 0.095327 0.156207 0.356985
Si Si5 0.476682 0.891050 0.133381
Si Si6 0.560645 0.386962 0.607513
Si Si7 0.870442 0.889314 0.022730
Si Si8 0.862066 0.766617 0.241020
O O1 0.676892 0.191591 0.074011
O O2 0.797649 0.100779 0.995744
O O3 0.681411 0.000000 0.024101
O O4 0.721962 0.134910 0.864804
O O5 0.391996 0.750933 0.725269
O O6 0.458832 0.853882 0.824954
O O7 0.420413 0.678297 0.919583
O O8 0.784072 0.500000 0.288981
O O9 0.669675 0.402265 0.318130
O O10 0.789611 0.293724 0.313318
O O11 0.078114 0.175266 0.490568
O O12 0.025202 0.104307 0.337082
O O13 0.409499 0.822370 0.176165
O O14 0.455446 0.000000 0.184352
O O15 0.500000 0.892484 0.000000
O O16 0.590182 0.500000 0.586436
O O17 0.600930 0.326348 0.680290
O O18 0.854065 0.844629 0.148143
O O19 0.904529 0.000000 0.019249
#
# Coordination Sequence:
#
# PCOD8100578 Si02
#       8
#     8   8   8   8   8   8   8   8
#     4  10  20  35  59  93 130 165 201 245 305 379
#     4  12  20  37  60  90 120 157 204 254 303 366
#     4  11  21  37  66  96 125 163 210 260 306 368
#     4  11  23  41  68  90 120 160 219 265 305 359
#     4  11  22  38  59  87 125 163 199 243 303 377
#     4  11  25  45  65  88 123 167 217 263 309 368
#     4  11  22  34  54  89 129 161 194 250 315 374
#     4  12  23  40  59  90 128 164 202 255 319 371
#
# _framework density 20.366775000000001
#
# number of rings (size 3 to 8) (size 9 to 14) (size 15 to 20)
#    0.000    0.875    5.000    3.750    0.000    3.500 
#    0.000    0.625    0.000    3.750    0.000    0.000 
#    0.000    0.000    0.000    0.000    0.000    0.000 
#
# Total GULP energy -396422.586054 kJ/mol
# GULP energy per Si atom -12388.205814 kJ/mol
# Density = 2.032042 g / cm^3
# Si number density = 20.366775 Si / 1000 Ang^3
#
#
#
# Elastic Constant Matrix: (Units=GPa)
#
#
# Indices 1 2 3 4 5 6 
#
# 1 77.0386 33.6665 19.4997 0.0000 8.4995 0.0000
# 2 33.6665 119.5622 37.6231 0.0000 7.0725 0.0000
# 3 19.4997 37.6231 73.9652 0.0000 5.4575 0.0000
# 4 0.0000 0.0000 0.0000 11.1729 0.0000 9.2210
# 5 8.4995 7.0725 5.4575 0.0000 29.4588 0.0000
# 6 0.0000 0.0000 0.0000 9.2210 0.0000 1.1539
#
#
#
# Elastic Compliance Matrix: (Units=1/GPa)
#
#
# Indices 1 2 3 4 5 6 
#
# 1 0.015381 -0.003499 -0.002037 0.000000 -0.003220 0.000000
# 2 -0.003499 0.010817 -0.004524 0.000000 -0.000749 0.000000
# 3 -0.002037 -0.004524 0.016460 0.000000 -0.001375 0.000000
# 4 0.000000 0.000000 0.000000 -0.015997 0.000000 0.127831
# 5 -0.003220 -0.000749 -0.001375 0.000000 0.035309 0.000000
# 6 0.000000 0.000000 0.000000 0.127831 0.000000 -0.154889
#
#
# Mechanical properties :
#
#
# Convention : Reuss Voigt Hill
#
# Bulk Modulus (GPa) = 44.37431 50.23831 47.30631
# Shear Modulus (GPa) = -76.58747 20.34224 -28.12261
#
# Velocity S-wave (km/s) = -6.13887 3.16380 -3.71995
# Velocity P-wave (km/s) = 5.33036 6.16981 2.19701
#
# Compressibility (1/GPa) = 0.02253556
#
# Stress axis : x y z
#
# Youngs Moduli (GPa) = 65.01655 92.44485 60.75386
#
# Poissons Ratio (x) = 0.32350 0.12377
# Poissons Ratio (y) = 0.22752 0.27488
# Poissons Ratio (z) = 0.13246 0.41826
#
# Static dielectric constant tensor:
#      x y z
#    x 3.865390 0.000000 -0.061860 
#    y 0.000000 4.461340 0.000000 
#    z -0.061860 0.000000 3.550510 
# 
# 
# High freq. dielectric constant tensor:
#      x y z
#    x 1.803400 0.000000 -0.002190 
#    y 0.000000 1.802600 0.000000 
#    z -0.002190 0.000000 1.768600 
# 
# From -- ./inp_files/167235.got.cif
#   From: 2010.06.25/outbox.cif.g09.slc.cpg/sg12_84_cif.got.tgz:167235.got - 2010.06.28 00:19:55.
