data_PCOD8100810
_publ_section_title
;
Structure prediction by ZEFSAII (Michael W. Deem and Ramdas Pophale) SiO2 
 PCOD8100810
Probable space group: C 2/M
;
_chemical_formula_sum "Si O2"
_cell_formula_units_Z 60
_cell_length_a 9.608566
_cell_length_b 20.815050
_cell_length_c 15.441183
_cell_angle_alpha 90.000000
_cell_angle_beta 110.209572
_cell_angle_gamma 90.000000
_cell_volume 2898.150620
_symmetry_space_group_name_H-M "C 2/M"
_symmetry_group_IT_number 12
_symmetry_cell_setting 'monoclinic'
loop_
_space_group_symop_operation_xyz
x,y,z
-x,y,-z
-x,-y,-z
x,-y,z
1/2+x,1/2+y,z
1/2-x,1/2+y,-z
1/2-x,1/2-y,-z
1/2+x,1/2-y,z
loop_
_atom_site_type_symbol
_atom_site_label
_atom_site_fract_x
_atom_site_fract_y
_atom_site_fract_z
Si Si1 0.854422 0.869068 0.665790
Si Si2 0.868688 0.071431 0.210626
Si Si3 0.917435 0.240472 0.566746
Si Si4 0.852491 0.427364 0.509902
Si Si5 0.315660 0.295566 0.118180
Si Si6 0.103152 0.681803 0.730345
Si Si7 0.100035 0.428339 0.279863
Si Si8 0.500000 0.242831 0.000000
O O1 0.940334 0.805197 0.655017
O O2 0.778318 0.886845 0.559152
O O3 0.750440 0.851823 0.724651
O O4 0.966482 0.925952 0.714183
O O5 0.858648 0.130891 0.143975
O O6 0.746793 0.082973 0.257211
O O7 0.848730 0.000000 0.163955
O O8 0.750000 0.250000 0.500000
O O9 0.000000 0.214540 0.500000
O O10 0.997639 0.303334 0.624295
O O11 0.835189 0.500000 0.473520
O O12 0.847890 0.421568 0.610940
O O13 0.000000 0.397784 0.500000
O O14 0.354854 0.242603 0.200278
O O15 0.415412 0.284075 0.054788
O O16 0.136635 0.298192 0.068445
O O17 0.020683 0.626558 0.769445
O O18 0.032783 0.500000 0.249020
#
# Coordination Sequence:
#
# PCOD8100810 Si02
#       8
#     8   8   8   8   8   8   8   4
#     4  12  24  36  58  88 123 175 222 274 318 366
#     4  11  25  43  64  94 131 166 209 260 321 387
#     4  12  26  38  54  90 131 172 223 275 320 365
#     4  10  20  36  54  77 120 172 228 276 307 350
#     4  11  23  45  70 102 127 161 201 258 324 391
#     4  12  24  40  66  92 127 172 219 264 321 378
#     4  10  23  39  59  87 126 177 224 269 312 366
#     4  10  24  44  76 102 126 150 198 258 324 404
#
# _framework density 20.702859
#
# number of rings (size 3 to 8) (size 9 to 14) (size 15 to 20)
#    0.000    0.933    4.000    2.800    5.600    0.533 
#    0.000    2.667    0.000    3.200    0.000    0.000 
#    0.000    0.000    0.000    0.000    0.000    0.000 
#
# Total GULP energy -371699.851116 kJ/mol
# GULP energy per Si atom -12389.995037 kJ/mol
# Density = 2.065574 g / cm^3
# Si number density = 20.702859 Si / 1000 Ang^3
#
#
#
# Elastic Constant Matrix: (Units=GPa)
#
#
# Indices 1 2 3 4 5 6 
#
# 1 129.1353 43.0143 26.4545 0.0000 0.1877 0.0000
# 2 43.0143 122.6557 28.2180 0.0000 8.3304 0.0000
# 3 26.4545 28.2180 54.9334 0.0000 8.1995 0.0000
# 4 0.0000 0.0000 0.0000 20.7227 0.0000 4.7644
# 5 0.1877 8.3304 8.1995 0.0000 34.9683 0.0000
# 6 0.0000 0.0000 0.0000 4.7644 0.0000 33.0376
#
#
#
# Elastic Compliance Matrix: (Units=1/GPa)
#
#
# Indices 1 2 3 4 5 6 
#
# 1 0.009287 -0.002578 -0.003350 0.000000 0.001350 0.000000
# 2 -0.002578 0.010004 -0.003672 0.000000 -0.001508 0.000000
# 3 -0.003350 -0.003672 0.022352 0.000000 -0.004348 0.000000
# 4 0.000000 0.000000 0.000000 0.049911 0.000000 -0.007198
# 5 0.001350 -0.001508 -0.004348 0.000000 0.029969 0.000000
# 6 0.000000 0.000000 0.000000 -0.007198 0.000000 0.031307
#
#
# Mechanical properties :
#
#
# Convention : Reuss Voigt Hill
#
# Bulk Modulus (GPa) = 44.55566 55.78867 50.17216
# Shear Modulus (GPa) = 27.85347 31.68154 29.76751
#
# Velocity S-wave (km/s) = 3.67194 3.91615 3.79601
# Velocity P-wave (km/s) = 6.28854 6.88869 6.59545
#
# Compressibility (1/GPa) = 0.02244384
#
# Stress axis : x y z
#
# Youngs Moduli (GPa) = 107.68085 99.95762 44.73792
#
# Poissons Ratio (x) = 0.25768 0.14985
# Poissons Ratio (y) = 0.27758 0.16429
# Poissons Ratio (z) = 0.36068 0.36708
#
# Static dielectric constant tensor:
#      x y z
#    x 6.209340 0.000000 -0.146200 
#    y 0.000000 4.099540 0.000000 
#    z -0.146200 0.000000 3.681600 
# 
# 
# High freq. dielectric constant tensor:
#      x y z
#    x 1.826490 0.000000 -0.001960 
#    y 0.000000 1.820250 0.000000 
#    z -0.001960 0.000000 1.784000 
# 
# From -- ./inp_files/198936.got.cif
#   From: 2010.06.25/outbox.cif.g09.slc.cpg/sg12_100_cif.got.tgz:198936.got - 2010.06.28 00:19:55.
