data_PCOD8100266
_publ_section_title
;
Structure prediction by ZEFSAII (Michael W. Deem and Ramdas Pophale) SiO2 
 PCOD8100266
Probable space group: C 2/M
;
_chemical_formula_sum "Si O2"
_cell_formula_units_Z 56
_cell_length_a 19.145580
_cell_length_b 8.889628
_cell_length_c 23.716723
_cell_angle_alpha 90.000000
_cell_angle_beta 133.688803
_cell_angle_gamma 90.000000
_cell_volume 2918.814182
_symmetry_space_group_name_H-M "C 2/M"
_symmetry_group_IT_number 12
_symmetry_cell_setting 'monoclinic'
loop_
_space_group_symop_operation_xyz
x,y,z
-x,y,-z
-x,-y,-z
x,-y,z
1/2+x,1/2+y,z
1/2-x,1/2+y,-z
1/2-x,1/2-y,-z
1/2+x,1/2-y,z
loop_
_atom_site_type_symbol
_atom_site_label
_atom_site_fract_x
_atom_site_fract_y
_atom_site_fract_z
Si Si1 0.592761 0.673651 0.797833
Si Si2 0.436216 0.673203 0.805958
Si Si3 0.537962 0.167554 0.958883
Si Si4 0.448235 0.175926 0.636755
Si Si5 0.202740 0.325734 0.353601
Si Si6 0.232864 0.823218 0.050308
Si Si7 0.579181 0.324939 0.497510
O O1 0.615079 0.500000 0.799060
O O2 0.528211 0.697626 0.817164
O O3 0.540148 0.739691 0.713905
O O4 0.692992 0.760010 0.862130
O O5 0.422281 0.500000 0.814499
O O6 0.453301 0.769747 0.871550
O O7 0.339558 0.729509 0.721389
O O8 0.568907 0.000000 0.955253
O O9 0.500000 0.156045 0.000000
O O10 0.625567 0.283737 0.009254
O O11 0.351477 0.216849 0.618159
O O12 0.437014 0.226963 0.566677
O O13 0.469154 0.000000 0.650330
O O14 0.186080 0.500000 0.330326
O O15 0.315118 0.285341 0.420112
O O16 0.245382 0.000000 0.052265
O O17 0.250000 0.750000 0.000000
O O18 0.500000 0.280197 0.500000
O O19 0.571459 0.500000 0.477044
#
# Coordination Sequence:
#
# PCOD8100266 Si02
#       7
#     8   8   8   8   8   8   8
#     4  10  20  36  59  88 117 149 192 242 290 343
#     4  10  20  35  59  87 115 149 191 243 293 343
#     4  11  24  41  60  84 117 159 200 242 293 350
#     4  10  20  35  58  86 114 146 187 239 288 339
#     4   9  19  36  59  84 111 146 190 237 285 342
#     4  12  23  37  61  89 119 155 196 244 293 346
#     4  10  21  38  58  82 114 153 189 229 284 348
#
# _framework density 19.185873000000001
#
# number of rings (size 3 to 8) (size 9 to 14) (size 15 to 20)
#    0.000    1.714    1.429    3.429    0.000    3.714 
#    2.571    0.000    0.000    0.000    0.000    0.000 
#    0.000    0.000    0.000    0.000    0.000    0.000 
#
# Total GULP energy -347325.701005 kJ/mol
# GULP energy per Si atom -12404.489322 kJ/mol
# Density = 1.914221 g / cm^3
# Si number density = 19.185873 Si / 1000 Ang^3
#
#
#
# Elastic Constant Matrix: (Units=GPa)
#
#
# Indices 1 2 3 4 5 6 
#
# 1 76.9910 39.4559 54.4772 0.0000 5.4861 0.0000
# 2 39.4559 129.8131 72.3731 0.0000 -1.3608 0.0000
# 3 54.4772 72.3731 136.1663 0.0000 6.6430 0.0000
# 4 0.0000 0.0000 0.0000 40.2427 0.0000 -0.4223
# 5 5.4861 -1.3608 6.6430 0.0000 26.5417 0.0000
# 6 0.0000 0.0000 0.0000 -0.4223 0.0000 25.2367
#
#
#
# Elastic Compliance Matrix: (Units=1/GPa)
#
#
# Indices 1 2 3 4 5 6 
#
# 1 0.018676 -0.002278 -0.006142 0.000000 -0.002440 0.000000
# 2 -0.002278 0.011336 -0.005229 0.000000 0.002361 0.000000
# 3 -0.006142 -0.005229 0.012687 0.000000 -0.002174 0.000000
# 4 0.000000 0.000000 0.000000 0.024854 0.000000 0.000416
# 5 -0.002440 0.002361 -0.002174 0.000000 0.038846 0.000000
# 6 0.000000 0.000000 0.000000 0.000416 0.000000 0.039632
#
#
# Mechanical properties :
#
#
# Convention : Reuss Voigt Hill
#
# Bulk Modulus (GPa) = 64.93280 75.06476 69.99878
# Shear Modulus (GPa) = 28.01751 30.18182 29.09967
#
# Velocity S-wave (km/s) = 3.82556 3.97057 3.89874
# Velocity P-wave (km/s) = 7.30963 7.76083 7.53861
#
# Compressibility (1/GPa) = 0.01540054
#
# Stress axis : x y z
#
# Youngs Moduli (GPa) = 53.54574 88.21778 78.82371
#
# Poissons Ratio (x) = 0.20092 0.48415
# Poissons Ratio (y) = 0.12195 0.41216
# Poissons Ratio (z) = 0.32889 0.46128
#
# Static dielectric constant tensor:
#      x y z
#    x 3.242290 0.000000 0.089200 
#    y 0.000000 3.807470 0.000000 
#    z 0.089200 0.000000 3.645550 
# 
# 
# High freq. dielectric constant tensor:
#      x y z
#    x 1.723550 0.000000 0.004140 
#    y 0.000000 1.758000 0.000000 
#    z 0.004140 0.000000 1.759070 
# 
# From -- ./inp_files/342479.got.cif
#   From: 2010.06.25/outbox.cif.g09.slc.cpg/sg12_172_cif.got.tgz:342479.got - 2010.06.28 00:19:55.
