data_PCOD8100044
_publ_section_title
;
Structure prediction by ZEFSAII (Michael W. Deem and Ramdas Pophale) SiO2 
 PCOD8100044
Probable space group: C 2/M
;
_chemical_formula_sum "Si O2"
_cell_formula_units_Z 56
_cell_length_a 30.949021
_cell_length_b 8.870865
_cell_length_c 11.712985
_cell_angle_alpha 90.000000
_cell_angle_beta 56.756812
_cell_angle_gamma 90.000000
_cell_volume 2689.485633
_symmetry_space_group_name_H-M "C 2/M"
_symmetry_group_IT_number 12
_symmetry_cell_setting 'monoclinic'
loop_
_space_group_symop_operation_xyz
x,y,z
-x,y,-z
-x,-y,-z
x,-y,z
1/2+x,1/2+y,z
1/2-x,1/2+y,-z
1/2-x,1/2-y,-z
1/2+x,1/2-y,z
loop_
_atom_site_type_symbol
_atom_site_label
_atom_site_fract_x
_atom_site_fract_y
_atom_site_fract_z
Si Si1 0.114667 0.176268 0.844246
Si Si2 0.893060 0.674529 0.918807
Si Si3 0.911885 0.824260 0.371061
Si Si4 0.193929 0.821873 0.092298
Si Si5 0.270744 0.327298 0.358524
Si Si6 0.173275 0.674305 0.352907
Si Si7 0.996013 0.326110 0.637340
O O1 0.086514 0.213151 0.765872
O O2 0.173509 0.237496 0.755193
O O3 0.111741 0.000000 0.877063
O O4 0.087200 0.268042 0.986017
O O5 0.878208 0.500000 0.946096
O O6 0.842277 0.768906 0.958829
O O7 0.937909 0.703630 0.762059
O O8 0.865874 0.730659 0.494463
O O9 0.966532 0.778792 0.343858
O O10 0.901099 0.000000 0.407443
O O11 0.166071 0.770096 0.248980
O O12 0.199876 0.000000 0.079534
O O13 0.250000 0.750000 0.000000
O O14 0.277274 0.500000 0.382524
O O15 0.250000 0.250000 0.500000
O O16 0.231910 0.303620 0.309758
O O17 0.161217 0.500000 0.343319
O O18 0.012241 0.500000 0.630973
O O19 0.000000 0.278378 0.500000
#
# Coordination Sequence:
#
# PCOD8100044 Si02
#       7
#     8   8   8   8   8   8   8
#     4  10  22  40  60  89 130 169 208 255 312 377
#     4  11  24  42  66  94 124 165 211 259 318 376
#     4  11  23  39  63  93 124 163 211 261 314 374
#     4  12  25  42  65  93 127 166 209 257 309 373
#     4  10  20  35  57  85 122 164 204 248 299 359
#     4  11  22  37  61  92 126 167 210 259 315 369
#     4  10  23  44  67  90 121 160 206 264 323 380
#
# _framework density 20.821826999999999
#
# number of rings (size 3 to 8) (size 9 to 14) (size 15 to 20)
#    0.000    1.286    1.429    4.286    0.000    6.571 
#    0.000    2.857    0.000    0.000    0.000    0.000 
#    0.000    0.000    0.000    0.000    0.000    0.000 
#
# Total GULP energy -347370.026907 kJ/mol
# GULP energy per Si atom -12406.072390 kJ/mol
# Density = 2.077444 g / cm^3
# Si number density = 20.821827 Si / 1000 Ang^3
#
#
#
# Elastic Constant Matrix: (Units=GPa)
#
#
# Indices 1 2 3 4 5 6 
#
# 1 115.0012 53.6741 40.6150 0.0000 8.3809 0.0000
# 2 53.6741 115.8581 51.1068 0.0000 8.4819 0.0000
# 3 40.6150 51.1068 122.6447 0.0000 17.3186 0.0000
# 4 0.0000 0.0000 0.0000 37.9341 0.0000 3.6833
# 5 8.3809 8.4819 17.3186 0.0000 32.2568 0.0000
# 6 0.0000 0.0000 0.0000 3.6833 0.0000 34.1724
#
#
#
# Elastic Compliance Matrix: (Units=1/GPa)
#
#
# Indices 1 2 3 4 5 6 
#
# 1 0.011479 -0.004450 -0.001830 0.000000 -0.000830 0.000000
# 2 -0.004450 0.012306 -0.003636 0.000000 -0.000127 0.000000
# 3 -0.001830 -0.003636 0.010899 0.000000 -0.004420 0.000000
# 4 0.000000 0.000000 0.000000 0.026640 0.000000 -0.002871
# 5 -0.000830 -0.000127 -0.004420 0.000000 0.033623 0.000000
# 6 0.000000 0.000000 0.000000 -0.002871 0.000000 0.029573
#
#
# Mechanical properties :
#
#
# Convention : Reuss Voigt Hill
#
# Bulk Modulus (GPa) = 67.33192 71.58842 69.46017
# Shear Modulus (GPa) = 33.48856 34.74654 34.11755
#
# Velocity S-wave (km/s) = 4.01476 4.08947 4.05229
# Velocity P-wave (km/s) = 7.34156 7.53355 7.43818
#
# Compressibility (1/GPa) = 0.01485180
#
# Stress axis : x y z
#
# Youngs Moduli (GPa) = 87.11337 81.25936 91.75069
#
# Poissons Ratio (x) = 0.36161 0.16789
# Poissons Ratio (y) = 0.38766 0.33364
# Poissons Ratio (z) = 0.15941 0.29549
#
# Static dielectric constant tensor:
#      x y z
#    x 3.598920 0.000000 -0.028040 
#    y 0.000000 3.875800 0.000000 
#    z -0.028040 0.000000 3.784080 
# 
# 
# High freq. dielectric constant tensor:
#      x y z
#    x 1.819700 0.000000 0.007800 
#    y 0.000000 1.814690 0.000000 
#    z 0.007800 0.000000 1.824700 
# 
# From -- ./inp_files/181022.got.cif
#   From: 2010.06.25/outbox.cif.g09.slc.cpg/sg12_91_cif.got.tgz:181022.got - 2010.06.28 00:19:55.
