data_PCOD8100292
_publ_section_title
;
Structure prediction by ZEFSAII (Michael W. Deem and Ramdas Pophale) SiO2 
 PCOD8100292
Probable space group: C 2/M
;
_chemical_formula_sum "Si O2"
_cell_formula_units_Z 56
_cell_length_a 30.715300
_cell_length_b 8.752990
_cell_length_c 19.641749
_cell_angle_alpha 90.000000
_cell_angle_beta 148.561441
_cell_angle_gamma 90.000000
_cell_volume 2754.327381
_symmetry_space_group_name_H-M "C 2/M"
_symmetry_group_IT_number 12
_symmetry_cell_setting 'monoclinic'
loop_
_space_group_symop_operation_xyz
x,y,z
-x,y,-z
-x,-y,-z
x,-y,z
1/2+x,1/2+y,z
1/2-x,1/2+y,-z
1/2-x,1/2-y,-z
1/2+x,1/2-y,z
loop_
_atom_site_type_symbol
_atom_site_label
_atom_site_fract_x
_atom_site_fract_y
_atom_site_fract_z
Si Si1 0.737527 0.322365 0.409645
Si Si2 0.108473 0.819616 0.454118
Si Si3 0.480369 0.178992 0.176669
Si Si4 0.453424 0.676065 0.868127
Si Si5 0.345273 0.668235 0.187242
Si Si6 0.809396 0.830947 0.983778
Si Si7 0.990549 0.678451 0.564470
O O1 0.758288 0.500000 0.444055
O O2 0.750000 0.250000 0.500000
O O3 0.800942 0.246989 0.441299
O O4 0.645371 0.293883 0.256947
O O5 0.084404 0.766766 0.498077
O O6 0.039428 0.763668 0.308772
O O7 0.112056 0.000000 0.454715
O O8 0.510875 0.213114 0.141540
O O9 0.484726 0.000000 0.197515
O O10 0.386064 0.235967 0.056823
O O11 0.470273 0.500000 0.870252
O O12 0.500000 0.718281 0.000000
O O13 0.371098 0.500000 0.249520
O O14 0.276404 0.740166 0.146714
O O15 0.423050 0.781837 0.283592
O O16 0.310145 0.648706 0.065306
O O17 0.807836 0.000000 0.947628
O O18 0.971868 0.500000 0.544145
O O19 0.000000 0.736335 0.500000
#
# Coordination Sequence:
#
# PCOD8100292 Si02
#       7
#     8   8   8   8   8   8   8
#     4  11  22  39  67  99 131 167 214 266 318 384
#     4  12  24  40  64  93 125 165 214 266 318 378
#     4  12  23  37  63  93 124 161 206 260 314 376
#     4  10  23  44  67  92 127 170 209 256 320 386
#     4  10  20  35  58  86 118 155 197 247 304 362
#     4  10  20  35  58  87 119 155 197 249 302 359
#     4  11  24  42  63  88 122 165 211 261 322 382
#
# _framework density 20.331643
#
# number of rings (size 3 to 8) (size 9 to 14) (size 15 to 20)
#    0.000    1.143    2.857    4.286    0.000    3.143 
#    2.571    0.000    0.000    0.000    0.000    0.000 
#    0.000    0.000    0.000    0.000    0.000    0.000 
#
# Total GULP energy -347269.109181 kJ/mol
# GULP energy per Si atom -12402.468185 kJ/mol
# Density = 2.028537 g / cm^3
# Si number density = 20.331643 Si / 1000 Ang^3
#
#
#
# Elastic Constant Matrix: (Units=GPa)
#
#
# Indices 1 2 3 4 5 6 
#
# 1 134.8161 66.9634 52.2948 0.0000 24.2081 0.0000
# 2 66.9634 145.8826 42.4615 0.0000 14.9310 0.0000
# 3 52.2948 42.4615 80.3067 0.0000 19.0536 0.0000
# 4 0.0000 0.0000 0.0000 25.6849 0.0000 5.2874
# 5 24.2081 14.9310 19.0536 0.0000 41.1960 0.0000
# 6 0.0000 0.0000 0.0000 5.2874 0.0000 37.3022
#
#
#
# Elastic Compliance Matrix: (Units=1/GPa)
#
#
# Indices 1 2 3 4 5 6 
#
# 1 0.011715 -0.003602 -0.004943 0.000000 -0.003293 0.000000
# 2 -0.003602 0.009251 -0.002530 0.000000 -0.000066 0.000000
# 3 -0.004943 -0.002530 0.018087 0.000000 -0.004544 0.000000
# 4 0.000000 0.000000 0.000000 0.040104 0.000000 -0.005684
# 5 -0.003293 -0.000066 -0.004544 0.000000 0.028334 0.000000
# 6 0.000000 0.000000 0.000000 -0.005684 0.000000 0.027614
#
#
# Mechanical properties :
#
#
# Convention : Reuss Voigt Hill
#
# Bulk Modulus (GPa) = 59.16139 76.04941 67.60540
# Shear Modulus (GPa) = 30.69541 34.12235 32.40888
#
# Velocity S-wave (km/s) = 3.88975 4.10114 3.99684
# Velocity P-wave (km/s) = 7.02388 7.74025 7.39075
#
# Compressibility (1/GPa) = 0.01690291
#
# Stress axis : x y z
#
# Youngs Moduli (GPa) = 85.35925 108.09146 55.28768
#
# Poissons Ratio (x) = 0.38932 0.27330
# Poissons Ratio (y) = 0.30744 0.13991
# Poissons Ratio (z) = 0.42195 0.27352
#
# Static dielectric constant tensor:
#      x y z
#    x 3.756550 0.000000 0.212350 
#    y 0.000000 3.950410 0.000000 
#    z 0.212350 0.000000 3.634480 
# 
# 
# High freq. dielectric constant tensor:
#      x y z
#    x 1.791760 0.000000 0.022800 
#    y 0.000000 1.809700 0.000000 
#    z 0.022800 0.000000 1.783940 
# 
# From -- ./inp_files/329617.got.cif
#   From: 2010.06.25/outbox.cif.g09.slc.cpg/sg12_165_cif.got.tgz:329617.got - 2010.06.28 00:19:55.
