data_PCOD8100764
_publ_section_title
;
Structure prediction by ZEFSAII (Michael W. Deem and Ramdas Pophale) SiO2 
 PCOD8100764
Probable space group: C 2/M
;
_chemical_formula_sum "Si O2"
_cell_formula_units_Z 48
_cell_length_a 18.393374
_cell_length_b 15.980922
_cell_length_c 26.564725
_cell_angle_alpha 90.000000
_cell_angle_beta 160.144616
_cell_angle_gamma 90.000000
_cell_volume 2652.141299
_symmetry_space_group_name_H-M "C 2/M"
_symmetry_group_IT_number 12
_symmetry_cell_setting 'monoclinic'
loop_
_space_group_symop_operation_xyz
x,y,z
-x,y,-z
-x,-y,-z
x,-y,z
1/2+x,1/2+y,z
1/2-x,1/2+y,-z
1/2-x,1/2-y,-z
1/2+x,1/2-y,z
loop_
_atom_site_type_symbol
_atom_site_label
_atom_site_fract_x
_atom_site_fract_y
_atom_site_fract_z
Si Si1 0.236535 0.000000 0.705732
Si Si2 0.417763 0.170434 0.864746
Si Si3 0.005418 0.768532 0.828960
Si Si4 0.613479 0.400464 0.826661
Si Si5 0.155726 0.325033 0.371574
Si Si6 0.729564 0.000000 0.384304
Si Si7 0.947328 0.797604 0.304230
O O1 0.309118 0.916651 0.780202
O O2 0.350619 0.000000 0.725459
O O3 0.982926 0.000000 0.543197
O O4 0.383737 0.245760 0.801701
O O5 0.298160 0.200928 0.837277
O O6 0.664762 0.149880 0.034949
O O7 0.992101 0.863888 0.797683
O O8 0.893450 0.709209 0.715593
O O9 0.250000 0.750000 0.000000
O O10 0.637522 0.500000 0.847290
O O11 0.494904 0.373747 0.697498
O O12 0.134986 0.424006 0.354516
O O13 0.395619 0.301679 0.545521
O O14 0.982567 0.290259 0.298439
#
# Coordination Sequence:
#
# PCOD8100764 Si02
#       7
#     4   8   8   8   8   4   8
#     4  11  20  28  52  89 105 128 175 231 267 304
#     4  11  19  34  54  80 109 137 176 220 266 307
#     4   9  20  36  53  75 104 141 174 214 268 318
#     4  10  21  34  53  79 108 142 176 215 264 315
#     4  10  20  36  50  76 108 144 173 209 263 322
#     4  11  20  32  53  80 111 133 177 220 267 313
#     4  10  22  33  50  77 110 144 173 208 265 316
#
# _framework density 18.098583999999999
#
# number of rings (size 3 to 8) (size 9 to 14) (size 15 to 20)
#    0.000    1.833    4.167    0.500    2.333    1.333 
#    0.000    0.000    1.833    0.000    0.000    7.000 
#    0.000    0.000    0.000    0.000    0.000    0.000 
#
# Total GULP energy -297313.174995 kJ/mol
# GULP energy per Si atom -12388.048958 kJ/mol
# Density = 1.805739 g / cm^3
# Si number density = 18.098584 Si / 1000 Ang^3
#
#
#
# Elastic Constant Matrix: (Units=GPa)
#
#
# Indices 1 2 3 4 5 6 
#
# 1 89.3978 62.1003 10.4138 -0.0147 2.6546 0.0000
# 2 62.1003 120.1578 24.5580 0.0371 11.9043 0.0008
# 3 10.4138 24.5580 43.1738 0.1687 -10.3890 0.0053
# 4 -0.0147 0.0371 0.1687 24.6142 0.0063 2.2327
# 5 2.6546 11.9043 -10.3890 0.0063 28.7225 -0.0045
# 6 0.0000 0.0008 0.0053 2.2327 -0.0045 27.3639
#
#
#
# Elastic Compliance Matrix: (Units=1/GPa)
#
#
# Indices 1 2 3 4 5 6 
#
# 1 0.017735 -0.009928 0.002153 0.000010 0.003254 0.000000
# 2 -0.009928 0.016186 -0.008988 0.000034 -0.009042 -0.000003
# 3 0.002153 -0.008988 0.031332 -0.000205 0.014859 0.000013
# 4 0.000010 0.000034 -0.000205 0.040931 -0.000099 -0.003340
# 5 0.003254 -0.009042 0.014859 -0.000099 0.043637 0.000013
# 6 0.000000 -0.000003 0.000013 -0.003340 0.000013 0.036817
#
#
# Mechanical properties :
#
#
# Convention : Reuss Voigt Hill
#
# Bulk Modulus (GPa) = 31.52014 49.65261 40.58637
# Shear Modulus (GPa) = 21.66914 26.51727 24.09320
#
# Velocity S-wave (km/s) = 3.46393 3.83189 3.65255
# Velocity P-wave (km/s) = 5.78377 6.86090 6.34523
#
# Compressibility (1/GPa) = 0.03172575
#
# Stress axis : x y z
#
# Youngs Moduli (GPa) = 56.38451 61.77998 31.91619
#
# Poissons Ratio (x) = 0.61338 -0.06870
# Poissons Ratio (y) = 0.55981 0.28687
# Poissons Ratio (z) = -0.12138 0.55530
#
# Static dielectric constant tensor:
#      x y z
#    x 3.624500 -0.000030 -0.236640 
#    y -0.000030 3.369100 -0.000270 
#    z -0.236640 -0.000270 3.459090 
# 
# 
# High freq. dielectric constant tensor:
#      x y z
#    x 1.702080 0.000000 -0.026400 
#    y 0.000000 1.686770 -0.000020 
#    z -0.026400 -0.000020 1.696740 
# 
# From -- ./inp_files/364367.got.cif
#   From: 2010.06.25/outbox.cif.g09.slc.cpg/sg12_183_cif.got.tgz:364367.got - 2010.06.28 00:19:55.
