data_PCOD8100703
_publ_section_title
;
Structure prediction by ZEFSAII (Michael W. Deem and Ramdas Pophale) SiO2 
 PCOD8100703
Probable space group: C 2/M
;
_chemical_formula_sum "Si O2"
_cell_formula_units_Z 64
_cell_length_a 15.800355
_cell_length_b 17.878728
_cell_length_c 15.480456
_cell_angle_alpha 90.000000
_cell_angle_beta 46.084260
_cell_angle_gamma 90.000000
_cell_volume 3150.192988
_symmetry_space_group_name_H-M "C 2/M"
_symmetry_group_IT_number 12
_symmetry_cell_setting 'monoclinic'
loop_
_space_group_symop_operation_xyz
x,y,z
-x,y,-z
-x,-y,-z
x,-y,z
1/2+x,1/2+y,z
1/2-x,1/2+y,-z
1/2-x,1/2-y,-z
1/2+x,1/2-y,z
loop_
_atom_site_type_symbol
_atom_site_label
_atom_site_fract_x
_atom_site_fract_y
_atom_site_fract_z
Si Si1 0.422879 0.717485 0.224175
Si Si2 0.446460 0.857160 0.920978
Si Si3 0.961470 0.258626 0.393193
Si Si4 0.692438 0.084179 0.133542
Si Si5 0.323140 0.086176 0.172437
Si Si6 0.453253 0.583192 0.937755
Si Si7 0.319192 0.717345 0.656079
Si Si8 0.498582 0.081654 0.602411
O O1 0.508922 0.771729 0.108454
O O2 0.430885 0.727903 0.321156
O O3 0.463297 0.633016 0.180532
O O4 0.292665 0.728870 0.278608
O O5 0.394589 0.867907 0.863372
O O6 0.557573 0.912137 0.855732
O O7 0.348224 0.873663 0.062664
O O8 0.886164 0.213643 0.517209
O O9 0.928191 0.347418 0.413923
O O10 0.098590 0.249641 0.324891
O O11 0.636783 0.086254 0.268860
O O12 0.697071 0.000000 0.094219
O O13 0.822507 0.118243 0.036968
O O14 0.220203 0.132811 0.292014
O O15 0.283204 0.000000 0.188644
O O16 0.452499 0.500000 0.897547
O O17 0.500000 0.579437 0.000000
O O18 0.500000 0.089453 0.500000
O O19 0.552097 0.000000 0.592478
#
# Coordination Sequence:
#
# PCOD8100703 Si02
#       8
#     8   8   8   8   8   8   8   8
#     4  11  24  39  64  90 122 159 210 251 310 376
#     4  10  20  35  61  93 118 153 194 249 307 362
#     4  11  22  44  61  89 122 162 208 261 307 365
#     4  10  20  36  58  86 120 155 197 251 307 362
#     4  10  21  38  59  90 125 157 193 245 307 366
#     4  10  25  42  58  86 126 166 203 250 306 369
#     4  10  24  41  64  86 122 163 204 258 313 362
#     4  10  20  36  61  90 117 154 203 258 312 360
#
# _framework density 20.316217000000002
#
# number of rings (size 3 to 8) (size 9 to 14) (size 15 to 20)
#    0.000    1.750    2.500    1.875    7.000    0.500 
#    0.000    2.500    0.000    0.000    0.000    0.000 
#    0.000    0.000    0.000    0.000    0.000    0.000 
#
# Total GULP energy -396655.131056 kJ/mol
# GULP energy per Si atom -12395.472846 kJ/mol
# Density = 2.026998 g / cm^3
# Si number density = 20.316217 Si / 1000 Ang^3
#
#
#
# Elastic Constant Matrix: (Units=GPa)
#
#
# Indices 1 2 3 4 5 6 
#
# 1 93.2594 22.3572 37.9603 0.0000 -2.2050 0.0000
# 2 22.3572 115.0524 62.8735 0.0000 1.1089 0.0000
# 3 37.9603 62.8735 108.8513 0.0000 -0.2819 0.0000
# 4 0.0000 0.0000 0.0000 36.0384 0.0000 5.1390
# 5 -2.2050 1.1089 -0.2819 0.0000 26.2638 0.0000
# 6 0.0000 0.0000 0.0000 5.1390 0.0000 25.1702
#
#
#
# Elastic Compliance Matrix: (Units=1/GPa)
#
#
# Indices 1 2 3 4 5 6 
#
# 1 0.012524 -0.000085 -0.004316 0.000000 0.001009 0.000000
# 2 -0.000085 0.012711 -0.007314 0.000000 -0.000622 0.000000
# 3 -0.004316 -0.007314 0.014917 0.000000 0.000107 0.000000
# 4 0.000000 0.000000 0.000000 0.028580 0.000000 -0.005835
# 5 0.001009 -0.000622 0.000107 0.000000 0.038187 0.000000
# 6 0.000000 0.000000 0.000000 -0.005835 0.000000 0.040921
#
#
# Mechanical properties :
#
#
# Convention : Reuss Voigt Hill
#
# Bulk Modulus (GPa) = 59.80080 62.61611 61.20846
# Shear Modulus (GPa) = 28.27351 30.42594 29.34973
#
# Velocity S-wave (km/s) = 3.73456 3.87411 3.80497
# Velocity P-wave (km/s) = 6.93504 7.13437 7.03541
#
# Compressibility (1/GPa) = 0.01672218
#
# Stress axis : x y z
#
# Youngs Moduli (GPa) = 79.84868 78.67089 67.03803
#
# Poissons Ratio (x) = 0.00668 0.28932
# Poissons Ratio (y) = 0.00678 0.49032
# Poissons Ratio (z) = 0.34461 0.57541
#
# Static dielectric constant tensor:
#      x y z
#    x 3.591440 0.000000 -0.107690 
#    y 0.000000 3.916520 0.000000 
#    z -0.107690 0.000000 3.533200 
# 
# 
# High freq. dielectric constant tensor:
#      x y z
#    x 1.779170 0.000000 0.006760 
#    y 0.000000 1.793950 0.000000 
#    z 0.006760 0.000000 1.793080 
# 
# From -- ./inp_files/216797.got.cif
#   From: 2010.06.25/outbox.cif.g09.slc.cpg/sg12_109_cif.got.tgz:216797.got - 2010.06.28 00:19:55.
