data_PCOD8100137
_publ_section_title
;
Structure prediction by ZEFSAII (Michael W. Deem and Ramdas Pophale) SiO2 
 PCOD8100137
Probable space group: C 2/M
;
_chemical_formula_sum "Si O2"
_cell_formula_units_Z 40
_cell_length_a 25.559439
_cell_length_b 13.601683
_cell_length_c 6.465187
_cell_angle_alpha 90.000000
_cell_angle_beta 63.477065
_cell_angle_gamma 90.000000
_cell_volume 2011.080809
_symmetry_space_group_name_H-M "C 2/M"
_symmetry_group_IT_number 12
_symmetry_cell_setting 'monoclinic'
loop_
_space_group_symop_operation_xyz
x,y,z
-x,y,-z
-x,-y,-z
x,-y,z
1/2+x,1/2+y,z
1/2-x,1/2+y,-z
1/2-x,1/2-y,-z
1/2+x,1/2-y,z
loop_
_atom_site_type_symbol
_atom_site_label
_atom_site_fract_x
_atom_site_fract_y
_atom_site_fract_z
Si Si1 0.565422 0.783080 0.391497
Si Si2 0.710515 0.611291 0.206733
Si Si3 0.840415 0.612726 0.051278
Si Si4 0.862391 0.234348 0.356355
Si Si5 0.110730 0.111971 0.070793
O O1 0.500000 0.826304 0.500000
O O2 0.585358 0.774787 0.593303
O O3 0.565231 0.675390 0.285735
O O4 0.607925 0.855548 0.191780
O O5 0.700010 0.500000 0.307492
O O6 0.778958 0.629060 0.040499
O O7 0.689324 0.688543 0.415604
O O8 0.675517 0.627201 0.054526
O O9 0.849606 0.500000 0.098371
O O10 0.838599 0.674901 0.265008
O O11 0.888334 0.148863 0.165577
O O12 0.089571 0.000000 0.114130
#
# Coordination Sequence:
#
# PCOD8100137 Si02
#       5
#     8   8   8   8   8
#     4  10  23  40  54  74 108 146 184 226 267 307
#     4   9  18  34  56  85 117 140 164 210 272 330
#     4  10  22  37  55  81 109 141 182 222 264 316
#     4  10  20  35  58  81 107 141 178 219 268 320
#     4   9  19  35  57  85 113 139 170 213 267 328
#
# _framework density 19.889800999999999
#
# number of rings (size 3 to 8) (size 9 to 14) (size 15 to 20)
#    0.000    2.400    0.000    1.200    0.000   14.400 
#    0.000    6.000    0.000    0.000    0.000    0.000 
#    0.000    0.000    0.000    0.000    0.000    0.000 
#
# Total GULP energy -248027.036149 kJ/mol
# GULP energy per Si atom -12401.351807 kJ/mol
# Density = 1.984453 g / cm^3
# Si number density = 19.889801 Si / 1000 Ang^3
#
#
#
# Elastic Constant Matrix: (Units=GPa)
#
#
# Indices 1 2 3 4 5 6 
#
# 1 115.3833 21.7061 53.0603 0.0000 -11.0783 0.0000
# 2 21.7061 82.2123 31.1052 0.0000 1.6989 0.0000
# 3 53.0603 31.1052 88.4810 0.0000 6.5195 0.0000
# 4 0.0000 0.0000 0.0000 22.5658 0.0000 -0.8521
# 5 -11.0783 1.6989 6.5195 0.0000 32.1827 0.0000
# 6 0.0000 0.0000 0.0000 -0.8521 0.0000 21.0858
#
#
#
# Elastic Compliance Matrix: (Units=1/GPa)
#
#
# Indices 1 2 3 4 5 6 
#
# 1 0.013094 -0.000509 -0.008129 0.000000 0.006181 0.000000
# 2 -0.000509 0.014052 -0.004636 0.000000 0.000022 0.000000
# 3 -0.008129 -0.004636 0.018267 0.000000 -0.006254 0.000000
# 4 0.000000 0.000000 0.000000 0.044383 0.000000 0.001794
# 5 0.006181 0.000022 -0.006254 0.000000 0.034466 0.000000
# 6 0.000000 0.000000 0.000000 0.001794 0.000000 0.047498
#
#
# Mechanical properties :
#
#
# Convention : Reuss Voigt Hill
#
# Bulk Modulus (GPa) = 53.00878 55.31331 54.16104
# Shear Modulus (GPa) = 24.43849 27.18053 25.80951
#
# Velocity S-wave (km/s) = 3.50908 3.70071 3.60616
# Velocity P-wave (km/s) = 6.56713 6.79195 6.68049
#
# Compressibility (1/GPa) = 0.01886480
#
# Stress axis : x y z
#
# Youngs Moduli (GPa) = 76.37037 71.16572 54.74352
#
# Poissons Ratio (x) = 0.03625 0.44499
# Poissons Ratio (y) = 0.03890 0.25379
# Poissons Ratio (z) = 0.62079 0.32992
#
# Static dielectric constant tensor:
#      x y z
#    x 3.528080 0.000000 0.151570 
#    y 0.000000 3.732520 0.000000 
#    z 0.151570 0.000000 3.427430 
# 
# 
# High freq. dielectric constant tensor:
#      x y z
#    x 1.766620 0.000000 0.009390 
#    y 0.000000 1.783640 0.000000 
#    z 0.009390 0.000000 1.766160 
# 
# From -- ./inp_files/24047.got.cif
#   From: 2010.06.25/outbox.cif.g09.slc.cpg/sg12_13_cif.got.tgz:24047.got - 2010.06.28 00:19:55.
