data_PCOD8100082
_publ_section_title
;
Structure prediction by ZEFSAII (Michael W. Deem and Ramdas Pophale) SiO2 
 PCOD8100082
Probable space group: C 2/M
;
_chemical_formula_sum "Si O2"
_cell_formula_units_Z 56
_cell_length_a 18.845601
_cell_length_b 8.945563
_cell_length_c 16.279572
_cell_angle_alpha 90.000000
_cell_angle_beta 91.327744
_cell_angle_gamma 90.000000
_cell_volume 2743.746809
_symmetry_space_group_name_H-M "C 2/M"
_symmetry_group_IT_number 12
_symmetry_cell_setting 'monoclinic'
loop_
_space_group_symop_operation_xyz
x,y,z
-x,y,-z
-x,-y,-z
x,-y,z
1/2+x,1/2+y,z
1/2-x,1/2+y,-z
1/2-x,1/2-y,-z
1/2+x,1/2-y,z
loop_
_atom_site_type_symbol
_atom_site_label
_atom_site_fract_x
_atom_site_fract_y
_atom_site_fract_z
Si Si1 0.138598 0.830904 0.819628
Si Si2 0.031886 0.668792 0.919356
Si Si3 0.414076 0.676406 0.356719
Si Si4 0.398425 0.170950 0.809731
Si Si5 0.080636 0.824884 0.356725
Si Si6 0.274930 0.830305 0.918754
Si Si7 0.672073 0.178273 0.499823
O O1 0.103187 0.749842 0.895694
O O2 0.116947 0.764165 0.730871
O O3 0.221773 0.814807 0.839696
O O4 0.111443 0.000000 0.820024
O O5 0.052814 0.500000 0.942523
O O6 0.978900 0.678372 0.841632
O O7 0.000000 0.746315 0.000000
O O8 0.400310 0.500000 0.369051
O O9 0.497528 0.713697 0.365895
O O10 0.370728 0.769000 0.421880
O O11 0.391662 0.279886 0.732337
O O12 0.349004 0.230020 0.883367
O O13 0.377524 0.000000 0.785489
O O14 0.126806 0.729643 0.420677
O O15 0.094232 0.000000 0.371282
O O16 0.283649 0.000000 0.946601
O O17 0.250000 0.750000 0.000000
O O18 0.750000 0.250000 0.500000
O O19 0.679575 0.000000 0.499967
#
# Coordination Sequence:
#
# PCOD8100082 Si02
#       7
#     8   8   8   8   8   8   8
#     4  10  21  38  60  88 121 161 204 251 310 369
#     4  10  20  35  57  86 121 159 205 257 306 359
#     4  10  22  42  66  94 130 166 206 257 312 368
#     4  10  21  37  59  88 122 163 210 260 312 365
#     4  11  23  42  67  95 128 167 209 254 311 372
#     4  10  22  39  59  85 120 164 210 257 315 372
#     4  12  27  45  68  98 130 163 205 253 307 372
#
# _framework density 20.410046000000001
#
# number of rings (size 3 to 8) (size 9 to 14) (size 15 to 20)
#    0.000    1.571    1.429    3.000    2.000    6.000 
#    0.000    0.000    0.000    0.000    0.000    0.000 
#    0.000    0.000    0.000    0.000    0.000    0.000 
#
# Total GULP energy -347204.681577 kJ/mol
# GULP energy per Si atom -12400.167199 kJ/mol
# Density = 2.036359 g / cm^3
# Si number density = 20.410046 Si / 1000 Ang^3
#
#
#
# Elastic Constant Matrix: (Units=GPa)
#
#
# Indices 1 2 3 4 5 6 
#
# 1 96.8762 42.0202 33.4330 0.0000 -9.4477 0.0000
# 2 42.0202 86.2607 43.2861 0.0000 -8.6444 0.0000
# 3 33.4330 43.2861 111.7804 0.0000 -9.8319 0.0000
# 4 0.0000 0.0000 0.0000 36.8728 0.0000 -5.4553
# 5 -9.4477 -8.6444 -9.8319 0.0000 40.4248 0.0000
# 6 0.0000 0.0000 0.0000 -5.4553 0.0000 29.2909
#
#
#
# Elastic Compliance Matrix: (Units=1/GPa)
#
#
# Indices 1 2 3 4 5 6 
#
# 1 0.013477 -0.005531 -0.001754 0.000000 0.001540 0.000000
# 2 -0.005531 0.016782 -0.004744 0.000000 0.001142 0.000000
# 3 -0.001754 -0.004744 0.011427 0.000000 0.001355 0.000000
# 4 0.000000 0.000000 0.000000 0.027889 0.000000 0.005194
# 5 0.001540 0.001142 0.001355 0.000000 0.025671 0.000000
# 6 0.000000 0.000000 0.000000 0.005194 0.000000 0.035108
#
#
# Mechanical properties :
#
#
# Convention : Reuss Voigt Hill
#
# Bulk Modulus (GPa) = 56.72456 59.15509 57.93983
# Shear Modulus (GPa) = 31.19424 33.06291 32.12857
#
# Velocity S-wave (km/s) = 3.91369 4.02921 3.97187
# Velocity P-wave (km/s) = 6.94805 7.11985 7.03447
#
# Compressibility (1/GPa) = 0.01762905
#
# Stress axis : x y z
#
# Youngs Moduli (GPa) = 74.20165 59.58792 87.51281
#
# Poissons Ratio (x) = 0.32955 0.15347
# Poissons Ratio (y) = 0.41038 0.41516
# Poissons Ratio (z) = 0.13013 0.28269
#
# Static dielectric constant tensor:
#      x y z
#    x 3.845860 0.000000 0.064970 
#    y 0.000000 3.627070 0.000000 
#    z 0.064970 0.000000 3.823940 
# 
# 
# High freq. dielectric constant tensor:
#      x y z
#    x 1.809490 0.000000 0.002150 
#    y 0.000000 1.784140 0.000000 
#    z 0.002150 0.000000 1.810460 
# 
# From -- ./inp_files/230882.got.cif
#   From: 2010.06.25/outbox.cif.g09.slc.cpg/sg12_116_cif.got.tgz:230882.got - 2010.06.28 00:19:55.
