data_PCOD8100028
_publ_section_title
;
Structure prediction by ZEFSAII (Michael W. Deem and Ramdas Pophale) SiO2 
 PCOD8100028
Probable space group: C 2/M
;
_chemical_formula_sum "Si O2"
_cell_formula_units_Z 48
_cell_length_a 15.391763
_cell_length_b 14.687333
_cell_length_c 18.067428
_cell_angle_alpha 90.000000
_cell_angle_beta 37.384728
_cell_angle_gamma 90.000000
_cell_volume 2479.897353
_symmetry_space_group_name_H-M "C 2/M"
_symmetry_group_IT_number 12
_symmetry_cell_setting 'monoclinic'
loop_
_space_group_symop_operation_xyz
x,y,z
-x,y,-z
-x,-y,-z
x,-y,z
1/2+x,1/2+y,z
1/2-x,1/2+y,-z
1/2-x,1/2-y,-z
1/2+x,1/2-y,z
loop_
_atom_site_type_symbol
_atom_site_label
_atom_site_fract_x
_atom_site_fract_y
_atom_site_fract_z
Si Si1 0.921747 0.752348 0.245820
Si Si2 0.877108 0.825863 0.533613
Si Si3 0.663851 0.596833 0.590396
Si Si4 0.530292 0.133276 0.562928
Si Si5 0.885018 0.602206 0.810930
Si Si6 0.946351 0.896601 0.953732
O O1 0.765987 0.711634 0.327975
O O2 0.915075 0.816364 0.322620
O O3 0.025501 0.670151 0.197485
O O4 0.974369 0.817257 0.144870
O O5 0.826920 0.894157 0.504268
O O6 0.961063 0.741635 0.441023
O O7 0.000000 0.875110 0.500000
O O8 0.586577 0.500000 0.660855
O O9 0.823456 0.587466 0.511697
O O10 0.500000 0.097277 0.500000
O O11 0.410875 0.107968 0.704670
O O12 0.921691 0.500000 0.812611
O O13 0.720743 0.624747 0.937096
O O14 0.979008 0.000000 0.902236
O O15 0.000000 0.887871 0.000000
#
# Coordination Sequence:
#
# PCOD8100028 Si02
#       6
#     8   8   8   8   8   8
#     4  11  21  40  60  83 118 156 194 240 292 346
#     4  10  21  36  57  84 117 157 197 234 285 345
#     4  11  21  35  57  86 121 155 191 237 290 351
#     4  10  20  35  57  85 117 153 190 239 295 350
#     4  11  22  38  60  85 116 154 198 241 286 347
#     4  10  24  40  59  89 117 149 193 242 297 351
#
# _framework density 19.355640000000001
#
# number of rings (size 3 to 8) (size 9 to 14) (size 15 to 20)
#    0.000    1.500    3.333    2.500    7.000    1.667 
#    0.000    0.000    0.000    1.000    0.000    0.000 
#    0.000    0.000    0.000    0.000    0.000    0.000 
#
# Total GULP energy -297389.110071 kJ/mol
# GULP energy per Si atom -12391.212920 kJ/mol
# Density = 1.931159 g / cm^3
# Si number density = 19.355640 Si / 1000 Ang^3
#
#
#
# Elastic Constant Matrix: (Units=GPa)
#
#
# Indices 1 2 3 4 5 6 
#
# 1 142.0521 58.9148 50.3364 -0.0001 -8.0072 -0.0001
# 2 58.9148 85.7851 33.6148 0.0003 -6.8711 -0.0004
# 3 50.3364 33.6148 95.6521 -0.0006 -3.9191 -0.0009
# 4 -0.0001 0.0003 -0.0006 -109.7199 0.0001 -59.2739
# 5 -8.0072 -6.8711 -3.9191 0.0001 27.6547 0.0003
# 6 -0.0001 -0.0004 -0.0009 -59.2739 0.0003 -19.5854
#
#
#
# Elastic Compliance Matrix: (Units=1/GPa)
#
#
# Indices 1 2 3 4 5 6 
#
# 1 0.010836 -0.005954 -0.003563 0.000000 0.001153 0.000000
# 2 -0.005954 0.016993 -0.002752 0.000000 0.002108 0.000001
# 3 -0.003563 -0.002752 0.013304 0.000000 0.000170 0.000001
# 4 0.000000 0.000000 0.000000 0.014354 0.000000 -0.043440
# 5 0.001153 0.002108 0.000170 0.000000 0.037042 -0.000001
# 6 0.000000 0.000001 0.000001 -0.043440 -0.000001 0.080411
#
#
# Mechanical properties :
#
#
# Convention : Reuss Voigt Hill
#
# Bulk Modulus (GPa) = 60.25835 67.69126 63.97480
# Shear Modulus (GPa) = 24.62933 -8.28855 8.17039
#
# Velocity S-wave (km/s) = 3.57103 -2.07160 2.05678
# Velocity P-wave (km/s) = 6.94282 5.41537 6.22612
#
# Compressibility (1/GPa) = 0.01659521
#
# Stress axis : x y z
#
# Youngs Moduli (GPa) = 92.28089 58.84700 75.16611
#
# Poissons Ratio (x) = 0.35035 0.26783
# Poissons Ratio (y) = 0.54940 0.20689
# Poissons Ratio (z) = 0.32881 0.16197
#
# Static dielectric constant tensor:
#      x y z
#    x 3.722080 0.000000 -0.009290 
#    y 0.000000 3.568750 0.000000 
#    z -0.009290 0.000000 3.514350 
# 
# 
# High freq. dielectric constant tensor:
#      x y z
#    x 1.751570 0.000000 -0.007790 
#    y 0.000000 1.761920 0.000000 
#    z -0.007790 0.000000 1.737370 
# 
# From -- ./inp_files/270123.got.cif
#   From: 2010.06.25/outbox.cif.g09.slc.cpg/sg12_136_cif.got.tgz:270123.got - 2010.06.28 00:19:55.
