data_PCOD8100194
_publ_section_title
;
Structure prediction by ZEFSAII (Michael W. Deem and Ramdas Pophale) SiO2 
 PCOD8100194
Probable space group: C 2/M
;
_chemical_formula_sum "Si O2"
_cell_formula_units_Z 60
_cell_length_a 20.513722
_cell_length_b 17.670092
_cell_length_c 8.400357
_cell_angle_alpha 90.000000
_cell_angle_beta 102.371810
_cell_angle_gamma 90.000000
_cell_volume 2974.245446
_symmetry_space_group_name_H-M "C 2/M"
_symmetry_group_IT_number 12
_symmetry_cell_setting 'monoclinic'
loop_
_space_group_symop_operation_xyz
x,y,z
-x,y,-z
-x,-y,-z
x,-y,z
1/2+x,1/2+y,z
1/2-x,1/2+y,-z
1/2-x,1/2-y,-z
1/2+x,1/2-y,z
loop_
_atom_site_type_symbol
_atom_site_label
_atom_site_fract_x
_atom_site_fract_y
_atom_site_fract_z
Si Si1 0.565123 0.824391 0.703192
Si Si2 0.685738 0.692924 0.287712
Si Si3 0.322043 0.173284 0.475260
Si Si4 0.959519 0.416041 0.817280
Si Si5 0.500000 0.309224 0.500000
Si Si6 0.854041 0.680502 0.932758
Si Si7 0.755952 0.413617 0.714570
Si Si8 0.121918 0.912503 0.470670
O O1 0.607984 0.848695 0.571124
O O2 0.506800 0.885188 0.700876
O O3 0.530144 0.743159 0.657007
O O4 0.614921 0.823567 0.878396
O O5 0.670163 0.747326 0.430419
O O6 0.765459 0.684021 0.309051
O O7 0.654941 0.730617 0.113246
O O8 0.651457 0.613069 0.313807
O O9 0.298160 0.106292 0.578415
O O10 0.933680 0.500000 0.757164
O O11 0.898743 0.358665 0.816814
O O12 0.000000 0.421020 0.000000
O O13 0.556867 0.363594 0.465609
O O14 0.782043 0.637955 0.876896
O O15 0.769188 0.500000 0.767855
O O16 0.677564 0.399159 0.638261
O O17 0.102029 0.000000 0.448653
#
# Coordination Sequence:
#
# PCOD8100194 Si02
#       8
#     8   8   8   8   4   8   8   8
#     4  11  23  35  56  86 115 152 196 235 285 332
#     4   9  17  35  57  80 112 139 184 235 287 343
#     4   9  18  33  55  84 111 148 184 234 282 333
#     4   9  19  35  51  74 112 151 184 218 269 341
#     4  12  23  38  55  82 118 146 192 244 277 336
#     4  10  20  35  58  84 114 153 190 232 292 341
#     4   9  19  36  60  86 114 149 193 234 284 346
#     4  10  20  37  62  84 107 148 191 233 287 344
#
# _framework density 20.173182000000001
#
# number of rings (size 3 to 8) (size 9 to 14) (size 15 to 20)
#    0.000    2.267    1.333    2.200    1.867    1.600 
#    0.000    0.333    0.000    2.400    0.000    0.000 
#    0.000    0.000    0.000    0.000    0.000    0.000 
#
# Total GULP energy -371785.055223 kJ/mol
# GULP energy per Si atom -12392.835174 kJ/mol
# Density = 2.012727 g / cm^3
# Si number density = 20.173182 Si / 1000 Ang^3
#
#
#
# Elastic Constant Matrix: (Units=GPa)
#
#
# Indices 1 2 3 4 5 6 
#
# 1 91.0148 29.6639 14.8642 0.0000 1.5200 0.0000
# 2 29.6639 98.3240 15.7792 0.0000 12.3534 0.0000
# 3 14.8642 15.7792 44.1983 0.0000 15.0376 0.0000
# 4 0.0000 0.0000 0.0000 16.2893 0.0000 5.2283
# 5 1.5200 12.3534 15.0376 0.0000 31.4145 0.0000
# 6 0.0000 0.0000 0.0000 5.2283 0.0000 25.6197
#
#
#
# Elastic Compliance Matrix: (Units=1/GPa)
#
#
# Indices 1 2 3 4 5 6 
#
# 1 0.012740 -0.003548 -0.003921 0.000000 0.002656 0.000000
# 2 -0.003548 0.011997 -0.001843 0.000000 -0.003664 0.000000
# 3 -0.003921 -0.001843 0.029017 0.000000 -0.012975 0.000000
# 4 0.000000 0.000000 0.000000 0.065693 0.000000 -0.013406
# 5 0.002656 -0.003664 -0.012975 0.000000 0.039356 0.000000
# 6 0.000000 0.000000 0.000000 -0.013406 0.000000 0.041768
#
#
# Mechanical properties :
#
#
# Convention : Reuss Voigt Hill
#
# Bulk Modulus (GPa) = 28.46729 39.35019 33.90874
# Shear Modulus (GPa) = 21.65393 26.21335 23.93364
#
# Velocity S-wave (km/s) = 3.27984 3.60865 3.44817
# Velocity P-wave (km/s) = 5.33715 6.07550 5.71825
#
# Compressibility (1/GPa) = 0.03512803
#
# Stress axis : x y z
#
# Youngs Moduli (GPa) = 78.49529 83.35457 34.46289
#
# Poissons Ratio (x) = 0.29573 0.13514
# Poissons Ratio (y) = 0.27849 0.06353
# Poissons Ratio (z) = 0.30781 0.15365
#
# Static dielectric constant tensor:
#      x y z
#    x 3.897550 0.000000 0.279130 
#    y 0.000000 3.763130 0.000000 
#    z 0.279130 0.000000 3.421730 
# 
# 
# High freq. dielectric constant tensor:
#      x y z
#    x 1.797990 0.000000 0.024210 
#    y 0.000000 1.781280 0.000000 
#    z 0.024210 0.000000 1.757740 
# 
# From -- ./inp_files/88003.got.cif
#   From: 2010.06.25/outbox.cif.g09.slc.cpg/sg12_45_cif.got.tgz:88003.got - 2010.06.28 00:19:55.
