data_PCOD8100557
_publ_section_title
;
Structure prediction by ZEFSAII (Michael W. Deem and Ramdas Pophale) SiO2 
 PCOD8100557
Probable space group: C 2/M
;
_chemical_formula_sum "Si O2"
_cell_formula_units_Z 40
_cell_length_a 30.101517
_cell_length_b 14.407664
_cell_length_c 8.754096
_cell_angle_alpha 90.000000
_cell_angle_beta 29.254552
_cell_angle_gamma 90.000000
_cell_volume 1855.355804
_symmetry_space_group_name_H-M "C 2/M"
_symmetry_group_IT_number 12
_symmetry_cell_setting 'monoclinic'
loop_
_space_group_symop_operation_xyz
x,y,z
-x,y,-z
-x,-y,-z
x,-y,z
1/2+x,1/2+y,z
1/2-x,1/2+y,-z
1/2-x,1/2-y,-z
1/2+x,1/2-y,z
loop_
_atom_site_type_symbol
_atom_site_label
_atom_site_fract_x
_atom_site_fract_y
_atom_site_fract_z
Si Si1 0.899246 0.000000 0.234100
Si Si2 0.083532 0.603817 0.833940
Si Si3 0.236317 0.856317 0.220309
Si Si4 0.100753 0.000000 0.129580
Si Si5 0.583532 0.103817 0.164867
Si Si6 0.263684 0.356316 0.138211
O O1 0.847265 0.906585 0.444084
O O2 0.903993 0.000000 0.038021
O O3 0.000000 0.000000 0.000000
O O4 0.050267 0.500000 0.966929
O O5 0.170540 0.595791 0.465135
O O6 0.103908 0.651726 0.938277
O O7 0.000000 0.657539 0.000000
O O8 0.250001 0.750001 0.230007
O O9 0.329461 0.904211 0.988372
O O10 0.219079 0.866872 0.092763
O O11 0.000000 0.000000 0.500000
O O12 0.152735 0.906585 0.027673
O O13 0.500000 0.157539 0.500000
O O14 0.550267 0.000000 0.231466
#
# Coordination Sequence:
#
# PCOD8100557 Si02
#       6
#     4   8   8   4   8   8
#     4  12  26  46  71  98 133 180 228 278 336 400
#     4  10  20  35  59  90 122 160 201 251 313 375
#     4  11  24  42  66  96 131 172 218 271 330 395
#     4  12  26  46  71  98 133 180 228 278 336 400
#     4  10  20  35  59  90 122 160 201 251 313 375
#     4  11  24  42  66  96 131 172 218 271 330 395
#
# _framework density 21.559207000000001
#
# number of rings (size 3 to 8) (size 9 to 14) (size 15 to 20)
#    0.000    1.200    2.000    4.200    0.000    6.400 
#    0.000    0.000    0.000    0.000    0.000    0.000 
#    0.000    0.000    0.000    0.000    0.000    0.000 
#
# Total GULP energy -247855.661245 kJ/mol
# GULP energy per Si atom -12392.783062 kJ/mol
# Density = 2.151014 g / cm^3
# Si number density = 21.559207 Si / 1000 Ang^3
#
#
#
# Elastic Constant Matrix: (Units=GPa)
#
#
# Indices 1 2 3 4 5 6 
#
# 1 154.4446 56.1224 78.6487 0.0000 -1.3998 0.0000
# 2 56.1224 106.2915 50.0382 0.0000 4.5315 0.0000
# 3 78.6487 50.0382 172.5626 0.0000 -12.0933 0.0000
# 4 0.0000 0.0000 0.0000 8.9422 0.0000 9.1818
# 5 -1.3998 4.5315 -12.0933 0.0000 46.8018 0.0000
# 6 0.0000 0.0000 0.0000 9.1818 0.0000 21.2707
#
#
#
# Elastic Compliance Matrix: (Units=1/GPa)
#
#
# Indices 1 2 3 4 5 6 
#
# 1 0.009392 -0.003388 -0.003316 0.000000 -0.000248 0.000000
# 2 -0.003388 0.012287 -0.002148 0.000000 -0.001846 0.000000
# 3 -0.003316 -0.002148 0.008083 0.000000 0.002197 0.000000
# 4 0.000000 0.000000 0.000000 0.200856 0.000000 -0.086703
# 5 -0.000248 -0.001846 0.002197 0.000000 0.022106 0.000000
# 6 0.000000 0.000000 0.000000 -0.086703 0.000000 0.084440
#
#
# Mechanical properties :
#
#
# Convention : Reuss Voigt Hill
#
# Bulk Modulus (GPa) = 82.92597 89.21302 86.06950
# Shear Modulus (GPa) = 13.93202 31.96890 22.95046
#
# Velocity S-wave (km/s) = 2.54485 3.85495 3.26626
# Velocity P-wave (km/s) = 6.86897 7.82844 7.36435
#
# Compressibility (1/GPa) = 0.01205895
#
# Stress axis : x y z
#
# Youngs Moduli (GPa) = 106.47360 81.38848 123.71509
#
# Poissons Ratio (x) = 0.27571 0.41020
# Poissons Ratio (y) = 0.36069 0.26577
# Poissons Ratio (z) = 0.35303 0.17484
#
# Static dielectric constant tensor:
#      x y z
#    x 4.249840 0.000000 0.232600 
#    y 0.000000 4.053910 0.000000 
#    z 0.232600 0.000000 3.937520 
# 
# 
# High freq. dielectric constant tensor:
#      x y z
#    x 1.865960 0.000000 0.007510 
#    y 0.000000 1.821110 0.000000 
#    z 0.007510 0.000000 1.855870 
# 
# From -- ./inp_files/111859.got.cif
#   From: 2010.06.25/outbox.cif.g09.slc.cpg/sg12_56_cif.got.tgz:111859.got - 2010.06.28 00:19:55.
