data_PCOD8100373
_publ_section_title
;
Structure prediction by ZEFSAII (Michael W. Deem and Ramdas Pophale) SiO2 
 PCOD8100373
Probable space group: C 2/M
;
_chemical_formula_sum "Si O2"
_cell_formula_units_Z 48
_cell_length_a 22.563926
_cell_length_b 11.105123
_cell_length_c 12.843938
_cell_angle_alpha 90.000000
_cell_angle_beta 132.188940
_cell_angle_gamma 90.000000
_cell_volume 2384.602030
_symmetry_space_group_name_H-M "C 2/M"
_symmetry_group_IT_number 12
_symmetry_cell_setting 'monoclinic'
loop_
_space_group_symop_operation_xyz
x,y,z
-x,y,-z
-x,-y,-z
x,-y,z
1/2+x,1/2+y,z
1/2-x,1/2+y,-z
1/2-x,1/2-y,-z
1/2+x,1/2-y,z
loop_
_atom_site_type_symbol
_atom_site_label
_atom_site_fract_x
_atom_site_fract_y
_atom_site_fract_z
Si Si1 0.261772 0.358168 0.098107
Si Si2 0.209401 0.131638 0.320203
Si Si3 0.086034 0.134656 0.592302
Si Si4 0.879157 0.704232 0.919082
Si Si5 0.643391 0.287317 0.448616
Si Si6 0.959919 0.365422 0.809658
O O1 0.269085 0.500000 0.065517
O O2 0.342179 0.312842 0.252431
O O3 0.187241 0.361765 0.089624
O O4 0.250000 0.250000 0.000000
O O5 0.153019 0.165036 0.155428
O O6 0.276997 0.231181 0.409186
O O7 0.158971 0.128522 0.367610
O O8 0.245692 0.000000 0.342539
O O9 0.106792 0.131812 0.495185
O O10 0.000000 0.203919 0.500000
O O11 0.073883 0.000000 0.618403
O O12 0.898387 0.631743 0.834767
O O13 0.962261 0.718443 0.079693
O O14 0.584068 0.179788 0.345587
O O15 0.991065 0.500000 0.826659
#
# Coordination Sequence:
#
# PCOD8100373 Si02
#       6
#     8   8   8   8   8   8
#     4  11  24  42  64  87 115 160 206 248 293 349
#     4  10  20  35  58  89 118 150 191 242 299 352
#     4  10  22  41  61  82 115 156 197 240 290 352
#     4  10  20  38  58  86 118 152 192 239 292 356
#     4  10  20  36  58  87 116 149 190 240 292 355
#     4  10  20  35  60  89 117 149 186 238 297 354
#
# _framework density 20.129145000000001
#
# number of rings (size 3 to 8) (size 9 to 14) (size 15 to 20)
#    0.000    1.833    1.667    3.000    2.333    0.667 
#    0.000    7.500    0.000    2.500    0.000    0.000 
#    0.000    0.000    0.000    0.000    0.000    0.000 
#
# Total GULP energy -297332.376781 kJ/mol
# GULP energy per Si atom -12388.849033 kJ/mol
# Density = 2.008333 g / cm^3
# Si number density = 20.129145 Si / 1000 Ang^3
#
#
#
# Elastic Constant Matrix: (Units=GPa)
#
#
# Indices 1 2 3 4 5 6 
#
# 1 92.5838 18.4431 48.8365 0.0000 15.6194 0.0000
# 2 18.4431 80.2231 30.8667 0.0000 -2.0935 0.0000
# 3 48.8365 30.8667 123.0721 0.0000 15.1850 0.0000
# 4 0.0000 0.0000 0.0000 20.4845 0.0000 1.5727
# 5 15.6194 -2.0935 15.1850 0.0000 28.8457 0.0000
# 6 0.0000 0.0000 0.0000 1.5727 0.0000 17.3899
#
#
#
# Elastic Compliance Matrix: (Units=1/GPa)
#
#
# Indices 1 2 3 4 5 6 
#
# 1 0.014529 -0.001693 -0.004658 0.000000 -0.005538 0.000000
# 2 -0.001693 0.014244 -0.003360 0.000000 0.003719 0.000000
# 3 -0.004658 -0.003360 0.011267 0.000000 -0.003653 0.000000
# 4 0.000000 0.000000 0.000000 0.049159 0.000000 -0.004446
# 5 -0.005538 0.003719 -0.003653 0.000000 0.039859 0.000000
# 6 0.000000 0.000000 0.000000 -0.004446 0.000000 0.057907
#
#
# Mechanical properties :
#
#
# Convention : Reuss Voigt Hill
#
# Bulk Modulus (GPa) = 48.49548 54.68572 51.59060
# Shear Modulus (GPa) = 23.44582 26.52622 24.98602
#
# Velocity S-wave (km/s) = 3.41657 3.63409 3.52701
# Velocity P-wave (km/s) = 6.30146 6.69591 6.50168
#
# Compressibility (1/GPa) = 0.02062048
#
# Stress axis : x y z
#
# Youngs Moduli (GPa) = 68.82620 70.20459 88.75642
#
# Poissons Ratio (x) = 0.11884 0.41339
# Poissons Ratio (y) = 0.11651 0.29818
# Poissons Ratio (z) = 0.32056 0.23586
#
# Static dielectric constant tensor:
#      x y z
#    x 3.652190 0.000000 0.219500 
#    y 0.000000 3.434040 0.000000 
#    z 0.219500 0.000000 3.821730 
# 
# 
# High freq. dielectric constant tensor:
#      x y z
#    x 1.775330 0.000000 0.015850 
#    y 0.000000 1.760900 0.000000 
#    z 0.015850 0.000000 1.794660 
# 
# From -- ./inp_files/165833.got.cif
#   From: 2010.06.25/outbox.cif.g09.slc.cpg/sg12_83_cif.got.tgz:165833.got - 2010.06.28 00:19:55.
