data_PCOD8100157
_publ_section_title
;
Structure prediction by ZEFSAII (Michael W. Deem and Ramdas Pophale) SiO2 
 PCOD8100157
Probable space group: C 2/M
;
_chemical_formula_sum "Si O2"
_cell_formula_units_Z 48
_cell_length_a 19.842735
_cell_length_b 8.614857
_cell_length_c 26.457718
_cell_angle_alpha 90.000000
_cell_angle_beta 147.651928
_cell_angle_gamma 90.000000
_cell_volume 2419.945404
_symmetry_space_group_name_H-M "C 2/M"
_symmetry_group_IT_number 12
_symmetry_cell_setting 'monoclinic'
loop_
_space_group_symop_operation_xyz
x,y,z
-x,y,-z
-x,-y,-z
x,-y,z
1/2+x,1/2+y,z
1/2-x,1/2+y,-z
1/2-x,1/2-y,-z
1/2+x,1/2-y,z
loop_
_atom_site_type_symbol
_atom_site_label
_atom_site_fract_x
_atom_site_fract_y
_atom_site_fract_z
Si Si1 0.320265 0.318131 0.911965
Si Si2 0.614281 0.682444 0.423367
Si Si3 0.876478 0.681914 0.738031
Si Si4 0.433743 0.180785 0.888689
Si Si5 0.437982 0.683069 0.222280
Si Si6 0.893583 0.183742 0.468832
O O1 0.317987 0.500000 0.900276
O O2 0.329466 0.230579 0.863878
O O3 0.196285 0.266193 0.863144
O O4 0.438840 0.276870 0.022201
O O5 0.625472 0.500000 0.425245
O O6 0.750000 0.750000 0.500000
O O7 0.515906 0.746797 0.320006
O O8 0.569231 0.731501 0.450714
O O9 0.892240 0.500000 0.736653
O O10 0.879088 0.717919 0.799087
O O11 0.744421 0.748099 0.633005
O O12 0.989841 0.772792 0.783165
O O13 0.464617 0.000000 0.914814
O O14 0.417355 0.500000 0.211763
O O15 0.000000 0.257281 0.500000
O O16 0.890168 0.000000 0.459485
#
# Coordination Sequence:
#
# PCOD8100157 Si02
#       6
#     8   8   8   8   8   8
#     4  11  23  40  62  86 115 154 194 236 293 352
#     4  10  20  35  58  83 115 152 190 234 284 339
#     4  10  21  37  60  87 117 154 193 237 290 345
#     4  10  21  39  63  89 118 149 190 242 292 346
#     4  11  23  37  58  87 119 155 196 242 288 339
#     4   9  18  33  56  84 114 149 189 232 279 338
#
# _framework density 19.835158
#
# number of rings (size 3 to 8) (size 9 to 14) (size 15 to 20)
#    0.000    1.833    1.667    3.500    2.333    2.667 
#    0.000    0.000    0.000    1.000    0.000    0.000 
#    0.000    0.000    0.000    0.000    0.000    0.000 
#
# Total GULP energy -297673.494732 kJ/mol
# GULP energy per Si atom -12403.062281 kJ/mol
# Density = 1.979001 g / cm^3
# Si number density = 19.835158 Si / 1000 Ang^3
#
#
#
# Elastic Constant Matrix: (Units=GPa)
#
#
# Indices 1 2 3 4 5 6 
#
# 1 106.3463 21.3562 23.2839 0.0002 10.4979 0.0001
# 2 21.3562 51.2402 17.6529 0.0000 -2.2371 0.0002
# 3 23.2839 17.6529 57.9769 0.0004 1.7624 0.0002
# 4 0.0002 0.0000 0.0004 22.6182 0.0001 3.3783
# 5 10.4979 -2.2371 1.7624 0.0001 42.9631 0.0000
# 6 0.0001 0.0002 0.0002 3.3783 0.0000 29.7985
#
#
#
# Elastic Compliance Matrix: (Units=1/GPa)
#
#
# Indices 1 2 3 4 5 6 
#
# 1 0.011123 -0.003628 -0.003278 0.000000 -0.002772 0.000000
# 2 -0.003628 0.023072 -0.005639 0.000000 0.002319 0.000000
# 3 -0.003278 -0.005639 0.020292 0.000000 -0.000325 0.000000
# 4 0.000000 0.000000 0.000000 0.044974 0.000000 -0.005099
# 5 -0.002772 0.002319 -0.000325 0.000000 0.024087 0.000000
# 6 0.000000 0.000000 0.000000 -0.005099 0.000000 0.034137
#
#
# Mechanical properties :
#
#
# Convention : Reuss Voigt Hill
#
# Bulk Modulus (GPa) = 34.01653 37.79439 35.90546
# Shear Modulus (GPa) = 25.96427 29.29396 27.62912
#
# Velocity S-wave (km/s) = 3.62194 3.84718 3.73626
# Velocity P-wave (km/s) = 5.88881 6.23137 6.06251
#
# Compressibility (1/GPa) = 0.02939747
#
# Stress axis : x y z
#
# Youngs Moduli (GPa) = 89.90240 43.34327 49.28161
#
# Poissons Ratio (x) = 0.15723 0.16156
# Poissons Ratio (y) = 0.32613 0.27787
# Poissons Ratio (z) = 0.29473 0.24439
#
# Static dielectric constant tensor:
#      x y z
#    x 3.706310 0.000000 -0.059840 
#    y 0.000000 3.431910 0.000000 
#    z -0.059840 0.000000 3.724730 
# 
# 
# High freq. dielectric constant tensor:
#      x y z
#    x 1.784020 0.000000 -0.001110 
#    y 0.000000 1.756090 0.000000 
#    z -0.001110 0.000000 1.776150 
# 
# From -- ./inp_files/365573.got.cif
#   From: 2010.06.25/outbox.cif.g09.slc.cpg/sg12_183_cif.got.tgz:365573.got - 2010.06.28 00:19:55.
