data_PCOD8100295
_publ_section_title
;
Structure prediction by ZEFSAII (Michael W. Deem and Ramdas Pophale) SiO2 
 PCOD8100295
Probable space group: C 2/M
;
_chemical_formula_sum "Si O2"
_cell_formula_units_Z 48
_cell_length_a 24.467192
_cell_length_b 8.787995
_cell_length_c 11.097287
_cell_angle_alpha 90.000000
_cell_angle_beta 71.438757
_cell_angle_gamma 90.000000
_cell_volume 2261.995482
_symmetry_space_group_name_H-M "C 2/M"
_symmetry_group_IT_number 12
_symmetry_cell_setting 'monoclinic'
loop_
_space_group_symop_operation_xyz
x,y,z
-x,y,-z
-x,-y,-z
x,-y,z
1/2+x,1/2+y,z
1/2-x,1/2+y,-z
1/2-x,1/2-y,-z
1/2+x,1/2-y,z
loop_
_atom_site_type_symbol
_atom_site_label
_atom_site_fract_x
_atom_site_fract_y
_atom_site_fract_z
Si Si1 0.229247 0.678174 0.693531
Si Si2 0.470667 0.333651 0.148601
Si Si3 0.835191 0.677821 0.505936
Si Si4 0.574979 0.178118 0.178595
Si Si5 0.861938 0.180539 0.088544
Si Si6 0.434134 0.678780 0.566557
O O1 0.240831 0.500000 0.697953
O O2 0.188719 0.717806 0.608678
O O3 0.290131 0.762468 0.637514
O O4 0.198629 0.741611 0.835353
O O5 0.469399 0.500000 0.214826
O O6 0.507378 0.217312 0.203248
O O7 0.406564 0.272540 0.164664
O O8 0.500000 0.356123 0.000000
O O9 0.845134 0.500000 0.517336
O O10 0.896044 0.765359 0.479665
O O11 0.591530 0.235693 0.299086
O O12 0.584228 0.000000 0.160563
O O13 0.617005 0.259947 0.054988
O O14 0.855365 0.000000 0.085676
O O15 0.500000 0.727496 0.500000
O O16 0.427905 0.500000 0.589438
#
# Coordination Sequence:
#
# PCOD8100295 Si02
#       6
#     8   8   8   8   8   8
#     4  10  21  38  63  93 123 156 198 247 299 353
#     4   8  16  31  50  76 112 153 192 235 286 344
#     4  10  22  41  63  90 122 157 200 249 297 350
#     4  11  22  36  56  84 120 156 197 248 299 354
#     4  10  20  35  58  86 119 157 199 245 297 354
#     4  11  25  43  63  86 118 162 204 243 296 361
#
# _framework density 21.220200999999999
#
# number of rings (size 3 to 8) (size 9 to 14) (size 15 to 20)
#    0.000    2.000    0.000    4.500    2.333    7.000 
#    0.000    0.833    0.000    0.000    0.000    0.000 
#    0.000    0.000    0.000    0.000    0.000    0.000 
#
# Total GULP energy -297635.535459 kJ/mol
# GULP energy per Si atom -12401.480644 kJ/mol
# Density = 2.117190 g / cm^3
# Si number density = 21.220201 Si / 1000 Ang^3
#
#
#
# Elastic Constant Matrix: (Units=GPa)
#
#
# Indices 1 2 3 4 5 6 
#
# 1 82.9769 26.6680 13.5466 0.0000 -11.1543 0.0000
# 2 26.6680 76.8705 19.7450 0.0000 -4.6026 0.0000
# 3 13.5466 19.7450 62.3777 0.0000 -11.6933 0.0000
# 4 0.0000 0.0000 0.0000 27.8580 0.0000 0.8252
# 5 -11.1543 -4.6026 -11.6933 0.0000 32.8694 0.0000
# 6 0.0000 0.0000 0.0000 0.8252 0.0000 33.0881
#
#
#
# Elastic Compliance Matrix: (Units=1/GPa)
#
#
# Indices 1 2 3 4 5 6 
#
# 1 0.014148 -0.004435 -0.000948 0.000000 0.003843 0.000000
# 2 -0.004435 0.015555 -0.004109 0.000000 -0.000788 0.000000
# 3 -0.000948 -0.004109 0.018611 0.000000 0.005724 0.000000
# 4 0.000000 0.000000 0.000000 0.035923 0.000000 -0.000896
# 5 0.003843 -0.000788 0.005724 0.000000 0.033653 0.000000
# 6 0.000000 0.000000 0.000000 -0.000896 0.000000 0.030245
#
#
# Mechanical properties :
#
#
# Convention : Reuss Voigt Hill
#
# Bulk Modulus (GPa) = 34.09349 38.01604 36.05477
# Shear Modulus (GPa) = 28.26520 29.58078 28.92299
#
# Velocity S-wave (km/s) = 3.65361 3.73767 3.69588
# Velocity P-wave (km/s) = 5.82236 6.04821 5.93636
#
# Compressibility (1/GPa) = 0.02933111
#
# Stress axis : x y z
#
# Youngs Moduli (GPa) = 70.68037 64.28598 53.73209
#
# Poissons Ratio (x) = 0.28508 0.05096
# Poissons Ratio (y) = 0.31344 0.22077
# Poissons Ratio (z) = 0.06704 0.26413
#
# Static dielectric constant tensor:
#      x y z
#    x 3.978800 0.000000 -0.106590 
#    y 0.000000 3.713520 0.000000 
#    z -0.106590 0.000000 3.694770 
# 
# 
# High freq. dielectric constant tensor:
#      x y z
#    x 1.820140 0.000000 -0.010640 
#    y 0.000000 1.835120 0.000000 
#    z -0.010640 0.000000 1.827090 
# 
# From -- ./inp_files/172904.got.cif
#   From: 2010.06.25/outbox.cif.g09.slc.cpg/sg12_87_cif.got.tgz:172904.got - 2010.06.28 00:19:55.
