data_PCOD8100034
_publ_section_title
;
Structure prediction by ZEFSAII (Michael W. Deem and Ramdas Pophale) SiO2 
 PCOD8100034
Probable space group: C 2/M
;
_chemical_formula_sum "Si O2"
_cell_formula_units_Z 48
_cell_length_a 17.542407
_cell_length_b 22.521194
_cell_length_c 12.596121
_cell_angle_alpha 90.000000
_cell_angle_beta 26.806544
_cell_angle_gamma 90.000000
_cell_volume 2244.265346
_symmetry_space_group_name_H-M "C 2/M"
_symmetry_group_IT_number 12
_symmetry_cell_setting 'monoclinic'
loop_
_space_group_symop_operation_xyz
x,y,z
-x,y,-z
-x,-y,-z
x,-y,z
1/2+x,1/2+y,z
1/2-x,1/2+y,-z
1/2-x,1/2-y,-z
1/2+x,1/2-y,z
loop_
_atom_site_type_symbol
_atom_site_label
_atom_site_fract_x
_atom_site_fract_y
_atom_site_fract_z
Si Si1 0.586300 0.360120 0.498800
Si Si2 0.203097 0.844293 0.984414
Si Si3 0.166617 0.069316 0.852739
Si Si4 0.822312 0.263622 0.663092
Si Si5 0.923566 0.363438 0.398898
Si Si6 0.638633 0.931843 0.737013
O O1 0.500000 0.385879 0.500000
O O2 0.716242 0.305545 0.312655
O O3 0.681207 0.414226 0.437021
O O4 0.440228 0.330833 0.751897
O O5 0.163239 0.905891 0.975807
O O6 0.192238 0.791056 0.910838
O O7 0.379923 0.852897 0.824389
O O8 0.341200 0.087050 0.577750
O O9 0.158896 0.000000 0.872713
O O10 0.000000 0.093687 0.000000
O O11 0.823373 0.302179 0.552317
O O12 0.000000 0.270463 0.500000
O O13 0.901692 0.385221 0.305740
O O14 0.649075 0.000000 0.682231
O O15 0.500000 0.925849 0.000000
#
# Coordination Sequence:
#
# PCOD8100034 Si02
#       6
#     8   8   8   8   8   8
#     4  11  23  40  63  86 114 156 197 239 292 345
#     4  10  21  37  60  90 119 148 193 242 287 350
#     4  10  20  35  57  85 118 155 194 242 296 343
#     4   8  19  37  60  90 119 147 185 238 295 350
#     4  10  20  38  60  85 118 152 190 242 298 346
#     4  11  25  42  58  82 119 160 201 241 282 340
#
# _framework density 21.387846
#
# number of rings (size 3 to 8) (size 9 to 14) (size 15 to 20)
#    0.000    2.000    0.000    4.000    0.000   12.333 
#    0.000    3.333    0.000    0.000    0.000    0.000 
#    0.000    0.000    0.000    0.000    0.000    0.000 
#
# Total GULP energy -297504.344207 kJ/mol
# GULP energy per Si atom -12396.014342 kJ/mol
# Density = 2.133917 g / cm^3
# Si number density = 21.387846 Si / 1000 Ang^3
#
#
#
# Elastic Constant Matrix: (Units=GPa)
#
#
# Indices 1 2 3 4 5 6 
#
# 1 98.8005 36.3372 19.5984 -0.2398 10.5773 0.1056
# 2 36.3372 62.1111 12.7261 -0.1540 -0.5360 0.0784
# 3 19.5984 12.7261 93.9707 -0.3392 4.3220 0.1492
# 4 -0.2398 -0.1540 -0.3392 17.5855 0.2044 -2.3014
# 5 10.5773 -0.5360 4.3220 0.2044 30.9877 -0.0892
# 6 0.1056 0.0784 0.1492 -2.3014 -0.0892 27.5133
#
#
#
# Elastic Compliance Matrix: (Units=1/GPa)
#
#
# Indices 1 2 3 4 5 6 
#
# 1 0.013798 -0.007782 -0.001611 0.000139 -0.004621 -0.000025
# 2 -0.007782 0.020960 -0.001363 0.000012 0.003209 -0.000011
# 3 -0.001611 -0.001363 0.011211 0.000189 -0.001039 -0.000038
# 4 0.000139 0.000012 0.000189 0.057505 -0.000439 0.004807
# 5 -0.004621 0.003209 -0.001039 -0.000439 0.034052 0.000088
# 6 -0.000025 -0.000011 -0.000038 0.004807 0.000088 0.036749
#
#
# Mechanical properties :
#
#
# Convention : Reuss Voigt Hill
#
# Bulk Modulus (GPa) = 40.88768 43.57840 42.23304
# Shear Modulus (GPa) = 24.51733 27.63200 26.07466
#
# Velocity S-wave (km/s) = 3.38941 3.59827 3.49540
# Velocity P-wave (km/s) = 5.87164 6.13864 6.00663
#
# Compressibility (1/GPa) = 0.02445724
#
# Stress axis : x y z
#
# Youngs Moduli (GPa) = 72.47433 47.71031 89.20077
#
# Poissons Ratio (x) = 0.37127 0.14368
# Poissons Ratio (y) = 0.56398 0.12159
# Poissons Ratio (z) = 0.11674 0.06503
#
# Static dielectric constant tensor:
#      x y z
#    x 3.889460 -0.000180 0.107230 
#    y -0.000180 4.024890 0.000340 
#    z 0.107230 0.000340 3.887560 
# 
# 
# High freq. dielectric constant tensor:
#      x y z
#    x 1.831090 -0.000020 0.012390 
#    y -0.000020 1.835580 0.000020 
#    z 0.012390 0.000020 1.841440 
# 
# From -- ./inp_files/160418.got.cif
#   From: 2010.06.25/outbox.cif.g09.slc.cpg/sg12_81_cif.got.tgz:160418.got - 2010.06.28 00:19:55.
