data_PCOD8100844
_publ_section_title
;
Structure prediction by ZEFSAII (Michael W. Deem and Ramdas Pophale) SiO2 
 PCOD8100844
Probable space group: C 2/M
;
_chemical_formula_sum "Si O2"
_cell_formula_units_Z 60
_cell_length_a 16.529807
_cell_length_b 32.068829
_cell_length_c 6.041416
_cell_angle_alpha 90.000000
_cell_angle_beta 102.406906
_cell_angle_gamma 90.000000
_cell_volume 3127.713572
_symmetry_space_group_name_H-M "C 2/M"
_symmetry_group_IT_number 12
_symmetry_cell_setting 'monoclinic'
loop_
_space_group_symop_operation_xyz
x,y,z
-x,y,-z
-x,-y,-z
x,-y,z
1/2+x,1/2+y,z
1/2-x,1/2+y,-z
1/2-x,1/2-y,-z
1/2+x,1/2-y,z
loop_
_atom_site_type_symbol
_atom_site_label
_atom_site_fract_x
_atom_site_fract_y
_atom_site_fract_z
Si Si1 0.707893 0.171739 0.308259
Si Si2 0.000000 0.796700 0.500000
Si Si3 0.288007 0.624297 0.740681
Si Si4 0.173327 0.407163 0.055341
Si Si5 0.919174 0.744219 0.828962
Si Si6 0.578835 0.047262 0.668725
Si Si7 0.134909 0.818154 0.902122
Si Si8 0.245038 0.453191 0.480105
O O1 0.751568 0.161530 0.566941
O O2 0.644053 0.209317 0.290804
O O3 0.777445 0.182921 0.169504
O O4 0.654402 0.130742 0.210915
O O5 0.942753 0.768268 0.620179
O O6 0.940358 0.825712 0.314360
O O7 0.220721 0.611837 0.877999
O O8 0.309146 0.581976 0.613574
O O9 0.366647 0.644012 0.917819
O O10 0.091124 0.428325 0.907612
O O11 0.227782 0.442451 0.213120
O O12 0.875690 0.774424 0.980047
O O13 0.000000 0.724960 0.000000
O O14 0.500000 0.067630 0.500000
O O15 0.658745 0.049828 0.559331
O O16 0.558042 0.000000 0.720945
O O17 0.282817 0.500000 0.520595
#
# Coordination Sequence:
#
# PCOD8100844 Si02
#       8
#     8   4   8   8   8   8   8   8
#     4  10  20  36  55  76 104 143 182 223 265 313
#     4  10  22  36  54  80 109 140 171 220 268 326
#     4   9  19  33  52  78 102 131 173 217 263 313
#     4   9  18  32  46  68  99 132 175 217 262 310
#     4  10  22  38  53  78 108 141 183 220 263 313
#     4   9  17  29  45  66  92 128 175 222 267 313
#     4  10  20  36  59  79 105 135 179 224 267 317
#     4   9  17  31  50  71  98 131 170 215 261 312
#
# _framework density 19.183343000000001
#
# number of rings (size 3 to 8) (size 9 to 14) (size 15 to 20)
#    0.000    2.533    0.000    1.600    0.000    7.467 
#    7.200    2.000    0.000    0.000    0.000    0.467 
#    0.000   22.933    0.000    8.400    0.000    8.133 
#
# Total GULP energy -371760.208780 kJ/mol
# GULP energy per Si atom -12392.006959 kJ/mol
# Density = 1.913968 g / cm^3
# Si number density = 19.183343 Si / 1000 Ang^3
#
#
#
# Elastic Constant Matrix: (Units=GPa)
#
#
# Indices 1 2 3 4 5 6 
#
# 1 54.0669 40.9531 36.2438 0.0000 10.4386 0.0000
# 2 40.9531 112.8040 68.6380 0.0000 26.2713 0.0000
# 3 36.2438 68.6380 145.8027 0.0000 25.9242 0.0000
# 4 0.0000 0.0000 0.0000 24.2462 0.0000 5.0422
# 5 10.4386 26.2713 25.9242 0.0000 29.7384 0.0000
# 6 0.0000 0.0000 0.0000 5.0422 0.0000 13.9307
#
#
#
# Elastic Compliance Matrix: (Units=1/GPa)
#
#
# Indices 1 2 3 4 5 6 
#
# 1 0.026340 -0.007855 -0.002887 0.000000 0.000210 0.000000
# 2 -0.007855 0.016113 -0.004251 0.000000 -0.007772 0.000000
# 3 -0.002887 -0.004251 0.010331 0.000000 -0.004237 0.000000
# 4 0.000000 0.000000 0.000000 0.044601 0.000000 -0.016143
# 5 0.000210 -0.007772 -0.004237 0.000000 0.044112 0.000000
# 6 0.000000 0.000000 0.000000 -0.016143 0.000000 0.077627
#
#
# Mechanical properties :
#
#
# Convention : Reuss Voigt Hill
#
# Bulk Modulus (GPa) = 43.86380 67.14928 55.50654
# Shear Modulus (GPa) = 19.47727 24.70565 22.09146
#
# Velocity S-wave (km/s) = 3.18987 3.59258 3.39720
# Velocity P-wave (km/s) = 6.04005 7.23110 6.66225
#
# Compressibility (1/GPa) = 0.02279784
#
# Stress axis : x y z
#
# Youngs Moduli (GPa) = 37.96481 62.06086 96.79709
#
# Poissons Ratio (x) = 0.48748 0.27948
# Poissons Ratio (y) = 0.29821 0.41149
# Poissons Ratio (z) = 0.10962 0.26382
#
# Static dielectric constant tensor:
#      x y z
#    x 3.214950 0.000000 0.136060 
#    y 0.000000 3.838280 0.000000 
#    z 0.136060 0.000000 4.047000 
# 
# 
# High freq. dielectric constant tensor:
#      x y z
#    x 1.700180 0.000000 -0.004300 
#    y 0.000000 1.741760 0.000000 
#    z -0.004300 0.000000 1.772870 
# 
# From -- ./inp_files/18329.got.cif
#   From: 2010.06.25/outbox.cif.g09.slc.cpg/sg12_10_cif.got.tgz:18329.got - 2010.06.28 00:19:55.
