data_PCOD8100977
_publ_section_title
;
Structure prediction by ZEFSAII (Michael W. Deem and Ramdas Pophale) SiO2 
 PCOD8100977
Probable space group: C 2/M
;
_chemical_formula_sum "Si O2"
_cell_formula_units_Z 48
_cell_length_a 19.467906
_cell_length_b 9.362858
_cell_length_c 30.115207
_cell_angle_alpha 90.000000
_cell_angle_beta 152.062274
_cell_angle_gamma 90.000000
_cell_volume 2571.780498
_symmetry_space_group_name_H-M "C 2/M"
_symmetry_group_IT_number 12
_symmetry_cell_setting 'monoclinic'
loop_
_space_group_symop_operation_xyz
x,y,z
-x,y,-z
-x,-y,-z
x,-y,z
1/2+x,1/2+y,z
1/2-x,1/2+y,-z
1/2-x,1/2-y,-z
1/2+x,1/2-y,z
loop_
_atom_site_type_symbol
_atom_site_label
_atom_site_fract_x
_atom_site_fract_y
_atom_site_fract_z
Si Si1 0.197012 0.663142 0.927954
Si Si2 0.482717 0.335838 0.039278
Si Si3 0.764862 0.833454 0.577275
Si Si4 0.627459 0.834618 0.277942
Si Si5 0.210064 0.663961 0.226125
Si Si6 0.036539 0.165135 0.391277
O O1 0.181787 0.500000 0.934938
O O2 0.040259 0.718739 0.821617
O O3 0.250000 0.750000 0.000000
O O4 0.312407 0.681353 0.954208
O O5 0.533011 0.500000 0.068840
O O6 0.582502 0.254843 0.131315
O O7 0.500000 0.270549 0.000000
O O8 0.793454 0.761611 0.640671
O O9 0.903367 0.807240 0.623958
O O10 0.620235 0.763594 0.474042
O O11 0.734454 0.000000 0.567116
O O12 0.711206 0.809312 0.279496
O O13 0.634683 0.000000 0.296739
O O14 0.174824 0.500000 0.195444
O O15 0.366380 0.709093 0.295110
O O16 0.058119 0.000000 0.417592
#
# Coordination Sequence:
#
# PCOD8100977 Si02
#       6
#     8   8   8   8   8   8
#     4  10  20  36  56  79 110 147 184 221 265 319
#     4  10  22  37  54  81 114 146 181 224 274 321
#     4  10  21  37  58  84 109 139 180 223 272 326
#     4  10  21  36  56  81 110 145 182 221 269 321
#     4  10  21  38  58  81 108 143 186 225 266 320
#     4   9  20  39  59  80 109 142 179 224 271 322
#
# _framework density 18.664113
#
# number of rings (size 3 to 8) (size 9 to 14) (size 15 to 20)
#    0.000    2.167    1.667    0.500    2.333    3.667 
#    0.000    3.333    0.000    0.000    0.000    0.000 
#    0.000    0.000    0.000    0.000    0.000    0.000 
#
# Total GULP energy -297687.424177 kJ/mol
# GULP energy per Si atom -12403.642674 kJ/mol
# Density = 1.862163 g / cm^3
# Si number density = 18.664113 Si / 1000 Ang^3
#
#
#
# Elastic Constant Matrix: (Units=GPa)
#
#
# Indices 1 2 3 4 5 6 
#
# 1 70.9879 22.5470 14.8798 -0.0010 -1.1495 0.0000
# 2 22.5470 61.3394 26.1028 -0.0007 -9.3358 0.0004
# 3 14.8798 26.1028 51.5430 -0.0008 1.5088 0.0001
# 4 -0.0010 -0.0007 -0.0008 31.6196 0.0002 -3.8185
# 5 -1.1495 -9.3358 1.5088 0.0002 37.0191 0.0000
# 6 0.0000 0.0004 0.0001 -3.8185 0.0000 28.2152
#
#
#
# Elastic Compliance Matrix: (Units=1/GPa)
#
#
# Indices 1 2 3 4 5 6 
#
# 1 0.016145 -0.005189 -0.002012 0.000000 -0.000725 0.000000
# 2 -0.005189 0.023713 -0.010694 0.000000 0.006255 0.000000
# 3 -0.002012 -0.010694 0.025509 0.000000 -0.003799 0.000000
# 4 0.000000 0.000000 0.000000 0.032151 0.000000 0.004351
# 5 -0.000725 0.006255 -0.003799 0.000000 0.028723 0.000000
# 6 0.000000 0.000000 0.000000 0.004351 0.000000 0.036031
#
#
# Mechanical properties :
#
#
# Convention : Reuss Voigt Hill
#
# Bulk Modulus (GPa) = 33.80946 34.54771 34.17858
# Shear Modulus (GPa) = 24.04772 27.39349 25.72060
#
# Velocity S-wave (km/s) = 3.59339 3.83523 3.71627
# Velocity P-wave (km/s) = 5.94732 6.17757 6.06354
#
# Compressibility (1/GPa) = 0.02957752
#
# Stress axis : x y z
#
# Youngs Moduli (GPa) = 61.93910 42.17143 39.20187
#
# Poissons Ratio (x) = 0.21882 0.07887
# Poissons Ratio (y) = 0.32138 0.41922
# Poissons Ratio (z) = 0.12461 0.45098
#
# Static dielectric constant tensor:
#      x y z
#    x 3.597110 0.000000 0.204570 
#    y 0.000000 3.414290 0.000000 
#    z 0.204570 0.000000 3.399150 
# 
# 
# High freq. dielectric constant tensor:
#      x y z
#    x 1.733450 0.000000 0.007740 
#    y 0.000000 1.721350 0.000000 
#    z 0.007740 0.000000 1.722360 
# 
# From -- ./inp_files/230442.got.cif
#   From: 2010.06.25/outbox.cif.g09.slc.cpg/sg12_116_cif.got.tgz:230442.got - 2010.06.28 00:19:55.
