data_PCOD8100788
_publ_section_title
;
Structure prediction by ZEFSAII (Michael W. Deem and Ramdas Pophale) SiO2 
 PCOD8100788
Probable space group: C 2/M
;
_chemical_formula_sum "Si O2"
_cell_formula_units_Z 48
_cell_length_a 15.347942
_cell_length_b 8.860202
_cell_length_c 22.181614
_cell_angle_alpha 90.000000
_cell_angle_beta 121.074301
_cell_angle_gamma 90.000000
_cell_volume 2583.530627
_symmetry_space_group_name_H-M "C 2/M"
_symmetry_group_IT_number 12
_symmetry_cell_setting 'monoclinic'
loop_
_space_group_symop_operation_xyz
x,y,z
-x,y,-z
-x,-y,-z
x,-y,z
1/2+x,1/2+y,z
1/2-x,1/2+y,-z
1/2-x,1/2-y,-z
1/2+x,1/2-y,z
loop_
_atom_site_type_symbol
_atom_site_label
_atom_site_fract_x
_atom_site_fract_y
_atom_site_fract_z
Si Si1 0.601118 0.678160 0.919619
Si Si2 0.719912 0.321799 0.079956
Si Si3 0.873375 0.179370 0.830123
Si Si4 0.743575 0.320539 0.330080
Si Si5 0.330017 0.179298 0.574290
Si Si6 0.027615 0.678498 0.575246
O O1 0.604947 0.500000 0.913571
O O2 0.670256 0.750582 0.892660
O O3 0.488034 0.742178 0.869617
O O4 0.640253 0.727073 0.999726
O O5 0.732411 0.500000 0.086351
O O6 0.680856 0.256816 0.129496
O O7 0.812994 0.235909 0.750094
O O8 0.875253 0.000000 0.833816
O O9 0.737063 0.500000 0.336315
O O10 0.687381 0.242465 0.365549
O O11 0.860282 0.264597 0.366102
O O12 0.250000 0.250000 0.500000
O O13 0.443536 0.228943 0.594144
O O14 0.317262 0.000000 0.568817
O O15 0.028577 0.500000 0.570483
O O16 0.000000 0.748004 0.500000
#
# Coordination Sequence:
#
# PCOD8100788 Si02
#       6
#     8   8   8   8   8   8
#     4   9  17  31  51  76 104 133 169 215 259 296
#     4   9  17  31  52  76 101 134 176 212 248 303
#     4   9  18  32  52  74 100 137 174 207 250 307
#     4  10  20  36  54  74 101 135 173 209 252 306
#     4  11  21  35  56  79 102 130 167 210 256 302
#     4   9  17  32  53  73  96 128 162 199 247 300
#
# _framework density 18.579225000000001
#
# number of rings (size 3 to 8) (size 9 to 14) (size 15 to 20)
#    0.000    2.500    1.667    1.000    0.000    3.333 
#    0.000    6.667    0.000    4.000    0.000    0.000 
#    0.000    0.000    0.000    0.000    0.000    0.000 
#
# Total GULP energy -297585.610178 kJ/mol
# GULP energy per Si atom -12399.400424 kJ/mol
# Density = 1.853694 g / cm^3
# Si number density = 18.579225 Si / 1000 Ang^3
#
#
#
# Elastic Constant Matrix: (Units=GPa)
#
#
# Indices 1 2 3 4 5 6 
#
# 1 208.3301 32.0271 114.5802 0.0000 -3.6628 0.0000
# 2 32.0271 25.2571 26.2047 0.0000 -2.5211 0.0000
# 3 114.5802 26.2047 155.1500 0.0000 0.7080 0.0000
# 4 0.0000 0.0000 0.0000 19.0573 0.0000 -5.6120
# 5 -3.6628 -2.5211 0.7080 0.0000 24.7209 0.0000
# 6 0.0000 0.0000 0.0000 -5.6120 0.0000 28.9912
#
#
#
# Elastic Compliance Matrix: (Units=1/GPa)
#
#
# Indices 1 2 3 4 5 6 
#
# 1 0.008641 -0.005142 -0.005517 0.000000 0.000914 0.000000
# 2 -0.005142 0.051724 -0.004960 0.000000 0.004655 0.000000
# 3 -0.005517 -0.004960 0.011365 0.000000 -0.001649 0.000000
# 4 0.000000 0.000000 0.000000 0.055645 0.000000 0.010772
# 5 0.000914 0.004655 -0.001649 0.000000 0.041109 0.000000
# 6 0.000000 0.000000 0.000000 0.010772 0.000000 0.036578
#
#
# Mechanical properties :
#
#
# Convention : Reuss Voigt Hill
#
# Bulk Modulus (GPa) = 24.69641 81.59570 53.14605
# Shear Modulus (GPa) = 20.01618 28.94890 24.48254
#
# Velocity S-wave (km/s) = 3.28585 3.95160 3.63400
# Velocity P-wave (km/s) = 5.26470 8.05191 6.80259
#
# Compressibility (1/GPa) = 0.04049172
#
# Stress axis : x y z
#
# Youngs Moduli (GPa) = 115.72669 19.33353 87.98783
#
# Poissons Ratio (x) = 0.09941 0.48545
# Poissons Ratio (y) = 0.59504 0.43643
# Poissons Ratio (z) = 0.63849 0.09590
#
# Static dielectric constant tensor:
#      x y z
#    x 3.760030 0.000000 0.004560 
#    y 0.000000 3.034270 0.000000 
#    z 0.004560 0.000000 3.582500 
# 
# 
# High freq. dielectric constant tensor:
#      x y z
#    x 1.738720 0.000000 -0.000990 
#    y 0.000000 1.681900 0.000000 
#    z -0.000990 0.000000 1.720600 
# 
# From -- ./inp_files/261799.got.cif
#   From: 2010.06.25/outbox.cif.g09.slc.cpg/sg12_131_cif.got.tgz:261799.got - 2010.06.28 00:19:55.
