data_PCOD8100117
_publ_section_title
;
Structure prediction by ZEFSAII (Michael W. Deem and Ramdas Pophale) SiO2 
 PCOD8100117
Probable space group: C 2/M
;
_chemical_formula_sum "Si O2"
_cell_formula_units_Z 64
_cell_length_a 17.099514
_cell_length_b 25.020789
_cell_length_c 14.426633
_cell_angle_alpha 90.000000
_cell_angle_beta 149.267097
_cell_angle_gamma 90.000000
_cell_volume 3154.291105
_symmetry_space_group_name_H-M "C 2/M"
_symmetry_group_IT_number 12
_symmetry_cell_setting 'monoclinic'
loop_
_space_group_symop_operation_xyz
x,y,z
-x,y,-z
-x,-y,-z
x,-y,z
1/2+x,1/2+y,z
1/2-x,1/2+y,-z
1/2-x,1/2-y,-z
1/2+x,1/2-y,z
loop_
_atom_site_type_symbol
_atom_site_label
_atom_site_fract_x
_atom_site_fract_y
_atom_site_fract_z
Si Si1 0.852042 0.356630 0.733683
Si Si2 0.163592 0.058195 0.211760
Si Si3 0.811252 0.940695 0.548565
Si Si4 0.077412 0.060366 0.674927
Si Si5 0.689657 0.854636 0.104019
Si Si6 0.178798 0.747461 0.825982
Si Si7 0.816287 0.827896 0.817747
Si Si8 0.316539 0.250692 0.466073
O O1 0.811849 0.398442 0.612867
O O2 0.840359 0.379783 0.825033
O O3 0.734820 0.307780 0.623626
O O4 0.027679 0.340981 0.889923
O O5 0.144399 0.071183 0.300826
O O6 0.244221 0.110244 0.248201
O O7 0.249152 0.000000 0.284751
O O8 0.000000 0.051788 0.000000
O O9 0.961867 0.935139 0.641374
O O10 0.740649 0.000000 0.465797
O O11 0.216447 0.098110 0.849616
O O12 0.000000 0.080750 0.500000
O O13 0.137502 0.000000 0.722451
O O14 0.784898 0.799852 0.197647
O O15 0.250445 0.696711 0.845536
O O16 0.997501 0.742654 0.649010
O O17 0.250000 0.750000 0.000000
O O18 0.755184 0.796657 0.666593
O O19 0.000000 0.825554 0.000000
O O20 0.250000 0.250000 0.500000
#
# Coordination Sequence:
#
# PCOD8100117 Si02
#       8
#     8   8   8   8   8   8   8   8
#     4  11  22  37  58  87 125 167 212 261 320 380
#     4   9  20  39  64  93 123 160 210 263 312 369
#     4  10  20  36  61  91 125 170 220 266 322 388
#     4  10  20  35  57  88 126 169 219 266 318 385
#     4  11  23  37  58  86 128 168 211 262 314 385
#     4  12  26  42  63  92 127 168 211 262 321 384
#     4  11  22  39  64  95 127 163 210 264 314 380
#     4  12  24  40  63  89 125 166 211 263 319 383
#
# _framework density 20.289819999999999
#
# number of rings (size 3 to 8) (size 9 to 14) (size 15 to 20)
#    0.000    1.250    2.500    4.125    0.000    3.500 
#    0.000    1.250    0.000    1.500    0.000    5.250 
#    0.000    0.000    0.000    0.000    0.000    0.000 
#
# Total GULP energy -396618.176759 kJ/mol
# GULP energy per Si atom -12394.318024 kJ/mol
# Density = 2.024364 g / cm^3
# Si number density = 20.289820 Si / 1000 Ang^3
#
#
#
# Elastic Constant Matrix: (Units=GPa)
#
#
# Indices 1 2 3 4 5 6 
#
# 1 104.9967 53.4003 50.5474 0.0000 -4.8377 0.0000
# 2 53.4003 160.5893 57.0898 0.0000 1.1149 0.0000
# 3 50.5474 57.0898 117.3380 0.0000 2.0769 0.0000
# 4 0.0000 0.0000 0.0000 26.5454 0.0000 2.1756
# 5 -4.8377 1.1149 2.0769 0.0000 40.5872 0.0000
# 6 0.0000 0.0000 0.0000 2.1756 0.0000 31.6969
#
#
#
# Elastic Compliance Matrix: (Units=1/GPa)
#
#
# Indices 1 2 3 4 5 6 
#
# 1 0.013131 -0.002850 -0.004303 0.000000 0.001864 0.000000
# 2 -0.002850 0.008148 -0.002729 0.000000 -0.000424 0.000000
# 3 -0.004303 -0.002729 0.011722 0.000000 -0.001038 0.000000
# 4 0.000000 0.000000 0.000000 0.037884 0.000000 -0.002600
# 5 0.001864 -0.000424 -0.001038 0.000000 0.024925 0.000000
# 6 0.000000 0.000000 0.000000 -0.002600 0.000000 0.031727
#
#
# Mechanical properties :
#
#
# Convention : Reuss Voigt Hill
#
# Bulk Modulus (GPa) = 75.54441 78.33322 76.93882
# Shear Modulus (GPa) = 32.95676 34.55834 33.75755
#
# Velocity S-wave (km/s) = 4.03463 4.13150 4.08336
# Velocity P-wave (km/s) = 7.68231 7.83901 7.76105
#
# Compressibility (1/GPa) = 0.01323725
#
# Stress axis : x y z
#
# Youngs Moduli (GPa) = 76.15668 122.73264 85.30718
#
# Poissons Ratio (x) = 0.34973 0.36709
# Poissons Ratio (y) = 0.21701 0.23282
# Poissons Ratio (z) = 0.32771 0.33496
#
# Static dielectric constant tensor:
#      x y z
#    x 3.631660 0.000000 -0.045440 
#    y 0.000000 4.305580 0.000000 
#    z -0.045440 0.000000 3.698460 
# 
# 
# High freq. dielectric constant tensor:
#      x y z
#    x 1.786580 0.000000 -0.012290 
#    y 0.000000 1.804920 0.000000 
#    z -0.012290 0.000000 1.789060 
# 
# From -- ./inp_files/228161.got.cif
#   From: 2010.06.25/outbox.cif.g09.slc.cpg/sg12_115_cif.got.tgz:228161.got - 2010.06.28 00:19:55.
